MODEL 1
REMARK VINA RESULT:     -10.5      0.000      0.000
REMARK SMILES CC(C)[NH2+][C@@]1(C(=O)NCCCCCCNC(=O)c2ccc(-c3c4nc(c(-c5c(F)cc(S(=O)(=O)[O-])cc5F)c5ccc([nH]5)c(-c5c(F)cc(S(=O)(=O)[O-])cc5F)c5nc(c(-c6c(F)cc(S(=O)(=O)[O-])cc6F)c6ccc3[nH]6)C=C5)C=C4)cc2)CCC[C@@H]1CCOC1CCOCC1
REMARK SMILES IDX 11 1 10 2 9 3 8 4 6 5 7 6 5 8 84 9 87 10 85 11 86 12 4 13
REMARK SMILES IDX 2 16 1 17 3 18 88 19 89 20 90 21 91 22 92 23 96 24 93 25
REMARK SMILES IDX 95 26 94 27 12 28 13 29 14 30 15 31 16 32 17 34 18 35 19 36
REMARK SMILES IDX 83 37 20 38 82 39 21 40 22 41 23 42 76 43 24 44 81 45 75 46
REMARK SMILES IDX 77 47 25 48 80 49 74 50 73 51 26 53 60 54 39 55 59 56 40 57
REMARK SMILES IDX 43 58 58 59 78 60 41 61 42 62 57 64 79 65 44 66 27 67 28 68
REMARK SMILES IDX 37 69 29 70 30 71 36 72 38 73 31 74 32 75 33 76 34 77 35 78
REMARK SMILES IDX 61 79 62 80 71 81 63 82 64 83 70 84 72 85 65 86 66 87 67 88
REMARK SMILES IDX 68 89 69 90 45 91 46 92 55 93 47 94 48 95 54 96 56 97 49 98
REMARK SMILES IDX 50 99 51 100 52 101 53 102
REMARK H PARENT 8 7 4 14 4 15 15 33 77 52 43 63
REMARK Flexibility Score: inf
ROOT
ATOM      1  C   UNL A   1      31.091  27.151  24.459  1.00  0.00     0.002 C 
ENDROOT
BRANCH   1   2
ATOM      2  C   UNL A   1      30.282  26.084  25.200  1.00  0.00     0.021 C 
BRANCH   2   3
ATOM      3  C   UNL A   1      30.754  24.653  24.911  1.00  0.00     0.116 C 
BRANCH   3   4
ATOM      4  N   UNL A   1      31.629  24.151  25.951  1.00  0.00    -0.351 N 
ATOM      5  C   UNL A   1      32.885  23.662  26.040  1.00  0.00     0.281 C 
ATOM      6  O   UNL A   1      33.164  23.269  27.189  1.00  0.00    -0.268 OA
ATOM      7  H   UNL A   1      31.189  24.172  26.831  1.00  0.00     0.163 HD
BRANCH   5   8
ATOM      8  C   UNL A   1      33.972  23.512  24.879  1.00  0.00     0.178 C 
ATOM      9  C   UNL A   1      34.386  24.894  24.339  1.00  0.00     0.079 C 
ATOM     10  C   UNL A   1      33.509  22.713  23.625  1.00  0.00     0.063 C 
ATOM     11  C   UNL A   1      33.680  25.095  23.009  1.00  0.00     0.008 C 
ATOM     12  C   UNL A   1      32.991  23.784  22.655  1.00  0.00     0.011 C 
BRANCH   8  13
ATOM     13  N   UNL A   1      35.146  22.931  25.589  1.00  0.00    -0.331 N 
ATOM     14  H   UNL A   1      35.329  23.547  26.380  1.00  0.00     0.347 HD
ATOM     15  H   UNL A   1      34.833  21.974  25.749  1.00  0.00     0.347 HD
BRANCH  13  16
ATOM     16  C   UNL A   1      36.433  22.711  24.947  1.00  0.00     0.176 C 
ATOM     17  C   UNL A   1      37.481  23.461  25.779  1.00  0.00     0.075 C 
ATOM     18  C   UNL A   1      36.827  21.233  24.925  1.00  0.00     0.075 C 
ENDBRANCH  13  16
ENDBRANCH   8  13
BRANCH  10  19
ATOM     19  C   UNL A   1      32.636  21.465  23.949  1.00  0.00     0.039 C 
BRANCH  19  20
ATOM     20  C   UNL A   1      33.201  20.257  24.723  1.00  0.00     0.161 C 
BRANCH  20  21
ATOM     21  O   UNL A   1      32.253  19.272  25.154  1.00  0.00    -0.378 OA
BRANCH  21  22
ATOM     22  C   UNL A   1      32.572  17.964  24.715  1.00  0.00     0.122 C 
ATOM     23  C   UNL A   1      32.688  16.918  25.814  1.00  0.00     0.060 C 
ATOM     24  C   UNL A   1      33.864  17.985  23.916  1.00  0.00     0.060 C 
ATOM     25  C   UNL A   1      32.929  15.572  25.122  1.00  0.00     0.163 C 
ATOM     26  C   UNL A   1      34.052  16.620  23.285  1.00  0.00     0.163 C 
ATOM     27  O   UNL A   1      34.098  15.611  24.295  1.00  0.00    -0.381 OA
ENDBRANCH  21  22
ENDBRANCH  20  21
ENDBRANCH  19  20
ENDBRANCH  10  19
ENDBRANCH   5   8
ENDBRANCH   3   4
ENDBRANCH   2   3
ENDBRANCH   1   2
BRANCH   1  28
ATOM     28  C   UNL A   1      31.843  28.125  25.372  1.00  0.00     0.002 C 
BRANCH  28  29
ATOM     29  C   UNL A   1      33.335  28.289  25.070  1.00  0.00     0.021 C 
BRANCH  29  30
ATOM     30  C   UNL A   1      34.194  28.706  26.262  1.00  0.00     0.116 C 
BRANCH  30  31
ATOM     31  N   UNL A   1      33.957  30.091  26.647  1.00  0.00    -0.352 N 
ATOM     32  C   UNL A   1      34.567  30.844  27.612  1.00  0.00     0.251 C 
ATOM     33  H   UNL A   1      33.253  30.553  26.136  1.00  0.00     0.163 HD
ATOM     34  O   UNL A   1      34.067  31.918  27.963  1.00  0.00    -0.269 OA
BRANCH  32  35
ATOM     35  C   UNL A   1      35.818  30.372  28.233  1.00  0.00     0.039 A 
ATOM     36  C   UNL A   1      37.042  30.673  27.629  1.00  0.00     0.014 A 
ATOM     37  C   UNL A   1      35.778  29.614  29.407  1.00  0.00     0.014 A 
ATOM     38  C   UNL A   1      38.231  30.257  28.233  1.00  0.00     0.010 A 
ATOM     39  C   UNL A   1      36.962  29.262  30.043  1.00  0.00     0.010 A 
ATOM     40  C   UNL A   1      38.200  29.571  29.457  1.00  0.00    -0.014 A 
BRANCH  40  41
ATOM     41  C   UNL A   1      39.445  29.134  30.139  1.00  0.00     0.031 A 
ATOM     42  C   UNL A   1      39.926  29.881  31.354  1.00  0.00     0.074 A 
ATOM     43  C   UNL A   1      40.177  28.130  29.620  1.00  0.00     0.049 A 
ATOM     44  N   UNL A   1      41.049  29.754  32.011  1.00  0.00    -0.248 NA
ATOM     45  C   UNL A   1      39.039  30.932  31.879  1.00  0.00     0.031 C 
ATOM     46  C   UNL A   1      39.832  27.359  28.423  1.00  0.00     0.029 A 
ATOM     47  N   UNL A   1      41.378  27.599  30.021  1.00  0.00    -0.354 N 
ATOM     48  C   UNL A   1      41.011  30.716  33.014  1.00  0.00     0.074 A 
ATOM     49  C   UNL A   1      39.780  31.456  32.843  1.00  0.00     0.031 C 
ATOM     50  C   UNL A   1      40.796  26.454  28.191  1.00  0.00     0.029 A 
ATOM     51  C   UNL A   1      41.846  26.603  29.195  1.00  0.00     0.049 A 
ATOM     52  H   UNL A   1      41.859  27.901  30.824  1.00  0.00     0.167 HD
ATOM     53  C   UNL A   1      41.908  30.945  34.002  1.00  0.00     0.037 A 
ATOM     54  C   UNL A   1      42.996  25.904  29.232  1.00  0.00     0.037 A 
ATOM     55  C   UNL A   1      43.118  30.184  34.177  1.00  0.00     0.049 A 
ATOM     56  C   UNL A   1      43.979  26.174  30.342  1.00  0.00     0.074 A 
ATOM     57  C   UNL A   1      44.077  30.310  35.167  1.00  0.00     0.029 A 
ATOM     58  N   UNL A   1      43.530  29.151  33.349  1.00  0.00    -0.354 N 
ATOM     59  N   UNL A   1      43.908  27.059  31.308  1.00  0.00    -0.248 NA
ATOM     60  C   UNL A   1      45.192  25.346  30.374  1.00  0.00     0.031 C 
ATOM     61  C   UNL A   1      45.087  29.377  34.916  1.00  0.00     0.029 A 
ATOM     62  C   UNL A   1      44.733  28.635  33.799  1.00  0.00     0.049 A 
ATOM     63  H   UNL A   1      43.040  28.832  32.557  1.00  0.00     0.167 HD
ATOM     64  C   UNL A   1      45.047  26.872  32.080  1.00  0.00     0.074 A 
ATOM     65  C   UNL A   1      45.789  25.786  31.474  1.00  0.00     0.031 C 
ATOM     66  C   UNL A   1      45.444  27.536  33.194  1.00  0.00     0.037 A 
BRANCH  53  67
ATOM     67  C   UNL A   1      41.608  32.051  34.975  1.00  0.00     0.058 A 
ATOM     68  C   UNL A   1      40.798  31.838  36.102  1.00  0.00     0.135 A 
ATOM     69  C   UNL A   1      42.161  33.330  34.800  1.00  0.00     0.135 A 
ATOM     70  F   UNL A   1      40.230  30.639  36.310  1.00  0.00    -0.206 F 
ATOM     71  C   UNL A   1      40.523  32.859  37.005  1.00  0.00     0.059 A 
ATOM     72  C   UNL A   1      41.923  34.360  35.707  1.00  0.00     0.059 A 
ATOM     73  F   UNL A   1      42.941  33.591  33.739  1.00  0.00    -0.206 F 
ATOM     74  C   UNL A   1      41.091  34.117  36.798  1.00  0.00     0.060 A 
BRANCH  74  75
ATOM     75  S   UNL A   1      40.728  35.429  37.985  1.00  0.00     0.124 S 
ATOM     76  O   UNL A   1      39.278  35.318  38.106  1.00  0.00    -0.237 OA
ATOM     77  O   UNL A   1      41.494  35.012  39.154  1.00  0.00    -0.237 OA
ATOM     78  O   UNL A   1      41.212  36.633  37.318  1.00  0.00    -0.744 OA
ENDBRANCH  74  75
ENDBRANCH  53  67
BRANCH  54  79
ATOM     79  C   UNL A   1      43.279  24.877  28.194  1.00  0.00     0.058 A 
ATOM     80  C   UNL A   1      42.940  23.531  28.397  1.00  0.00     0.135 A 
ATOM     81  C   UNL A   1      43.884  25.222  26.976  1.00  0.00     0.135 A 
ATOM     82  F   UNL A   1      42.362  23.151  29.546  1.00  0.00    -0.206 F 
ATOM     83  C   UNL A   1      43.212  22.558  27.439  1.00  0.00     0.059 A 
ATOM     84  C   UNL A   1      44.143  24.273  25.992  1.00  0.00     0.059 A 
ATOM     85  F   UNL A   1      44.209  26.500  26.723  1.00  0.00    -0.206 F 
ATOM     86  C   UNL A   1      43.814  22.940  26.240  1.00  0.00     0.060 A 
BRANCH  86  87
ATOM     87  S   UNL A   1      44.129  21.677  24.987  1.00  0.00     0.124 S 
ATOM     88  O   UNL A   1      43.038  20.741  25.235  1.00  0.00    -0.237 OA
ATOM     89  O   UNL A   1      44.043  22.445  23.749  1.00  0.00    -0.237 OA
ATOM     90  O   UNL A   1      45.465  21.196  25.326  1.00  0.00    -0.744 OA
ENDBRANCH  86  87
ENDBRANCH  54  79
BRANCH  66  91
ATOM     91  C   UNL A   1      46.708  27.079  33.867  1.00  0.00     0.058 A 
ATOM     92  C   UNL A   1      46.705  26.064  34.835  1.00  0.00     0.135 A 
ATOM     93  C   UNL A   1      47.946  27.613  33.476  1.00  0.00     0.135 A 
ATOM     94  F   UNL A   1      45.547  25.525  35.248  1.00  0.00    -0.206 F 
ATOM     95  C   UNL A   1      47.888  25.602  35.403  1.00  0.00     0.059 A 
ATOM     96  C   UNL A   1      49.143  27.148  34.011  1.00  0.00     0.059 A 
ATOM     97  F   UNL A   1      48.003  28.579  32.547  1.00  0.00    -0.206 F 
ATOM     98  C   UNL A   1      49.102  26.146  34.981  1.00  0.00     0.060 A 
BRANCH  98  99
ATOM     99  S   UNL A   1      50.633  25.500  35.686  1.00  0.00     0.124 S 
ATOM    100  O   UNL A   1      50.774  26.321  36.885  1.00  0.00    -0.237 OA
ATOM    101  O   UNL A   1      50.303  24.096  35.915  1.00  0.00    -0.237 OA
ATOM    102  O   UNL A   1      51.620  25.743  34.639  1.00  0.00    -0.744 OA
ENDBRANCH  98  99
ENDBRANCH  66  91
ENDBRANCH  40  41
ENDBRANCH  32  35
ENDBRANCH  30  31
ENDBRANCH  29  30
ENDBRANCH  28  29
ENDBRANCH   1  28
TORSDOF 22
ENDMDL
MODEL 2
REMARK VINA RESULT:     -10.3      2.979      9.053
REMARK SMILES CC(C)[NH2+][C@@]1(C(=O)NCCCCCCNC(=O)c2ccc(-c3c4nc(c(-c5c(F)cc(S(=O)(=O)[O-])cc5F)c5ccc([nH]5)c(-c5c(F)cc(S(=O)(=O)[O-])cc5F)c5nc(c(-c6c(F)cc(S(=O)(=O)[O-])cc6F)c6ccc3[nH]6)C=C5)C=C4)cc2)CCC[C@@H]1CCOC1CCOCC1
REMARK SMILES IDX 11 1 10 2 9 3 8 4 6 5 7 6 5 8 84 9 87 10 85 11 86 12 4 13
REMARK SMILES IDX 2 16 1 17 3 18 88 19 89 20 90 21 91 22 92 23 96 24 93 25
REMARK SMILES IDX 95 26 94 27 12 28 13 29 14 30 15 31 16 32 17 34 18 35 19 36
REMARK SMILES IDX 83 37 20 38 82 39 21 40 22 41 23 42 76 43 24 44 81 45 75 46
REMARK SMILES IDX 77 47 25 48 80 49 74 50 73 51 26 53 60 54 39 55 59 56 40 57
REMARK SMILES IDX 43 58 58 59 78 60 41 61 42 62 57 64 79 65 44 66 27 67 28 68
REMARK SMILES IDX 37 69 29 70 30 71 36 72 38 73 31 74 32 75 33 76 34 77 35 78
REMARK SMILES IDX 61 79 62 80 71 81 63 82 64 83 70 84 72 85 65 86 66 87 67 88
REMARK SMILES IDX 68 89 69 90 45 91 46 92 55 93 47 94 48 95 54 96 56 97 49 98
REMARK SMILES IDX 50 99 51 100 52 101 53 102
REMARK H PARENT 8 7 4 14 4 15 15 33 77 52 43 63
REMARK Flexibility Score: inf
ROOT
ATOM      1  C   UNL A   1      37.586  21.739  25.709  1.00  0.00     0.002 C 
ENDROOT
BRANCH   1   2
ATOM      2  C   UNL A   1      36.951  21.783  24.317  1.00  0.00     0.021 C 
BRANCH   2   3
ATOM      3  C   UNL A   1      36.720  23.209  23.799  1.00  0.00     0.116 C 
BRANCH   3   4
ATOM      4  N   UNL A   1      35.532  23.299  22.975  1.00  0.00    -0.351 N 
ATOM      5  C   UNL A   1      34.240  23.660  23.134  1.00  0.00     0.281 C 
ATOM      6  O   UNL A   1      33.563  23.476  22.104  1.00  0.00    -0.268 OA
ATOM      7  H   UNL A   1      35.717  23.024  22.048  1.00  0.00     0.163 HD
BRANCH   5   8
ATOM      8  C   UNL A   1      33.526  24.230  24.444  1.00  0.00     0.178 C 
ATOM      9  C   UNL A   1      34.497  25.108  25.254  1.00  0.00     0.079 C 
ATOM     10  C   UNL A   1      33.019  23.157  25.452  1.00  0.00     0.063 C 
ATOM     11  C   UNL A   1      34.975  24.289  26.440  1.00  0.00     0.008 C 
ATOM     12  C   UNL A   1      34.170  22.997  26.456  1.00  0.00     0.011 C 
BRANCH   8  13
ATOM     13  N   UNL A   1      32.463  25.115  23.891  1.00  0.00    -0.331 N 
ATOM     14  H   UNL A   1      32.888  26.038  23.796  1.00  0.00     0.347 HD
ATOM     15  H   UNL A   1      32.178  24.597  23.061  1.00  0.00     0.347 HD
BRANCH  13  16
ATOM     16  C   UNL A   1      31.186  25.330  24.552  1.00  0.00     0.176 C 
ATOM     17  C   UNL A   1      31.297  26.651  25.324  1.00  0.00     0.075 C 
ATOM     18  C   UNL A   1      30.032  25.469  23.557  1.00  0.00     0.075 C 
ENDBRANCH  13  16
ENDBRANCH   8  13
BRANCH  10  19
ATOM     19  C   UNL A   1      32.385  21.901  24.785  1.00  0.00     0.039 C 
BRANCH  19  20
ATOM     20  C   UNL A   1      32.571  20.487  25.372  1.00  0.00     0.161 C 
BRANCH  20  21
ATOM     21  O   UNL A   1      32.035  19.400  24.607  1.00  0.00    -0.378 OA
BRANCH  21  22
ATOM     22  C   UNL A   1      32.928  18.306  24.496  1.00  0.00     0.122 C 
ATOM     23  C   UNL A   1      32.973  17.638  23.129  1.00  0.00     0.060 C 
ATOM     24  C   UNL A   1      32.601  17.259  25.546  1.00  0.00     0.060 C 
ATOM     25  C   UNL A   1      34.065  16.565  23.196  1.00  0.00     0.163 C 
ATOM     26  C   UNL A   1      33.705  16.220  25.537  1.00  0.00     0.163 C 
ATOM     27  O   UNL A   1      33.810  15.623  24.244  1.00  0.00    -0.381 OA
ENDBRANCH  21  22
ENDBRANCH  20  21
ENDBRANCH  19  20
ENDBRANCH  10  19
ENDBRANCH   5   8
ENDBRANCH   3   4
ENDBRANCH   2   3
ENDBRANCH   1   2
BRANCH   1  28
ATOM     28  C   UNL A   1      38.923  22.478  25.820  1.00  0.00     0.002 C 
BRANCH  28  29
ATOM     29  C   UNL A   1      39.893  21.926  26.869  1.00  0.00     0.021 C 
BRANCH  29  30
ATOM     30  C   UNL A   1      40.963  22.907  27.340  1.00  0.00     0.116 C 
BRANCH  30  31
ATOM     31  N   UNL A   1      41.586  23.610  26.226  1.00  0.00    -0.352 N 
ATOM     32  C   UNL A   1      41.813  24.949  26.057  1.00  0.00     0.251 C 
ATOM     33  H   UNL A   1      41.888  23.037  25.484  1.00  0.00     0.163 HD
ATOM     34  O   UNL A   1      42.125  25.385  24.945  1.00  0.00    -0.269 OA
BRANCH  32  35
ATOM     35  C   UNL A   1      41.683  25.868  27.203  1.00  0.00     0.039 A 
ATOM     36  C   UNL A   1      42.674  26.825  27.433  1.00  0.00     0.014 A 
ATOM     37  C   UNL A   1      40.584  25.768  28.062  1.00  0.00     0.014 A 
ATOM     38  C   UNL A   1      42.536  27.719  28.497  1.00  0.00     0.010 A 
ATOM     39  C   UNL A   1      40.414  26.703  29.077  1.00  0.00     0.010 A 
ATOM     40  C   UNL A   1      41.393  27.681  29.311  1.00  0.00    -0.014 A 
BRANCH  40  41
ATOM     41  C   UNL A   1      41.203  28.631  30.436  1.00  0.00     0.031 A 
ATOM     42  C   UNL A   1      42.041  28.486  31.678  1.00  0.00     0.074 A 
ATOM     43  C   UNL A   1      40.231  29.561  30.373  1.00  0.00     0.049 A 
ATOM     44  N   UNL A   1      41.943  29.116  32.819  1.00  0.00    -0.248 NA
ATOM     45  C   UNL A   1      43.111  27.475  31.641  1.00  0.00     0.031 C 
ATOM     46  C   UNL A   1      39.330  29.769  29.237  1.00  0.00     0.029 A 
ATOM     47  N   UNL A   1      39.823  30.492  31.295  1.00  0.00    -0.354 N 
ATOM     48  C   UNL A   1      42.924  28.568  33.639  1.00  0.00     0.074 A 
ATOM     49  C   UNL A   1      43.568  27.517  32.883  1.00  0.00     0.031 C 
ATOM     50  C   UNL A   1      38.479  30.766  29.529  1.00  0.00     0.029 A 
ATOM     51  C   UNL A   1      38.745  31.242  30.884  1.00  0.00     0.049 A 
ATOM     52  H   UNL A   1      40.259  30.612  32.169  1.00  0.00     0.167 HD
ATOM     53  C   UNL A   1      43.272  28.927  34.897  1.00  0.00     0.037 A 
ATOM     54  C   UNL A   1      38.042  32.190  31.531  1.00  0.00     0.037 A 
ATOM     55  C   UNL A   1      42.641  29.994  35.630  1.00  0.00     0.049 A 
ATOM     56  C   UNL A   1      38.448  32.575  32.930  1.00  0.00     0.074 A 
ATOM     57  C   UNL A   1      42.941  30.462  36.897  1.00  0.00     0.029 A 
ATOM     58  N   UNL A   1      41.587  30.762  35.159  1.00  0.00    -0.354 N 
ATOM     59  N   UNL A   1      39.406  32.076  33.675  1.00  0.00    -0.248 NA
ATOM     60  C   UNL A   1      37.688  33.655  33.572  1.00  0.00     0.031 C 
ATOM     61  C   UNL A   1      42.046  31.490  37.206  1.00  0.00     0.029 A 
ATOM     62  C   UNL A   1      41.219  31.696  36.112  1.00  0.00     0.049 A 
ATOM     63  H   UNL A   1      41.162  30.657  34.277  1.00  0.00     0.167 HD
ATOM     64  C   UNL A   1      39.385  32.803  34.859  1.00  0.00     0.074 A 
ATOM     65  C   UNL A   1      38.324  33.780  34.729  1.00  0.00     0.031 C 
ATOM     66  C   UNL A   1      40.175  32.677  35.954  1.00  0.00     0.037 A 
BRANCH  53  67
ATOM     67  C   UNL A   1      44.393  28.170  35.553  1.00  0.00     0.058 A 
ATOM     68  C   UNL A   1      44.151  27.016  36.316  1.00  0.00     0.135 A 
ATOM     69  C   UNL A   1      45.727  28.581  35.394  1.00  0.00     0.135 A 
ATOM     70  F   UNL A   1      42.895  26.587  36.515  1.00  0.00    -0.206 F 
ATOM     71  C   UNL A   1      45.188  26.312  36.919  1.00  0.00     0.059 A 
ATOM     72  C   UNL A   1      46.783  27.875  35.965  1.00  0.00     0.059 A 
ATOM     73  F   UNL A   1      46.016  29.679  34.677  1.00  0.00    -0.206 F 
ATOM     74  C   UNL A   1      46.500  26.750  36.738  1.00  0.00     0.060 A 
BRANCH  74  75
ATOM     75  S   UNL A   1      47.834  25.819  37.523  1.00  0.00     0.124 S 
ATOM     76  O   UNL A   1      49.013  26.477  36.968  1.00  0.00    -0.237 OA
ATOM     77  O   UNL A   1      47.587  26.058  38.942  1.00  0.00    -0.237 OA
ATOM     78  O   UNL A   1      47.606  24.451  37.070  1.00  0.00    -0.744 OA
ENDBRANCH  74  75
ENDBRANCH  53  67
BRANCH  54  79
ATOM     79  C   UNL A   1      36.888  32.849  30.862  1.00  0.00     0.058 A 
ATOM     80  C   UNL A   1      35.572  32.433  31.112  1.00  0.00     0.135 A 
ATOM     81  C   UNL A   1      37.077  33.914  29.968  1.00  0.00     0.135 A 
ATOM     82  F   UNL A   1      35.339  31.417  31.957  1.00  0.00    -0.206 F 
ATOM     83  C   UNL A   1      34.485  33.031  30.482  1.00  0.00     0.059 A 
ATOM     84  C   UNL A   1      36.005  34.547  29.346  1.00  0.00     0.059 A 
ATOM     85  F   UNL A   1      38.314  34.366  29.710  1.00  0.00    -0.206 F 
ATOM     86  C   UNL A   1      34.713  34.089  29.600  1.00  0.00     0.060 A 
BRANCH  86  87
ATOM     87  S   UNL A   1      33.294  34.885  28.816  1.00  0.00     0.124 S 
ATOM     88  O   UNL A   1      33.927  36.010  28.138  1.00  0.00    -0.237 OA
ATOM     89  O   UNL A   1      32.784  33.824  27.953  1.00  0.00    -0.237 OA
ATOM     90  O   UNL A   1      32.437  35.229  29.947  1.00  0.00    -0.744 OA
ENDBRANCH  86  87
ENDBRANCH  54  79
BRANCH  66  91
ATOM     91  C   UNL A   1      39.965  33.648  37.081  1.00  0.00     0.058 A 
ATOM     92  C   UNL A   1      40.660  34.865  37.149  1.00  0.00     0.135 A 
ATOM     93  C   UNL A   1      38.995  33.389  38.063  1.00  0.00     0.135 A 
ATOM     94  F   UNL A   1      41.602  35.158  36.238  1.00  0.00    -0.206 F 
ATOM     95  C   UNL A   1      40.410  35.787  38.161  1.00  0.00     0.059 A 
ATOM     96  C   UNL A   1      38.710  34.307  39.068  1.00  0.00     0.059 A 
ATOM     97  F   UNL A   1      38.296  32.243  38.037  1.00  0.00    -0.206 F 
ATOM     98  C   UNL A   1      39.430  35.501  39.113  1.00  0.00     0.060 A 
BRANCH  98  99
ATOM     99  S   UNL A   1      39.076  36.729  40.388  1.00  0.00     0.124 S 
ATOM    100  O   UNL A   1      38.583  37.848  39.590  1.00  0.00    -0.237 OA
ATOM    101  O   UNL A   1      38.080  36.048  41.209  1.00  0.00    -0.237 OA
ATOM    102  O   UNL A   1      40.371  36.938  41.028  1.00  0.00    -0.744 OA
ENDBRANCH  98  99
ENDBRANCH  66  91
ENDBRANCH  40  41
ENDBRANCH  32  35
ENDBRANCH  30  31
ENDBRANCH  29  30
ENDBRANCH  28  29
ENDBRANCH   1  28
TORSDOF 22
ENDMDL
MODEL 3
REMARK VINA RESULT:     -10.2      5.149      7.704
REMARK SMILES CC(C)[NH2+][C@@]1(C(=O)NCCCCCCNC(=O)c2ccc(-c3c4nc(c(-c5c(F)cc(S(=O)(=O)[O-])cc5F)c5ccc([nH]5)c(-c5c(F)cc(S(=O)(=O)[O-])cc5F)c5nc(c(-c6c(F)cc(S(=O)(=O)[O-])cc6F)c6ccc3[nH]6)C=C5)C=C4)cc2)CCC[C@@H]1CCOC1CCOCC1
REMARK SMILES IDX 11 1 10 2 9 3 8 4 6 5 7 6 5 8 84 9 87 10 85 11 86 12 4 13
REMARK SMILES IDX 2 16 1 17 3 18 88 19 89 20 90 21 91 22 92 23 96 24 93 25
REMARK SMILES IDX 95 26 94 27 12 28 13 29 14 30 15 31 16 32 17 34 18 35 19 36
REMARK SMILES IDX 83 37 20 38 82 39 21 40 22 41 23 42 76 43 24 44 81 45 75 46
REMARK SMILES IDX 77 47 25 48 80 49 74 50 73 51 26 53 60 54 39 55 59 56 40 57
REMARK SMILES IDX 43 58 58 59 78 60 41 61 42 62 57 64 79 65 44 66 27 67 28 68
REMARK SMILES IDX 37 69 29 70 30 71 36 72 38 73 31 74 32 75 33 76 34 77 35 78
REMARK SMILES IDX 61 79 62 80 71 81 63 82 64 83 70 84 72 85 65 86 66 87 67 88
REMARK SMILES IDX 68 89 69 90 45 91 46 92 55 93 47 94 48 95 54 96 56 97 49 98
REMARK SMILES IDX 50 99 51 100 52 101 53 102
REMARK H PARENT 8 7 4 14 4 15 15 33 77 52 43 63
REMARK Flexibility Score: inf
ROOT
ATOM      1  C   UNL A   1      33.770  32.132  28.352  1.00  0.00     0.002 C 
ENDROOT
BRANCH   1   2
ATOM      2  C   UNL A   1      33.994  30.985  27.365  1.00  0.00     0.021 C 
BRANCH   2   3
ATOM      3  C   UNL A   1      32.742  30.629  26.552  1.00  0.00     0.116 C 
BRANCH   3   4
ATOM      4  N   UNL A   1      32.026  29.508  27.124  1.00  0.00    -0.351 N 
ATOM      5  C   UNL A   1      31.736  28.235  26.777  1.00  0.00     0.281 C 
ATOM      6  O   UNL A   1      30.988  27.674  27.601  1.00  0.00    -0.268 OA
ATOM      7  H   UNL A   1      31.649  29.735  28.005  1.00  0.00     0.163 HD
BRANCH   5   8
ATOM      8  C   UNL A   1      32.198  27.436  25.474  1.00  0.00     0.178 C 
ATOM      9  C   UNL A   1      33.734  27.343  25.409  1.00  0.00     0.079 C 
ATOM     10  C   UNL A   1      31.776  28.066  24.115  1.00  0.00     0.063 C 
ATOM     11  C   UNL A   1      34.210  28.357  24.384  1.00  0.00     0.008 C 
ATOM     12  C   UNL A   1      32.976  28.931  23.702  1.00  0.00     0.011 C 
BRANCH   8  13
ATOM     13  N   UNL A   1      31.669  26.063  25.714  1.00  0.00    -0.331 N 
ATOM     14  H   UNL A   1      32.095  25.747  26.586  1.00  0.00     0.347 HD
ATOM     15  H   UNL A   1      30.663  26.222  25.666  1.00  0.00     0.347 HD
BRANCH  13  16
ATOM     16  C   UNL A   1      31.837  24.971  24.768  1.00  0.00     0.176 C 
ATOM     17  C   UNL A   1      32.081  23.700  25.591  1.00  0.00     0.075 C 
ATOM     18  C   UNL A   1      30.586  24.742  23.918  1.00  0.00     0.075 C 
ENDBRANCH  13  16
ENDBRANCH   8  13
BRANCH  10  19
ATOM     19  C   UNL A   1      30.340  28.670  24.108  1.00  0.00     0.039 C 
BRANCH  19  20
ATOM     20  C   UNL A   1      29.301  28.282  23.037  1.00  0.00     0.161 C 
BRANCH  20  21
ATOM     21  O   UNL A   1      28.143  29.121  22.934  1.00  0.00    -0.378 OA
BRANCH  21  22
ATOM     22  C   UNL A   1      28.455  30.456  22.578  1.00  0.00     0.122 C 
ATOM     23  C   UNL A   1      27.986  31.519  23.561  1.00  0.00     0.060 C 
ATOM     24  C   UNL A   1      27.892  30.772  21.203  1.00  0.00     0.060 C 
ATOM     25  C   UNL A   1      28.513  32.862  23.046  1.00  0.00     0.163 C 
ATOM     26  C   UNL A   1      28.431  32.121  20.771  1.00  0.00     0.163 C 
ATOM     27  O   UNL A   1      28.058  33.127  21.714  1.00  0.00    -0.381 OA
ENDBRANCH  21  22
ENDBRANCH  20  21
ENDBRANCH  19  20
ENDBRANCH  10  19
ENDBRANCH   5   8
ENDBRANCH   3   4
ENDBRANCH   2   3
ENDBRANCH   1   2
BRANCH   1  28
ATOM     28  C   UNL A   1      34.476  33.439  27.978  1.00  0.00     0.002 C 
BRANCH  28  29
ATOM     29  C   UNL A   1      35.448  33.985  29.028  1.00  0.00     0.021 C 
BRANCH  29  30
ATOM     30  C   UNL A   1      36.547  33.016  29.456  1.00  0.00     0.116 C 
BRANCH  30  31
ATOM     31  N   UNL A   1      36.082  32.077  30.468  1.00  0.00    -0.352 N 
ATOM     32  C   UNL A   1      36.615  30.877  30.854  1.00  0.00     0.251 C 
ATOM     33  H   UNL A   1      35.263  32.345  30.945  1.00  0.00     0.163 HD
ATOM     34  O   UNL A   1      35.950  30.104  31.551  1.00  0.00    -0.269 OA
BRANCH  32  35
ATOM     35  C   UNL A   1      37.981  30.510  30.438  1.00  0.00     0.039 A 
ATOM     36  C   UNL A   1      38.989  30.404  31.400  1.00  0.00     0.014 A 
ATOM     37  C   UNL A   1      38.268  30.289  29.088  1.00  0.00     0.014 A 
ATOM     38  C   UNL A   1      40.276  30.022  31.012  1.00  0.00     0.010 A 
ATOM     39  C   UNL A   1      39.530  29.841  28.713  1.00  0.00     0.010 A 
ATOM     40  C   UNL A   1      40.549  29.714  29.670  1.00  0.00    -0.014 A 
BRANCH  40  41
ATOM     41  C   UNL A   1      41.898  29.283  29.228  1.00  0.00     0.031 A 
ATOM     42  C   UNL A   1      43.006  30.298  29.130  1.00  0.00     0.074 A 
ATOM     43  C   UNL A   1      42.103  28.010  28.838  1.00  0.00     0.049 A 
ATOM     44  N   UNL A   1      44.210  30.162  28.640  1.00  0.00    -0.248 NA
ATOM     45  C   UNL A   1      42.707  31.653  29.622  1.00  0.00     0.031 C 
ATOM     46  C   UNL A   1      41.095  26.947  28.849  1.00  0.00     0.029 A 
ATOM     47  N   UNL A   1      43.224  27.398  28.334  1.00  0.00    -0.354 N 
ATOM     48  C   UNL A   1      44.805  31.415  28.748  1.00  0.00     0.074 A 
ATOM     49  C   UNL A   1      43.811  32.309  29.298  1.00  0.00     0.031 C 
ATOM     50  C   UNL A   1      41.643  25.816  28.379  1.00  0.00     0.029 A 
ATOM     51  C   UNL A   1      43.028  26.079  27.996  1.00  0.00     0.049 A 
ATOM     52  H   UNL A   1      44.086  27.858  28.225  1.00  0.00     0.167 HD
ATOM     53  C   UNL A   1      46.073  31.778  28.440  1.00  0.00     0.037 A 
ATOM     54  C   UNL A   1      43.862  25.189  27.425  1.00  0.00     0.037 A 
ATOM     55  C   UNL A   1      47.062  30.873  27.917  1.00  0.00     0.049 A 
ATOM     56  C   UNL A   1      45.269  25.615  27.093  1.00  0.00     0.074 A 
ATOM     57  C   UNL A   1      48.385  31.131  27.606  1.00  0.00     0.029 A 
ATOM     58  N   UNL A   1      46.838  29.533  27.636  1.00  0.00    -0.354 N 
ATOM     59  N   UNL A   1      45.828  26.793  27.241  1.00  0.00    -0.248 NA
ATOM     60  C   UNL A   1      46.159  24.594  26.526  1.00  0.00     0.031 C 
ATOM     61  C   UNL A   1      48.952  29.956  27.103  1.00  0.00     0.029 A 
ATOM     62  C   UNL A   1      47.996  28.953  27.148  1.00  0.00     0.049 A 
ATOM     63  H   UNL A   1      45.982  29.065  27.763  1.00  0.00     0.167 HD
ATOM     64  C   UNL A   1      47.144  26.645  26.819  1.00  0.00     0.074 A 
ATOM     65  C   UNL A   1      47.299  25.263  26.414  1.00  0.00     0.031 C 
ATOM     66  C   UNL A   1      48.136  27.568  26.773  1.00  0.00     0.037 A 
BRANCH  53  67
ATOM     67  C   UNL A   1      46.463  33.211  28.674  1.00  0.00     0.058 A 
ATOM     68  C   UNL A   1      46.305  34.187  27.677  1.00  0.00     0.135 A 
ATOM     69  C   UNL A   1      46.970  33.624  29.917  1.00  0.00     0.135 A 
ATOM     70  F   UNL A   1      45.840  33.847  26.464  1.00  0.00    -0.206 F 
ATOM     71  C   UNL A   1      46.661  35.514  27.894  1.00  0.00     0.059 A 
ATOM     72  C   UNL A   1      47.307  34.952  30.166  1.00  0.00     0.059 A 
ATOM     73  F   UNL A   1      47.144  32.732  30.907  1.00  0.00    -0.206 F 
ATOM     74  C   UNL A   1      47.162  35.886  29.142  1.00  0.00     0.060 A 
BRANCH  74  75
ATOM     75  S   UNL A   1      47.612  37.614  29.408  1.00  0.00     0.124 S 
ATOM     76  O   UNL A   1      48.960  37.652  28.848  1.00  0.00    -0.237 OA
ATOM     77  O   UNL A   1      46.591  38.324  28.644  1.00  0.00    -0.237 OA
ATOM     78  O   UNL A   1      47.530  37.768  30.856  1.00  0.00    -0.744 OA
ENDBRANCH  74  75
ENDBRANCH  53  67
BRANCH  54  79
ATOM     79  C   UNL A   1      43.396  23.806  27.140  1.00  0.00     0.058 A 
ATOM     80  C   UNL A   1      42.861  23.466  25.888  1.00  0.00     0.135 A 
ATOM     81  C   UNL A   1      43.484  22.794  28.108  1.00  0.00     0.135 A 
ATOM     82  F   UNL A   1      42.754  24.398  24.930  1.00  0.00    -0.206 F 
ATOM     83  C   UNL A   1      42.408  22.179  25.613  1.00  0.00     0.059 A 
ATOM     84  C   UNL A   1      43.063  21.494  27.849  1.00  0.00     0.059 A 
ATOM     85  F   UNL A   1      44.008  23.061  29.315  1.00  0.00    -0.206 F 
ATOM     86  C   UNL A   1      42.514  21.199  26.602  1.00  0.00     0.060 A 
BRANCH  86  87
ATOM     87  S   UNL A   1      41.959  19.523  26.223  1.00  0.00     0.124 S 
ATOM     88  O   UNL A   1      40.515  19.708  26.121  1.00  0.00    -0.237 OA
ATOM     89  O   UNL A   1      42.658  19.243  24.973  1.00  0.00    -0.237 OA
ATOM     90  O   UNL A   1      42.417  18.751  27.375  1.00  0.00    -0.744 OA
ENDBRANCH  86  87
ENDBRANCH  54  79
BRANCH  66  91
ATOM     91  C   UNL A   1      49.494  27.110  26.320  1.00  0.00     0.058 A 
ATOM     92  C   UNL A   1      50.434  26.582  27.218  1.00  0.00     0.135 A 
ATOM     93  C   UNL A   1      49.826  27.129  24.956  1.00  0.00     0.135 A 
ATOM     94  F   UNL A   1      50.169  26.548  28.534  1.00  0.00    -0.206 F 
ATOM     95  C   UNL A   1      51.664  26.100  26.779  1.00  0.00     0.059 A 
ATOM     96  C   UNL A   1      51.037  26.628  24.492  1.00  0.00     0.059 A 
ATOM     97  F   UNL A   1      48.957  27.616  24.056  1.00  0.00    -0.206 F 
ATOM     98  C   UNL A   1      51.954  26.123  25.414  1.00  0.00     0.060 A 
BRANCH  98  99
ATOM     99  S   UNL A   1      53.530  25.444  24.852  1.00  0.00     0.124 S 
ATOM    100  O   UNL A   1      53.268  25.233  23.431  1.00  0.00    -0.237 OA
ATOM    101  O   UNL A   1      54.464  26.518  25.172  1.00  0.00    -0.237 OA
ATOM    102  O   UNL A   1      53.681  24.231  25.649  1.00  0.00    -0.744 OA
ENDBRANCH  98  99
ENDBRANCH  66  91
ENDBRANCH  40  41
ENDBRANCH  32  35
ENDBRANCH  30  31
ENDBRANCH  29  30
ENDBRANCH  28  29
ENDBRANCH   1  28
TORSDOF 22
ENDMDL
