MODEL 1
REMARK VINA RESULT:     -10.8      0.000      0.000
REMARK SMILES COC(=O)C[C@H](NC(=O)N[C@@H]1CCCCC1(C)C)C(=O)NCCCCCCNC(=O)c1ccc(-c2c3nc(c(-c4c(F)cc(S(=O)(=O)[O-])cc4F)c4ccc([nH]4)c(-c4c(F)cc(S(=O)(=O)[O-])cc4F)c4nc(c(-c5c(F)cc(S(=O)(=O)[O-])cc5F)c5ccc2[nH]5)C=C4)C=C3)cc1
REMARK SMILES IDX 24 1 23 2 22 3 21 4 19 5 20 6 6 8 5 9 3 10 4 11 2 12 1 13
REMARK SMILES IDX 7 14 8 15 9 17 10 18 11 20 12 21 16 22 13 23 15 24 17 25
REMARK SMILES IDX 18 26 14 27 25 28 26 29 27 30 28 31 29 32 30 34 31 35 32 36
REMARK SMILES IDX 96 37 33 38 95 39 34 40 35 41 36 42 89 43 37 44 94 45 88 46
REMARK SMILES IDX 90 47 38 48 93 49 87 50 86 51 39 53 73 54 52 55 72 56 53 57
REMARK SMILES IDX 56 58 71 59 91 60 54 61 55 62 70 64 92 65 57 66 40 67 41 68
REMARK SMILES IDX 50 69 42 70 43 71 49 72 51 73 44 74 45 75 46 76 47 77 48 78
REMARK SMILES IDX 74 79 75 80 84 81 76 82 77 83 83 84 85 85 78 86 79 87 80 88
REMARK SMILES IDX 81 89 82 90 58 91 59 92 68 93 60 94 61 95 67 96 69 97 62 98
REMARK SMILES IDX 63 99 64 100 65 101 66 102
REMARK H PARENT 21 7 7 16 10 19 28 33 90 52 56 63
REMARK Flexibility Score: inf
ROOT
ATOM      1  C   UNL A   1      39.649  22.236  26.856  1.00  0.00     0.002 C 
ENDROOT
BRANCH   1   2
ATOM      2  C   UNL A   1      39.186  23.654  26.509  1.00  0.00     0.021 C 
BRANCH   2   3
ATOM      3  C   UNL A   1      37.730  23.766  26.094  1.00  0.00     0.116 C 
BRANCH   3   4
ATOM      4  N   UNL A   1      37.447  23.023  24.895  1.00  0.00    -0.354 N 
ATOM      5  C   UNL A   1      36.464  23.237  23.992  1.00  0.00     0.243 C 
ATOM      6  O   UNL A   1      36.676  22.847  22.838  1.00  0.00    -0.273 OA
ATOM      7  H   UNL A   1      38.044  22.262  24.710  1.00  0.00     0.163 HD
BRANCH   5   8
ATOM      8  C   UNL A   1      35.217  24.082  24.329  1.00  0.00     0.184 C 
BRANCH   8   9
ATOM      9  C   UNL A   1      34.353  23.252  25.286  1.00  0.00     0.157 C 
BRANCH   9  10
ATOM     10  C   UNL A   1      33.168  22.676  24.565  1.00  0.00     0.308 C 
ATOM     11  O   UNL A   1      32.038  23.136  24.646  1.00  0.00    -0.252 OA
BRANCH  10  12
ATOM     12  O   UNL A   1      33.518  21.563  23.863  1.00  0.00    -0.469 OA
ATOM     13  C   UNL A   1      33.988  20.460  24.647  1.00  0.00     0.282 C 
ENDBRANCH  10  12
ENDBRANCH   9  10
ENDBRANCH   8   9
BRANCH   8  14
ATOM     14  N   UNL A   1      34.458  24.631  23.165  1.00  0.00    -0.326 N 
ATOM     15  C   UNL A   1      33.621  25.600  22.804  1.00  0.00     0.315 C 
ATOM     16  H   UNL A   1      34.646  24.071  22.377  1.00  0.00     0.166 HD
ATOM     17  O   UNL A   1      33.570  25.787  21.578  1.00  0.00    -0.249 OA
ATOM     18  N   UNL A   1      32.842  26.414  23.511  1.00  0.00    -0.335 N 
ATOM     19  H   UNL A   1      32.660  27.206  22.953  1.00  0.00     0.165 HD
BRANCH  18  20
ATOM     20  C   UNL A   1      32.126  26.613  24.822  1.00  0.00     0.089 C 
ATOM     21  C   UNL A   1      30.604  26.614  24.575  1.00  0.00     0.025 C 
ATOM     22  C   UNL A   1      32.526  27.861  25.608  1.00  0.00    -0.015 C 
ATOM     23  C   UNL A   1      30.175  27.800  23.716  1.00  0.00     0.002 C 
ATOM     24  C   UNL A   1      32.208  29.046  24.654  1.00  0.00     0.008 C 
ATOM     25  C   UNL A   1      31.780  28.172  26.927  1.00  0.00     0.013 C 
ATOM     26  C   UNL A   1      33.950  27.565  26.123  1.00  0.00     0.013 C 
ATOM     27  C   UNL A   1      30.733  29.133  24.219  1.00  0.00     0.001 C 
ENDBRANCH  18  20
ENDBRANCH   8  14
ENDBRANCH   5   8
ENDBRANCH   3   4
ENDBRANCH   2   3
ENDBRANCH   1   2
BRANCH   1  28
ATOM     28  C   UNL A   1      40.713  22.128  27.956  1.00  0.00     0.002 C 
BRANCH  28  29
ATOM     29  C   UNL A   1      42.151  21.956  27.474  1.00  0.00     0.021 C 
BRANCH  29  30
ATOM     30  C   UNL A   1      42.965  23.235  27.468  1.00  0.00     0.116 C 
BRANCH  30  31
ATOM     31  N   UNL A   1      42.869  23.928  26.197  1.00  0.00    -0.352 N 
ATOM     32  C   UNL A   1      42.478  25.229  25.978  1.00  0.00     0.251 C 
ATOM     33  H   UNL A   1      43.112  23.407  25.398  1.00  0.00     0.163 HD
ATOM     34  O   UNL A   1      42.242  25.632  24.853  1.00  0.00    -0.269 OA
BRANCH  32  35
ATOM     35  C   UNL A   1      42.331  26.115  27.154  1.00  0.00     0.039 A 
ATOM     36  C   UNL A   1      43.133  27.251  27.256  1.00  0.00     0.014 A 
ATOM     37  C   UNL A   1      41.350  25.843  28.112  1.00  0.00     0.014 A 
ATOM     38  C   UNL A   1      42.922  28.145  28.309  1.00  0.00     0.010 A 
ATOM     39  C   UNL A   1      41.083  26.776  29.103  1.00  0.00     0.010 A 
ATOM     40  C   UNL A   1      41.881  27.926  29.225  1.00  0.00    -0.014 A 
BRANCH  40  41
ATOM     41  C   UNL A   1      41.627  28.845  30.361  1.00  0.00     0.031 A 
ATOM     42  C   UNL A   1      42.461  28.715  31.606  1.00  0.00     0.074 A 
ATOM     43  C   UNL A   1      40.603  29.719  30.315  1.00  0.00     0.049 A 
ATOM     44  N   UNL A   1      42.318  29.300  32.766  1.00  0.00    -0.248 NA
ATOM     45  C   UNL A   1      43.585  27.764  31.548  1.00  0.00     0.031 C 
ATOM     46  C   UNL A   1      39.705  29.913  29.176  1.00  0.00     0.029 A 
ATOM     47  N   UNL A   1      40.133  30.593  31.263  1.00  0.00    -0.354 N 
ATOM     48  C   UNL A   1      43.311  28.768  33.580  1.00  0.00     0.074 A 
ATOM     49  C   UNL A   1      44.008  27.770  32.801  1.00  0.00     0.031 C 
ATOM     50  C   UNL A   1      38.797  30.850  29.489  1.00  0.00     0.029 A 
ATOM     51  C   UNL A   1      39.018  31.291  30.865  1.00  0.00     0.049 A 
ATOM     52  H   UNL A   1      40.554  30.709  32.145  1.00  0.00     0.167 HD
ATOM     53  C   UNL A   1      43.625  29.096  34.856  1.00  0.00     0.037 A 
ATOM     54  C   UNL A   1      38.250  32.170  31.537  1.00  0.00     0.037 A 
ATOM     55  C   UNL A   1      42.936  30.108  35.610  1.00  0.00     0.049 A 
ATOM     56  C   UNL A   1      38.610  32.523  32.955  1.00  0.00     0.074 A 
ATOM     57  C   UNL A   1      43.206  30.561  36.889  1.00  0.00     0.029 A 
ATOM     58  N   UNL A   1      41.835  30.821  35.157  1.00  0.00    -0.354 N 
ATOM     59  N   UNL A   1      39.583  32.049  33.698  1.00  0.00    -0.248 NA
ATOM     60  C   UNL A   1      37.777  33.529  33.626  1.00  0.00     0.031 C 
ATOM     61  C   UNL A   1      42.235  31.508  37.229  1.00  0.00     0.029 A 
ATOM     62  C   UNL A   1      41.401  31.696  36.138  1.00  0.00     0.049 A 
ATOM     63  H   UNL A   1      41.423  30.720  34.268  1.00  0.00     0.167 HD
ATOM     64  C   UNL A   1      39.504  32.728  34.910  1.00  0.00     0.074 A 
ATOM     65  C   UNL A   1      38.383  33.641  34.801  1.00  0.00     0.031 C 
ATOM     66  C   UNL A   1      40.294  32.613  36.006  1.00  0.00     0.037 A 
BRANCH  53  67
ATOM     67  C   UNL A   1      44.750  28.338  35.509  1.00  0.00     0.058 A 
ATOM     68  C   UNL A   1      46.087  28.763  35.414  1.00  0.00     0.135 A 
ATOM     69  C   UNL A   1      44.491  27.163  36.233  1.00  0.00     0.135 A 
ATOM     70  F   UNL A   1      46.396  29.871  34.723  1.00  0.00    -0.206 F 
ATOM     71  C   UNL A   1      47.128  28.022  35.963  1.00  0.00     0.059 A 
ATOM     72  C   UNL A   1      45.513  26.426  36.823  1.00  0.00     0.059 A 
ATOM     73  F   UNL A   1      43.233  26.710  36.361  1.00  0.00    -0.206 F 
ATOM     74  C   UNL A   1      46.830  26.850  36.661  1.00  0.00     0.060 A 
BRANCH  74  75
ATOM     75  S   UNL A   1      48.194  25.882  37.340  1.00  0.00     0.124 S 
ATOM     76  O   UNL A   1      48.016  26.096  38.773  1.00  0.00    -0.237 OA
ATOM     77  O   UNL A   1      47.894  24.538  36.858  1.00  0.00    -0.237 OA
ATOM     78  O   UNL A   1      49.377  26.505  36.756  1.00  0.00    -0.744 OA
ENDBRANCH  74  75
ENDBRANCH  53  67
BRANCH  54  79
ATOM     79  C   UNL A   1      37.079  32.790  30.858  1.00  0.00     0.058 A 
ATOM     80  C   UNL A   1      35.776  32.348  31.121  1.00  0.00     0.135 A 
ATOM     81  C   UNL A   1      37.238  33.872  29.977  1.00  0.00     0.135 A 
ATOM     82  F   UNL A   1      35.572  31.311  31.949  1.00  0.00    -0.206 F 
ATOM     83  C   UNL A   1      34.668  32.957  30.541  1.00  0.00     0.059 A 
ATOM     84  C   UNL A   1      36.144  34.514  29.403  1.00  0.00     0.059 A 
ATOM     85  F   UNL A   1      38.464  34.343  29.704  1.00  0.00    -0.206 F 
ATOM     86  C   UNL A   1      34.862  34.048  29.690  1.00  0.00     0.060 A 
BRANCH  86  87
ATOM     87  S   UNL A   1      33.412  34.884  29.011  1.00  0.00     0.124 S 
ATOM     88  O   UNL A   1      33.997  36.112  28.489  1.00  0.00    -0.237 OA
ATOM     89  O   UNL A   1      32.945  33.923  28.017  1.00  0.00    -0.237 OA
ATOM     90  O   UNL A   1      32.542  35.043  30.174  1.00  0.00    -0.744 OA
ENDBRANCH  86  87
ENDBRANCH  54  79
BRANCH  66  91
ATOM     91  C   UNL A   1      40.026  33.532  37.167  1.00  0.00     0.058 A 
ATOM     92  C   UNL A   1      40.687  34.760  37.313  1.00  0.00     0.135 A 
ATOM     93  C   UNL A   1      39.015  33.216  38.090  1.00  0.00     0.135 A 
ATOM     94  F   UNL A   1      41.665  35.107  36.463  1.00  0.00    -0.206 F 
ATOM     95  C   UNL A   1      40.357  35.642  38.338  1.00  0.00     0.059 A 
ATOM     96  C   UNL A   1      38.649  34.094  39.104  1.00  0.00     0.059 A 
ATOM     97  F   UNL A   1      38.346  32.055  37.989  1.00  0.00    -0.206 F 
ATOM     98  C   UNL A   1      39.330  35.304  39.223  1.00  0.00     0.060 A 
BRANCH  98  99
ATOM     99  S   UNL A   1      38.866  36.489  40.504  1.00  0.00     0.124 S 
ATOM    100  O   UNL A   1      38.463  37.643  39.707  1.00  0.00    -0.237 OA
ATOM    101  O   UNL A   1      37.788  35.790  41.197  1.00  0.00    -0.237 OA
ATOM    102  O   UNL A   1      40.094  36.655  41.275  1.00  0.00    -0.744 OA
ENDBRANCH  98  99
ENDBRANCH  66  91
ENDBRANCH  40  41
ENDBRANCH  32  35
ENDBRANCH  30  31
ENDBRANCH  29  30
ENDBRANCH  28  29
ENDBRANCH   1  28
TORSDOF 21
ENDMDL
MODEL 2
REMARK VINA RESULT:     -10.7      0.843      8.101
REMARK SMILES COC(=O)C[C@H](NC(=O)N[C@@H]1CCCCC1(C)C)C(=O)NCCCCCCNC(=O)c1ccc(-c2c3nc(c(-c4c(F)cc(S(=O)(=O)[O-])cc4F)c4ccc([nH]4)c(-c4c(F)cc(S(=O)(=O)[O-])cc4F)c4nc(c(-c5c(F)cc(S(=O)(=O)[O-])cc5F)c5ccc2[nH]5)C=C4)C=C3)cc1
REMARK SMILES IDX 24 1 23 2 22 3 21 4 19 5 20 6 6 8 5 9 3 10 4 11 2 12 1 13
REMARK SMILES IDX 7 14 8 15 9 17 10 18 11 20 12 21 16 22 13 23 15 24 17 25
REMARK SMILES IDX 18 26 14 27 25 28 26 29 27 30 28 31 29 32 30 34 31 35 32 36
REMARK SMILES IDX 96 37 33 38 95 39 34 40 35 41 36 42 89 43 37 44 94 45 88 46
REMARK SMILES IDX 90 47 38 48 93 49 87 50 86 51 39 53 73 54 52 55 72 56 53 57
REMARK SMILES IDX 56 58 71 59 91 60 54 61 55 62 70 64 92 65 57 66 40 67 41 68
REMARK SMILES IDX 50 69 42 70 43 71 49 72 51 73 44 74 45 75 46 76 47 77 48 78
REMARK SMILES IDX 74 79 75 80 84 81 76 82 77 83 83 84 85 85 78 86 79 87 80 88
REMARK SMILES IDX 81 89 82 90 58 91 59 92 68 93 60 94 61 95 67 96 69 97 62 98
REMARK SMILES IDX 63 99 64 100 65 101 66 102
REMARK H PARENT 21 7 7 16 10 19 28 33 90 52 56 63
REMARK Flexibility Score: inf
ROOT
ATOM      1  C   UNL A   1      39.389  22.837  26.364  1.00  0.00     0.002 C 
ENDROOT
BRANCH   1   2
ATOM      2  C   UNL A   1      38.349  23.961  26.317  1.00  0.00     0.021 C 
BRANCH   2   3
ATOM      3  C   UNL A   1      36.941  23.512  25.971  1.00  0.00     0.116 C 
BRANCH   3   4
ATOM      4  N   UNL A   1      36.862  22.927  24.660  1.00  0.00    -0.354 N 
ATOM      5  C   UNL A   1      35.975  23.199  23.676  1.00  0.00     0.243 C 
ATOM      6  O   UNL A   1      36.352  22.989  22.516  1.00  0.00    -0.273 OA
ATOM      7  H   UNL A   1      37.538  22.242  24.454  1.00  0.00     0.163 HD
BRANCH   5   8
ATOM      8  C   UNL A   1      34.631  23.902  23.960  1.00  0.00     0.184 C 
BRANCH   8   9
ATOM      9  C   UNL A   1      33.645  22.823  24.424  1.00  0.00     0.157 C 
BRANCH   9  10
ATOM     10  C   UNL A   1      33.260  23.040  25.860  1.00  0.00     0.308 C 
ATOM     11  O   UNL A   1      33.173  24.144  26.378  1.00  0.00    -0.252 OA
BRANCH  10  12
ATOM     12  O   UNL A   1      33.073  21.853  26.499  1.00  0.00    -0.469 OA
ATOM     13  C   UNL A   1      34.093  21.488  27.437  1.00  0.00     0.282 C 
ENDBRANCH  10  12
ENDBRANCH   9  10
ENDBRANCH   8   9
BRANCH   8  14
ATOM     14  N   UNL A   1      34.095  24.769  22.868  1.00  0.00    -0.326 N 
ATOM     15  C   UNL A   1      33.489  25.929  22.633  1.00  0.00     0.315 C 
ATOM     16  H   UNL A   1      34.248  24.316  22.007  1.00  0.00     0.166 HD
ATOM     17  O   UNL A   1      33.584  26.316  21.458  1.00  0.00    -0.249 OA
ATOM     18  N   UNL A   1      32.812  26.758  23.424  1.00  0.00    -0.335 N 
ATOM     19  H   UNL A   1      32.831  27.649  23.003  1.00  0.00     0.165 HD
BRANCH  18  20
ATOM     20  C   UNL A   1      32.029  26.882  24.705  1.00  0.00     0.089 C 
ATOM     21  C   UNL A   1      30.531  27.025  24.373  1.00  0.00     0.025 C 
ATOM     22  C   UNL A   1      32.466  28.012  25.637  1.00  0.00    -0.015 C 
ATOM     23  C   UNL A   1      30.244  28.320  23.618  1.00  0.00     0.002 C 
ATOM     24  C   UNL A   1      32.297  29.306  24.793  1.00  0.00     0.008 C 
ATOM     25  C   UNL A   1      31.660  28.249  26.937  1.00  0.00     0.013 C 
ATOM     26  C   UNL A   1      33.829  27.556  26.199  1.00  0.00     0.013 C 
ATOM     27  C   UNL A   1      30.862  29.550  24.286  1.00  0.00     0.001 C 
ENDBRANCH  18  20
ENDBRANCH   8  14
ENDBRANCH   5   8
ENDBRANCH   3   4
ENDBRANCH   2   3
ENDBRANCH   1   2
BRANCH   1  28
ATOM     28  C   UNL A   1      40.259  22.780  27.626  1.00  0.00     0.002 C 
BRANCH  28  29
ATOM     29  C   UNL A   1      41.752  22.564  27.394  1.00  0.00     0.021 C 
BRANCH  29  30
ATOM     30  C   UNL A   1      42.590  23.823  27.498  1.00  0.00     0.116 C 
BRANCH  30  31
ATOM     31  N   UNL A   1      42.590  24.573  26.257  1.00  0.00    -0.352 N 
ATOM     32  C   UNL A   1      42.118  25.849  26.047  1.00  0.00     0.251 C 
ATOM     33  H   UNL A   1      42.972  24.117  25.472  1.00  0.00     0.163 HD
ATOM     34  O   UNL A   1      41.987  26.291  24.920  1.00  0.00    -0.269 OA
BRANCH  32  35
ATOM     35  C   UNL A   1      41.753  26.655  27.232  1.00  0.00     0.039 A 
ATOM     36  C   UNL A   1      40.640  26.290  27.989  1.00  0.00     0.014 A 
ATOM     37  C   UNL A   1      42.559  27.731  27.619  1.00  0.00     0.014 A 
ATOM     38  C   UNL A   1      40.356  26.984  29.168  1.00  0.00     0.010 A 
ATOM     39  C   UNL A   1      42.327  28.358  28.834  1.00  0.00     0.010 A 
ATOM     40  C   UNL A   1      41.211  28.007  29.610  1.00  0.00    -0.014 A 
BRANCH  40  41
ATOM     41  C   UNL A   1      40.942  28.775  30.850  1.00  0.00     0.031 A 
ATOM     42  C   UNL A   1      39.836  29.793  30.853  1.00  0.00     0.074 A 
ATOM     43  C   UNL A   1      41.737  28.628  31.928  1.00  0.00     0.049 A 
ATOM     44  N   UNL A   1      39.525  30.678  31.765  1.00  0.00    -0.248 NA
ATOM     45  C   UNL A   1      38.992  29.851  29.647  1.00  0.00     0.031 C 
ATOM     46  C   UNL A   1      42.861  27.696  32.031  1.00  0.00     0.029 A 
ATOM     47  N   UNL A   1      41.734  29.283  33.134  1.00  0.00    -0.354 N 
ATOM     48  C   UNL A   1      38.473  31.413  31.230  1.00  0.00     0.074 A 
ATOM     49  C   UNL A   1      38.241  30.912  29.894  1.00  0.00     0.031 C 
ATOM     50  C   UNL A   1      43.434  27.834  33.238  1.00  0.00     0.029 A 
ATOM     51  C   UNL A   1      42.750  28.894  33.975  1.00  0.00     0.049 A 
ATOM     52  H   UNL A   1      41.068  29.965  33.376  1.00  0.00     0.167 HD
ATOM     53  C   UNL A   1      37.753  32.403  31.809  1.00  0.00     0.037 A 
ATOM     54  C   UNL A   1      43.103  29.353  35.191  1.00  0.00     0.037 A 
ATOM     55  C   UNL A   1      37.981  32.875  33.148  1.00  0.00     0.049 A 
ATOM     56  C   UNL A   1      42.294  30.456  35.821  1.00  0.00     0.074 A 
ATOM     57  C   UNL A   1      37.276  33.833  33.855  1.00  0.00     0.029 A 
ATOM     58  N   UNL A   1      38.996  32.428  33.983  1.00  0.00    -0.354 N 
ATOM     59  N   UNL A   1      41.269  31.109  35.325  1.00  0.00    -0.248 NA
ATOM     60  C   UNL A   1      42.682  30.882  37.172  1.00  0.00     0.031 C 
ATOM     61  C   UNL A   1      37.898  34.004  35.095  1.00  0.00     0.029 A 
ATOM     62  C   UNL A   1      38.949  33.104  35.189  1.00  0.00     0.049 A 
ATOM     63  H   UNL A   1      39.653  31.732  33.751  1.00  0.00     0.167 HD
ATOM     64  C   UNL A   1      40.864  31.995  36.318  1.00  0.00     0.074 A 
ATOM     65  C   UNL A   1      41.761  31.798  37.441  1.00  0.00     0.031 C 
ATOM     66  C   UNL A   1      39.838  32.882  36.305  1.00  0.00     0.037 A 
BRANCH  53  67
ATOM     67  C   UNL A   1      36.668  33.043  30.985  1.00  0.00     0.058 A 
ATOM     68  C   UNL A   1      36.951  34.013  30.007  1.00  0.00     0.135 A 
ATOM     69  C   UNL A   1      35.323  32.691  31.181  1.00  0.00     0.135 A 
ATOM     70  F   UNL A   1      38.218  34.400  29.785  1.00  0.00    -0.206 F 
ATOM     71  C   UNL A   1      35.939  34.649  29.297  1.00  0.00     0.059 A 
ATOM     72  C   UNL A   1      34.296  33.287  30.454  1.00  0.00     0.059 A 
ATOM     73  F   UNL A   1      34.992  31.768  32.098  1.00  0.00    -0.206 F 
ATOM     74  C   UNL A   1      34.613  34.283  29.533  1.00  0.00     0.060 A 
BRANCH  74  75
ATOM     75  S   UNL A   1      33.308  35.140  28.627  1.00  0.00     0.124 S 
ATOM     76  O   UNL A   1      32.666  34.032  27.926  1.00  0.00    -0.237 OA
ATOM     77  O   UNL A   1      32.529  35.747  29.701  1.00  0.00    -0.237 OA
ATOM     78  O   UNL A   1      34.040  36.076  27.781  1.00  0.00    -0.744 OA
ENDBRANCH  74  75
ENDBRANCH  53  67
BRANCH  54  79
ATOM     79  C   UNL A   1      44.265  28.746  35.895  1.00  0.00     0.058 A 
ATOM     80  C   UNL A   1      44.099  27.646  36.746  1.00  0.00     0.135 A 
ATOM     81  C   UNL A   1      45.571  29.220  35.684  1.00  0.00     0.135 A 
ATOM     82  F   UNL A   1      42.870  27.162  36.986  1.00  0.00    -0.206 F 
ATOM     83  C   UNL A   1      45.184  27.030  37.362  1.00  0.00     0.059 A 
ATOM     84  C   UNL A   1      46.674  28.605  36.270  1.00  0.00     0.059 A 
ATOM     85  F   UNL A   1      45.786  30.260  34.866  1.00  0.00    -0.206 F 
ATOM     86  C   UNL A   1      46.470  27.511  37.109  1.00  0.00     0.060 A 
BRANCH  86  87
ATOM     87  S   UNL A   1      47.876  26.650  37.847  1.00  0.00     0.124 S 
ATOM     88  O   UNL A   1      47.872  25.392  37.110  1.00  0.00    -0.237 OA
ATOM     89  O   UNL A   1      48.978  27.561  37.553  1.00  0.00    -0.237 OA
ATOM     90  O   UNL A   1      47.510  26.556  39.258  1.00  0.00    -0.744 OA
ENDBRANCH  86  87
ENDBRANCH  54  79
BRANCH  66  91
ATOM     91  C   UNL A   1      39.576  33.675  37.556  1.00  0.00     0.058 A 
ATOM     92  C   UNL A   1      38.745  33.198  38.580  1.00  0.00     0.135 A 
ATOM     93  C   UNL A   1      40.253  34.887  37.771  1.00  0.00     0.135 A 
ATOM     94  F   UNL A   1      38.069  32.049  38.424  1.00  0.00    -0.206 F 
ATOM     95  C   UNL A   1      38.591  33.899  39.773  1.00  0.00     0.059 A 
ATOM     96  C   UNL A   1      40.137  35.589  38.965  1.00  0.00     0.059 A 
ATOM     97  F   UNL A   1      41.068  35.383  36.824  1.00  0.00    -0.206 F 
ATOM     98  C   UNL A   1      39.299  35.088  39.960  1.00  0.00     0.060 A 
BRANCH  98  99
ATOM     99  S   UNL A   1      39.144  35.949  41.539  1.00  0.00     0.124 S 
ATOM    100  O   UNL A   1      39.308  37.341  41.133  1.00  0.00    -0.237 OA
ATOM    101  O   UNL A   1      37.803  35.568  41.971  1.00  0.00    -0.237 OA
ATOM    102  O   UNL A   1      40.234  35.396  42.338  1.00  0.00    -0.744 OA
ENDBRANCH  98  99
ENDBRANCH  66  91
ENDBRANCH  40  41
ENDBRANCH  32  35
ENDBRANCH  30  31
ENDBRANCH  29  30
ENDBRANCH  28  29
ENDBRANCH   1  28
TORSDOF 21
ENDMDL
MODEL 3
REMARK VINA RESULT:     -10.5      6.111     11.684
REMARK SMILES COC(=O)C[C@H](NC(=O)N[C@@H]1CCCCC1(C)C)C(=O)NCCCCCCNC(=O)c1ccc(-c2c3nc(c(-c4c(F)cc(S(=O)(=O)[O-])cc4F)c4ccc([nH]4)c(-c4c(F)cc(S(=O)(=O)[O-])cc4F)c4nc(c(-c5c(F)cc(S(=O)(=O)[O-])cc5F)c5ccc2[nH]5)C=C4)C=C3)cc1
REMARK SMILES IDX 24 1 23 2 22 3 21 4 19 5 20 6 6 8 5 9 3 10 4 11 2 12 1 13
REMARK SMILES IDX 7 14 8 15 9 17 10 18 11 20 12 21 16 22 13 23 15 24 17 25
REMARK SMILES IDX 18 26 14 27 25 28 26 29 27 30 28 31 29 32 30 34 31 35 32 36
REMARK SMILES IDX 96 37 33 38 95 39 34 40 35 41 36 42 89 43 37 44 94 45 88 46
REMARK SMILES IDX 90 47 38 48 93 49 87 50 86 51 39 53 73 54 52 55 72 56 53 57
REMARK SMILES IDX 56 58 71 59 91 60 54 61 55 62 70 64 92 65 57 66 40 67 41 68
REMARK SMILES IDX 50 69 42 70 43 71 49 72 51 73 44 74 45 75 46 76 47 77 48 78
REMARK SMILES IDX 74 79 75 80 84 81 76 82 77 83 83 84 85 85 78 86 79 87 80 88
REMARK SMILES IDX 81 89 82 90 58 91 59 92 68 93 60 94 61 95 67 96 69 97 62 98
REMARK SMILES IDX 63 99 64 100 65 101 66 102
REMARK H PARENT 21 7 7 16 10 19 28 33 90 52 56 63
REMARK Flexibility Score: inf
ROOT
ATOM      1  C   UNL A   1      33.344  28.013  26.436  1.00  0.00     0.002 C 
ENDROOT
BRANCH   1   2
ATOM      2  C   UNL A   1      32.009  27.363  26.816  1.00  0.00     0.021 C 
BRANCH   2   3
ATOM      3  C   UNL A   1      31.850  25.923  26.365  1.00  0.00     0.116 C 
BRANCH   3   4
ATOM      4  N   UNL A   1      30.696  25.739  25.527  1.00  0.00    -0.354 N 
ATOM      5  C   UNL A   1      30.627  25.792  24.177  1.00  0.00     0.243 C 
ATOM      6  O   UNL A   1      29.721  25.142  23.642  1.00  0.00    -0.273 OA
ATOM      7  H   UNL A   1      29.850  25.554  25.994  1.00  0.00     0.163 HD
BRANCH   5   8
ATOM      8  C   UNL A   1      31.722  26.475  23.331  1.00  0.00     0.184 C 
BRANCH   8   9
ATOM      9  C   UNL A   1      31.044  27.596  22.534  1.00  0.00     0.157 C 
BRANCH   9  10
ATOM     10  C   UNL A   1      31.337  28.935  23.148  1.00  0.00     0.308 C 
ATOM     11  O   UNL A   1      32.423  29.240  23.621  1.00  0.00    -0.252 OA
BRANCH  10  12
ATOM     12  O   UNL A   1      30.229  29.726  23.147  1.00  0.00    -0.469 OA
ATOM     13  C   UNL A   1      29.666  30.001  21.859  1.00  0.00     0.282 C 
ENDBRANCH  10  12
ENDBRANCH   9  10
ENDBRANCH   8   9
BRANCH   8  14
ATOM     14  N   UNL A   1      32.566  25.573  22.491  1.00  0.00    -0.326 N 
ATOM     15  C   UNL A   1      33.208  24.409  22.498  1.00  0.00     0.315 C 
ATOM     16  H   UNL A   1      32.692  25.995  21.610  1.00  0.00     0.166 HD
ATOM     17  O   UNL A   1      33.481  23.980  21.366  1.00  0.00    -0.249 OA
ATOM     18  N   UNL A   1      33.599  23.611  23.489  1.00  0.00    -0.335 N 
ATOM     19  H   UNL A   1      33.707  22.706  23.115  1.00  0.00     0.165 HD
BRANCH  18  20
ATOM     20  C   UNL A   1      33.944  23.537  24.954  1.00  0.00     0.089 C 
ATOM     21  C   UNL A   1      35.318  24.194  25.187  1.00  0.00     0.025 C 
ATOM     22  C   UNL A   1      33.927  22.134  25.563  1.00  0.00    -0.015 C 
ATOM     23  C   UNL A   1      36.435  23.425  24.488  1.00  0.00     0.002 C 
ATOM     24  C   UNL A   1      34.973  21.335  24.738  1.00  0.00     0.008 C 
ATOM     25  C   UNL A   1      34.344  21.969  27.044  1.00  0.00     0.013 C 
ATOM     26  C   UNL A   1      32.435  21.745  25.618  1.00  0.00     0.013 C 
ATOM     27  C   UNL A   1      36.397  21.923  24.778  1.00  0.00     0.001 C 
ENDBRANCH  18  20
ENDBRANCH   8  14
ENDBRANCH   5   8
ENDBRANCH   3   4
ENDBRANCH   2   3
ENDBRANCH   1   2
BRANCH   1  28
ATOM     28  C   UNL A   1      33.740  29.255  27.244  1.00  0.00     0.002 C 
BRANCH  28  29
ATOM     29  C   UNL A   1      35.209  29.343  27.649  1.00  0.00     0.021 C 
BRANCH  29  30
ATOM     30  C   UNL A   1      35.672  30.736  28.028  1.00  0.00     0.116 C 
BRANCH  30  31
ATOM     31  N   UNL A   1      35.437  31.018  29.430  1.00  0.00    -0.352 N 
ATOM     32  C   UNL A   1      36.297  30.809  30.484  1.00  0.00     0.251 C 
ATOM     33  H   UNL A   1      34.560  31.406  29.656  1.00  0.00     0.163 HD
ATOM     34  O   UNL A   1      35.910  30.895  31.636  1.00  0.00    -0.269 OA
BRANCH  32  35
ATOM     35  C   UNL A   1      37.698  30.452  30.174  1.00  0.00     0.039 A 
ATOM     36  C   UNL A   1      38.488  29.867  31.163  1.00  0.00     0.014 A 
ATOM     37  C   UNL A   1      38.196  30.644  28.882  1.00  0.00     0.014 A 
ATOM     38  C   UNL A   1      39.776  29.431  30.841  1.00  0.00     0.010 A 
ATOM     39  C   UNL A   1      39.439  30.130  28.543  1.00  0.00     0.010 A 
ATOM     40  C   UNL A   1      40.251  29.539  29.525  1.00  0.00    -0.014 A 
BRANCH  40  41
ATOM     41  C   UNL A   1      41.614  29.096  29.142  1.00  0.00     0.031 A 
ATOM     42  C   UNL A   1      42.724  30.111  29.093  1.00  0.00     0.074 A 
ATOM     43  C   UNL A   1      41.835  27.825  28.754  1.00  0.00     0.049 A 
ATOM     44  N   UNL A   1      43.945  29.984  28.643  1.00  0.00    -0.248 NA
ATOM     45  C   UNL A   1      42.400  31.464  29.577  1.00  0.00     0.031 C 
ATOM     46  C   UNL A   1      40.831  26.761  28.728  1.00  0.00     0.029 A 
ATOM     47  N   UNL A   1      42.974  27.222  28.284  1.00  0.00    -0.354 N 
ATOM     48  C   UNL A   1      44.521  31.243  28.763  1.00  0.00     0.074 A 
ATOM     49  C   UNL A   1      43.499  32.131  29.269  1.00  0.00     0.031 C 
ATOM     50  C   UNL A   1      41.400  25.634  28.273  1.00  0.00     0.029 A 
ATOM     51  C   UNL A   1      42.794  25.905  27.931  1.00  0.00     0.049 A 
ATOM     52  H   UNL A   1      43.838  27.686  28.206  1.00  0.00     0.167 HD
ATOM     53  C   UNL A   1      45.794  31.620  28.495  1.00  0.00     0.037 A 
ATOM     54  C   UNL A   1      43.649  25.024  27.376  1.00  0.00     0.037 A 
ATOM     55  C   UNL A   1      46.806  30.718  28.014  1.00  0.00     0.049 A 
ATOM     56  C   UNL A   1      45.060  25.458  27.080  1.00  0.00     0.074 A 
ATOM     57  C   UNL A   1      48.141  30.979  27.762  1.00  0.00     0.029 A 
ATOM     58  N   UNL A   1      46.594  29.382  27.705  1.00  0.00    -0.354 N 
ATOM     59  N   UNL A   1      45.608  26.639  27.246  1.00  0.00    -0.248 NA
ATOM     60  C   UNL A   1      45.970  24.445  26.530  1.00  0.00     0.031 C 
ATOM     61  C   UNL A   1      48.723  29.816  27.250  1.00  0.00     0.029 A 
ATOM     62  C   UNL A   1      47.769  28.810  27.247  1.00  0.00     0.049 A 
ATOM     63  H   UNL A   1      45.735  28.910  27.799  1.00  0.00     0.167 HD
ATOM     64  C   UNL A   1      46.936  26.501  26.858  1.00  0.00     0.074 A 
ATOM     65  C   UNL A   1      47.107  25.123  26.443  1.00  0.00     0.031 C 
ATOM     66  C   UNL A   1      47.926  27.429  26.856  1.00  0.00     0.037 A 
BRANCH  53  67
ATOM     67  C   UNL A   1      46.146  33.068  28.702  1.00  0.00     0.058 A 
ATOM     68  C   UNL A   1      46.066  34.010  27.662  1.00  0.00     0.135 A 
ATOM     69  C   UNL A   1      46.581  33.523  29.958  1.00  0.00     0.135 A 
ATOM     70  F   UNL A   1      45.670  33.631  26.436  1.00  0.00    -0.206 F 
ATOM     71  C   UNL A   1      46.457  35.332  27.843  1.00  0.00     0.059 A 
ATOM     72  C   UNL A   1      46.941  34.850  30.173  1.00  0.00     0.059 A 
ATOM     73  F   UNL A   1      46.674  32.670  30.991  1.00  0.00    -0.206 F 
ATOM     74  C   UNL A   1      46.899  35.741  29.102  1.00  0.00     0.060 A 
BRANCH  74  75
ATOM     75  S   UNL A   1      47.434  37.452  29.314  1.00  0.00     0.124 S 
ATOM     76  O   UNL A   1      46.660  38.127  28.276  1.00  0.00    -0.237 OA
ATOM     77  O   UNL A   1      47.034  37.736  30.688  1.00  0.00    -0.237 OA
ATOM     78  O   UNL A   1      48.873  37.389  29.083  1.00  0.00    -0.744 OA
ENDBRANCH  74  75
ENDBRANCH  53  67
BRANCH  54  79
ATOM     79  C   UNL A   1      43.189  23.638  27.089  1.00  0.00     0.058 A 
ATOM     80  C   UNL A   1      42.905  23.228  25.780  1.00  0.00     0.135 A 
ATOM     81  C   UNL A   1      43.080  22.681  28.112  1.00  0.00     0.135 A 
ATOM     82  F   UNL A   1      42.985  24.108  24.769  1.00  0.00    -0.206 F 
ATOM     83  C   UNL A   1      42.532  21.920  25.489  1.00  0.00     0.059 A 
ATOM     84  C   UNL A   1      42.733  21.360  27.843  1.00  0.00     0.059 A 
ATOM     85  F   UNL A   1      43.357  23.018  29.381  1.00  0.00    -0.206 F 
ATOM     86  C   UNL A   1      42.459  20.989  26.528  1.00  0.00     0.060 A 
BRANCH  86  87
ATOM     87  S   UNL A   1      42.060  19.274  26.126  1.00  0.00     0.124 S 
ATOM     88  O   UNL A   1      42.877  19.050  24.940  1.00  0.00    -0.237 OA
ATOM     89  O   UNL A   1      42.479  18.574  27.336  1.00  0.00    -0.237 OA
ATOM     90  O   UNL A   1      40.617  19.310  25.901  1.00  0.00    -0.744 OA
ENDBRANCH  86  87
ENDBRANCH  54  79
BRANCH  66  91
ATOM     91  C   UNL A   1      49.306  26.987  26.450  1.00  0.00     0.058 A 
ATOM     92  C   UNL A   1      50.223  26.467  27.375  1.00  0.00     0.135 A 
ATOM     93  C   UNL A   1      49.671  26.993  25.093  1.00  0.00     0.135 A 
ATOM     94  F   UNL A   1      49.927  26.445  28.683  1.00  0.00    -0.206 F 
ATOM     95  C   UNL A   1      51.458  25.971  26.968  1.00  0.00     0.059 A 
ATOM     96  C   UNL A   1      50.887  26.476  24.661  1.00  0.00     0.059 A 
ATOM     97  F   UNL A   1      48.825  27.472  24.167  1.00  0.00    -0.206 F 
ATOM     98  C   UNL A   1      51.777  25.971  25.608  1.00  0.00     0.060 A 
BRANCH  98  99
ATOM     99  S   UNL A   1      53.353  25.261  25.088  1.00  0.00     0.124 S 
ATOM    100  O   UNL A   1      53.415  25.671  23.689  1.00  0.00    -0.237 OA
ATOM    101  O   UNL A   1      54.301  25.917  25.983  1.00  0.00    -0.237 OA
ATOM    102  O   UNL A   1      53.174  23.830  25.316  1.00  0.00    -0.744 OA
ENDBRANCH  98  99
ENDBRANCH  66  91
ENDBRANCH  40  41
ENDBRANCH  32  35
ENDBRANCH  30  31
ENDBRANCH  29  30
ENDBRANCH  28  29
ENDBRANCH   1  28
TORSDOF 21
ENDMDL
