MODEL 1
REMARK VINA RESULT:     -10.2      0.000      0.000
REMARK SMILES COC[C@H]1CC[N@@H+](Cc2ccc(C(=O)NCCCCCCNC(=O)c3ccc(-c4c5nc(c(-c6c(F)cc(S(=O)(=O)[O-])cc6F)c6ccc([nH]6)c(-c6c(F)cc(S(=O)(=O)[O-])cc6F)c6nc(c(-c7c(F)cc(S(=O)(=O)[O-])cc7F)c7ccc4[nH]7)C=C6)C=C5)cc3)cn2)C1
REMARK SMILES IDX 18 1 17 2 16 3 15 4 13 5 14 6 12 8 9 9 10 10 92 11 11 12
REMARK SMILES IDX 91 13 8 14 7 15 4 16 5 17 93 18 6 19 3 21 2 22 1 23 19 24
REMARK SMILES IDX 20 25 21 26 22 27 23 28 24 30 25 31 26 32 90 33 27 34 89 35
REMARK SMILES IDX 28 36 29 37 30 38 83 39 31 40 88 41 82 42 84 43 32 44 87 45
REMARK SMILES IDX 81 46 80 47 33 49 67 50 46 51 66 52 47 53 50 54 65 55 85 56
REMARK SMILES IDX 48 57 49 58 64 60 86 61 51 62 34 63 35 64 44 65 36 66 37 67
REMARK SMILES IDX 43 68 45 69 38 70 39 71 40 72 41 73 42 74 68 75 69 76 78 77
REMARK SMILES IDX 70 78 71 79 77 80 79 81 72 82 73 83 74 84 75 85 76 86 52 87
REMARK SMILES IDX 53 88 62 89 54 90 55 91 61 92 63 93 56 94 57 95 58 96 59 97
REMARK SMILES IDX 60 98
REMARK H PARENT 15 7 7 20 22 29 84 48 50 59
REMARK Flexibility Score: inf
ROOT
ATOM      1  C   UNL A   1      30.933  27.507  24.628  1.00  0.00     0.002 C 
ENDROOT
BRANCH   1   2
ATOM      2  C   UNL A   1      30.677  27.628  23.121  1.00  0.00     0.021 C 
BRANCH   2   3
ATOM      3  C   UNL A   1      31.486  26.636  22.284  1.00  0.00     0.116 C 
BRANCH   3   4
ATOM      4  N   UNL A   1      31.013  25.280  22.512  1.00  0.00    -0.352 N 
ATOM      5  C   UNL A   1      31.592  24.210  23.143  1.00  0.00     0.252 C 
ATOM      6  O   UNL A   1      30.959  23.161  23.238  1.00  0.00    -0.269 OA
ATOM      7  H   UNL A   1      30.116  25.098  22.147  1.00  0.00     0.163 HD
BRANCH   5   8
ATOM      8  C   UNL A   1      32.915  24.310  23.790  1.00  0.00     0.058 A 
ATOM      9  C   UNL A   1      35.451  24.121  24.850  1.00  0.00     0.095 A 
ATOM     10  C   UNL A   1      34.420  24.628  25.640  1.00  0.00     0.030 A 
ATOM     11  N   UNL A   1      35.273  23.824  23.538  1.00  0.00    -0.255 NA
ATOM     12  C   UNL A   1      33.140  24.737  25.096  1.00  0.00     0.017 A 
ATOM     13  C   UNL A   1      34.017  23.930  23.039  1.00  0.00     0.125 A 
BRANCH   9  14
ATOM     14  C   UNL A   1      36.799  23.778  25.462  1.00  0.00     0.319 C 
BRANCH  14  15
ATOM     15  N   UNL A   1      36.934  22.446  26.089  1.00  0.00    -0.330 N 
ATOM     16  C   UNL A   1      35.519  20.555  25.505  1.00  0.00     0.076 C 
ATOM     17  C   UNL A   1      36.731  20.618  24.575  1.00  0.00     0.073 C 
ATOM     18  C   UNL A   1      35.666  21.786  26.413  1.00  0.00     0.268 C 
ATOM     19  C   UNL A   1      37.729  21.490  25.317  1.00  0.00     0.263 C 
ATOM     20  H   UNL A   1      37.422  22.686  26.952  1.00  0.00     0.348 HD
BRANCH  16  21
ATOM     21  C   UNL A   1      34.189  20.522  24.740  1.00  0.00     0.169 C 
BRANCH  21  22
ATOM     22  O   UNL A   1      33.892  19.225  24.224  1.00  0.00    -0.384 OA
ATOM     23  C   UNL A   1      32.688  18.667  24.729  1.00  0.00     0.194 C 
ENDBRANCH  21  22
ENDBRANCH  16  21
ENDBRANCH  14  15
ENDBRANCH   9  14
ENDBRANCH   5   8
ENDBRANCH   3   4
ENDBRANCH   2   3
ENDBRANCH   1   2
BRANCH   1  24
ATOM     24  C   UNL A   1      31.820  28.607  25.220  1.00  0.00     0.002 C 
BRANCH  24  25
ATOM     25  C   UNL A   1      33.262  28.187  25.519  1.00  0.00     0.021 C 
BRANCH  25  26
ATOM     26  C   UNL A   1      33.700  28.406  26.964  1.00  0.00     0.116 C 
BRANCH  26  27
ATOM     27  N   UNL A   1      33.563  29.798  27.363  1.00  0.00    -0.352 N 
ATOM     28  C   UNL A   1      34.432  30.589  28.075  1.00  0.00     0.251 C 
ATOM     29  H   UNL A   1      32.729  30.237  27.083  1.00  0.00     0.163 HD
ATOM     30  O   UNL A   1      34.054  31.669  28.515  1.00  0.00    -0.269 OA
BRANCH  28  31
ATOM     31  C   UNL A   1      35.817  30.128  28.320  1.00  0.00     0.039 A 
ATOM     32  C   UNL A   1      36.732  30.144  27.266  1.00  0.00     0.014 A 
ATOM     33  C   UNL A   1      36.207  29.667  29.581  1.00  0.00     0.014 A 
ATOM     34  C   UNL A   1      38.053  29.747  27.489  1.00  0.00     0.010 A 
ATOM     35  C   UNL A   1      37.540  29.341  29.820  1.00  0.00     0.010 A 
ATOM     36  C   UNL A   1      38.475  29.372  28.776  1.00  0.00    -0.014 A 
BRANCH  36  37
ATOM     37  C   UNL A   1      39.892  29.008  29.043  1.00  0.00     0.031 A 
ATOM     38  C   UNL A   1      40.829  30.015  29.656  1.00  0.00     0.074 A 
ATOM     39  C   UNL A   1      40.344  27.788  28.691  1.00  0.00     0.049 A 
ATOM     40  N   UNL A   1      42.106  29.902  29.914  1.00  0.00    -0.248 NA
ATOM     41  C   UNL A   1      40.261  31.328  30.001  1.00  0.00     0.031 C 
ATOM     42  C   UNL A   1      39.541  26.740  28.054  1.00  0.00     0.029 A 
ATOM     43  N   UNL A   1      41.587  27.221  28.815  1.00  0.00    -0.354 N 
ATOM     44  C   UNL A   1      42.494  31.125  30.451  1.00  0.00     0.074 A 
ATOM     45  C   UNL A   1      41.332  31.986  30.422  1.00  0.00     0.031 C 
ATOM     46  C   UNL A   1      40.306  25.651  27.869  1.00  0.00     0.029 A 
ATOM     47  C   UNL A   1      41.659  25.934  28.336  1.00  0.00     0.049 A 
ATOM     48  H   UNL A   1      42.357  27.692  29.210  1.00  0.00     0.167 HD
ATOM     49  C   UNL A   1      43.700  31.487  30.950  1.00  0.00     0.037 A 
ATOM     50  C   UNL A   1      42.700  25.081  28.274  1.00  0.00     0.037 A 
ATOM     51  C   UNL A   1      44.849  30.619  30.991  1.00  0.00     0.049 A 
ATOM     52  C   UNL A   1      44.038  25.518  28.809  1.00  0.00     0.074 A 
ATOM     53  C   UNL A   1      46.107  30.881  31.505  1.00  0.00     0.029 A 
ATOM     54  N   UNL A   1      44.880  29.322  30.500  1.00  0.00    -0.354 N 
ATOM     55  N   UNL A   1      44.372  26.661  29.360  1.00  0.00    -0.248 NA
ATOM     56  C   UNL A   1      45.139  24.549  28.720  1.00  0.00     0.031 C 
ATOM     57  C   UNL A   1      46.911  29.757  31.287  1.00  0.00     0.029 A 
ATOM     58  C   UNL A   1      46.140  28.776  30.686  1.00  0.00     0.049 A 
ATOM     59  H   UNL A   1      44.119  28.858  30.083  1.00  0.00     0.167 HD
ATOM     60  C   UNL A   1      45.711  26.535  29.714  1.00  0.00     0.074 A 
ATOM     61  C   UNL A   1      46.121  25.201  29.325  1.00  0.00     0.031 C 
ATOM     62  C   UNL A   1      46.528  27.440  30.308  1.00  0.00     0.037 A 
BRANCH  49  63
ATOM     63  C   UNL A   1      43.838  32.879  31.506  1.00  0.00     0.058 A 
ATOM     64  C   UNL A   1      43.582  33.156  32.860  1.00  0.00     0.135 A 
ATOM     65  C   UNL A   1      44.275  33.938  30.694  1.00  0.00     0.135 A 
ATOM     66  F   UNL A   1      43.146  32.185  33.677  1.00  0.00    -0.206 F 
ATOM     67  C   UNL A   1      43.730  34.436  33.382  1.00  0.00     0.059 A 
ATOM     68  C   UNL A   1      44.459  35.222  31.203  1.00  0.00     0.059 A 
ATOM     69  F   UNL A   1      44.533  33.731  29.394  1.00  0.00    -0.206 F 
ATOM     70  C   UNL A   1      44.172  35.463  32.545  1.00  0.00     0.060 A 
BRANCH  70  71
ATOM     71  S   UNL A   1      44.372  37.115  33.244  1.00  0.00     0.124 S 
ATOM     72  O   UNL A   1      45.811  37.151  33.496  1.00  0.00    -0.237 OA
ATOM     73  O   UNL A   1      43.898  37.971  32.162  1.00  0.00    -0.237 OA
ATOM     74  O   UNL A   1      43.529  37.086  34.435  1.00  0.00    -0.744 OA
ENDBRANCH  70  71
ENDBRANCH  49  63
BRANCH  50  75
ATOM     75  C   UNL A   1      42.521  23.717  27.703  1.00  0.00     0.058 A 
ATOM     76  C   UNL A   1      42.336  22.604  28.538  1.00  0.00     0.135 A 
ATOM     77  C   UNL A   1      42.546  23.496  26.317  1.00  0.00     0.135 A 
ATOM     78  F   UNL A   1      42.308  22.763  29.870  1.00  0.00    -0.206 F 
ATOM     79  C   UNL A   1      42.214  21.318  28.023  1.00  0.00     0.059 A 
ATOM     80  C   UNL A   1      42.398  22.222  25.777  1.00  0.00     0.059 A 
ATOM     81  F   UNL A   1      42.703  24.527  25.473  1.00  0.00    -0.206 F 
ATOM     82  C   UNL A   1      42.249  21.137  26.640  1.00  0.00     0.060 A 
BRANCH  82  83
ATOM     83  S   UNL A   1      42.072  19.465  25.981  1.00  0.00     0.124 S 
ATOM     84  O   UNL A   1      42.557  18.658  27.094  1.00  0.00    -0.237 OA
ATOM     85  O   UNL A   1      40.639  19.391  25.713  1.00  0.00    -0.237 OA
ATOM     86  O   UNL A   1      42.922  19.481  24.794  1.00  0.00    -0.744 OA
ENDBRANCH  82  83
ENDBRANCH  50  75
BRANCH  62  87
ATOM     87  C   UNL A   1      47.934  27.006  30.617  1.00  0.00     0.058 A 
ATOM     88  C   UNL A   1      49.012  27.333  29.779  1.00  0.00     0.135 A 
ATOM     89  C   UNL A   1      48.214  26.298  31.797  1.00  0.00     0.135 A 
ATOM     90  F   UNL A   1      48.800  28.003  28.636  1.00  0.00    -0.206 F 
ATOM     91  C   UNL A   1      50.313  26.950  30.087  1.00  0.00     0.059 A 
ATOM     92  C   UNL A   1      49.510  25.931  32.140  1.00  0.00     0.059 A 
ATOM     93  F   UNL A   1      47.220  25.969  32.640  1.00  0.00    -0.206 F 
ATOM     94  C   UNL A   1      50.552  26.251  31.272  1.00  0.00     0.060 A 
BRANCH  94  95
ATOM     95  S   UNL A   1      52.251  25.793  31.676  1.00  0.00     0.124 S 
ATOM     96  O   UNL A   1      52.085  24.416  32.130  1.00  0.00    -0.237 OA
ATOM     97  O   UNL A   1      52.933  25.961  30.397  1.00  0.00    -0.237 OA
ATOM     98  O   UNL A   1      52.626  26.754  32.710  1.00  0.00    -0.744 OA
ENDBRANCH  94  95
ENDBRANCH  62  87
ENDBRANCH  36  37
ENDBRANCH  28  31
ENDBRANCH  26  27
ENDBRANCH  25  26
ENDBRANCH  24  25
ENDBRANCH   1  24
TORSDOF 20
ENDMDL
MODEL 2
REMARK VINA RESULT:     -10.1      2.837      4.001
REMARK SMILES COC[C@H]1CC[N@@H+](Cc2ccc(C(=O)NCCCCCCNC(=O)c3ccc(-c4c5nc(c(-c6c(F)cc(S(=O)(=O)[O-])cc6F)c6ccc([nH]6)c(-c6c(F)cc(S(=O)(=O)[O-])cc6F)c6nc(c(-c7c(F)cc(S(=O)(=O)[O-])cc7F)c7ccc4[nH]7)C=C6)C=C5)cc3)cn2)C1
REMARK SMILES IDX 18 1 17 2 16 3 15 4 13 5 14 6 12 8 9 9 10 10 92 11 11 12
REMARK SMILES IDX 91 13 8 14 7 15 4 16 5 17 93 18 6 19 3 21 2 22 1 23 19 24
REMARK SMILES IDX 20 25 21 26 22 27 23 28 24 30 25 31 26 32 90 33 27 34 89 35
REMARK SMILES IDX 28 36 29 37 30 38 83 39 31 40 88 41 82 42 84 43 32 44 87 45
REMARK SMILES IDX 81 46 80 47 33 49 67 50 46 51 66 52 47 53 50 54 65 55 85 56
REMARK SMILES IDX 48 57 49 58 64 60 86 61 51 62 34 63 35 64 44 65 36 66 37 67
REMARK SMILES IDX 43 68 45 69 38 70 39 71 40 72 41 73 42 74 68 75 69 76 78 77
REMARK SMILES IDX 70 78 71 79 77 80 79 81 72 82 73 83 74 84 75 85 76 86 52 87
REMARK SMILES IDX 53 88 62 89 54 90 55 91 61 92 63 93 56 94 57 95 58 96 59 97
REMARK SMILES IDX 60 98
REMARK H PARENT 15 7 7 20 22 29 84 48 50 59
REMARK Flexibility Score: inf
ROOT
ATOM      1  C   UNL A   1      32.855  28.660  26.721  1.00  0.00     0.002 C 
ENDROOT
BRANCH   1   2
ATOM      2  C   UNL A   1      32.038  29.490  25.723  1.00  0.00     0.021 C 
BRANCH   2   3
ATOM      3  C   UNL A   1      32.542  29.383  24.284  1.00  0.00     0.116 C 
BRANCH   3   4
ATOM      4  N   UNL A   1      31.467  29.674  23.350  1.00  0.00    -0.352 N 
ATOM      5  C   UNL A   1      30.661  28.850  22.607  1.00  0.00     0.252 C 
ATOM      6  O   UNL A   1      29.783  29.349  21.907  1.00  0.00    -0.269 OA
ATOM      7  H   UNL A   1      31.285  30.634  23.229  1.00  0.00     0.163 HD
BRANCH   5   8
ATOM      8  C   UNL A   1      30.759  27.380  22.694  1.00  0.00     0.058 A 
ATOM      9  C   UNL A   1      30.952  24.691  23.261  1.00  0.00     0.095 A 
ATOM     10  C   UNL A   1      31.741  25.229  22.244  1.00  0.00     0.030 A 
ATOM     11  N   UNL A   1      30.009  25.423  23.905  1.00  0.00    -0.255 NA
ATOM     12  C   UNL A   1      31.630  26.589  21.949  1.00  0.00     0.017 A 
ATOM     13  C   UNL A   1      29.931  26.743  23.605  1.00  0.00     0.125 A 
BRANCH   9  14
ATOM     14  C   UNL A   1      31.198  23.278  23.765  1.00  0.00     0.319 C 
BRANCH  14  15
ATOM     15  N   UNL A   1      32.370  22.563  23.219  1.00  0.00    -0.330 N 
ATOM     16  C   UNL A   1      33.937  21.327  24.610  1.00  0.00     0.076 C 
ATOM     17  C   UNL A   1      32.769  20.429  24.201  1.00  0.00     0.073 C 
ATOM     18  C   UNL A   1      33.597  22.699  24.007  1.00  0.00     0.268 C 
ATOM     19  C   UNL A   1      32.159  21.130  23.000  1.00  0.00     0.263 C 
ATOM     20  H   UNL A   1      32.487  23.036  22.323  1.00  0.00     0.348 HD
BRANCH  16  21
ATOM     21  C   UNL A   1      34.146  21.369  26.130  1.00  0.00     0.169 C 
BRANCH  21  22
ATOM     22  O   UNL A   1      35.525  21.453  26.486  1.00  0.00    -0.384 OA
ATOM     23  C   UNL A   1      36.413  21.292  25.390  1.00  0.00     0.194 C 
ENDBRANCH  21  22
ENDBRANCH  16  21
ENDBRANCH  14  15
ENDBRANCH   9  14
ENDBRANCH   5   8
ENDBRANCH   3   4
ENDBRANCH   2   3
ENDBRANCH   1   2
BRANCH   1  24
ATOM     24  C   UNL A   1      34.253  29.210  27.022  1.00  0.00     0.002 C 
BRANCH  24  25
ATOM     25  C   UNL A   1      34.293  30.680  27.451  1.00  0.00     0.021 C 
BRANCH  25  26
ATOM     26  C   UNL A   1      35.577  31.098  28.161  1.00  0.00     0.116 C 
BRANCH  26  27
ATOM     27  N   UNL A   1      35.458  30.980  29.606  1.00  0.00    -0.352 N 
ATOM     28  C   UNL A   1      36.281  30.337  30.498  1.00  0.00     0.251 C 
ATOM     29  H   UNL A   1      34.674  31.425  30.002  1.00  0.00     0.163 HD
ATOM     30  O   UNL A   1      35.904  30.148  31.649  1.00  0.00    -0.269 OA
BRANCH  28  31
ATOM     31  C   UNL A   1      37.614  29.863  30.063  1.00  0.00     0.039 A 
ATOM     32  C   UNL A   1      37.933  29.895  28.705  1.00  0.00     0.014 A 
ATOM     33  C   UNL A   1      38.538  29.373  30.990  1.00  0.00     0.014 A 
ATOM     34  C   UNL A   1      39.200  29.487  28.281  1.00  0.00     0.010 A 
ATOM     35  C   UNL A   1      39.824  29.035  30.576  1.00  0.00     0.010 A 
ATOM     36  C   UNL A   1      40.167  29.082  29.218  1.00  0.00    -0.014 A 
BRANCH  36  37
ATOM     37  C   UNL A   1      41.540  28.704  28.789  1.00  0.00     0.031 A 
ATOM     38  C   UNL A   1      42.630  29.742  28.744  1.00  0.00     0.074 A 
ATOM     39  C   UNL A   1      41.791  27.439  28.398  1.00  0.00     0.049 A 
ATOM     40  N   UNL A   1      43.871  29.617  28.349  1.00  0.00    -0.248 NA
ATOM     41  C   UNL A   1      42.274  31.102  29.177  1.00  0.00     0.031 C 
ATOM     42  C   UNL A   1      40.806  26.354  28.360  1.00  0.00     0.029 A 
ATOM     43  N   UNL A   1      42.947  26.850  27.953  1.00  0.00    -0.354 N 
ATOM     44  C   UNL A   1      44.442  30.878  28.485  1.00  0.00     0.074 A 
ATOM     45  C   UNL A   1      43.395  31.768  28.939  1.00  0.00     0.031 C 
ATOM     46  C   UNL A   1      41.407  25.228  27.944  1.00  0.00     0.029 A 
ATOM     47  C   UNL A   1      42.807  25.516  27.647  1.00  0.00     0.049 A 
ATOM     48  H   UNL A   1      43.799  27.336  27.862  1.00  0.00     0.167 HD
ATOM     49  C   UNL A   1      45.726  31.253  28.280  1.00  0.00     0.037 A 
ATOM     50  C   UNL A   1      43.703  24.628  27.174  1.00  0.00     0.037 A 
ATOM     51  C   UNL A   1      46.768  30.359  27.844  1.00  0.00     0.049 A 
ATOM     52  C   UNL A   1      45.119  25.078  26.927  1.00  0.00     0.074 A 
ATOM     53  C   UNL A   1      48.108  30.634  27.637  1.00  0.00     0.029 A 
ATOM     54  N   UNL A   1      46.587  29.015  27.549  1.00  0.00    -0.354 N 
ATOM     55  N   UNL A   1      45.652  26.263  27.110  1.00  0.00    -0.248 NA
ATOM     56  C   UNL A   1      46.057  24.071  26.414  1.00  0.00     0.031 C 
ATOM     57  C   UNL A   1      48.729  29.468  27.178  1.00  0.00     0.029 A 
ATOM     58  C   UNL A   1      47.788  28.453  27.148  1.00  0.00     0.049 A 
ATOM     59  H   UNL A   1      45.731  28.533  27.616  1.00  0.00     0.167 HD
ATOM     60  C   UNL A   1      46.994  26.134  26.770  1.00  0.00     0.074 A 
ATOM     61  C   UNL A   1      47.192  24.753  26.379  1.00  0.00     0.031 C 
ATOM     62  C   UNL A   1      47.973  27.072  26.778  1.00  0.00     0.037 A 
BRANCH  49  63
ATOM     63  C   UNL A   1      46.085  32.692  28.538  1.00  0.00     0.058 A 
ATOM     64  C   UNL A   1      45.865  33.688  27.571  1.00  0.00     0.135 A 
ATOM     65  C   UNL A   1      46.608  33.091  29.778  1.00  0.00     0.135 A 
ATOM     66  F   UNL A   1      45.383  33.360  26.362  1.00  0.00    -0.206 F 
ATOM     67  C   UNL A   1      46.174  35.021  27.815  1.00  0.00     0.059 A 
ATOM     68  C   UNL A   1      46.897  34.426  30.056  1.00  0.00     0.059 A 
ATOM     69  F   UNL A   1      46.839  32.183  30.739  1.00  0.00    -0.206 F 
ATOM     70  C   UNL A   1      46.688  35.381  29.062  1.00  0.00     0.060 A 
BRANCH  70  71
ATOM     71  S   UNL A   1      47.069  37.119  29.366  1.00  0.00     0.124 S 
ATOM     72  O   UNL A   1      46.614  37.280  30.745  1.00  0.00    -0.237 OA
ATOM     73  O   UNL A   1      48.514  37.161  29.168  1.00  0.00    -0.237 OA
ATOM     74  O   UNL A   1      46.280  37.822  28.360  1.00  0.00    -0.744 OA
ENDBRANCH  70  71
ENDBRANCH  49  63
BRANCH  50  75
ATOM     75  C   UNL A   1      43.302  23.217  26.922  1.00  0.00     0.058 A 
ATOM     76  C   UNL A   1      43.094  22.325  27.984  1.00  0.00     0.135 A 
ATOM     77  C   UNL A   1      43.132  22.728  25.617  1.00  0.00     0.135 A 
ATOM     78  F   UNL A   1      43.247  22.743  29.250  1.00  0.00    -0.206 F 
ATOM     79  C   UNL A   1      42.764  20.991  27.764  1.00  0.00     0.059 A 
ATOM     80  C   UNL A   1      42.775  21.405  25.371  1.00  0.00     0.059 A 
ATOM     81  F   UNL A   1      43.301  23.544  24.564  1.00  0.00    -0.206 F 
ATOM     82  C   UNL A   1      42.609  20.541  26.453  1.00  0.00     0.060 A 
BRANCH  82  83
ATOM     83  S   UNL A   1      42.164  18.812  26.178  1.00  0.00     0.124 S 
ATOM     84  O   UNL A   1      43.117  18.424  25.146  1.00  0.00    -0.237 OA
ATOM     85  O   UNL A   1      42.376  18.228  27.499  1.00  0.00    -0.237 OA
ATOM     86  O   UNL A   1      40.769  18.890  25.754  1.00  0.00    -0.744 OA
ENDBRANCH  82  83
ENDBRANCH  50  75
BRANCH  62  87
ATOM     87  C   UNL A   1      49.360  26.629  26.399  1.00  0.00     0.058 A 
ATOM     88  C   UNL A   1      50.216  26.007  27.322  1.00  0.00     0.135 A 
ATOM     89  C   UNL A   1      49.818  26.785  25.081  1.00  0.00     0.135 A 
ATOM     90  F   UNL A   1      49.830  25.840  28.596  1.00  0.00    -0.206 F 
ATOM     91  C   UNL A   1      51.487  25.577  26.955  1.00  0.00     0.059 A 
ATOM     92  C   UNL A   1      51.073  26.335  24.686  1.00  0.00     0.059 A 
ATOM     93  F   UNL A   1      49.034  27.364  24.157  1.00  0.00    -0.206 F 
ATOM     94  C   UNL A   1      51.905  25.743  25.633  1.00  0.00     0.060 A 
BRANCH  94  95
ATOM     95  S   UNL A   1      53.544  25.147  25.164  1.00  0.00     0.124 S 
ATOM     96  O   UNL A   1      53.634  25.595  23.779  1.00  0.00    -0.237 OA
ATOM     97  O   UNL A   1      54.411  25.837  26.113  1.00  0.00    -0.237 OA
ATOM     98  O   UNL A   1      53.445  23.701  25.351  1.00  0.00    -0.744 OA
ENDBRANCH  94  95
ENDBRANCH  62  87
ENDBRANCH  36  37
ENDBRANCH  28  31
ENDBRANCH  26  27
ENDBRANCH  25  26
ENDBRANCH  24  25
ENDBRANCH   1  24
TORSDOF 20
ENDMDL
MODEL 3
REMARK VINA RESULT:     -10.1      2.758      3.676
REMARK SMILES COC[C@H]1CC[N@@H+](Cc2ccc(C(=O)NCCCCCCNC(=O)c3ccc(-c4c5nc(c(-c6c(F)cc(S(=O)(=O)[O-])cc6F)c6ccc([nH]6)c(-c6c(F)cc(S(=O)(=O)[O-])cc6F)c6nc(c(-c7c(F)cc(S(=O)(=O)[O-])cc7F)c7ccc4[nH]7)C=C6)C=C5)cc3)cn2)C1
REMARK SMILES IDX 18 1 17 2 16 3 15 4 13 5 14 6 12 8 9 9 10 10 92 11 11 12
REMARK SMILES IDX 91 13 8 14 7 15 4 16 5 17 93 18 6 19 3 21 2 22 1 23 19 24
REMARK SMILES IDX 20 25 21 26 22 27 23 28 24 30 25 31 26 32 90 33 27 34 89 35
REMARK SMILES IDX 28 36 29 37 30 38 83 39 31 40 88 41 82 42 84 43 32 44 87 45
REMARK SMILES IDX 81 46 80 47 33 49 67 50 46 51 66 52 47 53 50 54 65 55 85 56
REMARK SMILES IDX 48 57 49 58 64 60 86 61 51 62 34 63 35 64 44 65 36 66 37 67
REMARK SMILES IDX 43 68 45 69 38 70 39 71 40 72 41 73 42 74 68 75 69 76 78 77
REMARK SMILES IDX 70 78 71 79 77 80 79 81 72 82 73 83 74 84 75 85 76 86 52 87
REMARK SMILES IDX 53 88 62 89 54 90 55 91 61 92 63 93 56 94 57 95 58 96 59 97
REMARK SMILES IDX 60 98
REMARK H PARENT 15 7 7 20 22 29 84 48 50 59
REMARK Flexibility Score: inf
ROOT
ATOM      1  C   UNL A   1      33.368  29.306  24.755  1.00  0.00     0.002 C 
ENDROOT
BRANCH   1   2
ATOM      2  C   UNL A   1      33.438  28.780  23.316  1.00  0.00     0.021 C 
BRANCH   2   3
ATOM      3  C   UNL A   1      32.170  28.053  22.870  1.00  0.00     0.116 C 
BRANCH   3   4
ATOM      4  N   UNL A   1      32.454  27.194  21.733  1.00  0.00    -0.352 N 
ATOM      5  C   UNL A   1      32.970  25.926  21.657  1.00  0.00     0.252 C 
ATOM      6  O   UNL A   1      33.080  25.392  20.556  1.00  0.00    -0.269 OA
ATOM      7  H   UNL A   1      32.238  27.595  20.859  1.00  0.00     0.163 HD
BRANCH   5   8
ATOM      8  C   UNL A   1      33.310  25.151  22.867  1.00  0.00     0.058 A 
ATOM      9  C   UNL A   1      33.555  23.760  25.233  1.00  0.00     0.095 A 
ATOM     10  C   UNL A   1      34.545  24.676  24.877  1.00  0.00     0.030 A 
ATOM     11  N   UNL A   1      32.532  23.446  24.399  1.00  0.00    -0.255 NA
ATOM     12  C   UNL A   1      34.426  25.369  23.671  1.00  0.00     0.017 A 
ATOM     13  C   UNL A   1      32.436  24.141  23.239  1.00  0.00     0.125 A 
BRANCH   9  14
ATOM     14  C   UNL A   1      33.526  23.154  26.626  1.00  0.00     0.319 C 
BRANCH  14  15
ATOM     15  N   UNL A   1      34.158  21.829  26.797  1.00  0.00    -0.330 N 
ATOM     16  C   UNL A   1      33.848  19.998  25.225  1.00  0.00     0.076 C 
ATOM     17  C   UNL A   1      35.017  20.879  24.787  1.00  0.00     0.073 C 
ATOM     18  C   UNL A   1      33.294  20.688  26.482  1.00  0.00     0.268 C 
ATOM     19  C   UNL A   1      35.399  21.647  26.041  1.00  0.00     0.263 C 
ATOM     20  H   UNL A   1      34.359  21.837  27.797  1.00  0.00     0.348 HD
BRANCH  16  21
ATOM     21  C   UNL A   1      32.797  19.818  24.121  1.00  0.00     0.169 C 
BRANCH  21  22
ATOM     22  O   UNL A   1      32.317  18.476  24.042  1.00  0.00    -0.384 OA
ATOM     23  C   UNL A   1      32.936  17.702  23.026  1.00  0.00     0.194 C 
ENDBRANCH  21  22
ENDBRANCH  16  21
ENDBRANCH  14  15
ENDBRANCH   9  14
ENDBRANCH   5   8
ENDBRANCH   3   4
ENDBRANCH   2   3
ENDBRANCH   1   2
BRANCH   1  24
ATOM     24  C   UNL A   1      34.010  28.394  25.806  1.00  0.00     0.002 C 
BRANCH  24  25
ATOM     25  C   UNL A   1      34.000  28.944  27.235  1.00  0.00     0.021 C 
BRANCH  25  26
ATOM     26  C   UNL A   1      35.337  29.512  27.704  1.00  0.00     0.116 C 
BRANCH  26  27
ATOM     27  N   UNL A   1      35.272  29.978  29.080  1.00  0.00    -0.352 N 
ATOM     28  C   UNL A   1      36.248  29.979  30.046  1.00  0.00     0.251 C 
ATOM     29  H   UNL A   1      34.403  30.346  29.359  1.00  0.00     0.163 HD
ATOM     30  O   UNL A   1      35.951  30.200  31.214  1.00  0.00    -0.269 OA
BRANCH  28  31
ATOM     31  C   UNL A   1      37.654  29.701  29.675  1.00  0.00     0.039 A 
ATOM     32  C   UNL A   1      38.563  29.356  30.677  1.00  0.00     0.014 A 
ATOM     33  C   UNL A   1      38.077  29.797  28.346  1.00  0.00     0.014 A 
ATOM     34  C   UNL A   1      39.884  29.053  30.339  1.00  0.00     0.010 A 
ATOM     35  C   UNL A   1      39.374  29.425  28.002  1.00  0.00     0.010 A 
ATOM     36  C   UNL A   1      40.293  29.056  28.994  1.00  0.00    -0.014 A 
BRANCH  36  37
ATOM     37  C   UNL A   1      41.679  28.676  28.613  1.00  0.00     0.031 A 
ATOM     38  C   UNL A   1      42.765  29.717  28.574  1.00  0.00     0.074 A 
ATOM     39  C   UNL A   1      41.947  27.403  28.259  1.00  0.00     0.049 A 
ATOM     40  N   UNL A   1      44.017  29.590  28.217  1.00  0.00    -0.248 NA
ATOM     41  C   UNL A   1      42.390  31.086  28.965  1.00  0.00     0.031 C 
ATOM     42  C   UNL A   1      40.969  26.312  28.219  1.00  0.00     0.029 A 
ATOM     43  N   UNL A   1      43.118  26.810  27.860  1.00  0.00    -0.354 N 
ATOM     44  C   UNL A   1      44.578  30.857  28.339  1.00  0.00     0.074 A 
ATOM     45  C   UNL A   1      43.515  31.752  28.742  1.00  0.00     0.031 C 
ATOM     46  C   UNL A   1      41.586  25.180  27.846  1.00  0.00     0.029 A 
ATOM     47  C   UNL A   1      42.992  25.469  27.582  1.00  0.00     0.049 A 
ATOM     48  H   UNL A   1      43.969  27.299  27.782  1.00  0.00     0.167 HD
ATOM     49  C   UNL A   1      45.866  31.235  28.160  1.00  0.00     0.037 A 
ATOM     50  C   UNL A   1      43.906  24.575  27.155  1.00  0.00     0.037 A 
ATOM     51  C   UNL A   1      46.924  30.336  27.775  1.00  0.00     0.049 A 
ATOM     52  C   UNL A   1      45.326  25.026  26.937  1.00  0.00     0.074 A 
ATOM     53  C   UNL A   1      48.268  30.613  27.599  1.00  0.00     0.029 A 
ATOM     54  N   UNL A   1      46.757  28.984  27.507  1.00  0.00    -0.354 N 
ATOM     55  N   UNL A   1      45.848  26.218  27.107  1.00  0.00    -0.248 NA
ATOM     56  C   UNL A   1      46.283  24.012  26.473  1.00  0.00     0.031 C 
ATOM     57  C   UNL A   1      48.907  29.440  27.184  1.00  0.00     0.029 A 
ATOM     58  C   UNL A   1      47.971  28.419  27.152  1.00  0.00     0.049 A 
ATOM     59  H   UNL A   1      45.902  28.499  27.561  1.00  0.00     0.167 HD
ATOM     60  C   UNL A   1      47.199  26.088  26.806  1.00  0.00     0.074 A 
ATOM     61  C   UNL A   1      47.415  24.700  26.454  1.00  0.00     0.031 C 
ATOM     62  C   UNL A   1      48.173  27.031  26.820  1.00  0.00     0.037 A 
BRANCH  49  63
ATOM     63  C   UNL A   1      46.210  32.681  28.395  1.00  0.00     0.058 A 
ATOM     64  C   UNL A   1      46.137  33.629  27.360  1.00  0.00     0.135 A 
ATOM     65  C   UNL A   1      46.572  33.136  29.673  1.00  0.00     0.135 A 
ATOM     66  F   UNL A   1      45.813  33.247  26.115  1.00  0.00    -0.206 F 
ATOM     67  C   UNL A   1      46.433  34.970  27.580  1.00  0.00     0.059 A 
ATOM     68  C   UNL A   1      46.843  34.480  29.922  1.00  0.00     0.059 A 
ATOM     69  F   UNL A   1      46.659  32.274  30.698  1.00  0.00    -0.206 F 
ATOM     70  C   UNL A   1      46.783  35.387  28.865  1.00  0.00     0.060 A 
BRANCH  70  71
ATOM     71  S   UNL A   1      47.148  37.133  29.133  1.00  0.00     0.124 S 
ATOM     72  O   UNL A   1      48.307  37.055  30.020  1.00  0.00    -0.237 OA
ATOM     73  O   UNL A   1      47.419  37.607  27.780  1.00  0.00    -0.237 OA
ATOM     74  O   UNL A   1      45.927  37.648  29.743  1.00  0.00    -0.744 OA
ENDBRANCH  70  71
ENDBRANCH  49  63
BRANCH  50  75
ATOM     75  C   UNL A   1      43.518  23.156  26.924  1.00  0.00     0.058 A 
ATOM     76  C   UNL A   1      43.386  22.646  25.623  1.00  0.00     0.135 A 
ATOM     77  C   UNL A   1      43.255  22.287  27.994  1.00  0.00     0.135 A 
ATOM     78  F   UNL A   1      43.623  23.438  24.567  1.00  0.00    -0.206 F 
ATOM     79  C   UNL A   1      42.980  21.337  25.389  1.00  0.00     0.059 A 
ATOM     80  C   UNL A   1      42.874  20.964  27.787  1.00  0.00     0.059 A 
ATOM     81  F   UNL A   1      43.383  22.718  29.259  1.00  0.00    -0.206 F 
ATOM     82  C   UNL A   1      42.723  20.504  26.480  1.00  0.00     0.060 A 
BRANCH  82  83
ATOM     83  S   UNL A   1      42.213  18.800  26.166  1.00  0.00     0.124 S 
ATOM     84  O   UNL A   1      42.463  18.176  27.459  1.00  0.00    -0.237 OA
ATOM     85  O   UNL A   1      40.811  18.964  25.794  1.00  0.00    -0.237 OA
ATOM     86  O   UNL A   1      43.095  18.381  25.080  1.00  0.00    -0.744 OA
ENDBRANCH  82  83
ENDBRANCH  50  75
BRANCH  62  87
ATOM     87  C   UNL A   1      49.572  26.587  26.491  1.00  0.00     0.058 A 
ATOM     88  C   UNL A   1      50.448  26.105  27.476  1.00  0.00     0.135 A 
ATOM     89  C   UNL A   1      50.024  26.597  25.161  1.00  0.00     0.135 A 
ATOM     90  F   UNL A   1      50.068  26.079  28.764  1.00  0.00    -0.206 F 
ATOM     91  C   UNL A   1      51.730  25.671  27.158  1.00  0.00     0.059 A 
ATOM     92  C   UNL A   1      51.291  26.141  24.816  1.00  0.00     0.059 A 
ATOM     93  F   UNL A   1      49.222  27.040  24.178  1.00  0.00    -0.206 F 
ATOM     94  C   UNL A   1      52.142  25.691  25.824  1.00  0.00     0.060 A 
BRANCH  94  95
ATOM     95  S   UNL A   1      53.797  25.091  25.422  1.00  0.00     0.124 S 
ATOM     96  O   UNL A   1      54.087  25.827  24.197  1.00  0.00    -0.237 OA
ATOM     97  O   UNL A   1      54.566  25.486  26.597  1.00  0.00    -0.237 OA
ATOM     98  O   UNL A   1      53.607  23.652  25.260  1.00  0.00    -0.744 OA
ENDBRANCH  94  95
ENDBRANCH  62  87
ENDBRANCH  36  37
ENDBRANCH  28  31
ENDBRANCH  26  27
ENDBRANCH  25  26
ENDBRANCH  24  25
ENDBRANCH   1  24
TORSDOF 20
ENDMDL
