MODEL 1
REMARK VINA RESULT:     -11.3      0.000      0.000
REMARK SMILES O=C(NCCCCCCNC(=O)[C@H]1C[C@@H](O)CN1C(=O)c1cc(F)c(F)cc1Cl)c1ccc(-c2c3nc(c(-c4c(F)cc(S(=O)(=O)[O-])cc4F)c4ccc([nH]4)c(-c4c(F)cc(S(=O)(=O)[O-])cc4F)c4nc(c(-c5c(F)cc(S(=O)(=O)[O-])cc5F)c5ccc2[nH]5)C=C4)C=C3)cc1
REMARK SMILES IDX 6 1 5 2 4 3 3 4 1 5 2 6 30 8 31 9 95 10 32 11 94 12 33 13
REMARK SMILES IDX 34 14 35 15 88 16 36 17 93 18 87 19 89 20 37 21 92 22 86 23
REMARK SMILES IDX 85 24 38 26 72 27 51 28 71 29 52 30 55 31 70 32 90 33 53 34
REMARK SMILES IDX 54 35 69 37 91 38 56 39 39 40 40 41 49 42 41 43 42 44 48 45
REMARK SMILES IDX 50 46 43 47 44 48 45 49 46 50 47 51 73 52 74 53 83 54 75 55
REMARK SMILES IDX 76 56 82 57 84 58 77 59 78 60 79 61 80 62 81 63 57 64 58 65
REMARK SMILES IDX 67 66 59 67 60 68 66 69 68 70 61 71 62 72 63 73 64 74 65 75
REMARK SMILES IDX 7 76 8 77 9 78 10 79 11 80 12 82 13 83 14 84 18 85 15 86
REMARK SMILES IDX 17 87 19 88 20 89 21 90 22 91 28 92 23 93 27 94 29 95 24 96
REMARK SMILES IDX 25 97 26 98 16 99
REMARK H PARENT 3 7 89 25 55 36 10 81 16 100
REMARK Flexibility Score: inf
ROOT
ATOM      1  C   UNL A   1      33.060  29.067  24.745  1.00  0.00     0.002 C 
ENDROOT
BRANCH   1   2
ATOM      2  C   UNL A   1      33.755  28.223  25.821  1.00  0.00     0.021 C 
BRANCH   2   3
ATOM      3  C   UNL A   1      33.267  28.472  27.247  1.00  0.00     0.116 C 
BRANCH   3   4
ATOM      4  N   UNL A   1      33.256  29.890  27.561  1.00  0.00    -0.352 N 
ATOM      5  O   UNL A   1      33.910  31.771  28.593  1.00  0.00    -0.269 OA
ATOM      6  C   UNL A   1      34.211  30.657  28.176  1.00  0.00     0.251 C 
ATOM      7  H   UNL A   1      32.441  30.372  27.291  1.00  0.00     0.163 HD
BRANCH   6   8
ATOM      8  C   UNL A   1      35.597  30.161  28.326  1.00  0.00     0.039 A 
ATOM      9  C   UNL A   1      36.010  29.695  29.579  1.00  0.00     0.014 A 
ATOM     10  C   UNL A   1      36.514  30.249  27.274  1.00  0.00     0.014 A 
ATOM     11  C   UNL A   1      37.339  29.307  29.775  1.00  0.00     0.010 A 
ATOM     12  C   UNL A   1      37.829  29.824  27.460  1.00  0.00     0.010 A 
ATOM     13  C   UNL A   1      38.258  29.370  28.717  1.00  0.00    -0.014 A 
BRANCH  13  14
ATOM     14  C   UNL A   1      39.691  29.048  28.922  1.00  0.00     0.031 A 
ATOM     15  C   UNL A   1      40.608  30.096  29.494  1.00  0.00     0.074 A 
ATOM     16  C   UNL A   1      40.172  27.837  28.582  1.00  0.00     0.049 A 
ATOM     17  N   UNL A   1      41.909  30.077  29.622  1.00  0.00    -0.248 NA
ATOM     18  C   UNL A   1      39.976  31.337  29.973  1.00  0.00     0.031 C 
ATOM     19  C   UNL A   1      39.378  26.730  28.045  1.00  0.00     0.029 A 
ATOM     20  N   UNL A   1      41.448  27.336  28.635  1.00  0.00    -0.354 N 
ATOM     21  C   UNL A   1      42.253  31.298  30.188  1.00  0.00     0.074 A 
ATOM     22  C   UNL A   1      41.028  32.052  30.347  1.00  0.00     0.031 C 
ATOM     23  C   UNL A   1      40.185  25.675  27.834  1.00  0.00     0.029 A 
ATOM     24  C   UNL A   1      41.554  26.044  28.180  1.00  0.00     0.049 A 
ATOM     25  H   UNL A   1      42.216  27.855  28.968  1.00  0.00     0.167 HD
ATOM     26  C   UNL A   1      43.477  31.744  30.558  1.00  0.00     0.037 A 
ATOM     27  C   UNL A   1      42.637  25.253  28.048  1.00  0.00     0.037 A 
ATOM     28  C   UNL A   1      44.690  30.985  30.415  1.00  0.00     0.049 A 
ATOM     29  C   UNL A   1      43.991  25.789  28.433  1.00  0.00     0.074 A 
ATOM     30  C   UNL A   1      45.988  31.363  30.720  1.00  0.00     0.029 A 
ATOM     31  N   UNL A   1      44.753  29.679  29.954  1.00  0.00    -0.354 N 
ATOM     32  N   UNL A   1      44.305  26.970  28.909  1.00  0.00    -0.248 NA
ATOM     33  C   UNL A   1      45.137  24.885  28.259  1.00  0.00     0.031 C 
ATOM     34  C   UNL A   1      46.836  30.289  30.434  1.00  0.00     0.029 A 
ATOM     35  C   UNL A   1      46.064  29.231  29.982  1.00  0.00     0.049 A 
ATOM     36  H   UNL A   1      43.982  29.148  29.653  1.00  0.00     0.167 HD
ATOM     37  C   UNL A   1      45.678  26.937  29.127  1.00  0.00     0.074 A 
ATOM     38  C   UNL A   1      46.134  25.621  28.729  1.00  0.00     0.031 C 
ATOM     39  C   UNL A   1      46.489  27.908  29.611  1.00  0.00     0.037 A 
BRANCH  26  40
ATOM     40  C   UNL A   1      43.569  33.112  31.170  1.00  0.00     0.058 A 
ATOM     41  C   UNL A   1      43.492  33.292  32.560  1.00  0.00     0.135 A 
ATOM     42  C   UNL A   1      43.807  34.244  30.373  1.00  0.00     0.135 A 
ATOM     43  F   UNL A   1      43.243  32.246  33.364  1.00  0.00    -0.206 F 
ATOM     44  C   UNL A   1      43.647  34.547  33.139  1.00  0.00     0.059 A 
ATOM     45  C   UNL A   1      43.986  35.505  30.934  1.00  0.00     0.059 A 
ATOM     46  F   UNL A   1      43.882  34.126  29.038  1.00  0.00    -0.206 F 
ATOM     47  C   UNL A   1      43.900  35.647  32.318  1.00  0.00     0.060 A 
BRANCH  47  48
ATOM     48  S   UNL A   1      44.143  37.260  33.091  1.00  0.00     0.124 S 
ATOM     49  O   UNL A   1      43.122  37.240  34.135  1.00  0.00    -0.237 OA
ATOM     50  O   UNL A   1      45.525  37.179  33.555  1.00  0.00    -0.237 OA
ATOM     51  O   UNL A   1      43.905  38.200  32.000  1.00  0.00    -0.744 OA
ENDBRANCH  47  48
ENDBRANCH  26  40
BRANCH  27  52
ATOM     52  C   UNL A   1      42.497  23.863  27.543  1.00  0.00     0.058 A 
ATOM     53  C   UNL A   1      42.384  22.787  28.435  1.00  0.00     0.135 A 
ATOM     54  C   UNL A   1      42.503  23.578  26.170  1.00  0.00     0.135 A 
ATOM     55  F   UNL A   1      42.381  23.011  29.758  1.00  0.00    -0.206 F 
ATOM     56  C   UNL A   1      42.309  21.472  27.986  1.00  0.00     0.059 A 
ATOM     57  C   UNL A   1      42.407  22.273  25.695  1.00  0.00     0.059 A 
ATOM     58  F   UNL A   1      42.596  24.575  25.275  1.00  0.00    -0.206 F 
ATOM     59  C   UNL A   1      42.327  21.226  26.613  1.00  0.00     0.060 A 
BRANCH  59  60
ATOM     60  S   UNL A   1      42.213  19.519  26.035  1.00  0.00     0.124 S 
ATOM     61  O   UNL A   1      43.133  19.532  24.904  1.00  0.00    -0.237 OA
ATOM     62  O   UNL A   1      42.652  18.766  27.207  1.00  0.00    -0.237 OA
ATOM     63  O   UNL A   1      40.800  19.373  25.701  1.00  0.00    -0.744 OA
ENDBRANCH  59  60
ENDBRANCH  27  52
BRANCH  39  64
ATOM     64  C   UNL A   1      47.939  27.564  29.799  1.00  0.00     0.058 A 
ATOM     65  C   UNL A   1      48.379  26.790  30.882  1.00  0.00     0.135 A 
ATOM     66  C   UNL A   1      48.892  27.985  28.856  1.00  0.00     0.135 A 
ATOM     67  F   UNL A   1      47.506  26.369  31.810  1.00  0.00    -0.206 F 
ATOM     68  C   UNL A   1      49.722  26.463  31.038  1.00  0.00     0.059 A 
ATOM     69  C   UNL A   1      50.236  27.652  28.982  1.00  0.00     0.059 A 
ATOM     70  F   UNL A   1      48.516  28.720  27.797  1.00  0.00    -0.206 F 
ATOM     71  C   UNL A   1      50.643  26.901  30.084  1.00  0.00     0.060 A 
BRANCH  71  72
ATOM     72  S   UNL A   1      52.380  26.452  30.286  1.00  0.00     0.124 S 
ATOM     73  O   UNL A   1      52.727  26.006  28.941  1.00  0.00    -0.237 OA
ATOM     74  O   UNL A   1      52.983  27.713  30.711  1.00  0.00    -0.237 OA
ATOM     75  O   UNL A   1      52.344  25.408  31.306  1.00  0.00    -0.744 OA
ENDBRANCH  71  72
ENDBRANCH  39  64
ENDBRANCH  13  14
ENDBRANCH   6   8
ENDBRANCH   3   4
ENDBRANCH   2   3
ENDBRANCH   1   2
BRANCH   1  76
ATOM     76  C   UNL A   1      31.533  29.159  24.864  1.00  0.00     0.002 C 
BRANCH  76  77
ATOM     77  C   UNL A   1      30.757  28.053  24.140  1.00  0.00     0.021 C 
BRANCH  77  78
ATOM     78  C   UNL A   1      30.562  26.795  24.981  1.00  0.00     0.116 C 
BRANCH  78  79
ATOM     79  N   UNL A   1      30.306  25.641  24.153  1.00  0.00    -0.354 N 
ATOM     80  C   UNL A   1      30.926  24.438  24.061  1.00  0.00     0.242 C 
ATOM     81  H   UNL A   1      29.541  25.746  23.543  1.00  0.00     0.163 HD
ATOM     82  O   UNL A   1      30.344  23.615  23.342  1.00  0.00    -0.273 OA
BRANCH  80  83
ATOM     83  C   UNL A   1      32.177  24.020  24.895  1.00  0.00     0.177 C 
ATOM     84  C   UNL A   1      31.772  23.838  26.372  1.00  0.00     0.069 C 
ATOM     85  N   UNL A   1      32.863  22.748  24.589  1.00  0.00    -0.324 N 
ATOM     86  C   UNL A   1      31.465  22.347  26.476  1.00  0.00     0.136 C 
ATOM     87  C   UNL A   1      32.507  21.710  25.560  1.00  0.00     0.152 C 
BRANCH  85  88
ATOM     88  C   UNL A   1      34.055  22.742  23.864  1.00  0.00     0.256 C 
ATOM     89  O   UNL A   1      34.066  22.798  22.638  1.00  0.00    -0.269 OA
BRANCH  88  90
ATOM     90  C   UNL A   1      35.350  22.570  24.582  1.00  0.00     0.061 A 
ATOM     91  C   UNL A   1      36.014  21.336  24.492  1.00  0.00     0.057 A 
ATOM     92  C   UNL A   1      35.981  23.639  25.244  1.00  0.00     0.056 A 
ATOM     93  C   UNL A   1      37.257  21.166  25.094  1.00  0.00     0.159 A 
ATOM     94  C   UNL A   1      37.246  23.462  25.822  1.00  0.00     0.063 A 
ATOM     95  Cl  UNL A   1      35.254  25.195  25.439  1.00  0.00    -0.083 Cl
ATOM     96  F   UNL A   1      37.855  19.971  25.022  1.00  0.00    -0.204 F 
ATOM     97  C   UNL A   1      37.870  22.223  25.751  1.00  0.00     0.160 A 
ATOM     98  F   UNL A   1      39.068  22.054  26.324  1.00  0.00    -0.204 F 
ENDBRANCH  88  90
ENDBRANCH  85  88
BRANCH  86  99
ATOM     99  O   UNL A   1      30.143  22.039  26.044  1.00  0.00    -0.391 OA
ATOM    100  H   UNL A   1      30.170  21.285  25.434  1.00  0.00     0.211 HD
ENDBRANCH  86  99
ENDBRANCH  80  83
ENDBRANCH  78  79
ENDBRANCH  77  78
ENDBRANCH  76  77
ENDBRANCH   1  76
TORSDOF 19
ENDMDL
MODEL 2
REMARK VINA RESULT:     -11.0      1.591      2.233
REMARK SMILES O=C(NCCCCCCNC(=O)[C@H]1C[C@@H](O)CN1C(=O)c1cc(F)c(F)cc1Cl)c1ccc(-c2c3nc(c(-c4c(F)cc(S(=O)(=O)[O-])cc4F)c4ccc([nH]4)c(-c4c(F)cc(S(=O)(=O)[O-])cc4F)c4nc(c(-c5c(F)cc(S(=O)(=O)[O-])cc5F)c5ccc2[nH]5)C=C4)C=C3)cc1
REMARK SMILES IDX 6 1 5 2 4 3 3 4 1 5 2 6 30 8 31 9 95 10 32 11 94 12 33 13
REMARK SMILES IDX 34 14 35 15 88 16 36 17 93 18 87 19 89 20 37 21 92 22 86 23
REMARK SMILES IDX 85 24 38 26 72 27 51 28 71 29 52 30 55 31 70 32 90 33 53 34
REMARK SMILES IDX 54 35 69 37 91 38 56 39 39 40 40 41 49 42 41 43 42 44 48 45
REMARK SMILES IDX 50 46 43 47 44 48 45 49 46 50 47 51 73 52 74 53 83 54 75 55
REMARK SMILES IDX 76 56 82 57 84 58 77 59 78 60 79 61 80 62 81 63 57 64 58 65
REMARK SMILES IDX 67 66 59 67 60 68 66 69 68 70 61 71 62 72 63 73 64 74 65 75
REMARK SMILES IDX 7 76 8 77 9 78 10 79 11 80 12 82 13 83 14 84 18 85 15 86
REMARK SMILES IDX 17 87 19 88 20 89 21 90 22 91 28 92 23 93 27 94 29 95 24 96
REMARK SMILES IDX 25 97 26 98 16 99
REMARK H PARENT 3 7 89 25 55 36 10 81 16 100
REMARK Flexibility Score: inf
ROOT
ATOM      1  C   UNL A   1      31.742  26.940  25.998  1.00  0.00     0.002 C 
ENDROOT
BRANCH   1   2
ATOM      2  C   UNL A   1      31.940  27.963  27.124  1.00  0.00     0.021 C 
BRANCH   2   3
ATOM      3  C   UNL A   1      33.366  28.494  27.265  1.00  0.00     0.116 C 
BRANCH   3   4
ATOM      4  N   UNL A   1      33.373  29.918  27.550  1.00  0.00    -0.352 N 
ATOM      5  O   UNL A   1      34.044  31.810  28.549  1.00  0.00    -0.269 OA
ATOM      6  C   UNL A   1      34.333  30.684  28.159  1.00  0.00     0.251 C 
ATOM      7  H   UNL A   1      32.569  30.406  27.261  1.00  0.00     0.163 HD
BRANCH   6   8
ATOM      8  C   UNL A   1      35.709  30.171  28.334  1.00  0.00     0.039 A 
ATOM      9  C   UNL A   1      36.101  29.722  29.601  1.00  0.00     0.014 A 
ATOM     10  C   UNL A   1      36.639  30.225  27.291  1.00  0.00     0.014 A 
ATOM     11  C   UNL A   1      37.422  29.319  29.819  1.00  0.00     0.010 A 
ATOM     12  C   UNL A   1      37.946  29.784  27.501  1.00  0.00     0.010 A 
ATOM     13  C   UNL A   1      38.354  29.348  28.771  1.00  0.00    -0.014 A 
BRANCH  13  14
ATOM     14  C   UNL A   1      39.779  29.009  28.999  1.00  0.00     0.031 A 
ATOM     15  C   UNL A   1      40.694  30.039  29.607  1.00  0.00     0.074 A 
ATOM     16  C   UNL A   1      40.256  27.800  28.648  1.00  0.00     0.049 A 
ATOM     17  N   UNL A   1      41.993  30.005  29.760  1.00  0.00    -0.248 NA
ATOM     18  C   UNL A   1      40.064  31.278  30.095  1.00  0.00     0.031 C 
ATOM     19  C   UNL A   1      39.463  26.710  28.076  1.00  0.00     0.029 A 
ATOM     20  N   UNL A   1      41.526  27.286  28.718  1.00  0.00    -0.354 N 
ATOM     21  C   UNL A   1      42.336  31.214  30.354  1.00  0.00     0.074 A 
ATOM     22  C   UNL A   1      41.115  31.976  30.501  1.00  0.00     0.031 C 
ATOM     23  C   UNL A   1      40.264  25.651  27.862  1.00  0.00     0.029 A 
ATOM     24  C   UNL A   1      41.629  26.000  28.242  1.00  0.00     0.049 A 
ATOM     25  H   UNL A   1      42.292  27.792  29.075  1.00  0.00     0.167 HD
ATOM     26  C   UNL A   1      43.556  31.642  30.755  1.00  0.00     0.037 A 
ATOM     27  C   UNL A   1      42.708  25.202  28.118  1.00  0.00     0.037 A 
ATOM     28  C   UNL A   1      44.766  30.873  30.624  1.00  0.00     0.049 A 
ATOM     29  C   UNL A   1      44.058  25.719  28.539  1.00  0.00     0.074 A 
ATOM     30  C   UNL A   1      46.060  31.234  30.960  1.00  0.00     0.029 A 
ATOM     31  N   UNL A   1      44.826  29.575  30.142  1.00  0.00    -0.354 N 
ATOM     32  N   UNL A   1      44.374  26.888  29.042  1.00  0.00    -0.248 NA
ATOM     33  C   UNL A   1      45.199  24.807  28.372  1.00  0.00     0.031 C 
ATOM     34  C   UNL A   1      46.903  30.156  30.673  1.00  0.00     0.029 A 
ATOM     35  C   UNL A   1      46.131  29.114  30.188  1.00  0.00     0.049 A 
ATOM     36  H   UNL A   1      44.056  29.056  29.816  1.00  0.00     0.167 HD
ATOM     37  C   UNL A   1      45.742  26.839  29.286  1.00  0.00     0.074 A 
ATOM     38  C   UNL A   1      46.194  25.525  28.875  1.00  0.00     0.031 C 
ATOM     39  C   UNL A   1      46.552  27.793  29.802  1.00  0.00     0.037 A 
BRANCH  26  40
ATOM     40  C   UNL A   1      43.649  32.998  31.393  1.00  0.00     0.058 A 
ATOM     41  C   UNL A   1      43.900  34.146  30.625  1.00  0.00     0.135 A 
ATOM     42  C   UNL A   1      43.416  33.165  32.768  1.00  0.00     0.135 A 
ATOM     43  F   UNL A   1      44.153  34.038  29.312  1.00  0.00    -0.206 F 
ATOM     44  C   UNL A   1      43.918  35.413  31.198  1.00  0.00     0.059 A 
ATOM     45  C   UNL A   1      43.408  34.425  33.358  1.00  0.00     0.059 A 
ATOM     46  F   UNL A   1      43.177  32.098  33.547  1.00  0.00    -0.206 F 
ATOM     47  C   UNL A   1      43.664  35.543  32.565  1.00  0.00     0.060 A 
BRANCH  47  48
ATOM     48  S   UNL A   1      43.646  37.200  33.283  1.00  0.00     0.124 S 
ATOM     49  O   UNL A   1      42.498  37.117  34.181  1.00  0.00    -0.237 OA
ATOM     50  O   UNL A   1      44.953  37.274  33.928  1.00  0.00    -0.237 OA
ATOM     51  O   UNL A   1      43.472  38.070  32.124  1.00  0.00    -0.744 OA
ENDBRANCH  47  48
ENDBRANCH  26  40
BRANCH  27  52
ATOM     52  C   UNL A   1      42.565  23.822  27.586  1.00  0.00     0.058 A 
ATOM     53  C   UNL A   1      42.411  22.734  28.457  1.00  0.00     0.135 A 
ATOM     54  C   UNL A   1      42.609  23.559  26.210  1.00  0.00     0.135 A 
ATOM     55  F   UNL A   1      42.371  22.937  29.783  1.00  0.00    -0.206 F 
ATOM     56  C   UNL A   1      42.332  21.428  27.985  1.00  0.00     0.059 A 
ATOM     57  C   UNL A   1      42.511  22.263  25.711  1.00  0.00     0.059 A 
ATOM     58  F   UNL A   1      42.742  24.569  25.335  1.00  0.00    -0.206 F 
ATOM     59  C   UNL A   1      42.389  21.203  26.609  1.00  0.00     0.060 A 
BRANCH  59  60
ATOM     60  S   UNL A   1      42.271  19.507  26.000  1.00  0.00     0.124 S 
ATOM     61  O   UNL A   1      43.190  19.538  24.869  1.00  0.00    -0.237 OA
ATOM     62  O   UNL A   1      42.708  18.732  27.158  1.00  0.00    -0.237 OA
ATOM     63  O   UNL A   1      40.857  19.371  25.664  1.00  0.00    -0.744 OA
ENDBRANCH  59  60
ENDBRANCH  27  52
BRANCH  39  64
ATOM     64  C   UNL A   1      47.994  27.433  30.013  1.00  0.00     0.058 A 
ATOM     65  C   UNL A   1      48.416  26.699  31.130  1.00  0.00     0.135 A 
ATOM     66  C   UNL A   1      48.959  27.795  29.058  1.00  0.00     0.135 A 
ATOM     67  F   UNL A   1      47.531  26.334  32.072  1.00  0.00    -0.206 F 
ATOM     68  C   UNL A   1      49.751  26.355  31.309  1.00  0.00     0.059 A 
ATOM     69  C   UNL A   1      50.297  27.445  29.206  1.00  0.00     0.059 A 
ATOM     70  F   UNL A   1      48.602  28.491  27.966  1.00  0.00    -0.206 F 
ATOM     71  C   UNL A   1      50.685  26.735  30.341  1.00  0.00     0.060 A 
BRANCH  71  72
ATOM     72  S   UNL A   1      52.413  26.266  30.573  1.00  0.00     0.124 S 
ATOM     73  O   UNL A   1      52.808  25.918  29.212  1.00  0.00    -0.237 OA
ATOM     74  O   UNL A   1      53.002  27.489  31.110  1.00  0.00    -0.237 OA
ATOM     75  O   UNL A   1      52.338  25.150  31.511  1.00  0.00    -0.744 OA
ENDBRANCH  71  72
ENDBRANCH  39  64
ENDBRANCH  13  14
ENDBRANCH   6   8
ENDBRANCH   3   4
ENDBRANCH   2   3
ENDBRANCH   1   2
BRANCH   1  76
ATOM     76  C   UNL A   1      30.610  27.255  25.010  1.00  0.00     0.002 C 
BRANCH  76  77
ATOM     77  C   UNL A   1      29.988  26.034  24.324  1.00  0.00     0.021 C 
BRANCH  77  78
ATOM     78  C   UNL A   1      30.999  24.938  23.998  1.00  0.00     0.116 C 
BRANCH  78  79
ATOM     79  N   UNL A   1      30.647  23.690  24.635  1.00  0.00    -0.354 N 
ATOM     80  C   UNL A   1      31.395  22.766  25.288  1.00  0.00     0.242 C 
ATOM     81  H   UNL A   1      29.690  23.470  24.584  1.00  0.00     0.163 HD
ATOM     82  O   UNL A   1      30.738  21.876  25.845  1.00  0.00    -0.273 OA
BRANCH  80  83
ATOM     83  C   UNL A   1      32.939  22.858  25.489  1.00  0.00     0.177 C 
ATOM     84  C   UNL A   1      33.245  23.705  26.741  1.00  0.00     0.069 C 
ATOM     85  N   UNL A   1      33.714  21.624  25.736  1.00  0.00    -0.324 N 
ATOM     86  C   UNL A   1      33.373  22.667  27.851  1.00  0.00     0.136 C 
ATOM     87  C   UNL A   1      34.054  21.491  27.155  1.00  0.00     0.152 C 
BRANCH  85  88
ATOM     88  C   UNL A   1      34.458  21.037  24.713  1.00  0.00     0.256 C 
ATOM     89  O   UNL A   1      35.298  21.668  24.080  1.00  0.00    -0.269 OA
BRANCH  88  90
ATOM     90  C   UNL A   1      34.167  19.632  24.306  1.00  0.00     0.061 A 
ATOM     91  C   UNL A   1      34.968  18.600  24.820  1.00  0.00     0.057 A 
ATOM     92  C   UNL A   1      33.046  19.301  23.523  1.00  0.00     0.056 A 
ATOM     93  C   UNL A   1      34.680  17.274  24.515  1.00  0.00     0.159 A 
ATOM     94  C   UNL A   1      32.752  17.959  23.245  1.00  0.00     0.063 A 
ATOM     95  Cl  UNL A   1      32.002  20.482  22.816  1.00  0.00    -0.083 Cl
ATOM     96  F   UNL A   1      35.478  16.309  24.990  1.00  0.00    -0.204 F 
ATOM     97  C   UNL A   1      33.578  16.955  23.736  1.00  0.00     0.160 A 
ATOM     98  F   UNL A   1      33.304  15.677  23.449  1.00  0.00    -0.204 F 
ENDBRANCH  88  90
ENDBRANCH  85  88
BRANCH  86  99
ATOM     99  O   UNL A   1      32.105  22.287  28.381  1.00  0.00    -0.391 OA
ATOM    100  H   UNL A   1      31.599  23.082  28.607  1.00  0.00     0.211 HD
ENDBRANCH  86  99
ENDBRANCH  80  83
ENDBRANCH  78  79
ENDBRANCH  77  78
ENDBRANCH  76  77
ENDBRANCH   1  76
TORSDOF 19
ENDMDL
MODEL 3
REMARK VINA RESULT:     -11.0      3.286      9.318
REMARK SMILES O=C(NCCCCCCNC(=O)[C@H]1C[C@@H](O)CN1C(=O)c1cc(F)c(F)cc1Cl)c1ccc(-c2c3nc(c(-c4c(F)cc(S(=O)(=O)[O-])cc4F)c4ccc([nH]4)c(-c4c(F)cc(S(=O)(=O)[O-])cc4F)c4nc(c(-c5c(F)cc(S(=O)(=O)[O-])cc5F)c5ccc2[nH]5)C=C4)C=C3)cc1
REMARK SMILES IDX 6 1 5 2 4 3 3 4 1 5 2 6 30 8 31 9 95 10 32 11 94 12 33 13
REMARK SMILES IDX 34 14 35 15 88 16 36 17 93 18 87 19 89 20 37 21 92 22 86 23
REMARK SMILES IDX 85 24 38 26 72 27 51 28 71 29 52 30 55 31 70 32 90 33 53 34
REMARK SMILES IDX 54 35 69 37 91 38 56 39 39 40 40 41 49 42 41 43 42 44 48 45
REMARK SMILES IDX 50 46 43 47 44 48 45 49 46 50 47 51 73 52 74 53 83 54 75 55
REMARK SMILES IDX 76 56 82 57 84 58 77 59 78 60 79 61 80 62 81 63 57 64 58 65
REMARK SMILES IDX 67 66 59 67 60 68 66 69 68 70 61 71 62 72 63 73 64 74 65 75
REMARK SMILES IDX 7 76 8 77 9 78 10 79 11 80 12 82 13 83 14 84 18 85 15 86
REMARK SMILES IDX 17 87 19 88 20 89 21 90 22 91 28 92 23 93 27 94 29 95 24 96
REMARK SMILES IDX 25 97 26 98 16 99
REMARK H PARENT 3 7 89 25 55 36 10 81 16 100
REMARK Flexibility Score: inf
ROOT
ATOM      1  C   UNL A   1      35.171  21.757  25.916  1.00  0.00     0.002 C 
ENDROOT
BRANCH   1   2
ATOM      2  C   UNL A   1      35.608  23.224  26.022  1.00  0.00     0.021 C 
BRANCH   2   3
ATOM      3  C   UNL A   1      36.830  23.592  25.181  1.00  0.00     0.116 C 
BRANCH   3   4
ATOM      4  N   UNL A   1      37.936  22.685  25.432  1.00  0.00    -0.352 N 
ATOM      5  O   UNL A   1      40.057  22.104  25.875  1.00  0.00    -0.269 OA
ATOM      6  C   UNL A   1      39.161  22.934  25.994  1.00  0.00     0.251 C 
ATOM      7  H   UNL A   1      37.782  21.752  25.159  1.00  0.00     0.163 HD
BRANCH   6   8
ATOM      8  C   UNL A   1      39.406  24.182  26.750  1.00  0.00     0.039 A 
ATOM      9  C   UNL A   1      40.203  25.173  26.168  1.00  0.00     0.014 A 
ATOM     10  C   UNL A   1      38.943  24.335  28.061  1.00  0.00     0.014 A 
ATOM     11  C   UNL A   1      40.528  26.322  26.895  1.00  0.00     0.010 A 
ATOM     12  C   UNL A   1      39.235  25.500  28.770  1.00  0.00     0.010 A 
ATOM     13  C   UNL A   1      40.047  26.493  28.202  1.00  0.00    -0.014 A 
BRANCH  13  14
ATOM     14  C   UNL A   1      40.449  27.660  29.023  1.00  0.00     0.031 A 
ATOM     15  C   UNL A   1      41.778  27.641  29.732  1.00  0.00     0.074 A 
ATOM     16  C   UNL A   1      39.627  28.718  29.152  1.00  0.00     0.049 A 
ATOM     17  N   UNL A   1      42.261  28.483  30.607  1.00  0.00    -0.248 NA
ATOM     18  C   UNL A   1      42.676  26.515  29.422  1.00  0.00     0.031 C 
ATOM     19  C   UNL A   1      38.327  28.866  28.494  1.00  0.00     0.029 A 
ATOM     20  N   UNL A   1      39.761  29.870  29.884  1.00  0.00    -0.354 N 
ATOM     21  C   UNL A   1      43.512  27.990  30.958  1.00  0.00     0.074 A 
ATOM     22  C   UNL A   1      43.701  26.755  30.228  1.00  0.00     0.031 C 
ATOM     23  C   UNL A   1      37.792  30.050  28.841  1.00  0.00     0.029 A 
ATOM     24  C   UNL A   1      38.689  30.724  29.775  1.00  0.00     0.049 A 
ATOM     25  H   UNL A   1      40.553  30.068  30.436  1.00  0.00     0.167 HD
ATOM     26  C   UNL A   1      44.427  28.527  31.798  1.00  0.00     0.037 A 
ATOM     27  C   UNL A   1      38.455  31.909  30.372  1.00  0.00     0.037 A 
ATOM     28  C   UNL A   1      44.244  29.766  32.508  1.00  0.00     0.049 A 
ATOM     29  C   UNL A   1      39.475  32.464  31.330  1.00  0.00     0.074 A 
ATOM     30  C   UNL A   1      45.093  30.375  33.417  1.00  0.00     0.029 A 
ATOM     31  N   UNL A   1      43.147  30.600  32.366  1.00  0.00    -0.354 N 
ATOM     32  N   UNL A   1      40.626  31.953  31.697  1.00  0.00    -0.248 NA
ATOM     33  C   UNL A   1      39.161  33.756  31.958  1.00  0.00     0.031 C 
ATOM     34  C   UNL A   1      44.504  31.573  33.831  1.00  0.00     0.029 A 
ATOM     35  C   UNL A   1      43.304  31.726  33.157  1.00  0.00     0.049 A 
ATOM     36  H   UNL A   1      42.370  30.421  31.789  1.00  0.00     0.167 HD
ATOM     37  C   UNL A   1      41.190  32.878  32.569  1.00  0.00     0.074 A 
ATOM     38  C   UNL A   1      40.254  33.979  32.675  1.00  0.00     0.031 C 
ATOM     39  C   UNL A   1      42.375  32.823  33.223  1.00  0.00     0.037 A 
BRANCH  26  40
ATOM     40  C   UNL A   1      45.723  27.791  31.988  1.00  0.00     0.058 A 
ATOM     41  C   UNL A   1      46.838  28.063  31.181  1.00  0.00     0.135 A 
ATOM     42  C   UNL A   1      45.875  26.859  33.028  1.00  0.00     0.135 A 
ATOM     43  F   UNL A   1      46.737  28.929  30.160  1.00  0.00    -0.206 F 
ATOM     44  C   UNL A   1      48.060  27.437  31.396  1.00  0.00     0.059 A 
ATOM     45  C   UNL A   1      47.096  26.236  33.273  1.00  0.00     0.059 A 
ATOM     46  F   UNL A   1      44.837  26.558  33.823  1.00  0.00    -0.206 F 
ATOM     47  C   UNL A   1      48.181  26.529  32.450  1.00  0.00     0.060 A 
BRANCH  47  48
ATOM     48  S   UNL A   1      49.788  25.759  32.742  1.00  0.00     0.124 S 
ATOM     49  O   UNL A   1      50.392  26.693  33.687  1.00  0.00    -0.237 OA
ATOM     50  O   UNL A   1      49.416  24.458  33.287  1.00  0.00    -0.237 OA
ATOM     51  O   UNL A   1      50.396  25.729  31.415  1.00  0.00    -0.744 OA
ENDBRANCH  47  48
ENDBRANCH  26  40
BRANCH  27  52
ATOM     52  C   UNL A   1      37.212  32.668  30.077  1.00  0.00     0.058 A 
ATOM     53  C   UNL A   1      36.027  32.398  30.777  1.00  0.00     0.135 A 
ATOM     54  C   UNL A   1      37.174  33.651  29.078  1.00  0.00     0.135 A 
ATOM     55  F   UNL A   1      36.014  31.460  31.736  1.00  0.00    -0.206 F 
ATOM     56  C   UNL A   1      34.839  33.056  30.479  1.00  0.00     0.059 A 
ATOM     57  C   UNL A   1      36.003  34.339  28.776  1.00  0.00     0.059 A 
ATOM     58  F   UNL A   1      38.286  33.955  28.389  1.00  0.00    -0.206 F 
ATOM     59  C   UNL A   1      34.836  34.022  29.472  1.00  0.00     0.060 A 
BRANCH  59  60
ATOM     60  S   UNL A   1      33.294  34.885  29.100  1.00  0.00     0.124 S 
ATOM     61  O   UNL A   1      33.788  36.168  28.614  1.00  0.00    -0.237 OA
ATOM     62  O   UNL A   1      32.686  34.014  28.099  1.00  0.00    -0.237 OA
ATOM     63  O   UNL A   1      32.610  34.917  30.389  1.00  0.00    -0.744 OA
ENDBRANCH  59  60
ENDBRANCH  27  52
BRANCH  39  64
ATOM     64  C   UNL A   1      42.756  34.010  34.059  1.00  0.00     0.058 A 
ATOM     65  C   UNL A   1      42.450  34.079  35.426  1.00  0.00     0.135 A 
ATOM     66  C   UNL A   1      43.475  35.073  33.488  1.00  0.00     0.135 A 
ATOM     67  F   UNL A   1      41.761  33.089  36.015  1.00  0.00    -0.206 F 
ATOM     68  C   UNL A   1      42.823  35.175  36.196  1.00  0.00     0.059 A 
ATOM     69  C   UNL A   1      43.875  36.170  34.244  1.00  0.00     0.059 A 
ATOM     70  F   UNL A   1      43.800  35.047  32.186  1.00  0.00    -0.206 F 
ATOM     71  C   UNL A   1      43.534  36.217  35.595  1.00  0.00     0.060 A 
BRANCH  71  72
ATOM     72  S   UNL A   1      44.030  37.626  36.609  1.00  0.00     0.124 S 
ATOM     73  O   UNL A   1      45.381  37.242  37.004  1.00  0.00    -0.237 OA
ATOM     74  O   UNL A   1      43.939  38.739  35.668  1.00  0.00    -0.237 OA
ATOM     75  O   UNL A   1      43.040  37.638  37.681  1.00  0.00    -0.744 OA
ENDBRANCH  71  72
ENDBRANCH  39  64
ENDBRANCH  13  14
ENDBRANCH   6   8
ENDBRANCH   3   4
ENDBRANCH   2   3
ENDBRANCH   1   2
BRANCH   1  76
ATOM     76  C   UNL A   1      34.574  21.343  24.565  1.00  0.00     0.002 C 
BRANCH  76  77
ATOM     77  C   UNL A   1      33.124  20.849  24.621  1.00  0.00     0.021 C 
BRANCH  77  78
ATOM     78  C   UNL A   1      32.195  21.772  25.403  1.00  0.00     0.116 C 
BRANCH  78  79
ATOM     79  N   UNL A   1      31.240  22.419  24.535  1.00  0.00    -0.354 N 
ATOM     80  C   UNL A   1      31.165  23.687  24.058  1.00  0.00     0.242 C 
ATOM     81  H   UNL A   1      30.509  21.833  24.236  1.00  0.00     0.163 HD
ATOM     82  O   UNL A   1      30.283  23.863  23.207  1.00  0.00    -0.273 OA
BRANCH  80  83
ATOM     83  C   UNL A   1      32.179  24.823  24.397  1.00  0.00     0.177 C 
ATOM     84  C   UNL A   1      33.266  24.884  23.303  1.00  0.00     0.069 C 
ATOM     85  N   UNL A   1      31.709  26.222  24.463  1.00  0.00    -0.324 N 
ATOM     86  C   UNL A   1      32.735  25.933  22.332  1.00  0.00     0.136 C 
ATOM     87  C   UNL A   1      32.075  26.959  23.251  1.00  0.00     0.152 C 
BRANCH  85  88
ATOM     88  C   UNL A   1      31.485  26.837  25.695  1.00  0.00     0.256 C 
ATOM     89  O   UNL A   1      30.608  26.451  26.460  1.00  0.00    -0.269 OA
BRANCH  88  90
ATOM     90  C   UNL A   1      32.266  28.054  26.061  1.00  0.00     0.061 A 
ATOM     91  C   UNL A   1      31.584  29.270  26.226  1.00  0.00     0.057 A 
ATOM     92  C   UNL A   1      33.639  27.995  26.360  1.00  0.00     0.056 A 
ATOM     93  C   UNL A   1      32.273  30.407  26.633  1.00  0.00     0.159 A 
ATOM     94  C   UNL A   1      34.315  29.143  26.796  1.00  0.00     0.063 A 
ATOM     95  Cl  UNL A   1      34.589  26.563  26.173  1.00  0.00    -0.083 Cl
ATOM     96  F   UNL A   1      31.607  31.563  26.751  1.00  0.00    -0.204 F 
ATOM     97  C   UNL A   1      33.628  30.343  26.920  1.00  0.00     0.160 A 
ATOM     98  F   UNL A   1      34.284  31.441  27.315  1.00  0.00    -0.204 F 
ENDBRANCH  88  90
ENDBRANCH  85  88
BRANCH  86  99
ATOM     99  O   UNL A   1      31.795  25.387  21.411  1.00  0.00    -0.391 OA
ATOM    100  H   UNL A   1      31.048  25.007  21.899  1.00  0.00     0.211 HD
ENDBRANCH  86  99
ENDBRANCH  80  83
ENDBRANCH  78  79
ENDBRANCH  77  78
ENDBRANCH  76  77
ENDBRANCH   1  76
TORSDOF 19
ENDMDL
