MODEL 1
REMARK VINA RESULT:     -11.7      0.000      0.000
REMARK SMILES O=C(NCCCCCCNC(=O)c1ccccc1NC(=O)c1ccncc1)c1ccc(-c2c3nc(c(-c4c(F)cc(S(=O)(=O)[O-])cc4F)c4ccc([nH]4)c(-c4c(F)cc(S(=O)(=O)[O-])cc4F)c4nc(c(-c5c(F)cc(S(=O)(=O)[O-])cc5F)c5ccc2[nH]5)C=C4)C=C3)cc1
REMARK SMILES IDX 6 1 5 2 4 3 3 4 1 5 2 6 28 8 29 9 93 10 30 11 92 12 31 13
REMARK SMILES IDX 32 14 33 15 86 16 34 17 91 18 85 19 87 20 35 21 90 22 84 23
REMARK SMILES IDX 83 24 36 26 70 27 49 28 69 29 50 30 53 31 68 32 88 33 51 34
REMARK SMILES IDX 52 35 67 37 89 38 54 39 37 40 38 41 47 42 39 43 40 44 46 45
REMARK SMILES IDX 48 46 41 47 42 48 43 49 44 50 45 51 71 52 72 53 81 54 73 55
REMARK SMILES IDX 74 56 80 57 82 58 75 59 76 60 77 61 78 62 79 63 55 64 56 65
REMARK SMILES IDX 65 66 57 67 58 68 64 69 66 70 59 71 60 72 61 73 62 74 63 75
REMARK SMILES IDX 7 76 8 77 9 78 10 79 11 80 12 82 13 83 14 84 18 85 15 86
REMARK SMILES IDX 17 87 16 88 19 89 20 90 21 92 22 93 23 94 27 95 24 96 26 97
REMARK SMILES IDX 25 98
REMARK H PARENT 3 7 87 25 53 36 10 81 19 91
REMARK Flexibility Score: inf
ROOT
ATOM      1  C   UNL A   1      36.008  23.161  26.126  1.00  0.00     0.002 C 
ENDROOT
BRANCH   1   2
ATOM      2  C   UNL A   1      37.310  23.684  25.525  1.00  0.00     0.021 C 
BRANCH   2   3
ATOM      3  C   UNL A   1      38.323  24.222  26.526  1.00  0.00     0.116 C 
BRANCH   3   4
ATOM      4  N   UNL A   1      39.676  24.285  26.002  1.00  0.00    -0.352 N 
ATOM      5  O   UNL A   1      41.755  25.129  25.739  1.00  0.00    -0.269 OA
ATOM      6  C   UNL A   1      40.698  25.133  26.365  1.00  0.00     0.251 C 
ATOM      7  H   UNL A   1      39.891  23.636  25.293  1.00  0.00     0.163 HD
BRANCH   6   8
ATOM      8  C   UNL A   1      40.502  26.072  27.493  1.00  0.00     0.039 A 
ATOM      9  C   UNL A   1      41.219  27.268  27.553  1.00  0.00     0.014 A 
ATOM     10  C   UNL A   1      39.606  25.741  28.515  1.00  0.00     0.014 A 
ATOM     11  C   UNL A   1      41.159  28.051  28.699  1.00  0.00     0.010 A 
ATOM     12  C   UNL A   1      39.477  26.582  29.627  1.00  0.00     0.010 A 
ATOM     13  C   UNL A   1      40.276  27.729  29.744  1.00  0.00    -0.014 A 
BRANCH  13  14
ATOM     14  C   UNL A   1      40.173  28.654  30.903  1.00  0.00     0.031 A 
ATOM     15  C   UNL A   1      41.092  28.539  32.089  1.00  0.00     0.074 A 
ATOM     16  C   UNL A   1      39.269  29.652  30.841  1.00  0.00     0.049 A 
ATOM     17  N   UNL A   1      41.171  29.313  33.142  1.00  0.00    -0.248 NA
ATOM     18  C   UNL A   1      42.039  27.414  32.103  1.00  0.00     0.031 C 
ATOM     19  C   UNL A   1      38.303  29.843  29.753  1.00  0.00     0.029 A 
ATOM     20  N   UNL A   1      39.028  30.705  31.684  1.00  0.00    -0.354 N 
ATOM     21  C   UNL A   1      42.166  28.769  33.946  1.00  0.00     0.074 A 
ATOM     22  C   UNL A   1      42.641  27.578  33.273  1.00  0.00     0.031 C 
ATOM     23  C   UNL A   1      37.617  30.974  29.968  1.00  0.00     0.029 A 
ATOM     24  C   UNL A   1      38.050  31.558  31.232  1.00  0.00     0.049 A 
ATOM     25  H   UNL A   1      39.510  30.838  32.533  1.00  0.00     0.167 HD
ATOM     26  C   UNL A   1      42.644  29.227  35.130  1.00  0.00     0.037 A 
ATOM     27  C   UNL A   1      37.546  32.682  31.774  1.00  0.00     0.037 A 
ATOM     28  C   UNL A   1      42.168  30.417  35.790  1.00  0.00     0.049 A 
ATOM     29  C   UNL A   1      38.104  33.172  33.077  1.00  0.00     0.074 A 
ATOM     30  C   UNL A   1      42.589  30.965  36.991  1.00  0.00     0.029 A 
ATOM     31  N   UNL A   1      41.169  31.250  35.305  1.00  0.00    -0.354 N 
ATOM     32  N   UNL A   1      39.053  32.648  33.814  1.00  0.00    -0.248 NA
ATOM     33  C   UNL A   1      37.525  34.405  33.624  1.00  0.00     0.031 C 
ATOM     34  C   UNL A   1      41.826  32.111  37.245  1.00  0.00     0.029 A 
ATOM     35  C   UNL A   1      40.956  32.301  36.184  1.00  0.00     0.049 A 
ATOM     36  H   UNL A   1      40.682  31.114  34.460  1.00  0.00     0.167 HD
ATOM     37  C   UNL A   1      39.186  33.487  34.912  1.00  0.00     0.074 A 
ATOM     38  C   UNL A   1      38.243  34.572  34.725  1.00  0.00     0.031 C 
ATOM     39  C   UNL A   1      40.006  33.365  35.985  1.00  0.00     0.037 A 
BRANCH  26  40
ATOM     40  C   UNL A   1      43.741  28.440  35.795  1.00  0.00     0.058 A 
ATOM     41  C   UNL A   1      45.095  28.740  35.575  1.00  0.00     0.135 A 
ATOM     42  C   UNL A   1      43.439  27.417  36.709  1.00  0.00     0.135 A 
ATOM     43  F   UNL A   1      45.441  29.700  34.702  1.00  0.00    -0.206 F 
ATOM     44  C   UNL A   1      46.110  28.043  36.224  1.00  0.00     0.059 A 
ATOM     45  C   UNL A   1      44.438  26.721  37.386  1.00  0.00     0.059 A 
ATOM     46  F   UNL A   1      42.161  27.090  36.957  1.00  0.00    -0.206 F 
ATOM     47  C   UNL A   1      45.771  27.035  37.129  1.00  0.00     0.060 A 
BRANCH  47  48
ATOM     48  S   UNL A   1      47.100  26.153  37.977  1.00  0.00     0.124 S 
ATOM     49  O   UNL A   1      47.690  25.392  36.880  1.00  0.00    -0.237 OA
ATOM     50  O   UNL A   1      47.916  27.244  38.502  1.00  0.00    -0.237 OA
ATOM     51  O   UNL A   1      46.396  25.363  38.982  1.00  0.00    -0.744 OA
ENDBRANCH  47  48
ENDBRANCH  26  40
BRANCH  27  52
ATOM     52  C   UNL A   1      36.447  33.403  31.083  1.00  0.00     0.058 A 
ATOM     53  C   UNL A   1      36.680  34.139  29.914  1.00  0.00     0.135 A 
ATOM     54  C   UNL A   1      35.132  33.347  31.571  1.00  0.00     0.135 A 
ATOM     55  F   UNL A   1      37.920  34.223  29.409  1.00  0.00    -0.206 F 
ATOM     56  C   UNL A   1      35.651  34.810  29.260  1.00  0.00     0.059 A 
ATOM     57  C   UNL A   1      34.082  33.985  30.920  1.00  0.00     0.059 A 
ATOM     58  F   UNL A   1      34.854  32.636  32.675  1.00  0.00    -0.206 F 
ATOM     59  C   UNL A   1      34.355  34.725  29.771  1.00  0.00     0.060 A 
BRANCH  59  60
ATOM     60  S   UNL A   1      33.013  35.556  28.894  1.00  0.00     0.124 S 
ATOM     61  O   UNL A   1      33.743  36.558  28.127  1.00  0.00    -0.237 OA
ATOM     62  O   UNL A   1      32.425  34.465  28.122  1.00  0.00    -0.237 OA
ATOM     63  O   UNL A   1      32.177  36.069  29.974  1.00  0.00    -0.744 OA
ENDBRANCH  59  60
ENDBRANCH  27  52
BRANCH  39  64
ATOM     64  C   UNL A   1      39.917  34.442  37.029  1.00  0.00     0.058 A 
ATOM     65  C   UNL A   1      40.652  35.633  36.918  1.00  0.00     0.135 A 
ATOM     66  C   UNL A   1      39.084  34.286  38.148  1.00  0.00     0.135 A 
ATOM     67  F   UNL A   1      41.468  35.827  35.870  1.00  0.00    -0.206 F 
ATOM     68  C   UNL A   1      40.595  36.615  37.900  1.00  0.00     0.059 A 
ATOM     69  C   UNL A   1      38.992  35.266  39.130  1.00  0.00     0.059 A 
ATOM     70  F   UNL A   1      38.353  33.169  38.295  1.00  0.00    -0.206 F 
ATOM     71  C   UNL A   1      39.766  36.420  39.006  1.00  0.00     0.060 A 
BRANCH  71  72
ATOM     72  S   UNL A   1      39.699  37.700  40.276  1.00  0.00     0.124 S 
ATOM     73  O   UNL A   1      41.093  38.125  40.339  1.00  0.00    -0.237 OA
ATOM     74  O   UNL A   1      38.766  38.665  39.703  1.00  0.00    -0.237 OA
ATOM     75  O   UNL A   1      39.206  36.985  41.450  1.00  0.00    -0.744 OA
ENDBRANCH  71  72
ENDBRANCH  39  64
ENDBRANCH  13  14
ENDBRANCH   6   8
ENDBRANCH   3   4
ENDBRANCH   2   3
ENDBRANCH   1   2
BRANCH   1  76
ATOM     76  C   UNL A   1      35.801  21.645  26.063  1.00  0.00     0.002 C 
BRANCH  76  77
ATOM     77  C   UNL A   1      34.443  21.117  26.546  1.00  0.00     0.021 C 
BRANCH  77  78
ATOM     78  C   UNL A   1      33.653  22.051  27.461  1.00  0.00     0.116 C 
BRANCH  78  79
ATOM     79  N   UNL A   1      32.248  22.109  27.100  1.00  0.00    -0.352 N 
ATOM     80  C   UNL A   1      31.621  22.818  26.113  1.00  0.00     0.253 C 
ATOM     81  H   UNL A   1      31.653  21.550  27.652  1.00  0.00     0.163 HD
ATOM     82  O   UNL A   1      30.393  22.860  26.082  1.00  0.00    -0.269 OA
BRANCH  80  83
ATOM     83  C   UNL A   1      32.389  23.534  25.071  1.00  0.00     0.063 A 
ATOM     84  C   UNL A   1      32.848  22.744  24.004  1.00  0.00     0.016 A 
ATOM     85  C   UNL A   1      32.754  24.894  25.174  1.00  0.00     0.054 A 
ATOM     86  C   UNL A   1      33.679  23.291  23.031  1.00  0.00     0.001 A 
ATOM     87  C   UNL A   1      33.653  25.396  24.226  1.00  0.00     0.027 A 
ATOM     88  C   UNL A   1      34.095  24.612  23.155  1.00  0.00     0.002 A 
BRANCH  85  89
ATOM     89  N   UNL A   1      32.244  25.674  26.236  1.00  0.00    -0.321 N 
ATOM     90  C   UNL A   1      31.422  26.775  26.297  1.00  0.00     0.255 C 
ATOM     91  H   UNL A   1      32.540  25.363  27.122  1.00  0.00     0.170 HD
ATOM     92  O   UNL A   1      31.222  27.315  27.384  1.00  0.00    -0.269 OA
BRANCH  90  93
ATOM     93  C   UNL A   1      30.734  27.321  25.114  1.00  0.00     0.043 A 
ATOM     94  C   UNL A   1      29.625  26.689  24.553  1.00  0.00     0.034 A 
ATOM     95  C   UNL A   1      31.219  28.508  24.570  1.00  0.00     0.034 A 
ATOM     96  C   UNL A   1      29.106  27.231  23.392  1.00  0.00     0.112 A 
ATOM     97  C   UNL A   1      30.621  28.972  23.416  1.00  0.00     0.112 A 
ATOM     98  N   UNL A   1      29.598  28.341  22.800  1.00  0.00    -0.265 NA
ENDBRANCH  90  93
ENDBRANCH  85  89
ENDBRANCH  80  83
ENDBRANCH  78  79
ENDBRANCH  77  78
ENDBRANCH  76  77
ENDBRANCH   1  76
TORSDOF 18
ENDMDL
MODEL 2
REMARK VINA RESULT:     -11.6      6.832     12.031
REMARK SMILES O=C(NCCCCCCNC(=O)c1ccccc1NC(=O)c1ccncc1)c1ccc(-c2c3nc(c(-c4c(F)cc(S(=O)(=O)[O-])cc4F)c4ccc([nH]4)c(-c4c(F)cc(S(=O)(=O)[O-])cc4F)c4nc(c(-c5c(F)cc(S(=O)(=O)[O-])cc5F)c5ccc2[nH]5)C=C4)C=C3)cc1
REMARK SMILES IDX 6 1 5 2 4 3 3 4 1 5 2 6 28 8 29 9 93 10 30 11 92 12 31 13
REMARK SMILES IDX 32 14 33 15 86 16 34 17 91 18 85 19 87 20 35 21 90 22 84 23
REMARK SMILES IDX 83 24 36 26 70 27 49 28 69 29 50 30 53 31 68 32 88 33 51 34
REMARK SMILES IDX 52 35 67 37 89 38 54 39 37 40 38 41 47 42 39 43 40 44 46 45
REMARK SMILES IDX 48 46 41 47 42 48 43 49 44 50 45 51 71 52 72 53 81 54 73 55
REMARK SMILES IDX 74 56 80 57 82 58 75 59 76 60 77 61 78 62 79 63 55 64 56 65
REMARK SMILES IDX 65 66 57 67 58 68 64 69 66 70 59 71 60 72 61 73 62 74 63 75
REMARK SMILES IDX 7 76 8 77 9 78 10 79 11 80 12 82 13 83 14 84 18 85 15 86
REMARK SMILES IDX 17 87 16 88 19 89 20 90 21 92 22 93 23 94 27 95 24 96 26 97
REMARK SMILES IDX 25 98
REMARK H PARENT 3 7 87 25 53 36 10 81 19 91
REMARK Flexibility Score: inf
ROOT
ATOM      1  C   UNL A   1      33.130  30.555  27.241  1.00  0.00     0.002 C 
ENDROOT
BRANCH   1   2
ATOM      2  C   UNL A   1      34.425  29.762  27.398  1.00  0.00     0.021 C 
BRANCH   2   3
ATOM      3  C   UNL A   1      35.559  30.493  28.101  1.00  0.00     0.116 C 
BRANCH   3   4
ATOM      4  N   UNL A   1      35.493  30.403  29.550  1.00  0.00    -0.352 N 
ATOM      5  O   UNL A   1      36.196  29.835  31.621  1.00  0.00    -0.269 OA
ATOM      6  C   UNL A   1      36.455  29.952  30.426  1.00  0.00     0.251 C 
ATOM      7  H   UNL A   1      34.650  30.705  29.960  1.00  0.00     0.163 HD
BRANCH   6   8
ATOM      8  C   UNL A   1      37.793  29.577  29.912  1.00  0.00     0.039 A 
ATOM      9  C   UNL A   1      38.760  29.052  30.770  1.00  0.00     0.014 A 
ATOM     10  C   UNL A   1      38.090  29.775  28.560  1.00  0.00     0.014 A 
ATOM     11  C   UNL A   1      40.060  28.871  30.316  1.00  0.00     0.010 A 
ATOM     12  C   UNL A   1      39.378  29.503  28.083  1.00  0.00     0.010 A 
ATOM     13  C   UNL A   1      40.383  29.079  28.964  1.00  0.00    -0.014 A 
BRANCH  13  14
ATOM     14  C   UNL A   1      41.764  28.774  28.505  1.00  0.00     0.031 A 
ATOM     15  C   UNL A   1      42.848  29.818  28.515  1.00  0.00     0.074 A 
ATOM     16  C   UNL A   1      42.047  27.509  28.136  1.00  0.00     0.049 A 
ATOM     17  N   UNL A   1      44.115  29.686  28.212  1.00  0.00    -0.248 NA
ATOM     18  C   UNL A   1      42.467  31.183  28.907  1.00  0.00     0.031 C 
ATOM     19  C   UNL A   1      41.067  26.419  28.058  1.00  0.00     0.029 A 
ATOM     20  N   UNL A   1      43.230  26.914  27.786  1.00  0.00    -0.354 N 
ATOM     21  C   UNL A   1      44.681  30.946  28.367  1.00  0.00     0.074 A 
ATOM     22  C   UNL A   1      43.611  31.839  28.762  1.00  0.00     0.031 C 
ATOM     23  C   UNL A   1      41.699  25.281  27.740  1.00  0.00     0.029 A 
ATOM     24  C   UNL A   1      43.114  25.567  27.536  1.00  0.00     0.049 A 
ATOM     25  H   UNL A   1      44.082  27.403  27.720  1.00  0.00     0.167 HD
ATOM     26  C   UNL A   1      45.975  31.321  28.206  1.00  0.00     0.037 A 
ATOM     27  C   UNL A   1      44.039  24.659  27.173  1.00  0.00     0.037 A 
ATOM     28  C   UNL A   1      47.035  30.424  27.818  1.00  0.00     0.049 A 
ATOM     29  C   UNL A   1      45.464  25.098  27.015  1.00  0.00     0.074 A 
ATOM     30  C   UNL A   1      48.378  30.706  27.629  1.00  0.00     0.029 A 
ATOM     31  N   UNL A   1      46.877  29.068  27.563  1.00  0.00    -0.354 N 
ATOM     32  N   UNL A   1      45.979  26.293  27.180  1.00  0.00    -0.248 NA
ATOM     33  C   UNL A   1      46.436  24.070  26.624  1.00  0.00     0.031 C 
ATOM     34  C   UNL A   1      49.025  29.529  27.235  1.00  0.00     0.029 A 
ATOM     35  C   UNL A   1      48.094  28.504  27.215  1.00  0.00     0.049 A 
ATOM     36  H   UNL A   1      46.024  28.579  27.623  1.00  0.00     0.167 HD
ATOM     37  C   UNL A   1      47.336  26.161  26.912  1.00  0.00     0.074 A 
ATOM     38  C   UNL A   1      47.566  24.761  26.609  1.00  0.00     0.031 C 
ATOM     39  C   UNL A   1      48.302  27.112  26.907  1.00  0.00     0.037 A 
BRANCH  26  40
ATOM     40  C   UNL A   1      46.323  32.765  28.448  1.00  0.00     0.058 A 
ATOM     41  C   UNL A   1      46.745  33.215  29.708  1.00  0.00     0.135 A 
ATOM     42  C   UNL A   1      46.295  33.696  27.397  1.00  0.00     0.135 A 
ATOM     43  F   UNL A   1      46.779  32.371  30.752  1.00  0.00    -0.206 F 
ATOM     44  C   UNL A   1      47.111  34.542  29.922  1.00  0.00     0.059 A 
ATOM     45  C   UNL A   1      46.677  35.022  27.583  1.00  0.00     0.059 A 
ATOM     46  F   UNL A   1      45.900  33.318  26.171  1.00  0.00    -0.206 F 
ATOM     47  C   UNL A   1      47.075  35.438  28.853  1.00  0.00     0.060 A 
BRANCH  47  48
ATOM     48  S   UNL A   1      47.571  37.150  29.143  1.00  0.00     0.124 S 
ATOM     49  O   UNL A   1      46.314  37.858  28.920  1.00  0.00    -0.237 OA
ATOM     50  O   UNL A   1      48.039  37.112  30.525  1.00  0.00    -0.237 OA
ATOM     51  O   UNL A   1      48.606  37.379  28.140  1.00  0.00    -0.744 OA
ENDBRANCH  47  48
ENDBRANCH  26  40
BRANCH  27  52
ATOM     52  C   UNL A   1      43.632  23.252  26.925  1.00  0.00     0.058 A 
ATOM     53  C   UNL A   1      43.295  22.394  27.980  1.00  0.00     0.135 A 
ATOM     54  C   UNL A   1      43.548  22.748  25.617  1.00  0.00     0.135 A 
ATOM     55  F   UNL A   1      43.360  22.830  29.247  1.00  0.00    -0.206 F 
ATOM     56  C   UNL A   1      42.905  21.078  27.751  1.00  0.00     0.059 A 
ATOM     57  C   UNL A   1      43.134  21.446  25.361  1.00  0.00     0.059 A 
ATOM     58  F   UNL A   1      43.839  23.538  24.572  1.00  0.00    -0.206 F 
ATOM     59  C   UNL A   1      42.828  20.615  26.436  1.00  0.00     0.060 A 
BRANCH  59  60
ATOM     60  S   UNL A   1      42.275  18.922  26.138  1.00  0.00     0.124 S 
ATOM     61  O   UNL A   1      42.509  18.306  27.439  1.00  0.00    -0.237 OA
ATOM     62  O   UNL A   1      40.876  19.113  25.766  1.00  0.00    -0.237 OA
ATOM     63  O   UNL A   1      43.146  18.473  25.057  1.00  0.00    -0.744 OA
ENDBRANCH  59  60
ENDBRANCH  27  52
BRANCH  39  64
ATOM     64  C   UNL A   1      49.693  26.658  26.568  1.00  0.00     0.058 A 
ATOM     65  C   UNL A   1      50.150  26.623  25.241  1.00  0.00     0.135 A 
ATOM     66  C   UNL A   1      50.581  26.261  27.580  1.00  0.00     0.135 A 
ATOM     67  F   UNL A   1      49.336  26.987  24.237  1.00  0.00    -0.206 F 
ATOM     68  C   UNL A   1      51.426  26.172  24.924  1.00  0.00     0.059 A 
ATOM     69  C   UNL A   1      51.871  25.829  27.288  1.00  0.00     0.059 A 
ATOM     70  F   UNL A   1      50.196  26.285  28.866  1.00  0.00    -0.206 F 
ATOM     71  C   UNL A   1      52.278  25.771  25.955  1.00  0.00     0.060 A 
BRANCH  71  72
ATOM     72  S   UNL A   1      53.933  25.186  25.535  1.00  0.00     0.124 S 
ATOM     73  O   UNL A   1      53.631  24.042  24.681  1.00  0.00    -0.237 OA
ATOM     74  O   UNL A   1      54.516  26.344  24.863  1.00  0.00    -0.237 OA
ATOM     75  O   UNL A   1      54.517  24.864  26.833  1.00  0.00    -0.744 OA
ENDBRANCH  71  72
ENDBRANCH  39  64
ENDBRANCH  13  14
ENDBRANCH   6   8
ENDBRANCH   3   4
ENDBRANCH   2   3
ENDBRANCH   1   2
BRANCH   1  76
ATOM     76  C   UNL A   1      31.913  29.764  26.752  1.00  0.00     0.002 C 
BRANCH  76  77
ATOM     77  C   UNL A   1      31.536  28.517  27.563  1.00  0.00     0.021 C 
BRANCH  77  78
ATOM     78  C   UNL A   1      31.972  27.178  26.969  1.00  0.00     0.116 C 
BRANCH  78  79
ATOM     79  N   UNL A   1      30.854  26.440  26.409  1.00  0.00    -0.352 N 
ATOM     80  C   UNL A   1      30.271  26.528  25.175  1.00  0.00     0.253 C 
ATOM     81  H   UNL A   1      30.455  25.770  27.010  1.00  0.00     0.163 HD
ATOM     82  O   UNL A   1      29.221  25.929  24.955  1.00  0.00    -0.269 OA
BRANCH  80  83
ATOM     83  C   UNL A   1      30.880  27.327  24.089  1.00  0.00     0.063 A 
ATOM     84  C   UNL A   1      32.284  27.319  24.042  1.00  0.00     0.016 A 
ATOM     85  C   UNL A   1      30.132  28.148  23.218  1.00  0.00     0.054 A 
ATOM     86  C   UNL A   1      32.961  28.129  23.137  1.00  0.00     0.001 A 
ATOM     87  C   UNL A   1      30.841  29.009  22.373  1.00  0.00     0.027 A 
ATOM     88  C   UNL A   1      32.239  28.987  22.316  1.00  0.00     0.002 A 
BRANCH  85  89
ATOM     89  N   UNL A   1      28.721  28.105  23.259  1.00  0.00    -0.321 N 
ATOM     90  C   UNL A   1      27.735  29.052  23.106  1.00  0.00     0.255 C 
ATOM     91  H   UNL A   1      28.366  27.203  23.435  1.00  0.00     0.170 HD
ATOM     92  O   UNL A   1      26.561  28.734  23.297  1.00  0.00    -0.269 OA
BRANCH  90  93
ATOM     93  C   UNL A   1      28.018  30.434  22.684  1.00  0.00     0.043 A 
ATOM     94  C   UNL A   1      28.345  31.430  23.602  1.00  0.00     0.034 A 
ATOM     95  C   UNL A   1      27.963  30.721  21.322  1.00  0.00     0.034 A 
ATOM     96  C   UNL A   1      28.506  32.715  23.116  1.00  0.00     0.112 A 
ATOM     97  C   UNL A   1      28.151  32.035  20.939  1.00  0.00     0.112 A 
ATOM     98  N   UNL A   1      28.388  33.040  21.809  1.00  0.00    -0.265 NA
ENDBRANCH  90  93
ENDBRANCH  85  89
ENDBRANCH  80  83
ENDBRANCH  78  79
ENDBRANCH  77  78
ENDBRANCH  76  77
ENDBRANCH   1  76
TORSDOF 18
ENDMDL
MODEL 3
REMARK VINA RESULT:     -11.4      6.870     12.233
REMARK SMILES O=C(NCCCCCCNC(=O)c1ccccc1NC(=O)c1ccncc1)c1ccc(-c2c3nc(c(-c4c(F)cc(S(=O)(=O)[O-])cc4F)c4ccc([nH]4)c(-c4c(F)cc(S(=O)(=O)[O-])cc4F)c4nc(c(-c5c(F)cc(S(=O)(=O)[O-])cc5F)c5ccc2[nH]5)C=C4)C=C3)cc1
REMARK SMILES IDX 6 1 5 2 4 3 3 4 1 5 2 6 28 8 29 9 93 10 30 11 92 12 31 13
REMARK SMILES IDX 32 14 33 15 86 16 34 17 91 18 85 19 87 20 35 21 90 22 84 23
REMARK SMILES IDX 83 24 36 26 70 27 49 28 69 29 50 30 53 31 68 32 88 33 51 34
REMARK SMILES IDX 52 35 67 37 89 38 54 39 37 40 38 41 47 42 39 43 40 44 46 45
REMARK SMILES IDX 48 46 41 47 42 48 43 49 44 50 45 51 71 52 72 53 81 54 73 55
REMARK SMILES IDX 74 56 80 57 82 58 75 59 76 60 77 61 78 62 79 63 55 64 56 65
REMARK SMILES IDX 65 66 57 67 58 68 64 69 66 70 59 71 60 72 61 73 62 74 63 75
REMARK SMILES IDX 7 76 8 77 9 78 10 79 11 80 12 82 13 83 14 84 18 85 15 86
REMARK SMILES IDX 17 87 16 88 19 89 20 90 21 92 22 93 23 94 27 95 24 96 26 97
REMARK SMILES IDX 25 98
REMARK H PARENT 3 7 87 25 53 36 10 81 19 91
REMARK Flexibility Score: inf
ROOT
ATOM      1  C   UNL A   1      34.036  27.907  26.109  1.00  0.00     0.002 C 
ENDROOT
BRANCH   1   2
ATOM      2  C   UNL A   1      33.984  28.938  27.234  1.00  0.00     0.021 C 
BRANCH   2   3
ATOM      3  C   UNL A   1      35.322  29.552  27.619  1.00  0.00     0.116 C 
BRANCH   3   4
ATOM      4  N   UNL A   1      35.347  30.079  28.973  1.00  0.00    -0.352 N 
ATOM      5  O   UNL A   1      36.230  30.518  31.006  1.00  0.00    -0.269 OA
ATOM      6  C   UNL A   1      36.407  30.142  29.850  1.00  0.00     0.251 C 
ATOM      7  H   UNL A   1      34.494  30.439  29.308  1.00  0.00     0.163 HD
BRANCH   6   8
ATOM      8  C   UNL A   1      37.754  29.722  29.400  1.00  0.00     0.039 A 
ATOM      9  C   UNL A   1      38.704  29.281  30.322  1.00  0.00     0.014 A 
ATOM     10  C   UNL A   1      38.077  29.792  28.041  1.00  0.00     0.014 A 
ATOM     11  C   UNL A   1      40.012  29.060  29.911  1.00  0.00     0.010 A 
ATOM     12  C   UNL A   1      39.373  29.478  27.616  1.00  0.00     0.010 A 
ATOM     13  C   UNL A   1      40.362  29.140  28.552  1.00  0.00    -0.014 A 
BRANCH  13  14
ATOM     14  C   UNL A   1      41.751  28.795  28.151  1.00  0.00     0.031 A 
ATOM     15  C   UNL A   1      42.856  29.816  28.172  1.00  0.00     0.074 A 
ATOM     16  C   UNL A   1      42.019  27.515  27.823  1.00  0.00     0.049 A 
ATOM     17  N   UNL A   1      44.129  29.651  27.917  1.00  0.00    -0.248 NA
ATOM     18  C   UNL A   1      42.490  31.199  28.515  1.00  0.00     0.031 C 
ATOM     19  C   UNL A   1      41.020  26.444  27.739  1.00  0.00     0.029 A 
ATOM     20  N   UNL A   1      43.201  26.887  27.531  1.00  0.00    -0.354 N 
ATOM     21  C   UNL A   1      44.717  30.903  28.060  1.00  0.00     0.074 A 
ATOM     22  C   UNL A   1      43.653  31.827  28.394  1.00  0.00     0.031 C 
ATOM     23  C   UNL A   1      41.638  25.285  27.473  1.00  0.00     0.029 A 
ATOM     24  C   UNL A   1      43.065  25.536  27.311  1.00  0.00     0.049 A 
ATOM     25  H   UNL A   1      44.065  27.357  27.483  1.00  0.00     0.167 HD
ATOM     26  C   UNL A   1      46.023  31.246  27.936  1.00  0.00     0.037 A 
ATOM     27  C   UNL A   1      43.982  24.601  27.004  1.00  0.00     0.037 A 
ATOM     28  C   UNL A   1      47.077  30.317  27.608  1.00  0.00     0.049 A 
ATOM     29  C   UNL A   1      45.421  25.006  26.887  1.00  0.00     0.074 A 
ATOM     30  C   UNL A   1      48.431  30.567  27.460  1.00  0.00     0.029 A 
ATOM     31  N   UNL A   1      46.898  28.960  27.383  1.00  0.00    -0.354 N 
ATOM     32  N   UNL A   1      45.955  26.194  27.039  1.00  0.00    -0.248 NA
ATOM     33  C   UNL A   1      46.383  23.948  26.556  1.00  0.00     0.031 C 
ATOM     34  C   UNL A   1      49.066  29.367  27.119  1.00  0.00     0.029 A 
ATOM     35  C   UNL A   1      48.115  28.361  27.093  1.00  0.00     0.049 A 
ATOM     36  H   UNL A   1      46.034  28.490  27.425  1.00  0.00     0.167 HD
ATOM     37  C   UNL A   1      47.317  26.027  26.823  1.00  0.00     0.074 A 
ATOM     38  C   UNL A   1      47.528  24.616  26.563  1.00  0.00     0.031 C 
ATOM     39  C   UNL A   1      48.303  26.958  26.827  1.00  0.00     0.037 A 
BRANCH  26  40
ATOM     40  C   UNL A   1      46.393  32.689  28.153  1.00  0.00     0.058 A 
ATOM     41  C   UNL A   1      46.879  33.142  29.389  1.00  0.00     0.135 A 
ATOM     42  C   UNL A   1      46.322  33.614  27.100  1.00  0.00     0.135 A 
ATOM     43  F   UNL A   1      46.957  32.302  30.434  1.00  0.00    -0.206 F 
ATOM     44  C   UNL A   1      47.265  34.466  29.579  1.00  0.00     0.059 A 
ATOM     45  C   UNL A   1      46.722  34.939  27.260  1.00  0.00     0.059 A 
ATOM     46  F   UNL A   1      45.865  33.234  25.896  1.00  0.00    -0.206 F 
ATOM     47  C   UNL A   1      47.184  35.358  28.507  1.00  0.00     0.060 A 
BRANCH  47  48
ATOM     48  S   UNL A   1      47.707  37.067  28.764  1.00  0.00     0.124 S 
ATOM     49  O   UNL A   1      46.437  37.778  28.656  1.00  0.00    -0.237 OA
ATOM     50  O   UNL A   1      48.294  37.019  30.100  1.00  0.00    -0.237 OA
ATOM     51  O   UNL A   1      48.651  37.301  27.676  1.00  0.00    -0.744 OA
ENDBRANCH  47  48
ENDBRANCH  26  40
BRANCH  27  52
ATOM     52  C   UNL A   1      43.554  23.197  26.778  1.00  0.00     0.058 A 
ATOM     53  C   UNL A   1      43.545  22.636  25.494  1.00  0.00     0.135 A 
ATOM     54  C   UNL A   1      43.168  22.381  27.853  1.00  0.00     0.135 A 
ATOM     55  F   UNL A   1      43.905  23.376  24.435  1.00  0.00    -0.206 F 
ATOM     56  C   UNL A   1      43.152  21.318  25.279  1.00  0.00     0.059 A 
ATOM     57  C   UNL A   1      42.799  21.053  27.668  1.00  0.00     0.059 A 
ATOM     58  F   UNL A   1      43.181  22.866  29.104  1.00  0.00    -0.206 F 
ATOM     59  C   UNL A   1      42.781  20.535  26.374  1.00  0.00     0.060 A 
BRANCH  59  60
ATOM     60  S   UNL A   1      42.318  18.812  26.099  1.00  0.00     0.124 S 
ATOM     61  O   UNL A   1      42.529  18.238  27.423  1.00  0.00    -0.237 OA
ATOM     62  O   UNL A   1      40.928  18.929  25.668  1.00  0.00    -0.237 OA
ATOM     63  O   UNL A   1      43.251  18.378  25.064  1.00  0.00    -0.744 OA
ENDBRANCH  59  60
ENDBRANCH  27  52
BRANCH  39  64
ATOM     64  C   UNL A   1      49.695  26.467  26.550  1.00  0.00     0.058 A 
ATOM     65  C   UNL A   1      50.533  26.017  27.583  1.00  0.00     0.135 A 
ATOM     66  C   UNL A   1      50.196  26.442  25.239  1.00  0.00     0.135 A 
ATOM     67  F   UNL A   1      50.102  26.027  28.854  1.00  0.00    -0.206 F 
ATOM     68  C   UNL A   1      51.833  25.594  27.330  1.00  0.00     0.059 A 
ATOM     69  C   UNL A   1      51.485  26.000  24.961  1.00  0.00     0.059 A 
ATOM     70  F   UNL A   1      49.431  26.854  24.215  1.00  0.00    -0.206 F 
ATOM     71  C   UNL A   1      52.303  25.595  26.016  1.00  0.00     0.060 A 
BRANCH  71  72
ATOM     72  S   UNL A   1      53.992  25.046  25.697  1.00  0.00     0.124 S 
ATOM     73  O   UNL A   1      54.678  25.491  26.906  1.00  0.00    -0.237 OA
ATOM     74  O   UNL A   1      53.833  23.602  25.553  1.00  0.00    -0.237 OA
ATOM     75  O   UNL A   1      54.353  25.754  24.472  1.00  0.00    -0.744 OA
ENDBRANCH  71  72
ENDBRANCH  39  64
ENDBRANCH  13  14
ENDBRANCH   6   8
ENDBRANCH   3   4
ENDBRANCH   2   3
ENDBRANCH   1   2
BRANCH   1  76
ATOM     76  C   UNL A   1      33.008  28.085  24.988  1.00  0.00     0.002 C 
BRANCH  76  77
ATOM     77  C   UNL A   1      32.512  26.804  24.302  1.00  0.00     0.021 C 
BRANCH  77  78
ATOM     78  C   UNL A   1      33.535  25.676  24.180  1.00  0.00     0.116 C 
BRANCH  78  79
ATOM     79  N   UNL A   1      33.114  24.657  23.235  1.00  0.00    -0.352 N 
ATOM     80  C   UNL A   1      33.666  23.440  22.950  1.00  0.00     0.253 C 
ATOM     81  H   UNL A   1      32.304  24.878  22.719  1.00  0.00     0.163 HD
ATOM     82  O   UNL A   1      33.251  22.795  21.988  1.00  0.00    -0.269 OA
BRANCH  80  83
ATOM     83  C   UNL A   1      34.752  22.872  23.777  1.00  0.00     0.063 A 
ATOM     84  C   UNL A   1      36.057  23.132  23.329  1.00  0.00     0.016 A 
ATOM     85  C   UNL A   1      34.522  22.021  24.880  1.00  0.00     0.054 A 
ATOM     86  C   UNL A   1      37.148  22.549  23.964  1.00  0.00     0.001 A 
ATOM     87  C   UNL A   1      35.632  21.386  25.450  1.00  0.00     0.027 A 
ATOM     88  C   UNL A   1      36.933  21.661  25.012  1.00  0.00     0.002 A 
BRANCH  85  89
ATOM     89  N   UNL A   1      33.202  21.810  25.335  1.00  0.00    -0.321 N 
ATOM     90  C   UNL A   1      32.260  20.835  25.102  1.00  0.00     0.255 C 
ATOM     91  H   UNL A   1      32.888  22.511  25.951  1.00  0.00     0.170 HD
ATOM     92  O   UNL A   1      31.130  20.967  25.571  1.00  0.00    -0.269 OA
BRANCH  90  93
ATOM     93  C   UNL A   1      32.555  19.609  24.341  1.00  0.00     0.043 A 
ATOM     94  C   UNL A   1      32.236  19.489  22.989  1.00  0.00     0.034 A 
ATOM     95  C   UNL A   1      33.182  18.563  25.013  1.00  0.00     0.034 A 
ATOM     96  C   UNL A   1      32.473  18.267  22.387  1.00  0.00     0.112 A 
ATOM     97  C   UNL A   1      33.385  17.388  24.317  1.00  0.00     0.112 A 
ATOM     98  N   UNL A   1      33.014  17.209  23.030  1.00  0.00    -0.265 NA
ENDBRANCH  90  93
ENDBRANCH  85  89
ENDBRANCH  80  83
ENDBRANCH  78  79
ENDBRANCH  77  78
ENDBRANCH  76  77
ENDBRANCH   1  76
TORSDOF 18
ENDMDL
