MODEL 1
REMARK VINA RESULT:     -11.1      0.000      0.000
REMARK SMILES O=C(CN(CC(F)(F)F)C(=O)Nc1ccccc1Cl)NCCCCCCNC(=O)c1ccc(-c2c3nc(c(-c4c(F)cc(S(=O)(=O)[O-])cc4F)c4ccc([nH]4)c(-c4c(F)cc(S(=O)(=O)[O-])cc4F)c4nc(c(-c5c(F)cc(S(=O)(=O)[O-])cc5F)c5ccc2[nH]5)C=C4)C=C3)cc1
REMARK SMILES IDX 23 1 22 2 21 3 20 4 1 5 2 6 3 8 4 9 5 10 6 11 7 12 8 13 9 14
REMARK SMILES IDX 10 15 11 16 12 17 13 19 14 20 18 21 15 22 17 23 19 24 16 25
REMARK SMILES IDX 24 26 25 27 26 28 27 29 28 30 29 32 30 33 31 34 95 35 32 36
REMARK SMILES IDX 94 37 33 38 34 39 35 40 88 41 36 42 93 43 87 44 89 45 37 46
REMARK SMILES IDX 92 47 86 48 85 49 38 51 72 52 51 53 71 54 52 55 55 56 70 57
REMARK SMILES IDX 90 58 53 59 54 60 69 62 91 63 56 64 39 65 40 66 49 67 41 68
REMARK SMILES IDX 42 69 48 70 50 71 43 72 44 73 45 74 46 75 47 76 73 77 74 78
REMARK SMILES IDX 83 79 75 80 76 81 82 82 84 83 77 84 78 85 79 86 80 87 81 88
REMARK SMILES IDX 57 89 58 90 67 91 59 92 60 93 66 94 68 95 61 96 62 97 63 98
REMARK SMILES IDX 64 99 65 100
REMARK H PARENT 20 7 12 18 27 31 89 50 55 61
REMARK Flexibility Score: inf
ROOT
ATOM      1  C   UNL A   1      36.093  21.809  25.740  1.00  0.00     0.002 C 
ENDROOT
BRANCH   1   2
ATOM      2  C   UNL A   1      35.498  20.691  24.874  1.00  0.00     0.021 C 
BRANCH   2   3
ATOM      3  C   UNL A   1      34.148  20.151  25.348  1.00  0.00     0.116 C 
BRANCH   3   4
ATOM      4  N   UNL A   1      33.022  20.949  24.902  1.00  0.00    -0.355 N 
ATOM      5  O   UNL A   1      32.816  22.144  26.846  1.00  0.00    -0.273 OA
ATOM      6  C   UNL A   1      32.491  21.964  25.674  1.00  0.00     0.239 C 
ATOM      7  H   UNL A   1      32.623  20.763  24.021  1.00  0.00     0.163 HD
BRANCH   6   8
ATOM      8  C   UNL A   1      31.352  22.787  25.030  1.00  0.00     0.221 C 
BRANCH   8   9
ATOM      9  N   UNL A   1      31.477  24.255  25.123  1.00  0.00    -0.306 N 
BRANCH   9  10
ATOM     10  C   UNL A   1      32.516  24.861  24.250  1.00  0.00     0.237 C 
BRANCH  10  11
ATOM     11  C   UNL A   1      33.874  25.206  24.896  1.00  0.00     0.406 C 
ATOM     12  F   UNL A   1      34.898  24.484  24.408  1.00  0.00    -0.169 F 
ATOM     13  F   UNL A   1      34.172  26.509  24.667  1.00  0.00    -0.169 F 
ATOM     14  F   UNL A   1      33.862  25.038  26.236  1.00  0.00    -0.169 F 
ENDBRANCH  10  11
ENDBRANCH   9  10
BRANCH   9  15
ATOM     15  C   UNL A   1      30.698  24.837  26.104  1.00  0.00     0.322 C 
ATOM     16  O   UNL A   1      30.191  24.154  26.998  1.00  0.00    -0.248 OA
ATOM     17  N   UNL A   1      30.637  26.180  26.271  1.00  0.00    -0.306 N 
ATOM     18  H   UNL A   1      30.566  26.462  27.211  1.00  0.00     0.171 HD
BRANCH  17  19
ATOM     19  C   UNL A   1      30.656  27.242  25.362  1.00  0.00     0.061 A 
ATOM     20  C   UNL A   1      31.581  28.261  25.616  1.00  0.00     0.028 A 
ATOM     21  C   UNL A   1      29.816  27.335  24.244  1.00  0.00     0.064 A 
ATOM     22  C   UNL A   1      31.787  29.268  24.675  1.00  0.00     0.002 A 
ATOM     23  C   UNL A   1      30.032  28.339  23.298  1.00  0.00     0.023 A 
ATOM     24  Cl  UNL A   1      28.413  26.338  24.077  1.00  0.00    -0.082 Cl
ATOM     25  C   UNL A   1      31.038  29.286  23.499  1.00  0.00     0.002 A 
ENDBRANCH  17  19
ENDBRANCH   9  15
ENDBRANCH   8   9
ENDBRANCH   6   8
ENDBRANCH   3   4
ENDBRANCH   2   3
ENDBRANCH   1   2
BRANCH   1  26
ATOM     26  C   UNL A   1      37.393  22.435  25.226  1.00  0.00     0.002 C 
BRANCH  26  27
ATOM     27  C   UNL A   1      37.860  23.700  25.953  1.00  0.00     0.021 C 
BRANCH  27  28
ATOM     28  C   UNL A   1      39.053  23.521  26.890  1.00  0.00     0.116 C 
BRANCH  28  29
ATOM     29  N   UNL A   1      40.328  23.736  26.221  1.00  0.00    -0.352 N 
ATOM     30  C   UNL A   1      41.212  24.785  26.325  1.00  0.00     0.251 C 
ATOM     31  H   UNL A   1      40.598  23.024  25.598  1.00  0.00     0.163 HD
ATOM     32  O   UNL A   1      42.159  24.856  25.549  1.00  0.00    -0.269 OA
BRANCH  30  33
ATOM     33  C   UNL A   1      41.014  25.838  27.349  1.00  0.00     0.039 A 
ATOM     34  C   UNL A   1      40.038  25.647  28.332  1.00  0.00     0.014 A 
ATOM     35  C   UNL A   1      41.765  27.016  27.336  1.00  0.00     0.014 A 
ATOM     36  C   UNL A   1      39.865  26.602  29.340  1.00  0.00     0.010 A 
ATOM     37  C   UNL A   1      41.640  27.935  28.378  1.00  0.00     0.010 A 
ATOM     38  C   UNL A   1      40.692  27.737  29.393  1.00  0.00    -0.014 A 
BRANCH  38  39
ATOM     39  C   UNL A   1      40.582  28.721  30.505  1.00  0.00     0.031 A 
ATOM     40  C   UNL A   1      41.449  28.585  31.729  1.00  0.00     0.074 A 
ATOM     41  C   UNL A   1      39.657  29.701  30.441  1.00  0.00     0.049 A 
ATOM     42  N   UNL A   1      41.438  29.290  32.831  1.00  0.00    -0.248 NA
ATOM     43  C   UNL A   1      42.445  27.501  31.721  1.00  0.00     0.031 C 
ATOM     44  C   UNL A   1      38.726  29.913  29.330  1.00  0.00     0.029 A 
ATOM     45  N   UNL A   1      39.336  30.693  31.334  1.00  0.00    -0.354 N 
ATOM     46  C   UNL A   1      42.414  28.733  33.649  1.00  0.00     0.074 A 
ATOM     47  C   UNL A   1      42.963  27.599  32.938  1.00  0.00     0.031 C 
ATOM     48  C   UNL A   1      37.950  30.976  29.602  1.00  0.00     0.029 A 
ATOM     49  C   UNL A   1      38.299  31.497  30.921  1.00  0.00     0.049 A 
ATOM     50  H   UNL A   1      39.804  30.818  32.191  1.00  0.00     0.167 HD
ATOM     51  C   UNL A   1      42.833  29.144  34.871  1.00  0.00     0.037 A 
ATOM     52  C   UNL A   1      37.686  32.527  31.537  1.00  0.00     0.037 A 
ATOM     53  C   UNL A   1      42.300  30.287  35.566  1.00  0.00     0.049 A 
ATOM     54  C   UNL A   1      38.164  32.956  32.899  1.00  0.00     0.074 A 
ATOM     55  C   UNL A   1      42.688  30.806  36.790  1.00  0.00     0.029 A 
ATOM     56  N   UNL A   1      41.269  31.090  35.102  1.00  0.00    -0.354 N 
ATOM     57  N   UNL A   1      39.125  32.449  33.633  1.00  0.00    -0.248 NA
ATOM     58  C   UNL A   1      37.478  34.101  33.516  1.00  0.00     0.031 C 
ATOM     59  C   UNL A   1      41.867  31.900  37.083  1.00  0.00     0.029 A 
ATOM     60  C   UNL A   1      40.999  32.091  36.020  1.00  0.00     0.049 A 
ATOM     61  H   UNL A   1      40.799  30.966  34.246  1.00  0.00     0.167 HD
ATOM     62  C   UNL A   1      39.180  33.232  34.782  1.00  0.00     0.074 A 
ATOM     63  C   UNL A   1      38.165  34.254  34.640  1.00  0.00     0.031 C 
ATOM     64  C   UNL A   1      39.997  33.114  35.858  1.00  0.00     0.037 A 
BRANCH  51  65
ATOM     65  C   UNL A   1      43.937  28.365  35.534  1.00  0.00     0.058 A 
ATOM     66  C   UNL A   1      43.660  27.306  36.413  1.00  0.00     0.135 A 
ATOM     67  C   UNL A   1      45.283  28.634  35.237  1.00  0.00     0.135 A 
ATOM     68  F   UNL A   1      42.392  27.016  36.743  1.00  0.00    -0.206 F 
ATOM     69  C   UNL A   1      44.677  26.553  36.988  1.00  0.00     0.059 A 
ATOM     70  C   UNL A   1      46.316  27.875  35.780  1.00  0.00     0.059 A 
ATOM     71  F   UNL A   1      45.605  29.636  34.403  1.00  0.00    -0.206 F 
ATOM     72  C   UNL A   1      46.004  26.842  36.662  1.00  0.00     0.060 A 
BRANCH  72  73
ATOM     73  S   UNL A   1      47.309  25.832  37.394  1.00  0.00     0.124 S 
ATOM     74  O   UNL A   1      48.493  26.637  37.109  1.00  0.00    -0.237 OA
ATOM     75  O   UNL A   1      46.908  25.772  38.795  1.00  0.00    -0.237 OA
ATOM     76  O   UNL A   1      47.217  24.573  36.662  1.00  0.00    -0.744 OA
ENDBRANCH  72  73
ENDBRANCH  51  65
BRANCH  52  77
ATOM     77  C   UNL A   1      36.556  33.234  30.876  1.00  0.00     0.058 A 
ATOM     78  C   UNL A   1      36.776  34.103  29.797  1.00  0.00     0.135 A 
ATOM     79  C   UNL A   1      35.234  33.071  31.321  1.00  0.00     0.135 A 
ATOM     80  F   UNL A   1      38.021  34.298  29.337  1.00  0.00    -0.206 F 
ATOM     81  C   UNL A   1      35.735  34.811  29.204  1.00  0.00     0.059 A 
ATOM     82  C   UNL A   1      34.172  33.745  30.727  1.00  0.00     0.059 A 
ATOM     83  F   UNL A   1      34.966  32.236  32.337  1.00  0.00    -0.206 F 
ATOM     84  C   UNL A   1      34.435  34.626  29.679  1.00  0.00     0.060 A 
BRANCH  84  85
ATOM     85  S   UNL A   1      33.086  35.533  28.891  1.00  0.00     0.124 S 
ATOM     86  O   UNL A   1      33.815  36.571  28.170  1.00  0.00    -0.237 OA
ATOM     87  O   UNL A   1      32.461  34.502  28.069  1.00  0.00    -0.237 OA
ATOM     88  O   UNL A   1      32.287  35.993  30.023  1.00  0.00    -0.744 OA
ENDBRANCH  84  85
ENDBRANCH  52  77
BRANCH  64  89
ATOM     89  C   UNL A   1      39.861  34.140  36.949  1.00  0.00     0.058 A 
ATOM     90  C   UNL A   1      40.439  35.414  36.843  1.00  0.00     0.135 A 
ATOM     91  C   UNL A   1      39.097  33.860  38.094  1.00  0.00     0.135 A 
ATOM     92  F   UNL A   1      41.184  35.732  35.773  1.00  0.00    -0.206 F 
ATOM     93  C   UNL A   1      40.284  36.368  37.845  1.00  0.00     0.059 A 
ATOM     94  C   UNL A   1      38.904  34.807  39.095  1.00  0.00     0.059 A 
ATOM     95  F   UNL A   1      38.513  32.660  38.240  1.00  0.00    -0.206 F 
ATOM     96  C   UNL A   1      39.513  36.055  38.966  1.00  0.00     0.060 A 
BRANCH  96  97
ATOM     97  S   UNL A   1      39.290  37.313  40.242  1.00  0.00     0.124 S 
ATOM     98  O   UNL A   1      40.672  37.660  40.557  1.00  0.00    -0.237 OA
ATOM     99  O   UNL A   1      38.523  38.338  39.540  1.00  0.00    -0.237 OA
ATOM    100  O   UNL A   1      38.564  36.607  41.293  1.00  0.00    -0.744 OA
ENDBRANCH  96  97
ENDBRANCH  64  89
ENDBRANCH  38  39
ENDBRANCH  30  33
ENDBRANCH  28  29
ENDBRANCH  27  28
ENDBRANCH  26  27
ENDBRANCH   1  26
TORSDOF 21
ENDMDL
MODEL 2
REMARK VINA RESULT:     -11.0      1.668      2.281
REMARK SMILES O=C(CN(CC(F)(F)F)C(=O)Nc1ccccc1Cl)NCCCCCCNC(=O)c1ccc(-c2c3nc(c(-c4c(F)cc(S(=O)(=O)[O-])cc4F)c4ccc([nH]4)c(-c4c(F)cc(S(=O)(=O)[O-])cc4F)c4nc(c(-c5c(F)cc(S(=O)(=O)[O-])cc5F)c5ccc2[nH]5)C=C4)C=C3)cc1
REMARK SMILES IDX 23 1 22 2 21 3 20 4 1 5 2 6 3 8 4 9 5 10 6 11 7 12 8 13 9 14
REMARK SMILES IDX 10 15 11 16 12 17 13 19 14 20 18 21 15 22 17 23 19 24 16 25
REMARK SMILES IDX 24 26 25 27 26 28 27 29 28 30 29 32 30 33 31 34 95 35 32 36
REMARK SMILES IDX 94 37 33 38 34 39 35 40 88 41 36 42 93 43 87 44 89 45 37 46
REMARK SMILES IDX 92 47 86 48 85 49 38 51 72 52 51 53 71 54 52 55 55 56 70 57
REMARK SMILES IDX 90 58 53 59 54 60 69 62 91 63 56 64 39 65 40 66 49 67 41 68
REMARK SMILES IDX 42 69 48 70 50 71 43 72 44 73 45 74 46 75 47 76 73 77 74 78
REMARK SMILES IDX 83 79 75 80 76 81 82 82 84 83 77 84 78 85 79 86 80 87 81 88
REMARK SMILES IDX 57 89 58 90 67 91 59 92 60 93 66 94 68 95 61 96 62 97 63 98
REMARK SMILES IDX 64 99 65 100
REMARK H PARENT 20 7 12 18 27 31 89 50 55 61
REMARK Flexibility Score: inf
ROOT
ATOM      1  C   UNL A   1      37.364  22.721  26.181  1.00  0.00     0.002 C 
ENDROOT
BRANCH   1   2
ATOM      2  C   UNL A   1      37.075  21.631  25.141  1.00  0.00     0.021 C 
BRANCH   2   3
ATOM      3  C   UNL A   1      35.651  21.629  24.581  1.00  0.00     0.116 C 
BRANCH   3   4
ATOM      4  N   UNL A   1      35.024  22.937  24.602  1.00  0.00    -0.355 N 
ATOM      5  O   UNL A   1      35.003  23.206  22.326  1.00  0.00    -0.273 OA
ATOM      6  C   UNL A   1      34.664  23.596  23.442  1.00  0.00     0.239 C 
ATOM      7  H   UNL A   1      34.850  23.369  25.469  1.00  0.00     0.163 HD
BRANCH   6   8
ATOM      8  C   UNL A   1      33.925  24.941  23.624  1.00  0.00     0.221 C 
BRANCH   8   9
ATOM      9  N   UNL A   1      32.677  25.106  22.851  1.00  0.00    -0.306 N 
BRANCH   9  10
ATOM     10  C   UNL A   1      31.544  24.245  23.280  1.00  0.00     0.237 C 
BRANCH  10  11
ATOM     11  C   UNL A   1      30.563  24.828  24.317  1.00  0.00     0.406 C 
ATOM     12  F   UNL A   1      29.391  25.218  23.786  1.00  0.00    -0.169 F 
ATOM     13  F   UNL A   1      30.274  23.888  25.251  1.00  0.00    -0.169 F 
ATOM     14  F   UNL A   1      31.082  25.886  24.977  1.00  0.00    -0.169 F 
ENDBRANCH  10  11
ENDBRANCH   9  10
BRANCH   9  15
ATOM     15  C   UNL A   1      32.786  25.945  21.758  1.00  0.00     0.322 C 
ATOM     16  O   UNL A   1      33.296  25.551  20.705  1.00  0.00    -0.248 OA
ATOM     17  N   UNL A   1      32.148  27.139  21.703  1.00  0.00    -0.306 N 
ATOM     18  H   UNL A   1      31.820  27.374  20.805  1.00  0.00     0.171 HD
BRANCH  17  19
ATOM     19  C   UNL A   1      31.867  28.101  22.677  1.00  0.00     0.061 A 
ATOM     20  C   UNL A   1      30.524  28.467  22.821  1.00  0.00     0.028 A 
ATOM     21  C   UNL A   1      32.838  28.701  23.491  1.00  0.00     0.064 A 
ATOM     22  C   UNL A   1      30.133  29.288  23.877  1.00  0.00     0.002 A 
ATOM     23  C   UNL A   1      32.441  29.515  24.555  1.00  0.00     0.023 A 
ATOM     24  Cl  UNL A   1      34.523  28.596  23.122  1.00  0.00    -0.082 Cl
ATOM     25  C   UNL A   1      31.087  29.782  24.766  1.00  0.00     0.002 A 
ENDBRANCH  17  19
ENDBRANCH   9  15
ENDBRANCH   8   9
ENDBRANCH   6   8
ENDBRANCH   3   4
ENDBRANCH   2   3
ENDBRANCH   1   2
BRANCH   1  26
ATOM     26  C   UNL A   1      38.783  23.299  26.169  1.00  0.00     0.002 C 
BRANCH  26  27
ATOM     27  C   UNL A   1      39.872  22.414  26.781  1.00  0.00     0.021 C 
BRANCH  27  28
ATOM     28  C   UNL A   1      41.185  23.120  27.117  1.00  0.00     0.116 C 
BRANCH  28  29
ATOM     29  N   UNL A   1      41.676  23.941  26.021  1.00  0.00    -0.352 N 
ATOM     30  C   UNL A   1      41.857  25.303  25.953  1.00  0.00     0.251 C 
ATOM     31  H   UNL A   1      41.913  23.448  25.203  1.00  0.00     0.163 HD
ATOM     32  O   UNL A   1      42.129  25.824  24.876  1.00  0.00    -0.269 OA
BRANCH  30  33
ATOM     33  C   UNL A   1      41.704  26.144  27.164  1.00  0.00     0.039 A 
ATOM     34  C   UNL A   1      42.604  27.193  27.375  1.00  0.00     0.014 A 
ATOM     35  C   UNL A   1      40.696  25.895  28.100  1.00  0.00     0.014 A 
ATOM     36  C   UNL A   1      42.451  28.033  28.483  1.00  0.00     0.010 A 
ATOM     37  C   UNL A   1      40.503  26.772  29.167  1.00  0.00     0.010 A 
ATOM     38  C   UNL A   1      41.375  27.853  29.369  1.00  0.00    -0.014 A 
BRANCH  38  39
ATOM     39  C   UNL A   1      41.145  28.787  30.505  1.00  0.00     0.031 A 
ATOM     40  C   UNL A   1      41.959  28.668  31.766  1.00  0.00     0.074 A 
ATOM     41  C   UNL A   1      40.158  29.704  30.425  1.00  0.00     0.049 A 
ATOM     42  N   UNL A   1      41.846  29.332  32.888  1.00  0.00    -0.248 NA
ATOM     43  C   UNL A   1      43.026  27.654  31.774  1.00  0.00     0.031 C 
ATOM     44  C   UNL A   1      39.269  29.892  29.276  1.00  0.00     0.029 A 
ATOM     45  N   UNL A   1      39.726  30.641  31.331  1.00  0.00    -0.354 N 
ATOM     46  C   UNL A   1      42.818  28.814  33.736  1.00  0.00     0.074 A 
ATOM     47  C   UNL A   1      43.477  27.745  33.018  1.00  0.00     0.031 C 
ATOM     48  C   UNL A   1      38.409  30.890  29.542  1.00  0.00     0.029 A 
ATOM     49  C   UNL A   1      38.657  31.387  30.892  1.00  0.00     0.049 A 
ATOM     50  H   UNL A   1      40.143  30.767  32.215  1.00  0.00     0.167 HD
ATOM     51  C   UNL A   1      43.148  29.209  34.989  1.00  0.00     0.037 A 
ATOM     52  C   UNL A   1      37.946  32.350  31.509  1.00  0.00     0.037 A 
ATOM     53  C   UNL A   1      42.505  30.289  35.693  1.00  0.00     0.049 A 
ATOM     54  C   UNL A   1      38.326  32.763  32.906  1.00  0.00     0.074 A 
ATOM     55  C   UNL A   1      42.797  30.791  36.950  1.00  0.00     0.029 A 
ATOM     56  N   UNL A   1      41.444  31.036  35.202  1.00  0.00    -0.354 N 
ATOM     57  N   UNL A   1      39.284  32.297  33.671  1.00  0.00    -0.248 NA
ATOM     58  C   UNL A   1      37.534  33.837  33.524  1.00  0.00     0.031 C 
ATOM     59  C   UNL A   1      41.888  31.815  37.235  1.00  0.00     0.029 A 
ATOM     60  C   UNL A   1      41.061  31.984  36.137  1.00  0.00     0.049 A 
ATOM     61  H   UNL A   1      41.025  30.911  34.321  1.00  0.00     0.167 HD
ATOM     62  C   UNL A   1      39.229  33.042  34.845  1.00  0.00     0.074 A 
ATOM     63  C   UNL A   1      38.154  33.997  34.684  1.00  0.00     0.031 C 
ATOM     64  C   UNL A   1      40.000  32.942  35.956  1.00  0.00     0.037 A 
BRANCH  51  65
ATOM     65  C   UNL A   1      44.270  28.484  35.682  1.00  0.00     0.058 A 
ATOM     66  C   UNL A   1      44.033  27.340  36.460  1.00  0.00     0.135 A 
ATOM     67  C   UNL A   1      45.603  28.896  35.513  1.00  0.00     0.135 A 
ATOM     68  F   UNL A   1      42.777  26.913  36.667  1.00  0.00    -0.206 F 
ATOM     69  C   UNL A   1      45.073  26.640  37.061  1.00  0.00     0.059 A 
ATOM     70  C   UNL A   1      46.661  28.194  36.082  1.00  0.00     0.059 A 
ATOM     71  F   UNL A   1      45.887  29.984  34.780  1.00  0.00    -0.206 F 
ATOM     72  C   UNL A   1      46.386  27.071  36.862  1.00  0.00     0.060 A 
BRANCH  72  73
ATOM     73  S   UNL A   1      47.725  26.130  37.623  1.00  0.00     0.124 S 
ATOM     74  O   UNL A   1      48.300  25.453  36.464  1.00  0.00    -0.237 OA
ATOM     75  O   UNL A   1      48.548  27.180  38.214  1.00  0.00    -0.237 OA
ATOM     76  O   UNL A   1      47.036  25.266  38.576  1.00  0.00    -0.744 OA
ENDBRANCH  72  73
ENDBRANCH  51  65
BRANCH  52  77
ATOM     77  C   UNL A   1      36.802  33.002  30.814  1.00  0.00     0.058 A 
ATOM     78  C   UNL A   1      37.013  33.978  29.828  1.00  0.00     0.135 A 
ATOM     79  C   UNL A   1      35.474  32.677  31.135  1.00  0.00     0.135 A 
ATOM     80  F   UNL A   1      38.263  34.327  29.489  1.00  0.00    -0.206 F 
ATOM     81  C   UNL A   1      35.953  34.632  29.209  1.00  0.00     0.059 A 
ATOM     82  C   UNL A   1      34.397  33.297  30.510  1.00  0.00     0.059 A 
ATOM     83  F   UNL A   1      35.216  31.737  32.057  1.00  0.00    -0.206 F 
ATOM     84  C   UNL A   1      34.647  34.286  29.560  1.00  0.00     0.060 A 
BRANCH  84  85
ATOM     85  S   UNL A   1      33.276  35.126  28.737  1.00  0.00     0.124 S 
ATOM     86  O   UNL A   1      33.977  36.164  27.988  1.00  0.00    -0.237 OA
ATOM     87  O   UNL A   1      32.688  34.051  27.943  1.00  0.00    -0.237 OA
ATOM     88  O   UNL A   1      32.455  35.594  29.850  1.00  0.00    -0.744 OA
ENDBRANCH  84  85
ENDBRANCH  52  77
BRANCH  64  89
ATOM     89  C   UNL A   1      39.741  33.918  37.071  1.00  0.00     0.058 A 
ATOM     90  C   UNL A   1      38.941  33.586  38.175  1.00  0.00     0.135 A 
ATOM     91  C   UNL A   1      40.345  35.186  37.056  1.00  0.00     0.135 A 
ATOM     92  F   UNL A   1      38.336  32.389  38.236  1.00  0.00    -0.206 F 
ATOM     93  C   UNL A   1      38.731  34.485  39.216  1.00  0.00     0.059 A 
ATOM     94  C   UNL A   1      40.171  36.091  38.099  1.00  0.00     0.059 A 
ATOM     95  F   UNL A   1      41.127  35.551  36.028  1.00  0.00    -0.206 F 
ATOM     96  C   UNL A   1      39.352  35.734  39.170  1.00  0.00     0.060 A 
BRANCH  96  97
ATOM     97  S   UNL A   1      39.099  36.879  40.544  1.00  0.00     0.124 S 
ATOM     98  O   UNL A   1      38.570  38.051  39.856  1.00  0.00    -0.237 OA
ATOM     99  O   UNL A   1      38.150  36.154  41.383  1.00  0.00    -0.237 OA
ATOM    100  O   UNL A   1      40.436  37.032  41.109  1.00  0.00    -0.744 OA
ENDBRANCH  96  97
ENDBRANCH  64  89
ENDBRANCH  38  39
ENDBRANCH  30  33
ENDBRANCH  28  29
ENDBRANCH  27  28
ENDBRANCH  26  27
ENDBRANCH   1  26
TORSDOF 21
ENDMDL
MODEL 3
REMARK VINA RESULT:     -10.8      2.552      8.988
REMARK SMILES O=C(CN(CC(F)(F)F)C(=O)Nc1ccccc1Cl)NCCCCCCNC(=O)c1ccc(-c2c3nc(c(-c4c(F)cc(S(=O)(=O)[O-])cc4F)c4ccc([nH]4)c(-c4c(F)cc(S(=O)(=O)[O-])cc4F)c4nc(c(-c5c(F)cc(S(=O)(=O)[O-])cc5F)c5ccc2[nH]5)C=C4)C=C3)cc1
REMARK SMILES IDX 23 1 22 2 21 3 20 4 1 5 2 6 3 8 4 9 5 10 6 11 7 12 8 13 9 14
REMARK SMILES IDX 10 15 11 16 12 17 13 19 14 20 18 21 15 22 17 23 19 24 16 25
REMARK SMILES IDX 24 26 25 27 26 28 27 29 28 30 29 32 30 33 31 34 95 35 32 36
REMARK SMILES IDX 94 37 33 38 34 39 35 40 88 41 36 42 93 43 87 44 89 45 37 46
REMARK SMILES IDX 92 47 86 48 85 49 38 51 72 52 51 53 71 54 52 55 55 56 70 57
REMARK SMILES IDX 90 58 53 59 54 60 69 62 91 63 56 64 39 65 40 66 49 67 41 68
REMARK SMILES IDX 42 69 48 70 50 71 43 72 44 73 45 74 46 75 47 76 73 77 74 78
REMARK SMILES IDX 83 79 75 80 76 81 82 82 84 83 77 84 78 85 79 86 80 87 81 88
REMARK SMILES IDX 57 89 58 90 67 91 59 92 60 93 66 94 68 95 61 96 62 97 63 98
REMARK SMILES IDX 64 99 65 100
REMARK H PARENT 20 7 12 18 27 31 89 50 55 61
REMARK Flexibility Score: inf
ROOT
ATOM      1  C   UNL A   1      31.808  30.428  26.074  1.00  0.00     0.002 C 
ENDROOT
BRANCH   1   2
ATOM      2  C   UNL A   1      32.678  29.735  27.130  1.00  0.00     0.021 C 
BRANCH   2   3
ATOM      3  C   UNL A   1      34.015  29.196  26.618  1.00  0.00     0.116 C 
BRANCH   3   4
ATOM      4  N   UNL A   1      33.967  27.791  26.258  1.00  0.00    -0.355 N 
ATOM      5  O   UNL A   1      33.768  28.150  24.003  1.00  0.00    -0.273 OA
ATOM      6  C   UNL A   1      33.934  27.373  24.942  1.00  0.00     0.239 C 
ATOM      7  H   UNL A   1      33.959  27.115  26.973  1.00  0.00     0.163 HD
BRANCH   6   8
ATOM      8  C   UNL A   1      33.976  25.845  24.710  1.00  0.00     0.221 C 
BRANCH   8   9
ATOM      9  N   UNL A   1      32.674  25.185  24.490  1.00  0.00    -0.306 N 
BRANCH   9  10
ATOM     10  C   UNL A   1      31.755  25.185  25.658  1.00  0.00     0.237 C 
BRANCH  10  11
ATOM     11  C   UNL A   1      30.632  26.243  25.678  1.00  0.00     0.406 C 
ATOM     12  F   UNL A   1      29.397  25.713  25.645  1.00  0.00    -0.169 F 
ATOM     13  F   UNL A   1      30.712  26.973  26.818  1.00  0.00    -0.169 F 
ATOM     14  F   UNL A   1      30.728  27.113  24.649  1.00  0.00    -0.169 F 
ENDBRANCH  10  11
ENDBRANCH   9  10
BRANCH   9  15
ATOM     15  C   UNL A   1      32.551  24.549  23.269  1.00  0.00     0.322 C 
ATOM     16  O   UNL A   1      31.680  24.888  22.463  1.00  0.00    -0.248 OA
ATOM     17  N   UNL A   1      33.497  23.698  22.804  1.00  0.00    -0.306 N 
ATOM     18  H   UNL A   1      33.631  23.745  21.831  1.00  0.00     0.171 HD
BRANCH  17  19
ATOM     19  C   UNL A   1      34.319  22.765  23.444  1.00  0.00     0.061 A 
ATOM     20  C   UNL A   1      35.698  22.963  23.316  1.00  0.00     0.028 A 
ATOM     21  C   UNL A   1      33.842  21.673  24.181  1.00  0.00     0.064 A 
ATOM     22  C   UNL A   1      36.587  22.186  24.058  1.00  0.00     0.002 A 
ATOM     23  C   UNL A   1      34.734  20.903  24.932  1.00  0.00     0.023 A 
ATOM     24  Cl  UNL A   1      32.200  21.148  24.067  1.00  0.00    -0.082 Cl
ATOM     25  C   UNL A   1      36.102  21.180  24.893  1.00  0.00     0.002 A 
ENDBRANCH  17  19
ENDBRANCH   9  15
ENDBRANCH   8   9
ENDBRANCH   6   8
ENDBRANCH   3   4
ENDBRANCH   2   3
ENDBRANCH   1   2
BRANCH   1  26
ATOM     26  C   UNL A   1      31.027  31.657  26.550  1.00  0.00     0.002 C 
BRANCH  26  27
ATOM     27  C   UNL A   1      31.771  32.993  26.479  1.00  0.00     0.021 C 
BRANCH  27  28
ATOM     28  C   UNL A   1      32.635  33.334  27.692  1.00  0.00     0.116 C 
BRANCH  28  29
ATOM     29  N   UNL A   1      32.526  34.731  28.082  1.00  0.00    -0.352 N 
ATOM     30  C   UNL A   1      33.196  35.427  29.062  1.00  0.00     0.251 C 
ATOM     31  H   UNL A   1      31.873  35.259  27.569  1.00  0.00     0.163 HD
ATOM     32  O   UNL A   1      32.840  36.567  29.344  1.00  0.00    -0.269 OA
BRANCH  30  33
ATOM     33  C   UNL A   1      34.324  34.802  29.793  1.00  0.00     0.039 A 
ATOM     34  C   UNL A   1      34.105  34.319  31.086  1.00  0.00     0.014 A 
ATOM     35  C   UNL A   1      35.596  34.707  29.222  1.00  0.00     0.014 A 
ATOM     36  C   UNL A   1      35.139  33.680  31.778  1.00  0.00     0.010 A 
ATOM     37  C   UNL A   1      36.607  34.011  29.884  1.00  0.00     0.010 A 
ATOM     38  C   UNL A   1      36.390  33.486  31.167  1.00  0.00    -0.014 A 
BRANCH  38  39
ATOM     39  C   UNL A   1      37.475  32.733  31.852  1.00  0.00     0.031 A 
ATOM     40  C   UNL A   1      38.027  33.219  33.167  1.00  0.00     0.074 A 
ATOM     41  C   UNL A   1      38.009  31.644  31.260  1.00  0.00     0.049 A 
ATOM     42  N   UNL A   1      39.026  32.748  33.869  1.00  0.00    -0.248 NA
ATOM     43  C   UNL A   1      37.386  34.405  33.758  1.00  0.00     0.031 C 
ATOM     44  C   UNL A   1      37.594  31.096  29.967  1.00  0.00     0.029 A 
ATOM     45  N   UNL A   1      39.025  30.811  31.659  1.00  0.00    -0.354 N 
ATOM     46  C   UNL A   1      39.138  33.579  34.977  1.00  0.00     0.074 A 
ATOM     47  C   UNL A   1      38.141  34.616  34.828  1.00  0.00     0.031 C 
ATOM     48  C   UNL A   1      38.338  30.013  29.688  1.00  0.00     0.029 A 
ATOM     49  C   UNL A   1      39.308  29.810  30.759  1.00  0.00     0.049 A 
ATOM     50  H   UNL A   1      39.506  30.919  32.512  1.00  0.00     0.167 HD
ATOM     51  C   UNL A   1      39.979  33.474  36.034  1.00  0.00     0.037 A 
ATOM     52  C   UNL A   1      40.251  28.848  30.783  1.00  0.00     0.037 A 
ATOM     53  C   UNL A   1      40.957  32.428  36.189  1.00  0.00     0.049 A 
ATOM     54  C   UNL A   1      41.180  28.761  31.965  1.00  0.00     0.074 A 
ATOM     55  C   UNL A   1      41.826  32.214  37.245  1.00  0.00     0.029 A 
ATOM     56  N   UNL A   1      41.194  31.419  35.268  1.00  0.00    -0.354 N 
ATOM     57  N   UNL A   1      41.235  29.525  33.029  1.00  0.00    -0.248 NA
ATOM     58  C   UNL A   1      42.174  27.677  31.953  1.00  0.00     0.031 C 
ATOM     59  C   UNL A   1      42.615  31.099  36.945  1.00  0.00     0.029 A 
ATOM     60  C   UNL A   1      42.204  30.589  35.724  1.00  0.00     0.049 A 
ATOM     61  H   UNL A   1      40.714  31.309  34.415  1.00  0.00     0.167 HD
ATOM     62  C   UNL A   1      42.244  28.995  33.826  1.00  0.00     0.074 A 
ATOM     63  C   UNL A   1      42.765  27.839  33.128  1.00  0.00     0.031 C 
ATOM     64  C   UNL A   1      42.700  29.429  35.027  1.00  0.00     0.037 A 
BRANCH  51  65
ATOM     65  C   UNL A   1      39.873  34.508  37.122  1.00  0.00     0.058 A 
ATOM     66  C   UNL A   1      40.542  35.739  37.031  1.00  0.00     0.135 A 
ATOM     67  C   UNL A   1      39.041  34.296  38.234  1.00  0.00     0.135 A 
ATOM     68  F   UNL A   1      41.362  35.988  35.998  1.00  0.00    -0.206 F 
ATOM     69  C   UNL A   1      40.405  36.716  38.011  1.00  0.00     0.059 A 
ATOM     70  C   UNL A   1      38.868  35.271  39.213  1.00  0.00     0.059 A 
ATOM     71  F   UNL A   1      38.378  33.137  38.372  1.00  0.00    -0.206 F 
ATOM     72  C   UNL A   1      39.562  36.475  39.098  1.00  0.00     0.060 A 
BRANCH  72  73
ATOM     73  S   UNL A   1      39.372  37.767  40.343  1.00  0.00     0.124 S 
ATOM     74  O   UNL A   1      40.619  38.509  40.184  1.00  0.00    -0.237 OA
ATOM     75  O   UNL A   1      38.166  38.456  39.897  1.00  0.00    -0.237 OA
ATOM     76  O   UNL A   1      39.241  37.022  41.591  1.00  0.00    -0.744 OA
ENDBRANCH  72  73
ENDBRANCH  51  65
BRANCH  52  77
ATOM     77  C   UNL A   1      40.366  27.881  29.658  1.00  0.00     0.058 A 
ATOM     78  C   UNL A   1      39.553  26.740  29.596  1.00  0.00     0.135 A 
ATOM     79  C   UNL A   1      41.307  28.066  28.632  1.00  0.00     0.135 A 
ATOM     80  F   UNL A   1      38.642  26.514  30.555  1.00  0.00    -0.206 F 
ATOM     81  C   UNL A   1      39.687  25.801  28.578  1.00  0.00     0.059 A 
ATOM     82  C   UNL A   1      41.441  27.157  27.588  1.00  0.00     0.059 A 
ATOM     83  F   UNL A   1      42.097  29.151  28.632  1.00  0.00    -0.206 F 
ATOM     84  C   UNL A   1      40.638  26.017  27.579  1.00  0.00     0.060 A 
BRANCH  84  85
ATOM     85  S   UNL A   1      40.792  24.803  26.250  1.00  0.00     0.124 S 
ATOM     86  O   UNL A   1      41.517  25.567  25.241  1.00  0.00    -0.237 OA
ATOM     87  O   UNL A   1      41.540  23.731  26.899  1.00  0.00    -0.237 OA
ATOM     88  O   UNL A   1      39.405  24.484  25.927  1.00  0.00    -0.744 OA
ENDBRANCH  84  85
ENDBRANCH  52  77
BRANCH  64  89
ATOM     89  C   UNL A   1      43.787  28.627  35.689  1.00  0.00     0.058 A 
ATOM     90  C   UNL A   1      43.498  27.547  36.537  1.00  0.00     0.135 A 
ATOM     91  C   UNL A   1      45.137  28.913  35.428  1.00  0.00     0.135 A 
ATOM     92  F   UNL A   1      42.224  27.235  36.824  1.00  0.00    -0.206 F 
ATOM     93  C   UNL A   1      44.509  26.791  37.122  1.00  0.00     0.059 A 
ATOM     94  C   UNL A   1      46.165  28.153  35.979  1.00  0.00     0.059 A 
ATOM     95  F   UNL A   1      45.469  29.929  34.616  1.00  0.00    -0.206 F 
ATOM     96  C   UNL A   1      45.840  27.102  36.835  1.00  0.00     0.060 A 
BRANCH  96  97
ATOM     97  S   UNL A   1      47.143  26.092  37.572  1.00  0.00     0.124 S 
ATOM     98  O   UNL A   1      48.092  25.986  36.469  1.00  0.00    -0.237 OA
ATOM     99  O   UNL A   1      47.572  26.911  38.702  1.00  0.00    -0.237 OA
ATOM    100  O   UNL A   1      46.455  24.855  37.929  1.00  0.00    -0.744 OA
ENDBRANCH  96  97
ENDBRANCH  64  89
ENDBRANCH  38  39
ENDBRANCH  30  33
ENDBRANCH  28  29
ENDBRANCH  27  28
ENDBRANCH  26  27
ENDBRANCH   1  26
TORSDOF 21
ENDMDL
