MODEL 1
REMARK VINA RESULT:     -12.0      0.000      0.000
REMARK SMILES C/C(=C/c1cccc(OCC(=O)NCCCCCCNC(=O)c2ccc(-c3c4nc(c(-c5c(F)cc(S(=O)(=O)[O-])cc5F)c5ccc([nH]5)c(-c5c(F)cc(S(=O)(=O)[O-])cc5F)c5nc(c(-c6c(F)cc(S(=O)(=O)[O-])cc6F)c6ccc3[nH]6)C=C5)C=C4)cc2)c1)c1nc2sccc2c(=O)[nH]1
REMARK SMILES IDX 16 1 15 2 14 3 13 4 11 5 12 6 10 8 9 9 8 10 4 11 5 12 89 13
REMARK SMILES IDX 6 14 7 15 3 16 1 17 2 18 90 19 91 20 99 21 92 22 97 23 93 25
REMARK SMILES IDX 96 26 98 27 94 28 95 29 17 30 18 31 19 32 20 33 21 34 22 36
REMARK SMILES IDX 23 37 24 38 88 39 25 40 87 41 26 42 27 43 28 44 81 45 29 46
REMARK SMILES IDX 86 47 80 48 82 49 30 50 85 51 79 52 78 53 31 55 65 56 44 57
REMARK SMILES IDX 64 58 45 59 48 60 63 61 83 62 46 63 47 64 62 66 84 67 49 68
REMARK SMILES IDX 32 69 33 70 42 71 34 72 35 73 41 74 43 75 36 76 37 77 38 78
REMARK SMILES IDX 39 79 40 80 66 81 67 82 76 83 68 84 69 85 75 86 77 87 70 88
REMARK SMILES IDX 71 89 72 90 73 91 74 92 50 93 51 94 60 95 52 96 53 97 59 98
REMARK SMILES IDX 61 99 54 100 55 101 56 102 57 103 58 104
REMARK H PARENT 13 7 99 24 20 35 82 54 48 65
REMARK Flexibility Score: inf
ROOT
ATOM      1  C   UNL A   1      36.169  22.544  23.933  1.00  0.00     0.002 C 
ENDROOT
BRANCH   1   2
ATOM      2  C   UNL A   1      35.954  21.174  24.582  1.00  0.00     0.021 C 
BRANCH   2   3
ATOM      3  C   UNL A   1      34.986  21.131  25.764  1.00  0.00     0.116 C 
BRANCH   3   4
ATOM      4  N   UNL A   1      34.098  19.985  25.754  1.00  0.00    -0.353 N 
ATOM      5  C   UNL A   1      32.763  19.956  25.467  1.00  0.00     0.257 C 
ATOM      6  O   UNL A   1      32.211  18.871  25.279  1.00  0.00    -0.271 OA
ATOM      7  H   UNL A   1      34.508  19.120  25.985  1.00  0.00     0.163 HD
BRANCH   5   8
ATOM      8  C   UNL A   1      31.980  21.261  25.326  1.00  0.00     0.329 C 
BRANCH   8   9
ATOM      9  O   UNL A   1      31.841  21.780  24.015  1.00  0.00    -0.484 OA
BRANCH   9  10
ATOM     10  C   UNL A   1      32.462  22.956  23.703  1.00  0.00     0.120 A 
ATOM     11  C   UNL A   1      33.505  25.111  24.115  1.00  0.00    -0.022 A 
ATOM     12  C   UNL A   1      33.733  25.260  22.743  1.00  0.00     0.008 A 
ATOM     13  C   UNL A   1      32.857  23.958  24.592  1.00  0.00     0.054 A 
ATOM     14  C   UNL A   1      33.340  24.262  21.855  1.00  0.00     0.004 A 
ATOM     15  C   UNL A   1      32.710  23.116  22.337  1.00  0.00     0.046 A 
BRANCH  11  16
ATOM     16  C   UNL A   1      33.919  26.194  25.020  1.00  0.00     0.015 C 
ATOM     17  C   UNL A   1      33.791  28.420  26.155  1.00  0.00     0.048 C 
ATOM     18  C   UNL A   1      33.256  27.339  25.267  1.00  0.00    -0.008 C 
BRANCH  18  19
ATOM     19  C   UNL A   1      31.938  27.641  24.644  1.00  0.00     0.137 A 
ATOM     20  N   UNL A   1      31.751  28.708  23.928  1.00  0.00    -0.219 NA
ATOM     21  N   UNL A   1      30.956  26.720  24.936  1.00  0.00    -0.306 N 
ATOM     22  C   UNL A   1      30.503  28.815  23.397  1.00  0.00     0.131 A 
ATOM     23  C   UNL A   1      29.662  26.821  24.479  1.00  0.00     0.259 A 
ATOM     24  H   UNL A   1      31.192  25.949  25.501  1.00  0.00     0.171 HD
ATOM     25  S   UNL A   1      30.077  30.080  22.332  1.00  0.00    -0.124 S 
ATOM     26  C   UNL A   1      29.446  27.957  23.608  1.00  0.00     0.077 A 
ATOM     27  O   UNL A   1      28.792  26.021  24.791  1.00  0.00    -0.269 OA
ATOM     28  C   UNL A   1      28.497  29.452  22.114  1.00  0.00     0.068 A 
ATOM     29  C   UNL A   1      28.276  28.334  22.887  1.00  0.00     0.028 A 
ENDBRANCH  18  19
ENDBRANCH  11  16
ENDBRANCH   9  10
ENDBRANCH   8   9
ENDBRANCH   5   8
ENDBRANCH   3   4
ENDBRANCH   2   3
ENDBRANCH   1   2
BRANCH   1  30
ATOM     30  C   UNL A   1      36.797  23.633  24.806  1.00  0.00     0.002 C 
BRANCH  30  31
ATOM     31  C   UNL A   1      37.824  23.149  25.830  1.00  0.00     0.021 C 
BRANCH  31  32
ATOM     32  C   UNL A   1      38.697  24.240  26.440  1.00  0.00     0.116 C 
BRANCH  32  33
ATOM     33  N   UNL A   1      40.120  24.024  26.224  1.00  0.00    -0.352 N 
ATOM     34  C   UNL A   1      41.185  24.742  26.716  1.00  0.00     0.251 C 
ATOM     35  H   UNL A   1      40.352  23.261  25.646  1.00  0.00     0.163 HD
ATOM     36  O   UNL A   1      42.326  24.493  26.338  1.00  0.00    -0.269 OA
BRANCH  34  37
ATOM     37  C   UNL A   1      40.944  25.842  27.678  1.00  0.00     0.039 A 
ATOM     38  C   UNL A   1      39.904  25.719  28.603  1.00  0.00     0.014 A 
ATOM     39  C   UNL A   1      41.759  26.978  27.685  1.00  0.00     0.014 A 
ATOM     40  C   UNL A   1      39.732  26.697  29.586  1.00  0.00     0.010 A 
ATOM     41  C   UNL A   1      41.631  27.915  28.707  1.00  0.00     0.010 A 
ATOM     42  C   UNL A   1      40.620  27.782  29.671  1.00  0.00    -0.014 A 
BRANCH  42  43
ATOM     43  C   UNL A   1      40.517  28.783  30.765  1.00  0.00     0.031 A 
ATOM     44  C   UNL A   1      41.390  28.664  31.984  1.00  0.00     0.074 A 
ATOM     45  C   UNL A   1      39.583  29.754  30.694  1.00  0.00     0.049 A 
ATOM     46  N   UNL A   1      41.390  29.386  33.074  1.00  0.00    -0.248 NA
ATOM     47  C   UNL A   1      42.373  27.569  31.990  1.00  0.00     0.031 C 
ATOM     48  C   UNL A   1      38.636  29.939  29.592  1.00  0.00     0.029 A 
ATOM     49  N   UNL A   1      39.267  30.758  31.575  1.00  0.00    -0.354 N 
ATOM     50  C   UNL A   1      42.353  28.824  33.902  1.00  0.00     0.074 A 
ATOM     51  C   UNL A   1      42.885  27.670  33.208  1.00  0.00     0.031 C 
ATOM     52  C   UNL A   1      37.860  31.005  29.853  1.00  0.00     0.029 A 
ATOM     53  C   UNL A   1      38.231  31.558  31.151  1.00  0.00     0.049 A 
ATOM     54  H   UNL A   1      39.737  30.893  32.429  1.00  0.00     0.167 HD
ATOM     55  C   UNL A   1      42.775  29.243  35.120  1.00  0.00     0.037 A 
ATOM     56  C   UNL A   1      37.643  32.616  31.745  1.00  0.00     0.037 A 
ATOM     57  C   UNL A   1      42.269  30.412  35.790  1.00  0.00     0.049 A 
ATOM     58  C   UNL A   1      38.147  33.080  33.084  1.00  0.00     0.074 A 
ATOM     59  C   UNL A   1      42.675  30.957  36.996  1.00  0.00     0.029 A 
ATOM     60  N   UNL A   1      41.249  31.220  35.310  1.00  0.00    -0.354 N 
ATOM     61  N   UNL A   1      39.103  32.572  33.825  1.00  0.00    -0.248 NA
ATOM     62  C   UNL A   1      37.500  34.265  33.665  1.00  0.00     0.031 C 
ATOM     63  C   UNL A   1      41.879  32.077  37.260  1.00  0.00     0.029 A 
ATOM     64  C   UNL A   1      41.003  32.252  36.201  1.00  0.00     0.049 A 
ATOM     65  H   UNL A   1      40.769  31.081  34.462  1.00  0.00     0.167 HD
ATOM     66  C   UNL A   1      39.189  33.389  34.947  1.00  0.00     0.074 A 
ATOM     67  C   UNL A   1      38.196  34.430  34.781  1.00  0.00     0.031 C 
ATOM     68  C   UNL A   1      40.016  33.286  36.016  1.00  0.00     0.037 A 
BRANCH  55  69
ATOM     69  C   UNL A   1      43.846  28.435  35.799  1.00  0.00     0.058 A 
ATOM     70  C   UNL A   1      45.209  28.673  35.560  1.00  0.00     0.135 A 
ATOM     71  C   UNL A   1      43.509  27.427  36.716  1.00  0.00     0.135 A 
ATOM     72  F   UNL A   1      45.586  29.616  34.681  1.00  0.00    -0.206 F 
ATOM     73  C   UNL A   1      46.200  27.920  36.180  1.00  0.00     0.059 A 
ATOM     74  C   UNL A   1      44.485  26.677  37.369  1.00  0.00     0.059 A 
ATOM     75  F   UNL A   1      42.221  27.157  36.982  1.00  0.00    -0.206 F 
ATOM     76  C   UNL A   1      45.827  26.920  37.081  1.00  0.00     0.060 A 
BRANCH  76  77
ATOM     77  S   UNL A   1      47.123  25.947  37.874  1.00  0.00     0.124 S 
ATOM     78  O   UNL A   1      48.091  26.984  38.224  1.00  0.00    -0.237 OA
ATOM     79  O   UNL A   1      46.417  25.337  38.996  1.00  0.00    -0.237 OA
ATOM     80  O   UNL A   1      47.545  25.024  36.826  1.00  0.00    -0.744 OA
ENDBRANCH  76  77
ENDBRANCH  55  69
BRANCH  56  81
ATOM     81  C   UNL A   1      36.532  33.329  31.060  1.00  0.00     0.058 A 
ATOM     82  C   UNL A   1      36.776  34.120  29.928  1.00  0.00     0.135 A 
ATOM     83  C   UNL A   1      35.208  33.224  31.513  1.00  0.00     0.135 A 
ATOM     84  F   UNL A   1      38.027  34.255  29.462  1.00  0.00    -0.206 F 
ATOM     85  C   UNL A   1      35.750  34.794  29.275  1.00  0.00     0.059 A 
ATOM     86  C   UNL A   1      34.161  33.871  30.863  1.00  0.00     0.059 A 
ATOM     87  F   UNL A   1      34.921  32.465  32.582  1.00  0.00    -0.206 F 
ATOM     88  C   UNL A   1      34.444  34.663  29.750  1.00  0.00     0.060 A 
BRANCH  88  89
ATOM     89  S   UNL A   1      33.110  35.500  28.866  1.00  0.00     0.124 S 
ATOM     90  O   UNL A   1      32.323  36.041  29.967  1.00  0.00    -0.237 OA
ATOM     91  O   UNL A   1      33.839  36.476  28.061  1.00  0.00    -0.237 OA
ATOM     92  O   UNL A   1      32.482  34.421  28.110  1.00  0.00    -0.744 OA
ENDBRANCH  88  89
ENDBRANCH  56  81
BRANCH  68  93
ATOM     93  C   UNL A   1      39.906  34.344  37.077  1.00  0.00     0.058 A 
ATOM     94  C   UNL A   1      40.568  35.576  36.960  1.00  0.00     0.135 A 
ATOM     95  C   UNL A   1      39.087  34.141  38.199  1.00  0.00     0.135 A 
ATOM     96  F   UNL A   1      41.367  35.816  35.909  1.00  0.00    -0.206 F 
ATOM     97  C   UNL A   1      40.437  36.564  37.930  1.00  0.00     0.059 A 
ATOM     98  C   UNL A   1      38.923  35.124  39.170  1.00  0.00     0.059 A 
ATOM     99  F   UNL A   1      38.425  32.983  38.353  1.00  0.00    -0.206 F 
ATOM    100  C   UNL A   1      39.612  36.329  39.032  1.00  0.00     0.060 A 
BRANCH 100 101
ATOM    101  S   UNL A   1      39.421  37.632  40.267  1.00  0.00     0.124 S 
ATOM    102  O   UNL A   1      38.453  38.510  39.619  1.00  0.00    -0.237 OA
ATOM    103  O   UNL A   1      38.932  36.896  41.429  1.00  0.00    -0.237 OA
ATOM    104  O   UNL A   1      40.771  38.173  40.399  1.00  0.00    -0.744 OA
ENDBRANCH 100 101
ENDBRANCH  68  93
ENDBRANCH  42  43
ENDBRANCH  34  37
ENDBRANCH  32  33
ENDBRANCH  31  32
ENDBRANCH  30  31
ENDBRANCH   1  30
TORSDOF 20
ENDMDL
MODEL 2
REMARK VINA RESULT:     -11.6      4.733     10.465
REMARK SMILES C/C(=C/c1cccc(OCC(=O)NCCCCCCNC(=O)c2ccc(-c3c4nc(c(-c5c(F)cc(S(=O)(=O)[O-])cc5F)c5ccc([nH]5)c(-c5c(F)cc(S(=O)(=O)[O-])cc5F)c5nc(c(-c6c(F)cc(S(=O)(=O)[O-])cc6F)c6ccc3[nH]6)C=C5)C=C4)cc2)c1)c1nc2sccc2c(=O)[nH]1
REMARK SMILES IDX 16 1 15 2 14 3 13 4 11 5 12 6 10 8 9 9 8 10 4 11 5 12 89 13
REMARK SMILES IDX 6 14 7 15 3 16 1 17 2 18 90 19 91 20 99 21 92 22 97 23 93 25
REMARK SMILES IDX 96 26 98 27 94 28 95 29 17 30 18 31 19 32 20 33 21 34 22 36
REMARK SMILES IDX 23 37 24 38 88 39 25 40 87 41 26 42 27 43 28 44 81 45 29 46
REMARK SMILES IDX 86 47 80 48 82 49 30 50 85 51 79 52 78 53 31 55 65 56 44 57
REMARK SMILES IDX 64 58 45 59 48 60 63 61 83 62 46 63 47 64 62 66 84 67 49 68
REMARK SMILES IDX 32 69 33 70 42 71 34 72 35 73 41 74 43 75 36 76 37 77 38 78
REMARK SMILES IDX 39 79 40 80 66 81 67 82 76 83 68 84 69 85 75 86 77 87 70 88
REMARK SMILES IDX 71 89 72 90 73 91 74 92 50 93 51 94 60 95 52 96 53 97 59 98
REMARK SMILES IDX 61 99 54 100 55 101 56 102 57 103 58 104
REMARK H PARENT 13 7 99 24 20 35 82 54 48 65
REMARK Flexibility Score: inf
ROOT
ATOM      1  C   UNL A   1      33.862  27.911  23.410  1.00  0.00     0.002 C 
ENDROOT
BRANCH   1   2
ATOM      2  C   UNL A   1      32.455  28.302  22.949  1.00  0.00     0.021 C 
BRANCH   2   3
ATOM      3  C   UNL A   1      31.613  27.186  22.331  1.00  0.00     0.116 C 
BRANCH   3   4
ATOM      4  N   UNL A   1      30.184  27.429  22.386  1.00  0.00    -0.353 N 
ATOM      5  C   UNL A   1      29.335  27.230  23.437  1.00  0.00     0.257 C 
ATOM      6  O   UNL A   1      28.199  27.704  23.391  1.00  0.00    -0.271 OA
ATOM      7  H   UNL A   1      29.775  27.782  21.563  1.00  0.00     0.163 HD
BRANCH   5   8
ATOM      8  C   UNL A   1      29.813  26.473  24.677  1.00  0.00     0.329 C 
BRANCH   8   9
ATOM      9  O   UNL A   1      30.195  25.122  24.488  1.00  0.00    -0.484 OA
BRANCH   9  10
ATOM     10  C   UNL A   1      31.241  24.627  25.214  1.00  0.00     0.120 A 
ATOM     11  C   UNL A   1      33.565  24.248  25.815  1.00  0.00    -0.022 A 
ATOM     12  C   UNL A   1      33.154  23.480  26.909  1.00  0.00     0.008 A 
ATOM     13  C   UNL A   1      32.603  24.814  24.960  1.00  0.00     0.054 A 
ATOM     14  C   UNL A   1      31.797  23.294  27.164  1.00  0.00     0.004 A 
ATOM     15  C   UNL A   1      30.849  23.868  26.319  1.00  0.00     0.046 A 
BRANCH  11  16
ATOM     16  C   UNL A   1      35.006  24.410  25.569  1.00  0.00     0.015 C 
ATOM     17  C   UNL A   1      37.349  23.691  25.065  1.00  0.00     0.048 C 
ATOM     18  C   UNL A   1      35.880  23.445  25.228  1.00  0.00    -0.008 C 
BRANCH  18  19
ATOM     19  C   UNL A   1      35.459  22.033  25.017  1.00  0.00     0.137 A 
ATOM     20  N   UNL A   1      34.213  21.711  24.846  1.00  0.00    -0.219 NA
ATOM     21  N   UNL A   1      36.496  21.126  25.063  1.00  0.00    -0.306 N 
ATOM     22  C   UNL A   1      34.002  20.386  24.624  1.00  0.00     0.131 A 
ATOM     23  C   UNL A   1      36.323  19.769  24.912  1.00  0.00     0.259 A 
ATOM     24  H   UNL A   1      37.408  21.467  25.211  1.00  0.00     0.171 HD
ATOM     25  S   UNL A   1      32.453  19.763  24.263  1.00  0.00    -0.124 S 
ATOM     26  C   UNL A   1      34.954  19.390  24.637  1.00  0.00     0.077 A 
ATOM     27  O   UNL A   1      37.249  18.976  25.008  1.00  0.00    -0.269 OA
ATOM     28  C   UNL A   1      33.064  18.173  24.075  1.00  0.00     0.068 A 
ATOM     29  C   UNL A   1      34.413  18.105  24.342  1.00  0.00     0.028 A 
ENDBRANCH  18  19
ENDBRANCH  11  16
ENDBRANCH   9  10
ENDBRANCH   8   9
ENDBRANCH   5   8
ENDBRANCH   3   4
ENDBRANCH   2   3
ENDBRANCH   1   2
BRANCH   1  30
ATOM     30  C   UNL A   1      34.227  28.227  24.862  1.00  0.00     0.002 C 
BRANCH  30  31
ATOM     31  C   UNL A   1      33.071  28.178  25.860  1.00  0.00     0.021 C 
BRANCH  31  32
ATOM     32  C   UNL A   1      33.450  28.468  27.309  1.00  0.00     0.116 C 
BRANCH  32  33
ATOM     33  N   UNL A   1      33.378  29.881  27.650  1.00  0.00    -0.352 N 
ATOM     34  C   UNL A   1      34.352  30.687  28.190  1.00  0.00     0.251 C 
ATOM     35  H   UNL A   1      32.514  30.319  27.469  1.00  0.00     0.163 HD
ATOM     36  O   UNL A   1      34.086  31.838  28.526  1.00  0.00    -0.269 OA
BRANCH  34  37
ATOM     37  C   UNL A   1      35.716  30.149  28.398  1.00  0.00     0.039 A 
ATOM     38  C   UNL A   1      36.626  30.178  27.339  1.00  0.00     0.014 A 
ATOM     39  C   UNL A   1      36.103  29.643  29.643  1.00  0.00     0.014 A 
ATOM     40  C   UNL A   1      37.947  29.775  27.549  1.00  0.00     0.010 A 
ATOM     41  C   UNL A   1      37.436  29.308  29.869  1.00  0.00     0.010 A 
ATOM     42  C   UNL A   1      38.373  29.375  28.827  1.00  0.00    -0.014 A 
BRANCH  42  43
ATOM     43  C   UNL A   1      39.794  29.034  29.098  1.00  0.00     0.031 A 
ATOM     44  C   UNL A   1      40.723  30.068  29.673  1.00  0.00     0.074 A 
ATOM     45  C   UNL A   1      40.265  27.818  28.755  1.00  0.00     0.049 A 
ATOM     46  N   UNL A   1      42.008  29.987  29.901  1.00  0.00    -0.248 NA
ATOM     47  C   UNL A   1      40.135  31.375  30.006  1.00  0.00     0.031 C 
ATOM     48  C   UNL A   1      39.478  26.749  28.135  1.00  0.00     0.029 A 
ATOM     49  N   UNL A   1      41.523  27.281  28.865  1.00  0.00    -0.354 N 
ATOM     50  C   UNL A   1      42.387  31.234  30.384  1.00  0.00     0.074 A 
ATOM     51  C   UNL A   1      41.204  32.068  30.371  1.00  0.00     0.031 C 
ATOM     52  C   UNL A   1      40.265  25.678  27.941  1.00  0.00     0.029 A 
ATOM     53  C   UNL A   1      41.618  25.993  28.389  1.00  0.00     0.049 A 
ATOM     54  H   UNL A   1      42.286  27.770  29.249  1.00  0.00     0.167 HD
ATOM     55  C   UNL A   1      43.603  31.641  30.822  1.00  0.00     0.037 A 
ATOM     56  C   UNL A   1      42.676  25.162  28.318  1.00  0.00     0.037 A 
ATOM     57  C   UNL A   1      44.768  30.797  30.868  1.00  0.00     0.049 A 
ATOM     58  C   UNL A   1      44.010  25.627  28.837  1.00  0.00     0.074 A 
ATOM     59  C   UNL A   1      46.029  31.095  31.354  1.00  0.00     0.029 A 
ATOM     60  N   UNL A   1      44.813  29.486  30.416  1.00  0.00    -0.354 N 
ATOM     61  N   UNL A   1      44.334  26.790  29.349  1.00  0.00    -0.248 NA
ATOM     62  C   UNL A   1      45.119  24.664  28.777  1.00  0.00     0.031 C 
ATOM     63  C   UNL A   1      46.846  29.974  31.166  1.00  0.00     0.029 A 
ATOM     64  C   UNL A   1      46.084  28.966  30.599  1.00  0.00     0.049 A 
ATOM     65  H   UNL A   1      44.055  28.998  30.022  1.00  0.00     0.167 HD
ATOM     66  C   UNL A   1      45.678  26.691  29.694  1.00  0.00     0.074 A 
ATOM     67  C   UNL A   1      46.102  25.352  29.344  1.00  0.00     0.031 C 
ATOM     68  C   UNL A   1      46.486  27.626  30.253  1.00  0.00     0.037 A 
BRANCH  55  69
ATOM     69  C   UNL A   1      43.729  33.062  31.298  1.00  0.00     0.058 A 
ATOM     70  C   UNL A   1      44.002  34.114  30.407  1.00  0.00     0.135 A 
ATOM     71  C   UNL A   1      43.552  33.382  32.653  1.00  0.00     0.135 A 
ATOM     72  F   UNL A   1      44.195  33.862  29.103  1.00  0.00    -0.206 F 
ATOM     73  C   UNL A   1      44.129  35.426  30.848  1.00  0.00     0.059 A 
ATOM     74  C   UNL A   1      43.648  34.693  33.113  1.00  0.00     0.059 A 
ATOM     75  F   UNL A   1      43.288  32.416  33.547  1.00  0.00    -0.206 F 
ATOM     76  C   UNL A   1      43.954  35.706  32.205  1.00  0.00     0.060 A 
BRANCH  76  77
ATOM     77  S   UNL A   1      44.125  37.413  32.763  1.00  0.00     0.124 S 
ATOM     78  O   UNL A   1      44.049  38.141  31.499  1.00  0.00    -0.237 OA
ATOM     79  O   UNL A   1      42.979  37.570  33.653  1.00  0.00    -0.237 OA
ATOM     80  O   UNL A   1      45.430  37.427  33.417  1.00  0.00    -0.744 OA
ENDBRANCH  76  77
ENDBRANCH  55  69
BRANCH  56  81
ATOM     81  C   UNL A   1      42.510  23.792  27.764  1.00  0.00     0.058 A 
ATOM     82  C   UNL A   1      42.408  22.681  28.613  1.00  0.00     0.135 A 
ATOM     83  C   UNL A   1      42.434  23.569  26.380  1.00  0.00     0.135 A 
ATOM     84  F   UNL A   1      42.480  22.845  29.942  1.00  0.00    -0.206 F 
ATOM     85  C   UNL A   1      42.251  21.393  28.112  1.00  0.00     0.059 A 
ATOM     86  C   UNL A   1      42.256  22.292  25.856  1.00  0.00     0.059 A 
ATOM     87  F   UNL A   1      42.509  24.602  25.527  1.00  0.00    -0.206 F 
ATOM     88  C   UNL A   1      42.175  21.209  26.731  1.00  0.00     0.060 A 
BRANCH  88  89
ATOM     89  S   UNL A   1      41.921  19.539  26.090  1.00  0.00     0.124 S 
ATOM     90  O   UNL A   1      40.497  19.561  25.775  1.00  0.00    -0.237 OA
ATOM     91  O   UNL A   1      42.829  19.506  24.948  1.00  0.00    -0.237 OA
ATOM     92  O   UNL A   1      42.307  18.689  27.212  1.00  0.00    -0.744 OA
ENDBRANCH  88  89
ENDBRANCH  56  81
BRANCH  68  93
ATOM     93  C   UNL A   1      47.903  27.224  30.549  1.00  0.00     0.058 A 
ATOM     94  C   UNL A   1      48.922  27.361  29.594  1.00  0.00     0.135 A 
ATOM     95  C   UNL A   1      48.254  26.744  31.821  1.00  0.00     0.135 A 
ATOM     96  F   UNL A   1      48.637  27.809  28.362  1.00  0.00    -0.206 F 
ATOM     97  C   UNL A   1      50.238  27.018  29.884  1.00  0.00     0.059 A 
ATOM     98  C   UNL A   1      49.568  26.416  32.140  1.00  0.00     0.059 A 
ATOM     99  F   UNL A   1      47.317  26.604  32.773  1.00  0.00    -0.206 F 
ATOM    100  C   UNL A   1      50.551  26.546  31.160  1.00  0.00     0.060 A 
BRANCH 100 101
ATOM    101  S   UNL A   1      52.269  26.137  31.537  1.00  0.00     0.124 S 
ATOM    102  O   UNL A   1      52.149  24.751  31.979  1.00  0.00    -0.237 OA
ATOM    103  O   UNL A   1      52.930  26.337  30.251  1.00  0.00    -0.237 OA
ATOM    104  O   UNL A   1      52.627  27.099  32.575  1.00  0.00    -0.744 OA
ENDBRANCH 100 101
ENDBRANCH  68  93
ENDBRANCH  42  43
ENDBRANCH  34  37
ENDBRANCH  32  33
ENDBRANCH  31  32
ENDBRANCH  30  31
ENDBRANCH   1  30
TORSDOF 20
ENDMDL
MODEL 3
REMARK VINA RESULT:     -11.6      6.441     12.117
REMARK SMILES C/C(=C/c1cccc(OCC(=O)NCCCCCCNC(=O)c2ccc(-c3c4nc(c(-c5c(F)cc(S(=O)(=O)[O-])cc5F)c5ccc([nH]5)c(-c5c(F)cc(S(=O)(=O)[O-])cc5F)c5nc(c(-c6c(F)cc(S(=O)(=O)[O-])cc6F)c6ccc3[nH]6)C=C5)C=C4)cc2)c1)c1nc2sccc2c(=O)[nH]1
REMARK SMILES IDX 16 1 15 2 14 3 13 4 11 5 12 6 10 8 9 9 8 10 4 11 5 12 89 13
REMARK SMILES IDX 6 14 7 15 3 16 1 17 2 18 90 19 91 20 99 21 92 22 97 23 93 25
REMARK SMILES IDX 96 26 98 27 94 28 95 29 17 30 18 31 19 32 20 33 21 34 22 36
REMARK SMILES IDX 23 37 24 38 88 39 25 40 87 41 26 42 27 43 28 44 81 45 29 46
REMARK SMILES IDX 86 47 80 48 82 49 30 50 85 51 79 52 78 53 31 55 65 56 44 57
REMARK SMILES IDX 64 58 45 59 48 60 63 61 83 62 46 63 47 64 62 66 84 67 49 68
REMARK SMILES IDX 32 69 33 70 42 71 34 72 35 73 41 74 43 75 36 76 37 77 38 78
REMARK SMILES IDX 39 79 40 80 66 81 67 82 76 83 68 84 69 85 75 86 77 87 70 88
REMARK SMILES IDX 71 89 72 90 73 91 74 92 50 93 51 94 60 95 52 96 53 97 59 98
REMARK SMILES IDX 61 99 54 100 55 101 56 102 57 103 58 104
REMARK H PARENT 13 7 99 24 20 35 82 54 48 65
REMARK Flexibility Score: inf
ROOT
ATOM      1  C   UNL A   1      33.976  27.682  25.456  1.00  0.00     0.002 C 
ENDROOT
BRANCH   1   2
ATOM      2  C   UNL A   1      33.813  28.481  24.160  1.00  0.00     0.021 C 
BRANCH   2   3
ATOM      3  C   UNL A   1      33.560  27.666  22.892  1.00  0.00     0.116 C 
BRANCH   3   4
ATOM      4  N   UNL A   1      32.338  28.023  22.198  1.00  0.00    -0.353 N 
ATOM      5  C   UNL A   1      31.056  27.675  22.516  1.00  0.00     0.257 C 
ATOM      6  O   UNL A   1      30.120  28.251  21.960  1.00  0.00    -0.271 OA
ATOM      7  H   UNL A   1      32.445  28.586  21.398  1.00  0.00     0.163 HD
BRANCH   5   8
ATOM      8  C   UNL A   1      30.791  26.621  23.592  1.00  0.00     0.329 C 
BRANCH   8   9
ATOM      9  O   UNL A   1      31.007  25.270  23.223  1.00  0.00    -0.484 OA
BRANCH   9  10
ATOM     10  C   UNL A   1      31.279  24.357  24.202  1.00  0.00     0.120 A 
ATOM     11  C   UNL A   1      31.730  22.167  25.153  1.00  0.00    -0.022 A 
ATOM     12  C   UNL A   1      31.848  22.745  26.422  1.00  0.00     0.008 A 
ATOM     13  C   UNL A   1      31.434  22.977  24.043  1.00  0.00     0.054 A 
ATOM     14  C   UNL A   1      31.694  24.120  26.581  1.00  0.00     0.004 A 
ATOM     15  C   UNL A   1      31.413  24.918  25.474  1.00  0.00     0.046 A 
BRANCH  11  16
ATOM     16  C   UNL A   1      31.884  20.710  25.026  1.00  0.00     0.015 C 
ATOM     17  C   UNL A   1      33.100  18.538  24.780  1.00  0.00     0.048 C 
ATOM     18  C   UNL A   1      33.039  20.021  24.981  1.00  0.00    -0.008 C 
BRANCH  18  19
ATOM     19  C   UNL A   1      34.365  20.688  25.095  1.00  0.00     0.137 A 
ATOM     20  N   UNL A   1      34.472  21.973  25.240  1.00  0.00    -0.219 NA
ATOM     21  N   UNL A   1      35.436  19.827  24.989  1.00  0.00    -0.306 N 
ATOM     22  C   UNL A   1      35.749  22.419  25.371  1.00  0.00     0.131 A 
ATOM     23  C   UNL A   1      36.748  20.240  25.046  1.00  0.00     0.259 A 
ATOM     24  H   UNL A   1      35.254  18.867  24.866  1.00  0.00     0.171 HD
ATOM     25  S   UNL A   1      36.110  24.059  25.685  1.00  0.00    -0.124 S 
ATOM     26  C   UNL A   1      36.896  21.658  25.292  1.00  0.00     0.077 A 
ATOM     27  O   UNL A   1      37.684  19.468  24.899  1.00  0.00    -0.269 OA
ATOM     28  C   UNL A   1      37.793  23.741  25.766  1.00  0.00     0.068 A 
ATOM     29  C   UNL A   1      38.081  22.422  25.497  1.00  0.00     0.028 A 
ENDBRANCH  18  19
ENDBRANCH  11  16
ENDBRANCH   9  10
ENDBRANCH   8   9
ENDBRANCH   5   8
ENDBRANCH   3   4
ENDBRANCH   2   3
ENDBRANCH   1   2
BRANCH   1  30
ATOM     30  C   UNL A   1      33.568  28.380  26.756  1.00  0.00     0.002 C 
BRANCH  30  31
ATOM     31  C   UNL A   1      34.273  29.706  27.043  1.00  0.00     0.021 C 
BRANCH  31  32
ATOM     32  C   UNL A   1      35.577  29.592  27.827  1.00  0.00     0.116 C 
BRANCH  32  33
ATOM     33  N   UNL A   1      35.425  29.901  29.241  1.00  0.00    -0.352 N 
ATOM     34  C   UNL A   1      36.390  29.949  30.220  1.00  0.00     0.251 C 
ATOM     35  H   UNL A   1      34.507  30.103  29.537  1.00  0.00     0.163 HD
ATOM     36  O   UNL A   1      36.071  30.113  31.394  1.00  0.00    -0.269 OA
BRANCH  34  37
ATOM     37  C   UNL A   1      37.813  29.765  29.855  1.00  0.00     0.039 A 
ATOM     38  C   UNL A   1      38.734  29.446  30.856  1.00  0.00     0.014 A 
ATOM     39  C   UNL A   1      38.231  29.877  28.526  1.00  0.00     0.014 A 
ATOM     40  C   UNL A   1      40.059  29.162  30.514  1.00  0.00     0.010 A 
ATOM     41  C   UNL A   1      39.533  29.526  28.179  1.00  0.00     0.010 A 
ATOM     42  C   UNL A   1      40.459  29.160  29.167  1.00  0.00    -0.014 A 
BRANCH  42  43
ATOM     43  C   UNL A   1      41.837  28.768  28.770  1.00  0.00     0.031 A 
ATOM     44  C   UNL A   1      42.930  29.800  28.713  1.00  0.00     0.074 A 
ATOM     45  C   UNL A   1      42.084  27.499  28.387  1.00  0.00     0.049 A 
ATOM     46  N   UNL A   1      44.168  29.670  28.312  1.00  0.00    -0.248 NA
ATOM     47  C   UNL A   1      42.575  31.165  29.133  1.00  0.00     0.031 C 
ATOM     48  C   UNL A   1      41.095  26.419  28.341  1.00  0.00     0.029 A 
ATOM     49  N   UNL A   1      43.241  26.905  27.948  1.00  0.00    -0.354 N 
ATOM     50  C   UNL A   1      44.733  30.936  28.412  1.00  0.00     0.074 A 
ATOM     51  C   UNL A   1      43.689  31.830  28.865  1.00  0.00     0.031 C 
ATOM     52  C   UNL A   1      41.692  25.292  27.920  1.00  0.00     0.029 A 
ATOM     53  C   UNL A   1      43.095  25.574  27.634  1.00  0.00     0.049 A 
ATOM     54  H   UNL A   1      44.096  27.387  27.865  1.00  0.00     0.167 HD
ATOM     55  C   UNL A   1      46.012  31.315  28.171  1.00  0.00     0.037 A 
ATOM     56  C   UNL A   1      43.990  24.681  27.166  1.00  0.00     0.037 A 
ATOM     57  C   UNL A   1      47.056  30.415  27.756  1.00  0.00     0.049 A 
ATOM     58  C   UNL A   1      45.411  25.120  26.933  1.00  0.00     0.074 A 
ATOM     59  C   UNL A   1      48.396  30.689  27.548  1.00  0.00     0.029 A 
ATOM     60  N   UNL A   1      46.877  29.066  27.489  1.00  0.00    -0.354 N 
ATOM     61  N   UNL A   1      45.942  26.308  27.093  1.00  0.00    -0.248 NA
ATOM     62  C   UNL A   1      46.355  24.095  26.466  1.00  0.00     0.031 C 
ATOM     63  C   UNL A   1      49.023  29.511  27.125  1.00  0.00     0.029 A 
ATOM     64  C   UNL A   1      48.080  28.495  27.107  1.00  0.00     0.049 A 
ATOM     65  H   UNL A   1      46.021  28.584  27.561  1.00  0.00     0.167 HD
ATOM     66  C   UNL A   1      47.287  26.169  26.769  1.00  0.00     0.074 A 
ATOM     67  C   UNL A   1      47.490  24.779  26.416  1.00  0.00     0.031 C 
ATOM     68  C   UNL A   1      48.266  27.107  26.767  1.00  0.00     0.037 A 
BRANCH  55  69
ATOM     69  C   UNL A   1      46.352  32.767  28.364  1.00  0.00     0.058 A 
ATOM     70  C   UNL A   1      46.247  33.692  27.312  1.00  0.00     0.135 A 
ATOM     71  C   UNL A   1      46.765  33.246  29.618  1.00  0.00     0.135 A 
ATOM     72  F   UNL A   1      45.872  33.286  26.089  1.00  0.00    -0.206 F 
ATOM     73  C   UNL A   1      46.572  35.033  27.487  1.00  0.00     0.059 A 
ATOM     74  C   UNL A   1      47.069  34.589  29.823  1.00  0.00     0.059 A 
ATOM     75  F   UNL A   1      46.881  32.405  30.658  1.00  0.00    -0.206 F 
ATOM     76  C   UNL A   1      46.986  35.471  28.747  1.00  0.00     0.060 A 
BRANCH  76  77
ATOM     77  S   UNL A   1      47.408  37.213  28.958  1.00  0.00     0.124 S 
ATOM     78  O   UNL A   1      46.600  37.568  30.122  1.00  0.00    -0.237 OA
ATOM     79  O   UNL A   1      48.849  37.164  29.180  1.00  0.00    -0.237 OA
ATOM     80  O   UNL A   1      46.991  37.819  27.697  1.00  0.00    -0.744 OA
ENDBRANCH  76  77
ENDBRANCH  55  69
BRANCH  56  81
ATOM     81  C   UNL A   1      43.576  23.275  26.918  1.00  0.00     0.058 A 
ATOM     82  C   UNL A   1      43.373  22.387  27.984  1.00  0.00     0.135 A 
ATOM     83  C   UNL A   1      43.362  22.796  25.616  1.00  0.00     0.135 A 
ATOM     84  F   UNL A   1      43.571  22.798  29.245  1.00  0.00    -0.206 F 
ATOM     85  C   UNL A   1      42.986  21.068  27.771  1.00  0.00     0.059 A 
ATOM     86  C   UNL A   1      42.953  21.487  25.379  1.00  0.00     0.059 A 
ATOM     87  F   UNL A   1      43.526  23.612  24.563  1.00  0.00    -0.206 F 
ATOM     88  C   UNL A   1      42.777  20.627  26.463  1.00  0.00     0.060 A 
BRANCH  88  89
ATOM     89  S   UNL A   1      42.225  18.928  26.197  1.00  0.00     0.124 S 
ATOM     90  O   UNL A   1      40.862  19.135  25.722  1.00  0.00    -0.237 OA
ATOM     91  O   UNL A   1      43.181  18.445  25.206  1.00  0.00    -0.237 OA
ATOM     92  O   UNL A   1      42.348  18.326  27.521  1.00  0.00    -0.744 OA
ENDBRANCH  88  89
ENDBRANCH  56  81
BRANCH  68  93
ATOM     93  C   UNL A   1      49.652  26.657  26.400  1.00  0.00     0.058 A 
ATOM     94  C   UNL A   1      50.475  25.988  27.317  1.00  0.00     0.135 A 
ATOM     95  C   UNL A   1      50.139  26.853  25.098  1.00  0.00     0.135 A 
ATOM     96  F   UNL A   1      50.057  25.782  28.575  1.00  0.00    -0.206 F 
ATOM     97  C   UNL A   1      51.745  25.546  26.963  1.00  0.00     0.059 A 
ATOM     98  C   UNL A   1      51.397  26.398  24.714  1.00  0.00     0.059 A 
ATOM     99  F   UNL A   1      49.386  27.480  24.180  1.00  0.00    -0.206 F 
ATOM    100  C   UNL A   1      52.198  25.756  25.658  1.00  0.00     0.060 A 
BRANCH 100 101
ATOM    101  S   UNL A   1      53.834  25.145  25.198  1.00  0.00     0.124 S 
ATOM    102  O   UNL A   1      53.672  23.707  25.383  1.00  0.00    -0.237 OA
ATOM    103  O   UNL A   1      53.961  25.597  23.816  1.00  0.00    -0.237 OA
ATOM    104  O   UNL A   1      54.721  25.806  26.150  1.00  0.00    -0.744 OA
ENDBRANCH 100 101
ENDBRANCH  68  93
ENDBRANCH  42  43
ENDBRANCH  34  37
ENDBRANCH  32  33
ENDBRANCH  31  32
ENDBRANCH  30  31
ENDBRANCH   1  30
TORSDOF 20
ENDMDL
