MODEL 1
REMARK VINA RESULT:     -14.6      0.000      0.000
REMARK SMILES Cc1c(C(=O)NCCCCCCNC(=O)c2ccc(-c3c4nc(c(-c5c(F)cc(S(=O)(=O)[O-])cc5F)c5ccc([nH]5)c(-c5c(F)cc(S(=O)(=O)[O-])cc5F)c5nc(c(-c6c(F)cc(S(=O)(=O)[O-])cc6F)c6ccc3[nH]6)C=C5)C=C4)cc2)cccc1-n1c(C)cc(/C=C2/C(=O)NC(=S)N=C2O)c1C
REMARK SMILES IDX 9 1 8 2 7 3 6 4 4 5 5 6 3 8 1 9 2 10 85 11 82 12 84 13 83 14
REMARK SMILES IDX 86 15 87 16 101 17 88 18 89 19 90 20 102 21 91 22 92 23
REMARK SMILES IDX 93 24 99 25 94 26 95 27 98 28 96 29 97 31 100 32 10 34 11 35
REMARK SMILES IDX 12 36 13 37 14 38 15 40 16 41 17 42 81 43 18 44 80 45 19 46
REMARK SMILES IDX 20 47 21 48 74 49 22 50 79 51 73 52 75 53 23 54 78 55 72 56
REMARK SMILES IDX 71 57 24 59 58 60 37 61 57 62 38 63 41 64 56 65 76 66 39 67
REMARK SMILES IDX 40 68 55 70 77 71 42 72 25 73 26 74 35 75 27 76 28 77 34 78
REMARK SMILES IDX 36 79 29 80 30 81 31 82 32 83 33 84 59 85 60 86 69 87 61 88
REMARK SMILES IDX 62 89 68 90 70 91 63 92 64 93 65 94 66 95 67 96 43 97 44 98
REMARK SMILES IDX 53 99 45 100 46 101 52 102 54 103 47 104 48 105 49 106
REMARK SMILES IDX 50 107 51 108
REMARK H PARENT 6 7 95 30 100 33 13 39 75 58 41 69
REMARK Flexibility Score: inf
ROOT
ATOM      1  C   UNL A   1      31.215  28.764  25.416  1.00  0.00     0.002 C 
ENDROOT
BRANCH   1   2
ATOM      2  C   UNL A   1      30.735  29.644  24.256  1.00  0.00     0.021 C 
BRANCH   2   3
ATOM      3  C   UNL A   1      30.849  29.018  22.854  1.00  0.00     0.116 C 
BRANCH   3   4
ATOM      4  N   UNL A   1      32.229  29.039  22.399  1.00  0.00    -0.352 N 
ATOM      5  C   UNL A   1      33.359  28.299  22.600  1.00  0.00     0.251 C 
ATOM      6  O   UNL A   1      34.336  28.663  21.931  1.00  0.00    -0.269 OA
ATOM      7  H   UNL A   1      32.392  29.785  21.780  1.00  0.00     0.163 HD
BRANCH   5   8
ATOM      8  C   UNL A   1      33.537  27.091  23.475  1.00  0.00     0.044 A 
ATOM      9  C   UNL A   1      32.202  25.368  22.127  1.00  0.00     0.047 C 
ATOM     10  C   UNL A   1      33.016  25.789  23.311  1.00  0.00    -0.014 A 
ATOM     11  C   UNL A   1      33.236  24.851  24.357  1.00  0.00     0.049 A 
ATOM     12  C   UNL A   1      34.183  27.401  24.703  1.00  0.00     0.014 A 
ATOM     13  C   UNL A   1      33.871  25.184  25.559  1.00  0.00     0.027 A 
ATOM     14  C   UNL A   1      34.337  26.473  25.734  1.00  0.00     0.003 A 
BRANCH  11  15
ATOM     15  N   UNL A   1      32.700  23.542  24.284  1.00  0.00    -0.318 N 
ATOM     16  C   UNL A   1      31.515  23.133  24.863  1.00  0.00     0.020 A 
ATOM     17  C   UNL A   1      33.323  22.459  23.674  1.00  0.00     0.027 A 
ATOM     18  C   UNL A   1      30.678  24.006  25.730  1.00  0.00     0.065 C 
ATOM     19  C   UNL A   1      31.324  21.813  24.508  1.00  0.00     0.031 A 
ATOM     20  C   UNL A   1      32.448  21.386  23.749  1.00  0.00    -0.003 A 
ATOM     21  C   UNL A   1      34.715  22.577  23.140  1.00  0.00     0.065 C 
BRANCH  20  22
ATOM     22  C   UNL A   1      32.642  20.028  23.346  1.00  0.00     0.029 C 
ATOM     23  C   UNL A   1      32.809  18.890  24.045  1.00  0.00     0.102 C 
ATOM     24  C   UNL A   1      32.810  17.632  23.251  1.00  0.00     0.262 C 
ATOM     25  C   UNL A   1      32.917  18.668  25.485  1.00  0.00     0.226 C 
ATOM     26  O   UNL A   1      33.023  17.586  22.045  1.00  0.00    -0.269 OA
ATOM     27  N   UNL A   1      32.551  16.510  23.994  1.00  0.00    -0.297 N 
ATOM     28  N   UNL A   1      32.761  17.557  26.106  1.00  0.00    -0.184 NA
ATOM     29  C   UNL A   1      32.476  16.439  25.364  1.00  0.00     0.203 C 
ATOM     30  H   UNL A   1      32.402  15.673  23.497  1.00  0.00     0.172 HD
ATOM     31  S   UNL A   1      32.124  14.958  26.062  1.00  0.00    -0.038 S 
BRANCH  25  32
ATOM     32  O   UNL A   1      33.292  19.712  26.227  1.00  0.00    -0.493 OA
ATOM     33  H   UNL A   1      34.022  20.237  25.962  1.00  0.00     0.295 HD
ENDBRANCH  25  32
ENDBRANCH  20  22
ENDBRANCH  11  15
ENDBRANCH   5   8
ENDBRANCH   3   4
ENDBRANCH   2   3
ENDBRANCH   1   2
BRANCH   1  34
ATOM     34  C   UNL A   1      31.970  29.479  26.545  1.00  0.00     0.002 C 
BRANCH  34  35
ATOM     35  C   UNL A   1      33.322  30.079  26.160  1.00  0.00     0.021 C 
BRANCH  35  36
ATOM     36  C   UNL A   1      34.405  29.863  27.209  1.00  0.00     0.116 C 
BRANCH  36  37
ATOM     37  N   UNL A   1      35.257  31.030  27.378  1.00  0.00    -0.352 N 
ATOM     38  C   UNL A   1      36.394  31.107  28.169  1.00  0.00     0.251 C 
ATOM     39  H   UNL A   1      35.002  31.842  26.883  1.00  0.00     0.163 HD
ATOM     40  O   UNL A   1      36.791  32.130  28.687  1.00  0.00    -0.269 OA
BRANCH  38  41
ATOM     41  C   UNL A   1      37.215  29.880  28.197  1.00  0.00     0.039 A 
ATOM     42  C   UNL A   1      37.238  29.163  29.400  1.00  0.00     0.014 A 
ATOM     43  C   UNL A   1      38.159  29.662  27.198  1.00  0.00     0.014 A 
ATOM     44  C   UNL A   1      38.327  28.347  29.685  1.00  0.00     0.010 A 
ATOM     45  C   UNL A   1      39.275  28.918  27.516  1.00  0.00     0.010 A 
ATOM     46  C   UNL A   1      39.382  28.308  28.777  1.00  0.00    -0.014 A 
BRANCH  46  47
ATOM     47  C   UNL A   1      40.678  27.712  29.066  1.00  0.00     0.031 A 
ATOM     48  C   UNL A   1      40.926  26.303  28.699  1.00  0.00     0.074 A 
ATOM     49  C   UNL A   1      41.678  28.499  29.516  1.00  0.00     0.049 A 
ATOM     50  N   UNL A   1      41.951  25.612  29.062  1.00  0.00    -0.248 NA
ATOM     51  C   UNL A   1      39.963  25.530  27.924  1.00  0.00     0.031 C 
ATOM     52  C   UNL A   1      43.109  28.221  29.477  1.00  0.00     0.029 A 
ATOM     53  N   UNL A   1      41.569  29.651  30.297  1.00  0.00    -0.354 N 
ATOM     54  C   UNL A   1      41.939  24.428  28.354  1.00  0.00     0.074 A 
ATOM     55  C   UNL A   1      40.631  24.388  27.749  1.00  0.00     0.031 C 
ATOM     56  C   UNL A   1      43.730  29.006  30.370  1.00  0.00     0.029 A 
ATOM     57  C   UNL A   1      42.700  29.687  31.135  1.00  0.00     0.049 A 
ATOM     58  H   UNL A   1      40.840  30.312  30.267  1.00  0.00     0.167 HD
ATOM     59  C   UNL A   1      43.097  23.709  28.265  1.00  0.00     0.037 A 
ATOM     60  C   UNL A   1      42.564  29.585  32.492  1.00  0.00     0.037 A 
ATOM     61  C   UNL A   1      44.085  24.227  29.220  1.00  0.00     0.049 A 
ATOM     62  C   UNL A   1      43.205  28.345  33.080  1.00  0.00     0.074 A 
ATOM     63  C   UNL A   1      45.180  25.066  29.090  1.00  0.00     0.029 A 
ATOM     64  N   UNL A   1      43.820  24.142  30.586  1.00  0.00    -0.354 N 
ATOM     65  N   UNL A   1      43.553  27.299  32.381  1.00  0.00    -0.248 NA
ATOM     66  C   UNL A   1      43.516  28.190  34.499  1.00  0.00     0.031 C 
ATOM     67  C   UNL A   1      45.501  25.571  30.378  1.00  0.00     0.029 A 
ATOM     68  C   UNL A   1      44.630  25.009  31.296  1.00  0.00     0.049 A 
ATOM     69  H   UNL A   1      43.148  23.546  30.990  1.00  0.00     0.167 HD
ATOM     70  C   UNL A   1      44.091  26.346  33.207  1.00  0.00     0.074 A 
ATOM     71  C   UNL A   1      44.068  26.963  34.520  1.00  0.00     0.031 C 
ATOM     72  C   UNL A   1      44.506  25.127  32.745  1.00  0.00     0.037 A 
BRANCH  59  73
ATOM     73  C   UNL A   1      43.441  22.749  27.125  1.00  0.00     0.058 A 
ATOM     74  C   UNL A   1      42.820  21.480  27.044  1.00  0.00     0.135 A 
ATOM     75  C   UNL A   1      44.438  22.953  26.148  1.00  0.00     0.135 A 
ATOM     76  F   UNL A   1      41.792  21.154  27.840  1.00  0.00    -0.206 F 
ATOM     77  C   UNL A   1      43.229  20.476  26.156  1.00  0.00     0.059 A 
ATOM     78  C   UNL A   1      44.886  21.958  25.272  1.00  0.00     0.059 A 
ATOM     79  F   UNL A   1      45.014  24.139  25.948  1.00  0.00    -0.206 F 
ATOM     80  C   UNL A   1      44.289  20.712  25.295  1.00  0.00     0.060 A 
BRANCH  80  81
ATOM     81  S   UNL A   1      44.870  19.398  24.207  1.00  0.00     0.124 S 
ATOM     82  O   UNL A   1      44.487  19.903  22.893  1.00  0.00    -0.237 OA
ATOM     83  O   UNL A   1      46.301  19.373  24.492  1.00  0.00    -0.237 OA
ATOM     84  O   UNL A   1      44.124  18.226  24.659  1.00  0.00    -0.744 OA
ENDBRANCH  80  81
ENDBRANCH  59  73
BRANCH  60  85
ATOM     85  C   UNL A   1      41.344  30.274  33.001  1.00  0.00     0.058 A 
ATOM     86  C   UNL A   1      41.432  31.665  33.211  1.00  0.00     0.135 A 
ATOM     87  C   UNL A   1      40.065  29.730  32.812  1.00  0.00     0.135 A 
ATOM     88  F   UNL A   1      42.630  32.235  33.426  1.00  0.00    -0.206 F 
ATOM     89  C   UNL A   1      40.334  32.502  33.046  1.00  0.00     0.059 A 
ATOM     90  C   UNL A   1      38.946  30.553  32.654  1.00  0.00     0.059 A 
ATOM     91  F   UNL A   1      39.913  28.412  32.619  1.00  0.00    -0.206 F 
ATOM     92  C   UNL A   1      39.112  31.940  32.689  1.00  0.00     0.060 A 
BRANCH  92  93
ATOM     93  S   UNL A   1      37.806  33.050  32.101  1.00  0.00     0.124 S 
ATOM     94  O   UNL A   1      38.395  33.596  30.885  1.00  0.00    -0.237 OA
ATOM     95  O   UNL A   1      36.688  32.127  31.902  1.00  0.00    -0.237 OA
ATOM     96  O   UNL A   1      37.647  33.991  33.203  1.00  0.00    -0.744 OA
ENDBRANCH  92  93
ENDBRANCH  60  85
BRANCH  72  97
ATOM     97  C   UNL A   1      44.917  23.954  33.606  1.00  0.00     0.058 A 
ATOM     98  C   UNL A   1      44.042  22.932  34.013  1.00  0.00     0.135 A 
ATOM     99  C   UNL A   1      46.281  23.752  33.931  1.00  0.00     0.135 A 
ATOM    100  F   UNL A   1      42.746  22.947  33.673  1.00  0.00    -0.206 F 
ATOM    101  C   UNL A   1      44.475  21.824  34.747  1.00  0.00     0.059 A 
ATOM    102  C   UNL A   1      46.742  22.628  34.611  1.00  0.00     0.059 A 
ATOM    103  F   UNL A   1      47.223  24.643  33.582  1.00  0.00    -0.206 F 
ATOM    104  C   UNL A   1      45.826  21.680  35.041  1.00  0.00     0.060 A 
BRANCH 104 105
ATOM    105  S   UNL A   1      46.406  20.222  35.929  1.00  0.00     0.124 S 
ATOM    106  O   UNL A   1      46.450  20.716  37.300  1.00  0.00    -0.237 OA
ATOM    107  O   UNL A   1      45.368  19.234  35.647  1.00  0.00    -0.237 OA
ATOM    108  O   UNL A   1      47.699  19.951  35.310  1.00  0.00    -0.744 OA
ENDBRANCH 104 105
ENDBRANCH  72  97
ENDBRANCH  46  47
ENDBRANCH  38  41
ENDBRANCH  36  37
ENDBRANCH  35  36
ENDBRANCH  34  35
ENDBRANCH   1  34
TORSDOF 19
ENDMDL
MODEL 2
REMARK VINA RESULT:     -13.8      1.709      2.379
REMARK SMILES Cc1c(C(=O)NCCCCCCNC(=O)c2ccc(-c3c4nc(c(-c5c(F)cc(S(=O)(=O)[O-])cc5F)c5ccc([nH]5)c(-c5c(F)cc(S(=O)(=O)[O-])cc5F)c5nc(c(-c6c(F)cc(S(=O)(=O)[O-])cc6F)c6ccc3[nH]6)C=C5)C=C4)cc2)cccc1-n1c(C)cc(/C=C2/C(=O)NC(=S)N=C2O)c1C
REMARK SMILES IDX 9 1 8 2 7 3 6 4 4 5 5 6 3 8 1 9 2 10 85 11 82 12 84 13 83 14
REMARK SMILES IDX 86 15 87 16 101 17 88 18 89 19 90 20 102 21 91 22 92 23
REMARK SMILES IDX 93 24 99 25 94 26 95 27 98 28 96 29 97 31 100 32 10 34 11 35
REMARK SMILES IDX 12 36 13 37 14 38 15 40 16 41 17 42 81 43 18 44 80 45 19 46
REMARK SMILES IDX 20 47 21 48 74 49 22 50 79 51 73 52 75 53 23 54 78 55 72 56
REMARK SMILES IDX 71 57 24 59 58 60 37 61 57 62 38 63 41 64 56 65 76 66 39 67
REMARK SMILES IDX 40 68 55 70 77 71 42 72 25 73 26 74 35 75 27 76 28 77 34 78
REMARK SMILES IDX 36 79 29 80 30 81 31 82 32 83 33 84 59 85 60 86 69 87 61 88
REMARK SMILES IDX 62 89 68 90 70 91 63 92 64 93 65 94 66 95 67 96 43 97 44 98
REMARK SMILES IDX 53 99 45 100 46 101 52 102 54 103 47 104 48 105 49 106
REMARK SMILES IDX 50 107 51 108
REMARK H PARENT 6 7 95 30 100 33 13 39 75 58 41 69
REMARK Flexibility Score: inf
ROOT
ATOM      1  C   UNL A   1      31.419  29.741  25.451  1.00  0.00     0.002 C 
ENDROOT
BRANCH   1   2
ATOM      2  C   UNL A   1      30.537  30.096  24.248  1.00  0.00     0.021 C 
BRANCH   2   3
ATOM      3  C   UNL A   1      30.641  29.144  23.042  1.00  0.00     0.116 C 
BRANCH   3   4
ATOM      4  N   UNL A   1      32.002  29.115  22.533  1.00  0.00    -0.352 N 
ATOM      5  C   UNL A   1      33.122  28.355  22.713  1.00  0.00     0.251 C 
ATOM      6  O   UNL A   1      34.079  28.673  21.995  1.00  0.00    -0.269 OA
ATOM      7  H   UNL A   1      32.158  29.838  21.884  1.00  0.00     0.163 HD
BRANCH   5   8
ATOM      8  C   UNL A   1      33.306  27.171  23.620  1.00  0.00     0.044 A 
ATOM      9  C   UNL A   1      32.070  25.380  22.265  1.00  0.00     0.047 C 
ATOM     10  C   UNL A   1      32.831  25.851  23.467  1.00  0.00    -0.014 A 
ATOM     11  C   UNL A   1      33.043  24.941  24.540  1.00  0.00     0.049 A 
ATOM     12  C   UNL A   1      33.900  27.526  24.861  1.00  0.00     0.014 A 
ATOM     13  C   UNL A   1      33.626  25.319  25.754  1.00  0.00     0.027 A 
ATOM     14  C   UNL A   1      34.047  26.625  25.918  1.00  0.00     0.003 A 
BRANCH  11  15
ATOM     15  N   UNL A   1      32.549  23.616  24.478  1.00  0.00    -0.318 N 
ATOM     16  C   UNL A   1      31.432  23.149  25.142  1.00  0.00     0.020 A 
ATOM     17  C   UNL A   1      33.156  22.571  23.789  1.00  0.00     0.027 A 
ATOM     18  C   UNL A   1      30.641  23.970  26.099  1.00  0.00     0.065 C 
ATOM     19  C   UNL A   1      31.259  21.831  24.769  1.00  0.00     0.031 A 
ATOM     20  C   UNL A   1      32.329  21.465  23.908  1.00  0.00    -0.003 A 
ATOM     21  C   UNL A   1      34.493  22.753  23.144  1.00  0.00     0.065 C 
BRANCH  20  22
ATOM     22  C   UNL A   1      32.536  20.125  23.455  1.00  0.00     0.029 C 
ATOM     23  C   UNL A   1      32.747  18.968  24.111  1.00  0.00     0.102 C 
ATOM     24  C   UNL A   1      32.747  17.737  23.276  1.00  0.00     0.262 C 
ATOM     25  C   UNL A   1      32.905  18.702  25.538  1.00  0.00     0.226 C 
ATOM     26  O   UNL A   1      32.923  17.734  22.063  1.00  0.00    -0.269 OA
ATOM     27  N   UNL A   1      32.534  16.587  23.989  1.00  0.00    -0.297 N 
ATOM     28  N   UNL A   1      32.791  17.568  26.127  1.00  0.00    -0.184 NA
ATOM     29  C   UNL A   1      32.504  16.470  25.357  1.00  0.00     0.203 C 
ATOM     30  H   UNL A   1      32.386  15.763  23.469  1.00  0.00     0.172 HD
ATOM     31  S   UNL A   1      32.203  14.960  26.017  1.00  0.00    -0.038 S 
BRANCH  25  32
ATOM     32  O   UNL A   1      33.283  19.728  26.302  1.00  0.00    -0.493 OA
ATOM     33  H   UNL A   1      32.689  20.434  26.468  1.00  0.00     0.295 HD
ENDBRANCH  25  32
ENDBRANCH  20  22
ENDBRANCH  11  15
ENDBRANCH   5   8
ENDBRANCH   3   4
ENDBRANCH   2   3
ENDBRANCH   1   2
BRANCH   1  34
ATOM     34  C   UNL A   1      31.422  30.746  26.612  1.00  0.00     0.002 C 
BRANCH  34  35
ATOM     35  C   UNL A   1      32.653  31.647  26.703  1.00  0.00     0.021 C 
BRANCH  35  36
ATOM     36  C   UNL A   1      33.743  31.098  27.615  1.00  0.00     0.116 C 
BRANCH  36  37
ATOM     37  N   UNL A   1      34.306  32.119  28.486  1.00  0.00    -0.352 N 
ATOM     38  C   UNL A   1      35.178  31.903  29.544  1.00  0.00     0.251 C 
ATOM     39  H   UNL A   1      34.044  33.050  28.307  1.00  0.00     0.163 HD
ATOM     40  O   UNL A   1      35.245  32.618  30.522  1.00  0.00    -0.269 OA
BRANCH  38  41
ATOM     41  C   UNL A   1      36.168  30.830  29.324  1.00  0.00     0.039 A 
ATOM     42  C   UNL A   1      36.275  29.855  30.324  1.00  0.00     0.014 A 
ATOM     43  C   UNL A   1      37.150  30.991  28.352  1.00  0.00     0.014 A 
ATOM     44  C   UNL A   1      37.467  29.152  30.463  1.00  0.00     0.010 A 
ATOM     45  C   UNL A   1      38.357  30.353  28.541  1.00  0.00     0.010 A 
ATOM     46  C   UNL A   1      38.531  29.478  29.627  1.00  0.00    -0.014 A 
BRANCH  46  47
ATOM     47  C   UNL A   1      39.895  29.015  29.833  1.00  0.00     0.031 A 
ATOM     48  C   UNL A   1      40.274  27.658  29.390  1.00  0.00     0.074 A 
ATOM     49  C   UNL A   1      40.826  29.886  30.278  1.00  0.00     0.049 A 
ATOM     50  N   UNL A   1      41.382  27.066  29.677  1.00  0.00    -0.248 NA
ATOM     51  C   UNL A   1      39.364  26.818  28.620  1.00  0.00     0.031 C 
ATOM     52  C   UNL A   1      42.274  29.766  30.166  1.00  0.00     0.029 A 
ATOM     53  N   UNL A   1      40.631  30.984  31.117  1.00  0.00    -0.354 N 
ATOM     54  C   UNL A   1      41.463  25.920  28.915  1.00  0.00     0.074 A 
ATOM     55  C   UNL A   1      40.141  25.764  28.363  1.00  0.00     0.031 C 
ATOM     56  C   UNL A   1      42.850  30.575  31.069  1.00  0.00     0.029 A 
ATOM     57  C   UNL A   1      41.790  31.107  31.908  1.00  0.00     0.049 A 
ATOM     58  H   UNL A   1      39.835  31.564  31.148  1.00  0.00     0.167 HD
ATOM     59  C   UNL A   1      42.686  25.334  28.744  1.00  0.00     0.037 A 
ATOM     60  C   UNL A   1      41.729  30.933  33.262  1.00  0.00     0.037 A 
ATOM     61  C   UNL A   1      43.656  25.915  29.680  1.00  0.00     0.049 A 
ATOM     62  C   UNL A   1      42.525  29.746  33.764  1.00  0.00     0.074 A 
ATOM     63  C   UNL A   1      44.649  26.873  29.544  1.00  0.00     0.029 A 
ATOM     64  N   UNL A   1      43.466  25.744  31.051  1.00  0.00    -0.354 N 
ATOM     65  N   UNL A   1      42.948  28.775  33.003  1.00  0.00    -0.248 NA
ATOM     66  C   UNL A   1      42.916  29.566  35.160  1.00  0.00     0.031 C 
ATOM     67  C   UNL A   1      44.974  27.354  30.841  1.00  0.00     0.029 A 
ATOM     68  C   UNL A   1      44.211  26.663  31.767  1.00  0.00     0.049 A 
ATOM     69  H   UNL A   1      42.880  25.063  31.453  1.00  0.00     0.167 HD
ATOM     70  C   UNL A   1      43.622  27.851  33.759  1.00  0.00     0.074 A 
ATOM     71  C   UNL A   1      43.595  28.406  35.100  1.00  0.00     0.031 C 
ATOM     72  C   UNL A   1      44.143  26.705  33.223  1.00  0.00     0.037 A 
BRANCH  59  73
ATOM     73  C   UNL A   1      43.077  24.468  27.546  1.00  0.00     0.058 A 
ATOM     74  C   UNL A   1      42.858  23.069  27.572  1.00  0.00     0.135 A 
ATOM     75  C   UNL A   1      43.763  24.910  26.396  1.00  0.00     0.135 A 
ATOM     76  F   UNL A   1      42.145  22.492  28.549  1.00  0.00    -0.206 F 
ATOM     77  C   UNL A   1      43.371  22.190  26.608  1.00  0.00     0.059 A 
ATOM     78  C   UNL A   1      44.311  24.052  25.437  1.00  0.00     0.059 A 
ATOM     79  F   UNL A   1      43.910  26.203  26.103  1.00  0.00    -0.206 F 
ATOM     80  C   UNL A   1      44.129  22.688  25.560  1.00  0.00     0.060 A 
BRANCH  80  81
ATOM     81  S   UNL A   1      44.857  21.555  24.363  1.00  0.00     0.124 S 
ATOM     82  O   UNL A   1      44.156  20.310  24.661  1.00  0.00    -0.237 OA
ATOM     83  O   UNL A   1      44.521  22.192  23.094  1.00  0.00    -0.237 OA
ATOM     84  O   UNL A   1      46.277  21.561  24.706  1.00  0.00    -0.744 OA
ENDBRANCH  80  81
ENDBRANCH  59  73
BRANCH  60  85
ATOM     85  C   UNL A   1      40.467  31.464  33.854  1.00  0.00     0.058 A 
ATOM     86  C   UNL A   1      39.459  30.529  34.163  1.00  0.00     0.135 A 
ATOM     87  C   UNL A   1      40.439  32.691  34.533  1.00  0.00     0.135 A 
ATOM     88  F   UNL A   1      39.421  29.349  33.521  1.00  0.00    -0.206 F 
ATOM     89  C   UNL A   1      38.585  30.718  35.229  1.00  0.00     0.059 A 
ATOM     90  C   UNL A   1      39.561  32.906  35.601  1.00  0.00     0.059 A 
ATOM     91  F   UNL A   1      41.364  33.627  34.276  1.00  0.00    -0.206 F 
ATOM     92  C   UNL A   1      38.700  31.878  35.989  1.00  0.00     0.060 A 
BRANCH  92  93
ATOM     93  S   UNL A   1      37.839  31.935  37.583  1.00  0.00     0.124 S 
ATOM     94  O   UNL A   1      38.904  32.343  38.490  1.00  0.00    -0.237 OA
ATOM     95  O   UNL A   1      36.803  32.939  37.334  1.00  0.00    -0.237 OA
ATOM     96  O   UNL A   1      37.355  30.570  37.751  1.00  0.00    -0.744 OA
ENDBRANCH  92  93
ENDBRANCH  60  85
BRANCH  72  97
ATOM     97  C   UNL A   1      44.716  25.548  34.010  1.00  0.00     0.058 A 
ATOM     98  C   UNL A   1      46.077  25.414  34.334  1.00  0.00     0.135 A 
ATOM     99  C   UNL A   1      43.854  24.591  34.599  1.00  0.00     0.135 A 
ATOM    100  F   UNL A   1      46.981  26.318  33.932  1.00  0.00    -0.206 F 
ATOM    101  C   UNL A   1      46.559  24.369  35.126  1.00  0.00     0.059 A 
ATOM    102  C   UNL A   1      44.306  23.576  35.438  1.00  0.00     0.059 A 
ATOM    103  F   UNL A   1      42.528  24.619  34.388  1.00  0.00    -0.206 F 
ATOM    104  C   UNL A   1      45.666  23.454  35.675  1.00  0.00     0.060 A 
BRANCH 104 105
ATOM    105  S   UNL A   1      46.268  22.142  36.754  1.00  0.00     0.124 S 
ATOM    106  O   UNL A   1      45.536  20.988  36.242  1.00  0.00    -0.237 OA
ATOM    107  O   UNL A   1      47.706  22.140  36.497  1.00  0.00    -0.237 OA
ATOM    108  O   UNL A   1      45.880  22.602  38.083  1.00  0.00    -0.744 OA
ENDBRANCH 104 105
ENDBRANCH  72  97
ENDBRANCH  46  47
ENDBRANCH  38  41
ENDBRANCH  36  37
ENDBRANCH  35  36
ENDBRANCH  34  35
ENDBRANCH   1  34
TORSDOF 19
ENDMDL
MODEL 3
REMARK VINA RESULT:     -12.4      6.084     11.863
REMARK SMILES Cc1c(C(=O)NCCCCCCNC(=O)c2ccc(-c3c4nc(c(-c5c(F)cc(S(=O)(=O)[O-])cc5F)c5ccc([nH]5)c(-c5c(F)cc(S(=O)(=O)[O-])cc5F)c5nc(c(-c6c(F)cc(S(=O)(=O)[O-])cc6F)c6ccc3[nH]6)C=C5)C=C4)cc2)cccc1-n1c(C)cc(/C=C2/C(=O)NC(=S)N=C2O)c1C
REMARK SMILES IDX 9 1 8 2 7 3 6 4 4 5 5 6 3 8 1 9 2 10 85 11 82 12 84 13 83 14
REMARK SMILES IDX 86 15 87 16 101 17 88 18 89 19 90 20 102 21 91 22 92 23
REMARK SMILES IDX 93 24 99 25 94 26 95 27 98 28 96 29 97 31 100 32 10 34 11 35
REMARK SMILES IDX 12 36 13 37 14 38 15 40 16 41 17 42 81 43 18 44 80 45 19 46
REMARK SMILES IDX 20 47 21 48 74 49 22 50 79 51 73 52 75 53 23 54 78 55 72 56
REMARK SMILES IDX 71 57 24 59 58 60 37 61 57 62 38 63 41 64 56 65 76 66 39 67
REMARK SMILES IDX 40 68 55 70 77 71 42 72 25 73 26 74 35 75 27 76 28 77 34 78
REMARK SMILES IDX 36 79 29 80 30 81 31 82 32 83 33 84 59 85 60 86 69 87 61 88
REMARK SMILES IDX 62 89 68 90 70 91 63 92 64 93 65 94 66 95 67 96 43 97 44 98
REMARK SMILES IDX 53 99 45 100 46 101 52 102 54 103 47 104 48 105 49 106
REMARK SMILES IDX 50 107 51 108
REMARK H PARENT 6 7 95 30 100 33 13 39 75 58 41 69
REMARK Flexibility Score: inf
ROOT
ATOM      1  C   UNL A   1      43.088  29.288  28.474  1.00  0.00     0.002 C 
ENDROOT
BRANCH   1   2
ATOM      2  C   UNL A   1      43.084  28.416  27.213  1.00  0.00     0.021 C 
BRANCH   2   3
ATOM      3  C   UNL A   1      43.113  26.896  27.455  1.00  0.00     0.116 C 
BRANCH   3   4
ATOM      4  N   UNL A   1      41.972  26.258  26.820  1.00  0.00    -0.352 N 
ATOM      5  C   UNL A   1      40.614  26.268  26.962  1.00  0.00     0.251 C 
ATOM      6  O   UNL A   1      40.006  25.586  26.127  1.00  0.00    -0.269 OA
ATOM      7  H   UNL A   1      42.254  25.659  26.093  1.00  0.00     0.163 HD
BRANCH   5   8
ATOM      8  C   UNL A   1      39.789  27.035  27.955  1.00  0.00     0.044 A 
ATOM      9  C   UNL A   1      39.729  29.325  26.806  1.00  0.00     0.047 C 
ATOM     10  C   UNL A   1      39.403  28.392  27.932  1.00  0.00    -0.014 A 
ATOM     11  C   UNL A   1      38.717  28.907  29.068  1.00  0.00     0.049 A 
ATOM     12  C   UNL A   1      39.531  26.289  29.138  1.00  0.00     0.014 A 
ATOM     13  C   UNL A   1      38.481  28.151  30.221  1.00  0.00     0.027 A 
ATOM     14  C   UNL A   1      38.903  26.836  30.258  1.00  0.00     0.003 A 
BRANCH  11  15
ATOM     15  N   UNL A   1      38.344  30.271  29.136  1.00  0.00    -0.318 N 
ATOM     16  C   UNL A   1      39.096  31.274  29.714  1.00  0.00     0.020 A 
ATOM     17  C   UNL A   1      37.135  30.790  28.687  1.00  0.00     0.027 A 
ATOM     18  C   UNL A   1      40.376  31.032  30.435  1.00  0.00     0.065 C 
ATOM     19  C   UNL A   1      38.414  32.458  29.518  1.00  0.00     0.031 A 
ATOM     20  C   UNL A   1      37.189  32.165  28.860  1.00  0.00    -0.003 A 
ATOM     21  C   UNL A   1      36.049  29.887  28.196  1.00  0.00     0.065 C 
BRANCH  20  22
ATOM     22  C   UNL A   1      36.174  33.147  28.635  1.00  0.00     0.029 C 
ATOM     23  C   UNL A   1      35.184  33.623  29.413  1.00  0.00     0.102 C 
ATOM     24  C   UNL A   1      34.429  34.783  28.869  1.00  0.00     0.262 C 
ATOM     25  C   UNL A   1      34.766  33.237  30.758  1.00  0.00     0.226 C 
ATOM     26  O   UNL A   1      34.403  35.084  27.682  1.00  0.00    -0.269 OA
ATOM     27  N   UNL A   1      33.751  35.497  29.822  1.00  0.00    -0.297 N 
ATOM     28  N   UNL A   1      34.037  33.919  31.563  1.00  0.00    -0.184 NA
ATOM     29  C   UNL A   1      33.575  35.138  31.137  1.00  0.00     0.203 C 
ATOM     30  H   UNL A   1      33.351  36.350  29.537  1.00  0.00     0.172 HD
ATOM     31  S   UNL A   1      32.724  36.180  32.135  1.00  0.00    -0.038 S 
BRANCH  25  32
ATOM     32  O   UNL A   1      35.112  32.015  31.167  1.00  0.00    -0.493 OA
ATOM     33  H   UNL A   1      34.464  31.440  31.525  1.00  0.00     0.295 HD
ENDBRANCH  25  32
ENDBRANCH  20  22
ENDBRANCH  11  15
ENDBRANCH   5   8
ENDBRANCH   3   4
ENDBRANCH   2   3
ENDBRANCH   1   2
BRANCH   1  34
ATOM     34  C   UNL A   1      44.465  29.720  28.997  1.00  0.00     0.002 C 
BRANCH  34  35
ATOM     35  C   UNL A   1      45.642  29.457  28.058  1.00  0.00     0.021 C 
BRANCH  35  36
ATOM     36  C   UNL A   1      46.507  28.278  28.482  1.00  0.00     0.116 C 
BRANCH  36  37
ATOM     37  N   UNL A   1      46.601  27.256  27.450  1.00  0.00    -0.352 N 
ATOM     38  C   UNL A   1      46.992  25.938  27.634  1.00  0.00     0.251 C 
ATOM     39  H   UNL A   1      46.363  27.527  26.534  1.00  0.00     0.163 HD
ATOM     40  O   UNL A   1      47.530  25.265  26.780  1.00  0.00    -0.269 OA
BRANCH  38  41
ATOM     41  C   UNL A   1      46.543  25.329  28.902  1.00  0.00     0.039 A 
ATOM     42  C   UNL A   1      45.247  24.798  28.924  1.00  0.00     0.014 A 
ATOM     43  C   UNL A   1      47.248  25.585  30.074  1.00  0.00     0.014 A 
ATOM     44  C   UNL A   1      44.576  24.693  30.138  1.00  0.00     0.010 A 
ATOM     45  C   UNL A   1      46.554  25.556  31.265  1.00  0.00     0.010 A 
ATOM     46  C   UNL A   1      45.205  25.164  31.287  1.00  0.00    -0.014 A 
BRANCH  46  47
ATOM     47  C   UNL A   1      44.528  25.355  32.561  1.00  0.00     0.031 A 
ATOM     48  C   UNL A   1      44.055  26.704  32.933  1.00  0.00     0.074 A 
ATOM     49  C   UNL A   1      44.204  24.275  33.303  1.00  0.00     0.049 A 
ATOM     50  N   UNL A   1      43.613  27.039  34.097  1.00  0.00    -0.248 NA
ATOM     51  C   UNL A   1      44.114  27.824  32.003  1.00  0.00     0.031 C 
ATOM     52  C   UNL A   1      43.202  24.196  34.359  1.00  0.00     0.029 A 
ATOM     53  N   UNL A   1      44.883  23.058  33.375  1.00  0.00    -0.354 N 
ATOM     54  C   UNL A   1      43.069  28.303  33.998  1.00  0.00     0.074 A 
ATOM     55  C   UNL A   1      43.505  28.779  32.709  1.00  0.00     0.031 C 
ATOM     56  C   UNL A   1      43.461  23.126  35.126  1.00  0.00     0.029 A 
ATOM     57  C   UNL A   1      44.737  22.585  34.693  1.00  0.00     0.049 A 
ATOM     58  H   UNL A   1      45.370  22.614  32.643  1.00  0.00     0.167 HD
ATOM     59  C   UNL A   1      42.204  28.719  34.970  1.00  0.00     0.037 A 
ATOM     60  C   UNL A   1      45.827  22.454  35.510  1.00  0.00     0.037 A 
ATOM     61  C   UNL A   1      42.253  27.801  36.114  1.00  0.00     0.049 A 
ATOM     62  C   UNL A   1      45.796  23.361  36.722  1.00  0.00     0.074 A 
ATOM     63  C   UNL A   1      41.439  26.759  36.530  1.00  0.00     0.029 A 
ATOM     64  N   UNL A   1      43.437  27.683  36.841  1.00  0.00    -0.354 N 
ATOM     65  N   UNL A   1      45.020  24.404  36.836  1.00  0.00    -0.248 NA
ATOM     66  C   UNL A   1      46.628  23.158  37.905  1.00  0.00     0.031 C 
ATOM     67  C   UNL A   1      42.184  25.953  37.431  1.00  0.00     0.029 A 
ATOM     68  C   UNL A   1      43.435  26.524  37.594  1.00  0.00     0.049 A 
ATOM     69  H   UNL A   1      44.173  28.337  36.820  1.00  0.00     0.167 HD
ATOM     70  C   UNL A   1      45.241  25.018  38.042  1.00  0.00     0.074 A 
ATOM     71  C   UNL A   1      46.240  24.185  38.685  1.00  0.00     0.031 C 
ATOM     72  C   UNL A   1      44.590  26.163  38.410  1.00  0.00     0.037 A 
BRANCH  59  73
ATOM     73  C   UNL A   1      41.107  29.766  34.768  1.00  0.00     0.058 A 
ATOM     74  C   UNL A   1      41.030  30.896  35.617  1.00  0.00     0.135 A 
ATOM     75  C   UNL A   1      40.040  29.677  33.849  1.00  0.00     0.135 A 
ATOM     76  F   UNL A   1      42.007  31.182  36.490  1.00  0.00    -0.206 F 
ATOM     77  C   UNL A   1      39.944  31.782  35.626  1.00  0.00     0.059 A 
ATOM     78  C   UNL A   1      38.931  30.529  33.858  1.00  0.00     0.059 A 
ATOM     79  F   UNL A   1      40.023  28.787  32.856  1.00  0.00    -0.206 F 
ATOM     80  C   UNL A   1      38.879  31.570  34.765  1.00  0.00     0.060 A 
BRANCH  80  81
ATOM     81  S   UNL A   1      37.446  32.660  34.827  1.00  0.00     0.124 S 
ATOM     82  O   UNL A   1      37.078  32.595  36.237  1.00  0.00    -0.237 OA
ATOM     83  O   UNL A   1      38.003  33.928  34.367  1.00  0.00    -0.237 OA
ATOM     84  O   UNL A   1      36.497  32.030  33.912  1.00  0.00    -0.744 OA
ENDBRANCH  80  81
ENDBRANCH  59  73
BRANCH  60  85
ATOM     85  C   UNL A   1      47.044  22.000  34.776  1.00  0.00     0.058 A 
ATOM     86  C   UNL A   1      48.102  22.922  34.656  1.00  0.00     0.135 A 
ATOM     87  C   UNL A   1      47.358  20.639  34.654  1.00  0.00     0.135 A 
ATOM     88  F   UNL A   1      47.853  24.241  34.736  1.00  0.00    -0.206 F 
ATOM     89  C   UNL A   1      49.431  22.513  34.614  1.00  0.00     0.059 A 
ATOM     90  C   UNL A   1      48.686  20.205  34.599  1.00  0.00     0.059 A 
ATOM     91  F   UNL A   1      46.393  19.712  34.748  1.00  0.00    -0.206 F 
ATOM     92  C   UNL A   1      49.712  21.151  34.667  1.00  0.00     0.060 A 
BRANCH  92  93
ATOM     93  S   UNL A   1      51.420  20.650  35.004  1.00  0.00     0.124 S 
ATOM     94  O   UNL A   1      52.163  21.404  34.001  1.00  0.00    -0.237 OA
ATOM     95  O   UNL A   1      51.600  21.092  36.388  1.00  0.00    -0.237 OA
ATOM     96  O   UNL A   1      51.389  19.205  34.812  1.00  0.00    -0.744 OA
ENDBRANCH  92  93
ENDBRANCH  60  85
BRANCH  72  97
ATOM     97  C   UNL A   1      44.917  27.011  39.619  1.00  0.00     0.058 A 
ATOM     98  C   UNL A   1      44.545  26.684  40.934  1.00  0.00     0.135 A 
ATOM     99  C   UNL A   1      45.768  28.136  39.490  1.00  0.00     0.135 A 
ATOM    100  F   UNL A   1      43.834  25.579  41.203  1.00  0.00    -0.206 F 
ATOM    101  C   UNL A   1      44.929  27.453  42.035  1.00  0.00     0.059 A 
ATOM    102  C   UNL A   1      46.210  28.883  40.579  1.00  0.00     0.059 A 
ATOM    103  F   UNL A   1      46.214  28.543  38.291  1.00  0.00    -0.206 F 
ATOM    104  C   UNL A   1      45.763  28.551  41.849  1.00  0.00     0.060 A 
BRANCH 104 105
ATOM    105  S   UNL A   1      46.320  29.512  43.268  1.00  0.00     0.124 S 
ATOM    106  O   UNL A   1      46.778  30.739  42.626  1.00  0.00    -0.237 OA
ATOM    107  O   UNL A   1      45.109  29.637  44.074  1.00  0.00    -0.237 OA
ATOM    108  O   UNL A   1      47.363  28.672  43.847  1.00  0.00    -0.744 OA
ENDBRANCH 104 105
ENDBRANCH  72  97
ENDBRANCH  46  47
ENDBRANCH  38  41
ENDBRANCH  36  37
ENDBRANCH  35  36
ENDBRANCH  34  35
ENDBRANCH   1  34
TORSDOF 19
ENDMDL
