MODEL 1
REMARK VINA RESULT:     -11.2      0.000      0.000
REMARK SMILES CCS(=O)(=O)Nc1ccc(N2CC[NH+](C)CC2)cc1C(=O)NCCCCCCNC(=O)c1ccc(-c2c3nc(c(-c4c(F)cc(S(=O)(=O)[O-])cc4F)c4ccc([nH]4)c(-c4c(F)cc(S(=O)(=O)[O-])cc4F)c4nc(c(-c5c(F)cc(S(=O)(=O)[O-])cc5F)c5ccc2[nH]5)C=C4)C=C3)cc1
REMARK SMILES IDX 25 1 24 2 23 3 22 4 20 5 21 6 19 8 7 9 8 10 9 11 18 12 10 13
REMARK SMILES IDX 6 14 3 16 4 17 5 18 2 19 1 20 11 21 12 22 17 23 13 24 16 25
REMARK SMILES IDX 14 26 15 27 26 29 27 30 28 31 29 32 30 33 31 35 32 36 33 37
REMARK SMILES IDX 97 38 34 39 96 40 35 41 36 42 37 43 90 44 38 45 95 46 89 47
REMARK SMILES IDX 91 48 39 49 94 50 88 51 87 52 40 54 74 55 53 56 73 57 54 58
REMARK SMILES IDX 57 59 72 60 92 61 55 62 56 63 71 65 93 66 58 67 41 68 42 69
REMARK SMILES IDX 51 70 43 71 44 72 50 73 52 74 45 75 46 76 47 77 48 78 49 79
REMARK SMILES IDX 75 80 76 81 85 82 77 83 78 84 84 85 86 86 79 87 80 88 81 89
REMARK SMILES IDX 82 90 83 91 59 92 60 93 69 94 61 95 62 96 68 97 70 98 63 99
REMARK SMILES IDX 64 100 65 101 66 102 67 103
REMARK H PARENT 22 7 6 15 14 28 29 34 91 53 57 64
REMARK Flexibility Score: inf
ROOT
ATOM      1  C   UNL A   1      34.480  30.324  27.955  1.00  0.00     0.002 C 
ENDROOT
BRANCH   1   2
ATOM      2  C   UNL A   1      34.457  29.205  26.903  1.00  0.00     0.021 C 
BRANCH   2   3
ATOM      3  C   UNL A   1      33.331  29.274  25.872  1.00  0.00     0.116 C 
BRANCH   3   4
ATOM      4  N   UNL A   1      33.807  29.347  24.502  1.00  0.00    -0.352 N 
ATOM      5  C   UNL A   1      33.668  28.477  23.450  1.00  0.00     0.253 C 
ATOM      6  O   UNL A   1      34.233  28.755  22.390  1.00  0.00    -0.269 OA
ATOM      7  H   UNL A   1      34.318  30.162  24.291  1.00  0.00     0.163 HD
BRANCH   5   8
ATOM      8  C   UNL A   1      32.915  27.194  23.537  1.00  0.00     0.066 A 
ATOM      9  C   UNL A   1      31.595  26.994  23.129  1.00  0.00     0.061 A 
ATOM     10  C   UNL A   1      30.964  25.793  23.462  1.00  0.00     0.030 A 
ATOM     11  C   UNL A   1      31.703  24.712  23.929  1.00  0.00     0.028 A 
ATOM     12  C   UNL A   1      33.664  26.055  23.944  1.00  0.00     0.042 A 
ATOM     13  C   UNL A   1      33.093  24.776  24.033  1.00  0.00     0.038 A 
BRANCH   9  14
ATOM     14  N   UNL A   1      30.801  27.860  22.318  1.00  0.00    -0.283 N 
ATOM     15  H   UNL A   1      30.838  27.744  21.341  1.00  0.00     0.180 HD
BRANCH  14  16
ATOM     16  S   UNL A   1      29.809  29.060  22.933  1.00  0.00     0.232 S 
ATOM     17  O   UNL A   1      30.461  29.689  24.054  1.00  0.00    -0.207 OA
ATOM     18  O   UNL A   1      28.548  28.369  23.134  1.00  0.00    -0.207 OA
BRANCH  16  19
ATOM     19  C   UNL A   1      29.526  30.305  21.675  1.00  0.00     0.156 C 
ATOM     20  C   UNL A   1      28.111  30.338  21.127  1.00  0.00     0.023 C 
ENDBRANCH  16  19
ENDBRANCH  14  16
ENDBRANCH   9  14
BRANCH  13  21
ATOM     21  N   UNL A   1      33.842  23.617  24.091  1.00  0.00    -0.360 N 
ATOM     22  C   UNL A   1      33.489  22.439  24.897  1.00  0.00     0.178 C 
ATOM     23  C   UNL A   1      34.937  23.403  23.125  1.00  0.00     0.178 C 
ATOM     24  C   UNL A   1      34.758  21.766  25.491  1.00  0.00     0.283 C 
ATOM     25  C   UNL A   1      36.157  22.748  23.801  1.00  0.00     0.283 C 
ATOM     26  N   UNL A   1      35.811  21.487  24.484  1.00  0.00    -0.334 N 
ATOM     27  C   UNL A   1      37.001  20.913  25.110  1.00  0.00     0.332 C 
ATOM     28  H   UNL A   1      35.458  20.807  23.811  1.00  0.00     0.347 HD
ENDBRANCH  13  21
ENDBRANCH   5   8
ENDBRANCH   3   4
ENDBRANCH   2   3
ENDBRANCH   1   2
BRANCH   1  29
ATOM     29  C   UNL A   1      35.286  31.589  27.641  1.00  0.00     0.002 C 
BRANCH  29  30
ATOM     30  C   UNL A   1      35.230  32.724  28.660  1.00  0.00     0.021 C 
BRANCH  30  31
ATOM     31  C   UNL A   1      36.295  32.670  29.744  1.00  0.00     0.116 C 
BRANCH  31  32
ATOM     32  N   UNL A   1      35.989  31.717  30.799  1.00  0.00    -0.352 N 
ATOM     33  C   UNL A   1      36.727  30.645  31.239  1.00  0.00     0.251 C 
ATOM     34  H   UNL A   1      35.134  31.859  31.263  1.00  0.00     0.163 HD
ATOM     35  O   UNL A   1      36.257  29.875  32.070  1.00  0.00    -0.269 OA
BRANCH  33  36
ATOM     36  C   UNL A   1      38.074  30.405  30.678  1.00  0.00     0.039 A 
ATOM     37  C   UNL A   1      39.160  30.324  31.551  1.00  0.00     0.014 A 
ATOM     38  C   UNL A   1      38.261  30.236  29.303  1.00  0.00     0.014 A 
ATOM     39  C   UNL A   1      40.424  30.010  31.050  1.00  0.00     0.010 A 
ATOM     40  C   UNL A   1      39.502  29.837  28.819  1.00  0.00     0.010 A 
ATOM     41  C   UNL A   1      40.598  29.724  29.686  1.00  0.00    -0.014 A 
BRANCH  41  42
ATOM     42  C   UNL A   1      41.918  29.303  29.151  1.00  0.00     0.031 A 
ATOM     43  C   UNL A   1      43.033  30.304  29.015  1.00  0.00     0.074 A 
ATOM     44  C   UNL A   1      42.090  28.033  28.734  1.00  0.00     0.049 A 
ATOM     45  N   UNL A   1      44.233  30.140  28.521  1.00  0.00    -0.248 NA
ATOM     46  C   UNL A   1      42.754  31.677  29.466  1.00  0.00     0.031 C 
ATOM     47  C   UNL A   1      41.065  26.985  28.768  1.00  0.00     0.029 A 
ATOM     48  N   UNL A   1      43.184  27.405  28.194  1.00  0.00    -0.354 N 
ATOM     49  C   UNL A   1      44.846  31.385  28.595  1.00  0.00     0.074 A 
ATOM     50  C   UNL A   1      43.866  32.309  29.121  1.00  0.00     0.031 C 
ATOM     51  C   UNL A   1      41.588  25.842  28.298  1.00  0.00     0.029 A 
ATOM     52  C   UNL A   1      42.968  26.081  27.887  1.00  0.00     0.049 A 
ATOM     53  H   UNL A   1      44.044  27.860  28.039  1.00  0.00     0.167 HD
ATOM     54  C   UNL A   1      46.119  31.723  28.276  1.00  0.00     0.037 A 
ATOM     55  C   UNL A   1      43.785  25.167  27.330  1.00  0.00     0.037 A 
ATOM     56  C   UNL A   1      47.092  30.790  27.768  1.00  0.00     0.049 A 
ATOM     57  C   UNL A   1      45.191  25.568  26.971  1.00  0.00     0.074 A 
ATOM     58  C   UNL A   1      48.423  31.016  27.467  1.00  0.00     0.029 A 
ATOM     59  N   UNL A   1      46.838  29.455  27.482  1.00  0.00    -0.354 N 
ATOM     60  N   UNL A   1      45.776  26.735  27.111  1.00  0.00    -0.248 NA
ATOM     61  C   UNL A   1      46.050  24.532  26.385  1.00  0.00     0.031 C 
ATOM     62  C   UNL A   1      48.959  29.835  26.943  1.00  0.00     0.029 A 
ATOM     63  C   UNL A   1      47.981  28.854  26.980  1.00  0.00     0.049 A 
ATOM     64  H   UNL A   1      45.974  29.004  27.616  1.00  0.00     0.167 HD
ATOM     65  C   UNL A   1      47.079  26.564  26.657  1.00  0.00     0.074 A 
ATOM     66  C   UNL A   1      47.199  25.178  26.252  1.00  0.00     0.031 C 
ATOM     67  C   UNL A   1      48.085  27.471  26.583  1.00  0.00     0.037 A 
BRANCH  54  68
ATOM     68  C   UNL A   1      46.531  33.158  28.465  1.00  0.00     0.058 A 
ATOM     69  C   UNL A   1      47.022  33.632  29.693  1.00  0.00     0.135 A 
ATOM     70  C   UNL A   1      46.472  34.065  27.393  1.00  0.00     0.135 A 
ATOM     71  F   UNL A   1      47.088  32.815  30.756  1.00  0.00    -0.206 F 
ATOM     72  C   UNL A   1      47.409  34.958  29.861  1.00  0.00     0.059 A 
ATOM     73  C   UNL A   1      46.885  35.388  27.529  1.00  0.00     0.059 A 
ATOM     74  F   UNL A   1      46.010  33.669  26.196  1.00  0.00    -0.206 F 
ATOM     75  C   UNL A   1      47.338  35.828  28.772  1.00  0.00     0.060 A 
BRANCH  75  76
ATOM     76  S   UNL A   1      47.852  37.543  29.006  1.00  0.00     0.124 S 
ATOM     77  O   UNL A   1      49.304  37.406  29.060  1.00  0.00    -0.237 OA
ATOM     78  O   UNL A   1      47.321  38.193  27.813  1.00  0.00    -0.237 OA
ATOM     79  O   UNL A   1      47.212  37.922  30.261  1.00  0.00    -0.744 OA
ENDBRANCH  75  76
ENDBRANCH  54  68
BRANCH  55  80
ATOM     80  C   UNL A   1      43.299  23.781  27.093  1.00  0.00     0.058 A 
ATOM     81  C   UNL A   1      42.933  23.352  25.808  1.00  0.00     0.135 A 
ATOM     82  C   UNL A   1      43.202  22.852  28.141  1.00  0.00     0.135 A 
ATOM     83  F   UNL A   1      43.001  24.203  24.772  1.00  0.00    -0.206 F 
ATOM     84  C   UNL A   1      42.471  22.060  25.573  1.00  0.00     0.059 A 
ATOM     85  C   UNL A   1      42.771  21.546  27.927  1.00  0.00     0.059 A 
ATOM     86  F   UNL A   1      43.554  23.205  29.387  1.00  0.00    -0.206 F 
ATOM     87  C   UNL A   1      42.397  21.163  26.640  1.00  0.00     0.060 A 
BRANCH  87  88
ATOM     88  S   UNL A   1      41.836  19.478  26.317  1.00  0.00     0.124 S 
ATOM     89  O   UNL A   1      40.397  19.669  26.174  1.00  0.00    -0.237 OA
ATOM     90  O   UNL A   1      42.560  19.144  25.094  1.00  0.00    -0.237 OA
ATOM     91  O   UNL A   1      42.260  18.748  27.507  1.00  0.00    -0.744 OA
ENDBRANCH  87  88
ENDBRANCH  55  80
BRANCH  67  92
ATOM     92  C   UNL A   1      49.418  26.988  26.078  1.00  0.00     0.058 A 
ATOM     93  C   UNL A   1      49.720  26.948  24.708  1.00  0.00     0.135 A 
ATOM     94  C   UNL A   1      50.426  26.611  26.981  1.00  0.00     0.135 A 
ATOM     95  F   UNL A   1      48.792  27.291  23.799  1.00  0.00    -0.206 F 
ATOM     96  C   UNL A   1      50.964  26.526  24.249  1.00  0.00     0.059 A 
ATOM     97  C   UNL A   1      51.687  26.219  26.547  1.00  0.00     0.059 A 
ATOM     98  F   UNL A   1      50.195  26.641  28.303  1.00  0.00    -0.206 F 
ATOM     99  C   UNL A   1      51.943  26.168  25.178  1.00  0.00     0.060 A 
BRANCH  99 100
ATOM    100  S   UNL A   1      53.564  25.656  24.570  1.00  0.00     0.124 S 
ATOM    101  O   UNL A   1      53.559  26.206  23.218  1.00  0.00    -0.237 OA
ATOM    102  O   UNL A   1      54.469  26.304  25.514  1.00  0.00    -0.237 OA
ATOM    103  O   UNL A   1      53.516  24.199  24.655  1.00  0.00    -0.744 OA
ENDBRANCH  99 100
ENDBRANCH  67  92
ENDBRANCH  41  42
ENDBRANCH  33  36
ENDBRANCH  31  32
ENDBRANCH  30  31
ENDBRANCH  29  30
ENDBRANCH   1  29
TORSDOF 20
ENDMDL
MODEL 2
REMARK VINA RESULT:     -11.1      6.377      9.413
REMARK SMILES CCS(=O)(=O)Nc1ccc(N2CC[NH+](C)CC2)cc1C(=O)NCCCCCCNC(=O)c1ccc(-c2c3nc(c(-c4c(F)cc(S(=O)(=O)[O-])cc4F)c4ccc([nH]4)c(-c4c(F)cc(S(=O)(=O)[O-])cc4F)c4nc(c(-c5c(F)cc(S(=O)(=O)[O-])cc5F)c5ccc2[nH]5)C=C4)C=C3)cc1
REMARK SMILES IDX 25 1 24 2 23 3 22 4 20 5 21 6 19 8 7 9 8 10 9 11 18 12 10 13
REMARK SMILES IDX 6 14 3 16 4 17 5 18 2 19 1 20 11 21 12 22 17 23 13 24 16 25
REMARK SMILES IDX 14 26 15 27 26 29 27 30 28 31 29 32 30 33 31 35 32 36 33 37
REMARK SMILES IDX 97 38 34 39 96 40 35 41 36 42 37 43 90 44 38 45 95 46 89 47
REMARK SMILES IDX 91 48 39 49 94 50 88 51 87 52 40 54 74 55 53 56 73 57 54 58
REMARK SMILES IDX 57 59 72 60 92 61 55 62 56 63 71 65 93 66 58 67 41 68 42 69
REMARK SMILES IDX 51 70 43 71 44 72 50 73 52 74 45 75 46 76 47 77 48 78 49 79
REMARK SMILES IDX 75 80 76 81 85 82 77 83 78 84 84 85 86 86 79 87 80 88 81 89
REMARK SMILES IDX 82 90 83 91 59 92 60 93 69 94 61 95 62 96 68 97 70 98 63 99
REMARK SMILES IDX 64 100 65 101 66 102 67 103
REMARK H PARENT 22 7 6 15 14 28 29 34 91 53 57 64
REMARK Flexibility Score: inf
ROOT
ATOM      1  C   UNL A   1      35.287  31.667  27.925  1.00  0.00     0.002 C 
ENDROOT
BRANCH   1   2
ATOM      2  C   UNL A   1      35.325  30.137  28.065  1.00  0.00     0.021 C 
BRANCH   2   3
ATOM      3  C   UNL A   1      34.428  29.352  27.110  1.00  0.00     0.116 C 
BRANCH   3   4
ATOM      4  N   UNL A   1      33.215  28.855  27.733  1.00  0.00    -0.352 N 
ATOM      5  C   UNL A   1      32.056  28.364  27.189  1.00  0.00     0.253 C 
ATOM      6  O   UNL A   1      31.138  28.061  27.955  1.00  0.00    -0.269 OA
ATOM      7  H   UNL A   1      33.226  28.873  28.717  1.00  0.00     0.163 HD
BRANCH   5   8
ATOM      8  C   UNL A   1      31.829  28.224  25.721  1.00  0.00     0.066 A 
ATOM      9  C   UNL A   1      32.217  27.137  24.936  1.00  0.00     0.061 A 
ATOM     10  C   UNL A   1      32.117  27.243  23.547  1.00  0.00     0.030 A 
ATOM     11  C   UNL A   1      31.391  28.276  22.968  1.00  0.00     0.028 A 
ATOM     12  C   UNL A   1      31.028  29.230  25.114  1.00  0.00     0.042 A 
ATOM     13  C   UNL A   1      30.702  29.205  23.749  1.00  0.00     0.038 A 
BRANCH   9  14
ATOM     14  N   UNL A   1      32.644  25.853  25.390  1.00  0.00    -0.283 N 
ATOM     15  H   UNL A   1      33.609  25.703  25.519  1.00  0.00     0.180 HD
BRANCH  14  16
ATOM     16  S   UNL A   1      31.599  24.586  25.716  1.00  0.00     0.232 S 
ATOM     17  O   UNL A   1      30.356  24.804  25.021  1.00  0.00    -0.207 OA
ATOM     18  O   UNL A   1      31.607  24.524  27.167  1.00  0.00    -0.207 OA
BRANCH  16  19
ATOM     19  C   UNL A   1      32.315  23.053  25.126  1.00  0.00     0.156 C 
ATOM     20  C   UNL A   1      31.581  21.801  25.568  1.00  0.00     0.023 C 
ENDBRANCH  16  19
ENDBRANCH  14  16
ENDBRANCH   9  14
BRANCH  13  21
ATOM     21  N   UNL A   1      29.676  29.952  23.203  1.00  0.00    -0.360 N 
ATOM     22  C   UNL A   1      28.677  29.429  22.260  1.00  0.00     0.178 C 
ATOM     23  C   UNL A   1      29.375  31.290  23.748  1.00  0.00     0.178 C 
ATOM     24  C   UNL A   1      28.301  30.495  21.193  1.00  0.00     0.283 C 
ATOM     25  C   UNL A   1      29.029  32.285  22.623  1.00  0.00     0.283 C 
ATOM     26  N   UNL A   1      27.923  31.808  21.771  1.00  0.00    -0.334 N 
ATOM     27  C   UNL A   1      27.640  32.784  20.722  1.00  0.00     0.332 C 
ATOM     28  H   UNL A   1      27.074  31.696  22.326  1.00  0.00     0.347 HD
ENDBRANCH  13  21
ENDBRANCH   5   8
ENDBRANCH   3   4
ENDBRANCH   2   3
ENDBRANCH   1   2
BRANCH   1  29
ATOM     29  C   UNL A   1      34.485  32.464  28.959  1.00  0.00     0.002 C 
BRANCH  29  30
ATOM     30  C   UNL A   1      33.603  33.594  28.437  1.00  0.00     0.021 C 
BRANCH  30  31
ATOM     31  C   UNL A   1      33.859  34.955  29.066  1.00  0.00     0.116 C 
BRANCH  31  32
ATOM     32  N   UNL A   1      32.894  35.298  30.098  1.00  0.00    -0.352 N 
ATOM     33  C   UNL A   1      32.967  35.098  31.454  1.00  0.00     0.251 C 
ATOM     34  H   UNL A   1      32.072  35.736  29.780  1.00  0.00     0.163 HD
ATOM     35  O   UNL A   1      32.001  35.351  32.167  1.00  0.00    -0.269 OA
BRANCH  33  36
ATOM     36  C   UNL A   1      34.203  34.541  32.045  1.00  0.00     0.039 A 
ATOM     37  C   UNL A   1      34.219  33.198  32.428  1.00  0.00     0.014 A 
ATOM     38  C   UNL A   1      35.345  35.331  32.199  1.00  0.00     0.014 A 
ATOM     39  C   UNL A   1      35.402  32.632  32.904  1.00  0.00     0.010 A 
ATOM     40  C   UNL A   1      36.544  34.743  32.591  1.00  0.00     0.010 A 
ATOM     41  C   UNL A   1      36.584  33.389  32.953  1.00  0.00    -0.014 A 
BRANCH  41  42
ATOM     42  C   UNL A   1      37.871  32.779  33.374  1.00  0.00     0.031 A 
ATOM     43  C   UNL A   1      38.417  33.044  34.751  1.00  0.00     0.074 A 
ATOM     44  C   UNL A   1      38.573  32.037  32.495  1.00  0.00     0.049 A 
ATOM     45  N   UNL A   1      39.545  32.647  35.282  1.00  0.00    -0.248 NA
ATOM     46  C   UNL A   1      37.603  33.889  35.640  1.00  0.00     0.031 C 
ATOM     47  C   UNL A   1      38.169  31.754  31.115  1.00  0.00     0.029 A 
ATOM     48  N   UNL A   1      39.775  31.389  32.626  1.00  0.00    -0.354 N 
ATOM     49  C   UNL A   1      39.579  33.199  36.556  1.00  0.00     0.074 A 
ATOM     50  C   UNL A   1      38.390  34.010  36.698  1.00  0.00     0.031 C 
ATOM     51  C   UNL A   1      39.092  30.968  30.538  1.00  0.00     0.029 A 
ATOM     52  C   UNL A   1      40.174  30.727  31.488  1.00  0.00     0.049 A 
ATOM     53  H   UNL A   1      40.304  31.398  33.457  1.00  0.00     0.167 HD
ATOM     54  C   UNL A   1      40.505  33.025  37.530  1.00  0.00     0.037 A 
ATOM     55  C   UNL A   1      41.289  30.014  31.234  1.00  0.00     0.037 A 
ATOM     56  C   UNL A   1      41.677  32.200  37.384  1.00  0.00     0.049 A 
ATOM     57  C   UNL A   1      42.310  29.846  32.327  1.00  0.00     0.074 A 
ATOM     58  C   UNL A   1      42.648  31.912  38.325  1.00  0.00     0.029 A 
ATOM     59  N   UNL A   1      42.040  31.537  36.219  1.00  0.00    -0.354 N 
ATOM     60  N   UNL A   1      42.293  30.319  33.551  1.00  0.00    -0.248 NA
ATOM     61  C   UNL A   1      43.498  29.044  32.009  1.00  0.00     0.031 C 
ATOM     62  C   UNL A   1      43.628  31.123  37.716  1.00  0.00     0.029 A 
ATOM     63  C   UNL A   1      43.236  30.864  36.412  1.00  0.00     0.049 A 
ATOM     64  H   UNL A   1      41.524  31.544  35.382  1.00  0.00     0.167 HD
ATOM     65  C   UNL A   1      43.452  29.848  34.158  1.00  0.00     0.074 A 
ATOM     66  C   UNL A   1      44.140  29.042  33.169  1.00  0.00     0.031 C 
ATOM     67  C   UNL A   1      43.906  30.062  35.418  1.00  0.00     0.037 A 
BRANCH  54  68
ATOM     68  C   UNL A   1      40.289  33.739  38.838  1.00  0.00     0.058 A 
ATOM     69  C   UNL A   1      40.919  34.960  39.127  1.00  0.00     0.135 A 
ATOM     70  C   UNL A   1      39.409  33.215  39.800  1.00  0.00     0.135 A 
ATOM     71  F   UNL A   1      41.781  35.501  38.253  1.00  0.00    -0.206 F 
ATOM     72  C   UNL A   1      40.711  35.620  40.335  1.00  0.00     0.059 A 
ATOM     73  C   UNL A   1      39.160  33.875  41.001  1.00  0.00     0.059 A 
ATOM     74  F   UNL A   1      38.779  32.050  39.578  1.00  0.00    -0.206 F 
ATOM     75  C   UNL A   1      39.827  35.069  41.265  1.00  0.00     0.060 A 
BRANCH  75  76
ATOM     76  S   UNL A   1      39.562  35.944  42.822  1.00  0.00     0.124 S 
ATOM     77  O   UNL A   1      39.811  37.326  42.425  1.00  0.00    -0.237 OA
ATOM     78  O   UNL A   1      38.175  35.613  43.132  1.00  0.00    -0.237 OA
ATOM     79  O   UNL A   1      40.557  35.360  43.715  1.00  0.00    -0.744 OA
ENDBRANCH  75  76
ENDBRANCH  54  68
BRANCH  55  80
ATOM     80  C   UNL A   1      41.487  29.394  29.896  1.00  0.00     0.058 A 
ATOM     81  C   UNL A   1      42.318  29.993  28.937  1.00  0.00     0.135 A 
ATOM     82  C   UNL A   1      40.863  28.185  29.552  1.00  0.00     0.135 A 
ATOM     83  F   UNL A   1      42.934  31.153  29.214  1.00  0.00    -0.206 F 
ATOM     84  C   UNL A   1      42.508  29.427  27.680  1.00  0.00     0.059 A 
ATOM     85  C   UNL A   1      41.060  27.585  28.312  1.00  0.00     0.059 A 
ATOM     86  F   UNL A   1      40.070  27.561  30.437  1.00  0.00    -0.206 F 
ATOM     87  C   UNL A   1      41.877  28.220  27.378  1.00  0.00     0.060 A 
BRANCH  87  88
ATOM     88  S   UNL A   1      42.163  27.473  25.759  1.00  0.00     0.124 S 
ATOM     89  O   UNL A   1      43.498  26.911  25.927  1.00  0.00    -0.237 OA
ATOM     90  O   UNL A   1      41.070  26.509  25.670  1.00  0.00    -0.237 OA
ATOM     91  O   UNL A   1      42.066  28.606  24.845  1.00  0.00    -0.744 OA
ENDBRANCH  87  88
ENDBRANCH  55  80
BRANCH  67  92
ATOM     92  C   UNL A   1      45.191  29.388  35.816  1.00  0.00     0.058 A 
ATOM     93  C   UNL A   1      45.210  28.099  36.373  1.00  0.00     0.135 A 
ATOM     94  C   UNL A   1      46.425  30.020  35.587  1.00  0.00     0.135 A 
ATOM     95  F   UNL A   1      44.060  27.451  36.618  1.00  0.00    -0.206 F 
ATOM     96  C   UNL A   1      46.404  27.472  36.713  1.00  0.00     0.059 A 
ATOM     97  C   UNL A   1      47.632  29.398  35.889  1.00  0.00     0.059 A 
ATOM     98  F   UNL A   1      46.466  31.248  35.047  1.00  0.00    -0.206 F 
ATOM     99  C   UNL A   1      47.611  28.127  36.463  1.00  0.00     0.060 A 
BRANCH  99 100
ATOM    100  S   UNL A   1      49.153  27.287  36.878  1.00  0.00     0.124 S 
ATOM    101  O   UNL A   1      48.710  25.902  37.002  1.00  0.00    -0.237 OA
ATOM    102  O   UNL A   1      49.990  27.583  35.720  1.00  0.00    -0.237 OA
ATOM    103  O   UNL A   1      49.566  27.927  38.124  1.00  0.00    -0.744 OA
ENDBRANCH  99 100
ENDBRANCH  67  92
ENDBRANCH  41  42
ENDBRANCH  33  36
ENDBRANCH  31  32
ENDBRANCH  30  31
ENDBRANCH  29  30
ENDBRANCH   1  29
TORSDOF 20
ENDMDL
MODEL 3
REMARK VINA RESULT:     -10.9      6.270     12.023
REMARK SMILES CCS(=O)(=O)Nc1ccc(N2CC[NH+](C)CC2)cc1C(=O)NCCCCCCNC(=O)c1ccc(-c2c3nc(c(-c4c(F)cc(S(=O)(=O)[O-])cc4F)c4ccc([nH]4)c(-c4c(F)cc(S(=O)(=O)[O-])cc4F)c4nc(c(-c5c(F)cc(S(=O)(=O)[O-])cc5F)c5ccc2[nH]5)C=C4)C=C3)cc1
REMARK SMILES IDX 25 1 24 2 23 3 22 4 20 5 21 6 19 8 7 9 8 10 9 11 18 12 10 13
REMARK SMILES IDX 6 14 3 16 4 17 5 18 2 19 1 20 11 21 12 22 17 23 13 24 16 25
REMARK SMILES IDX 14 26 15 27 26 29 27 30 28 31 29 32 30 33 31 35 32 36 33 37
REMARK SMILES IDX 97 38 34 39 96 40 35 41 36 42 37 43 90 44 38 45 95 46 89 47
REMARK SMILES IDX 91 48 39 49 94 50 88 51 87 52 40 54 74 55 53 56 73 57 54 58
REMARK SMILES IDX 57 59 72 60 92 61 55 62 56 63 71 65 93 66 58 67 41 68 42 69
REMARK SMILES IDX 51 70 43 71 44 72 50 73 52 74 45 75 46 76 47 77 48 78 49 79
REMARK SMILES IDX 75 80 76 81 85 82 77 83 78 84 84 85 86 86 79 87 80 88 81 89
REMARK SMILES IDX 82 90 83 91 59 92 60 93 69 94 61 95 62 96 68 97 70 98 63 99
REMARK SMILES IDX 64 100 65 101 66 102 67 103
REMARK H PARENT 22 7 6 15 14 28 29 34 91 53 57 64
REMARK Flexibility Score: inf
ROOT
ATOM      1  C   UNL A   1      38.526  21.497  25.761  1.00  0.00     0.002 C 
ENDROOT
BRANCH   1   2
ATOM      2  C   UNL A   1      37.494  22.514  26.273  1.00  0.00     0.021 C 
BRANCH   2   3
ATOM      3  C   UNL A   1      37.283  23.753  25.405  1.00  0.00     0.116 C 
BRANCH   3   4
ATOM      4  N   UNL A   1      36.717  23.455  24.102  1.00  0.00    -0.352 N 
ATOM      5  C   UNL A   1      35.433  23.562  23.628  1.00  0.00     0.253 C 
ATOM      6  O   UNL A   1      35.205  23.178  22.479  1.00  0.00    -0.269 OA
ATOM      7  H   UNL A   1      37.366  23.118  23.443  1.00  0.00     0.163 HD
BRANCH   5   8
ATOM      8  C   UNL A   1      34.294  24.072  24.445  1.00  0.00     0.066 A 
ATOM      9  C   UNL A   1      33.534  23.321  25.343  1.00  0.00     0.061 A 
ATOM     10  C   UNL A   1      32.376  23.887  25.879  1.00  0.00     0.030 A 
ATOM     11  C   UNL A   1      32.132  25.249  25.755  1.00  0.00     0.028 A 
ATOM     12  C   UNL A   1      34.067  25.475  24.393  1.00  0.00     0.042 A 
ATOM     13  C   UNL A   1      33.054  26.098  25.140  1.00  0.00     0.038 A 
BRANCH   9  14
ATOM     14  N   UNL A   1      33.842  22.028  25.865  1.00  0.00    -0.283 N 
ATOM     15  H   UNL A   1      34.065  21.955  26.821  1.00  0.00     0.180 HD
BRANCH  14  16
ATOM     16  S   UNL A   1      33.846  20.630  24.944  1.00  0.00     0.232 S 
ATOM     17  O   UNL A   1      35.204  20.195  24.743  1.00  0.00    -0.207 OA
ATOM     18  O   UNL A   1      33.033  20.995  23.796  1.00  0.00    -0.207 OA
BRANCH  16  19
ATOM     19  C   UNL A   1      32.962  19.338  25.816  1.00  0.00     0.156 C 
ATOM     20  C   UNL A   1      32.450  18.216  24.933  1.00  0.00     0.023 C 
ENDBRANCH  16  19
ENDBRANCH  14  16
ENDBRANCH   9  14
BRANCH  13  21
ATOM     21  N   UNL A   1      33.017  27.458  25.377  1.00  0.00    -0.360 N 
ATOM     22  C   UNL A   1      33.752  28.134  26.456  1.00  0.00     0.178 C 
ATOM     23  C   UNL A   1      32.415  28.359  24.375  1.00  0.00     0.178 C 
ATOM     24  C   UNL A   1      32.921  29.305  27.052  1.00  0.00     0.283 C 
ATOM     25  C   UNL A   1      31.599  29.477  25.052  1.00  0.00     0.283 C 
ATOM     26  N   UNL A   1      32.395  30.243  26.029  1.00  0.00    -0.334 N 
ATOM     27  C   UNL A   1      31.573  31.284  26.642  1.00  0.00     0.332 C 
ATOM     28  H   UNL A   1      33.178  30.702  25.563  1.00  0.00     0.347 HD
ENDBRANCH  13  21
ENDBRANCH   5   8
ENDBRANCH   3   4
ENDBRANCH   2   3
ENDBRANCH   1   2
BRANCH   1  29
ATOM     29  C   UNL A   1      39.989  21.686  26.175  1.00  0.00     0.002 C 
BRANCH  29  30
ATOM     30  C   UNL A   1      40.257  22.490  27.444  1.00  0.00     0.021 C 
BRANCH  30  31
ATOM     31  C   UNL A   1      41.608  23.187  27.493  1.00  0.00     0.116 C 
BRANCH  31  32
ATOM     32  N   UNL A   1      41.953  23.849  26.246  1.00  0.00    -0.352 N 
ATOM     33  C   UNL A   1      41.958  25.190  25.949  1.00  0.00     0.251 C 
ATOM     34  H   UNL A   1      42.222  23.254  25.510  1.00  0.00     0.163 HD
ATOM     35  O   UNL A   1      42.171  25.566  24.801  1.00  0.00    -0.269 OA
BRANCH  33  36
ATOM     36  C   UNL A   1      41.669  26.175  27.014  1.00  0.00     0.039 A 
ATOM     37  C   UNL A   1      40.518  26.012  27.786  1.00  0.00     0.014 A 
ATOM     38  C   UNL A   1      42.540  27.239  27.265  1.00  0.00     0.014 A 
ATOM     39  C   UNL A   1      40.274  26.879  28.852  1.00  0.00     0.010 A 
ATOM     40  C   UNL A   1      42.342  28.047  28.380  1.00  0.00     0.010 A 
ATOM     41  C   UNL A   1      41.204  27.879  29.182  1.00  0.00    -0.014 A 
BRANCH  41  42
ATOM     42  C   UNL A   1      41.004  28.754  30.365  1.00  0.00     0.031 A 
ATOM     43  C   UNL A   1      41.847  28.564  31.597  1.00  0.00     0.074 A 
ATOM     44  C   UNL A   1      40.023  29.679  30.349  1.00  0.00     0.049 A 
ATOM     45  N   UNL A   1      41.786  29.190  32.744  1.00  0.00    -0.248 NA
ATOM     46  C   UNL A   1      42.876  27.512  31.544  1.00  0.00     0.031 C 
ATOM     47  C   UNL A   1      39.108  29.920  29.230  1.00  0.00     0.029 A 
ATOM     48  N   UNL A   1      39.627  30.584  31.300  1.00  0.00    -0.354 N 
ATOM     49  C   UNL A   1      42.757  28.605  33.547  1.00  0.00     0.074 A 
ATOM     50  C   UNL A   1      43.351  27.532  32.780  1.00  0.00     0.031 C 
ATOM     51  C   UNL A   1      38.277  30.925  29.549  1.00  0.00     0.029 A 
ATOM     52  C   UNL A   1      38.568  31.371  30.908  1.00  0.00     0.049 A 
ATOM     53  H   UNL A   1      40.058  30.663  32.182  1.00  0.00     0.167 HD
ATOM     54  C   UNL A   1      43.137  28.948  34.802  1.00  0.00     0.037 A 
ATOM     55  C   UNL A   1      37.902  32.336  31.571  1.00  0.00     0.037 A 
ATOM     56  C   UNL A   1      42.550  30.030  35.550  1.00  0.00     0.049 A 
ATOM     57  C   UNL A   1      38.333  32.690  32.969  1.00  0.00     0.074 A 
ATOM     58  C   UNL A   1      42.898  30.495  36.805  1.00  0.00     0.029 A 
ATOM     59  N   UNL A   1      41.487  30.811  35.114  1.00  0.00    -0.354 N 
ATOM     60  N   UNL A   1      39.300  32.172  33.690  1.00  0.00    -0.248 NA
ATOM     61  C   UNL A   1      37.589  33.761  33.644  1.00  0.00     0.031 C 
ATOM     62  C   UNL A   1      42.011  31.519  37.154  1.00  0.00     0.029 A 
ATOM     63  C   UNL A   1      41.151  31.736  36.089  1.00  0.00     0.049 A 
ATOM     64  H   UNL A   1      41.041  30.721  34.242  1.00  0.00     0.167 HD
ATOM     65  C   UNL A   1      39.299  32.874  34.890  1.00  0.00     0.074 A 
ATOM     66  C   UNL A   1      38.244  33.863  34.792  1.00  0.00     0.031 C 
ATOM     67  C   UNL A   1      40.098  32.717  35.974  1.00  0.00     0.037 A 
BRANCH  54  68
ATOM     68  C   UNL A   1      44.237  28.145  35.444  1.00  0.00     0.058 A 
ATOM     69  C   UNL A   1      45.589  28.499  35.307  1.00  0.00     0.135 A 
ATOM     70  C   UNL A   1      43.933  27.029  36.242  1.00  0.00     0.135 A 
ATOM     71  F   UNL A   1      45.940  29.547  34.546  1.00  0.00    -0.206 F 
ATOM     72  C   UNL A   1      46.601  27.758  35.908  1.00  0.00     0.059 A 
ATOM     73  C   UNL A   1      44.927  26.293  36.880  1.00  0.00     0.059 A 
ATOM     74  F   UNL A   1      42.658  26.643  36.409  1.00  0.00    -0.206 F 
ATOM     75  C   UNL A   1      46.260  26.657  36.695  1.00  0.00     0.060 A 
BRANCH  75  76
ATOM     76  S   UNL A   1      47.587  25.713  37.476  1.00  0.00     0.124 S 
ATOM     77  O   UNL A   1      48.191  26.721  38.341  1.00  0.00    -0.237 OA
ATOM     78  O   UNL A   1      46.854  24.651  38.156  1.00  0.00    -0.237 OA
ATOM     79  O   UNL A   1      48.406  25.282  36.348  1.00  0.00    -0.744 OA
ENDBRANCH  75  76
ENDBRANCH  54  68
BRANCH  55  80
ATOM     80  C   UNL A   1      36.770  33.044  30.915  1.00  0.00     0.058 A 
ATOM     81  C   UNL A   1      36.998  34.028  29.942  1.00  0.00     0.135 A 
ATOM     82  C   UNL A   1      35.437  32.743  31.236  1.00  0.00     0.135 A 
ATOM     83  F   UNL A   1      38.254  34.358  29.604  1.00  0.00    -0.206 F 
ATOM     84  C   UNL A   1      35.949  34.703  29.325  1.00  0.00     0.059 A 
ATOM     85  C   UNL A   1      34.370  33.382  30.612  1.00  0.00     0.059 A 
ATOM     86  F   UNL A   1      35.161  31.798  32.149  1.00  0.00    -0.206 F 
ATOM     87  C   UNL A   1      34.637  34.369  29.665  1.00  0.00     0.060 A 
BRANCH  87  88
ATOM     88  S   UNL A   1      33.282  35.220  28.828  1.00  0.00     0.124 S 
ATOM     89  O   UNL A   1      33.989  36.298  28.145  1.00  0.00    -0.237 OA
ATOM     90  O   UNL A   1      32.742  34.168  27.972  1.00  0.00    -0.237 OA
ATOM     91  O   UNL A   1      32.414  35.632  29.926  1.00  0.00    -0.744 OA
ENDBRANCH  87  88
ENDBRANCH  55  80
BRANCH  67  92
ATOM     92  C   UNL A   1      39.890  33.655  37.132  1.00  0.00     0.058 A 
ATOM     93  C   UNL A   1      40.546  34.894  37.208  1.00  0.00     0.135 A 
ATOM     94  C   UNL A   1      38.980  33.332  38.153  1.00  0.00     0.135 A 
ATOM     95  F   UNL A   1      41.430  35.251  36.264  1.00  0.00    -0.206 F 
ATOM     96  C   UNL A   1      40.327  35.768  38.269  1.00  0.00     0.059 A 
ATOM     97  C   UNL A   1      38.721  34.205  39.204  1.00  0.00     0.059 A 
ATOM     98  F   UNL A   1      38.318  32.165  38.124  1.00  0.00    -0.206 F 
ATOM     99  C   UNL A   1      39.409  35.416  39.260  1.00  0.00     0.060 A 
BRANCH  99 100
ATOM    100  S   UNL A   1      39.110  36.575  40.610  1.00  0.00     0.124 S 
ATOM    101  O   UNL A   1      38.514  37.704  39.904  1.00  0.00    -0.237 OA
ATOM    102  O   UNL A   1      38.207  35.820  41.474  1.00  0.00    -0.237 OA
ATOM    103  O   UNL A   1      40.443  36.811  41.159  1.00  0.00    -0.744 OA
ENDBRANCH  99 100
ENDBRANCH  67  92
ENDBRANCH  41  42
ENDBRANCH  33  36
ENDBRANCH  31  32
ENDBRANCH  30  31
ENDBRANCH  29  30
ENDBRANCH   1  29
TORSDOF 20
ENDMDL
