MODEL 1
REMARK VINA RESULT:     -10.7      0.000      0.000
REMARK SMILES CNC(=O)NC(=O)CCSc1csc(C(=O)NCCCCCCNC(=O)c2ccc(-c3c4nc(c(-c5c(F)cc(S(=O)(=O)[O-])cc5F)c5ccc([nH]5)c(-c5c(F)cc(S(=O)(=O)[O-])cc5F)c5nc(c(-c6c(F)cc(S(=O)(=O)[O-])cc6F)c6ccc3[nH]6)C=C5)C=C4)cc2)c1
REMARK SMILES IDX 20 1 19 2 18 3 17 4 15 5 16 6 14 8 11 9 12 10 93 11 13 12
REMARK SMILES IDX 10 13 9 14 8 15 6 16 1 17 2 18 3 19 4 21 5 22 7 24 21 25
REMARK SMILES IDX 22 26 23 27 24 28 25 29 26 31 27 32 28 33 92 34 29 35 91 36
REMARK SMILES IDX 30 37 31 38 32 39 85 40 33 41 90 42 84 43 86 44 34 45 89 46
REMARK SMILES IDX 83 47 82 48 35 50 69 51 48 52 68 53 49 54 52 55 67 56 87 57
REMARK SMILES IDX 50 58 51 59 66 61 88 62 53 63 36 64 37 65 46 66 38 67 39 68
REMARK SMILES IDX 45 69 47 70 40 71 41 72 42 73 43 74 44 75 70 76 71 77 80 78
REMARK SMILES IDX 72 79 73 80 79 81 81 82 74 83 75 84 76 85 77 86 78 87 54 88
REMARK SMILES IDX 55 89 64 90 56 91 57 92 63 93 65 94 58 95 59 96 60 97 61 98
REMARK SMILES IDX 62 99
REMARK H PARENT 17 7 2 20 5 23 24 30 86 49 52 60
REMARK Flexibility Score: inf
ROOT
ATOM      1  C   UNL A   1      40.164  21.314  26.504  1.00  0.00     0.002 C 
ENDROOT
BRANCH   1   2
ATOM      2  C   UNL A   1      39.462  22.669  26.377  1.00  0.00     0.021 C 
BRANCH   2   3
ATOM      3  C   UNL A   1      37.968  22.534  26.079  1.00  0.00     0.116 C 
BRANCH   3   4
ATOM      4  N   UNL A   1      37.721  22.547  24.646  1.00  0.00    -0.351 N 
ATOM      5  C   UNL A   1      36.590  22.912  23.939  1.00  0.00     0.261 C 
ATOM      6  O   UNL A   1      36.674  22.947  22.719  1.00  0.00    -0.268 OA
ATOM      7  H   UNL A   1      38.478  22.249  24.092  1.00  0.00     0.163 HD
BRANCH   5   8
ATOM      8  C   UNL A   1      35.405  23.280  24.694  1.00  0.00     0.093 A 
ATOM      9  C   UNL A   1      33.744  24.609  25.612  1.00  0.00     0.019 A 
ATOM     10  C   UNL A   1      33.076  23.415  25.463  1.00  0.00     0.080 A 
ATOM     11  C   UNL A   1      35.128  24.457  25.357  1.00  0.00     0.040 A 
ATOM     12  S   UNL A   1      34.096  22.187  24.836  1.00  0.00    -0.137 S 
BRANCH   9  13
ATOM     13  S   UNL A   1      32.944  26.123  26.001  1.00  0.00    -0.125 SA
BRANCH  13  14
ATOM     14  C   UNL A   1      31.312  25.999  25.217  1.00  0.00     0.085 C 
BRANCH  14  15
ATOM     15  C   UNL A   1      30.765  27.234  24.511  1.00  0.00     0.112 C 
BRANCH  15  16
ATOM     16  C   UNL A   1      31.244  27.513  23.113  1.00  0.00     0.228 C 
ATOM     17  C   UNL A   1      32.389  29.816  25.609  1.00  0.00     0.144 C 
ATOM     18  N   UNL A   1      33.386  29.440  24.641  1.00  0.00    -0.341 N 
ATOM     19  C   UNL A   1      33.313  28.979  23.385  1.00  0.00     0.321 C 
ATOM     20  H   UNL A   1      34.309  29.544  24.968  1.00  0.00     0.165 HD
ATOM     21  O   UNL A   1      34.340  29.012  22.702  1.00  0.00    -0.248 OA
ATOM     22  N   UNL A   1      32.172  28.491  22.819  1.00  0.00    -0.278 N 
ATOM     23  H   UNL A   1      31.954  28.960  21.980  1.00  0.00     0.174 HD
ATOM     24  O   UNL A   1      30.798  26.838  22.177  1.00  0.00    -0.275 OA
ENDBRANCH  15  16
ENDBRANCH  14  15
ENDBRANCH  13  14
ENDBRANCH   9  13
ENDBRANCH   5   8
ENDBRANCH   3   4
ENDBRANCH   2   3
ENDBRANCH   1   2
BRANCH   1  25
ATOM     25  C   UNL A   1      41.675  21.408  26.748  1.00  0.00     0.002 C 
BRANCH  25  26
ATOM     26  C   UNL A   1      42.077  22.247  27.964  1.00  0.00     0.021 C 
BRANCH  26  27
ATOM     27  C   UNL A   1      43.153  23.286  27.669  1.00  0.00     0.116 C 
BRANCH  27  28
ATOM     28  N   UNL A   1      42.919  23.937  26.391  1.00  0.00    -0.352 N 
ATOM     29  C   UNL A   1      42.250  25.103  26.123  1.00  0.00     0.251 C 
ATOM     30  H   UNL A   1      43.294  23.476  25.606  1.00  0.00     0.163 HD
ATOM     31  O   UNL A   1      41.908  25.362  24.973  1.00  0.00    -0.269 OA
BRANCH  29  32
ATOM     32  C   UNL A   1      41.949  26.043  27.222  1.00  0.00     0.039 A 
ATOM     33  C   UNL A   1      42.771  27.157  27.407  1.00  0.00     0.014 A 
ATOM     34  C   UNL A   1      40.885  25.797  28.094  1.00  0.00     0.014 A 
ATOM     35  C   UNL A   1      42.513  28.036  28.459  1.00  0.00     0.010 A 
ATOM     36  C   UNL A   1      40.582  26.715  29.093  1.00  0.00     0.010 A 
ATOM     37  C   UNL A   1      41.410  27.827  29.304  1.00  0.00    -0.014 A 
BRANCH  37  38
ATOM     38  C   UNL A   1      41.142  28.726  30.452  1.00  0.00     0.031 A 
ATOM     39  C   UNL A   1      41.963  28.597  31.708  1.00  0.00     0.074 A 
ATOM     40  C   UNL A   1      40.136  29.618  30.384  1.00  0.00     0.049 A 
ATOM     41  N   UNL A   1      41.854  29.246  32.837  1.00  0.00    -0.248 NA
ATOM     42  C   UNL A   1      43.025  27.577  31.704  1.00  0.00     0.031 C 
ATOM     43  C   UNL A   1      39.241  29.798  29.239  1.00  0.00     0.029 A 
ATOM     44  N   UNL A   1      39.692  30.535  31.301  1.00  0.00    -0.354 N 
ATOM     45  C   UNL A   1      42.817  28.703  33.681  1.00  0.00     0.074 A 
ATOM     46  C   UNL A   1      43.458  27.630  32.955  1.00  0.00     0.031 C 
ATOM     47  C   UNL A   1      38.370  30.783  29.513  1.00  0.00     0.029 A 
ATOM     48  C   UNL A   1      38.625  31.282  30.861  1.00  0.00     0.049 A 
ATOM     49  H   UNL A   1      40.099  30.650  32.190  1.00  0.00     0.167 HD
ATOM     50  C   UNL A   1      43.155  29.081  34.937  1.00  0.00     0.037 A 
ATOM     51  C   UNL A   1      37.932  32.259  31.478  1.00  0.00     0.037 A 
ATOM     52  C   UNL A   1      42.533  30.174  35.638  1.00  0.00     0.049 A 
ATOM     53  C   UNL A   1      38.346  32.687  32.859  1.00  0.00     0.074 A 
ATOM     54  C   UNL A   1      42.834  30.677  36.891  1.00  0.00     0.029 A 
ATOM     55  N   UNL A   1      41.484  30.936  35.142  1.00  0.00    -0.354 N 
ATOM     56  N   UNL A   1      39.295  32.200  33.623  1.00  0.00    -0.248 NA
ATOM     57  C   UNL A   1      37.607  33.807  33.455  1.00  0.00     0.031 C 
ATOM     58  C   UNL A   1      41.941  31.719  37.168  1.00  0.00     0.029 A 
ATOM     59  C   UNL A   1      41.119  31.898  36.068  1.00  0.00     0.049 A 
ATOM     60  H   UNL A   1      41.062  30.811  34.261  1.00  0.00     0.167 HD
ATOM     61  C   UNL A   1      39.292  32.978  34.776  1.00  0.00     0.074 A 
ATOM     62  C   UNL A   1      38.249  33.969  34.604  1.00  0.00     0.031 C 
ATOM     63  C   UNL A   1      40.084  32.885  35.873  1.00  0.00     0.037 A 
BRANCH  50  64
ATOM     64  C   UNL A   1      44.246  28.305  35.626  1.00  0.00     0.058 A 
ATOM     65  C   UNL A   1      45.595  28.683  35.534  1.00  0.00     0.135 A 
ATOM     66  C   UNL A   1      43.938  27.170  36.392  1.00  0.00     0.135 A 
ATOM     67  F   UNL A   1      45.950  29.751  34.802  1.00  0.00    -0.206 F 
ATOM     68  C   UNL A   1      46.604  27.939  36.138  1.00  0.00     0.059 A 
ATOM     69  C   UNL A   1      44.928  26.428  37.033  1.00  0.00     0.059 A 
ATOM     70  F   UNL A   1      42.665  26.762  36.517  1.00  0.00    -0.206 F 
ATOM     71  C   UNL A   1      46.259  26.810  36.882  1.00  0.00     0.060 A 
BRANCH  71  72
ATOM     72  S   UNL A   1      47.579  25.845  37.647  1.00  0.00     0.124 S 
ATOM     73  O   UNL A   1      48.679  26.065  36.711  1.00  0.00    -0.237 OA
ATOM     74  O   UNL A   1      47.721  26.485  38.951  1.00  0.00    -0.237 OA
ATOM     75  O   UNL A   1      47.039  24.490  37.671  1.00  0.00    -0.744 OA
ENDBRANCH  71  72
ENDBRANCH  50  64
BRANCH  51  76
ATOM     76  C   UNL A   1      36.808  32.926  30.768  1.00  0.00     0.058 A 
ATOM     77  C   UNL A   1      35.477  32.682  31.137  1.00  0.00     0.135 A 
ATOM     78  C   UNL A   1      37.043  33.842  29.732  1.00  0.00     0.135 A 
ATOM     79  F   UNL A   1      35.203  31.811  32.120  1.00  0.00    -0.206 F 
ATOM     80  C   UNL A   1      34.416  33.313  30.496  1.00  0.00     0.059 A 
ATOM     81  C   UNL A   1      35.999  34.505  29.093  1.00  0.00     0.059 A 
ATOM     82  F   UNL A   1      38.299  34.125  29.356  1.00  0.00    -0.206 F 
ATOM     83  C   UNL A   1      34.688  34.227  29.478  1.00  0.00     0.060 A 
BRANCH  83  84
ATOM     84  S   UNL A   1      33.306  35.087  28.693  1.00  0.00     0.124 S 
ATOM     85  O   UNL A   1      33.998  36.112  27.922  1.00  0.00    -0.237 OA
ATOM     86  O   UNL A   1      32.681  34.018  27.922  1.00  0.00    -0.237 OA
ATOM     87  O   UNL A   1      32.525  35.569  29.829  1.00  0.00    -0.744 OA
ENDBRANCH  83  84
ENDBRANCH  51  76
BRANCH  63  88
ATOM     88  C   UNL A   1      39.890  33.913  36.953  1.00  0.00     0.058 A 
ATOM     89  C   UNL A   1      40.468  35.190  36.876  1.00  0.00     0.135 A 
ATOM     90  C   UNL A   1      39.080  33.625  38.063  1.00  0.00     0.135 A 
ATOM     91  F   UNL A   1      41.254  35.516  35.838  1.00  0.00    -0.206 F 
ATOM     92  C   UNL A   1      40.277  36.134  37.880  1.00  0.00     0.059 A 
ATOM     93  C   UNL A   1      38.851  34.563  39.063  1.00  0.00     0.059 A 
ATOM     94  F   UNL A   1      38.493  32.423  38.178  1.00  0.00    -0.206 F 
ATOM     95  C   UNL A   1      39.468  35.810  38.971  1.00  0.00     0.060 A 
BRANCH  95  96
ATOM     96  S   UNL A   1      39.214  37.048  40.260  1.00  0.00     0.124 S 
ATOM     97  O   UNL A   1      38.586  38.129  39.507  1.00  0.00    -0.237 OA
ATOM     98  O   UNL A   1      38.349  36.347  41.203  1.00  0.00    -0.237 OA
ATOM     99  O   UNL A   1      40.565  37.320  40.740  1.00  0.00    -0.744 OA
ENDBRANCH  95  96
ENDBRANCH  63  88
ENDBRANCH  37  38
ENDBRANCH  29  32
ENDBRANCH  27  28
ENDBRANCH  26  27
ENDBRANCH  25  26
ENDBRANCH   1  25
TORSDOF 20
ENDMDL
MODEL 2
REMARK VINA RESULT:     -10.7      1.423      2.167
REMARK SMILES CNC(=O)NC(=O)CCSc1csc(C(=O)NCCCCCCNC(=O)c2ccc(-c3c4nc(c(-c5c(F)cc(S(=O)(=O)[O-])cc5F)c5ccc([nH]5)c(-c5c(F)cc(S(=O)(=O)[O-])cc5F)c5nc(c(-c6c(F)cc(S(=O)(=O)[O-])cc6F)c6ccc3[nH]6)C=C5)C=C4)cc2)c1
REMARK SMILES IDX 20 1 19 2 18 3 17 4 15 5 16 6 14 8 11 9 12 10 93 11 13 12
REMARK SMILES IDX 10 13 9 14 8 15 6 16 1 17 2 18 3 19 4 21 5 22 7 24 21 25
REMARK SMILES IDX 22 26 23 27 24 28 25 29 26 31 27 32 28 33 92 34 29 35 91 36
REMARK SMILES IDX 30 37 31 38 32 39 85 40 33 41 90 42 84 43 86 44 34 45 89 46
REMARK SMILES IDX 83 47 82 48 35 50 69 51 48 52 68 53 49 54 52 55 67 56 87 57
REMARK SMILES IDX 50 58 51 59 66 61 88 62 53 63 36 64 37 65 46 66 38 67 39 68
REMARK SMILES IDX 45 69 47 70 40 71 41 72 42 73 43 74 44 75 70 76 71 77 80 78
REMARK SMILES IDX 72 79 73 80 79 81 81 82 74 83 75 84 76 85 77 86 78 87 54 88
REMARK SMILES IDX 55 89 64 90 56 91 57 92 63 93 65 94 58 95 59 96 60 97 61 98
REMARK SMILES IDX 62 99
REMARK H PARENT 17 7 2 20 5 23 24 30 86 49 52 60
REMARK Flexibility Score: inf
ROOT
ATOM      1  C   UNL A   1      37.683  21.062  24.793  1.00  0.00     0.002 C 
ENDROOT
BRANCH   1   2
ATOM      2  C   UNL A   1      36.386  20.280  25.016  1.00  0.00     0.021 C 
BRANCH   2   3
ATOM      3  C   UNL A   1      35.138  21.100  24.686  1.00  0.00     0.116 C 
BRANCH   3   4
ATOM      4  N   UNL A   1      33.939  20.282  24.785  1.00  0.00    -0.351 N 
ATOM      5  C   UNL A   1      32.654  20.627  25.164  1.00  0.00     0.261 C 
ATOM      6  O   UNL A   1      31.785  19.773  25.051  1.00  0.00    -0.268 OA
ATOM      7  H   UNL A   1      34.061  19.336  24.545  1.00  0.00     0.163 HD
BRANCH   5   8
ATOM      8  C   UNL A   1      32.419  21.987  25.614  1.00  0.00     0.093 A 
ATOM      9  C   UNL A   1      31.308  23.984  25.995  1.00  0.00     0.019 A 
ATOM     10  C   UNL A   1      32.178  23.958  27.061  1.00  0.00     0.080 A 
ATOM     11  C   UNL A   1      31.600  22.953  25.070  1.00  0.00     0.040 A 
ATOM     12  S   UNL A   1      33.199  22.580  27.017  1.00  0.00    -0.137 S 
BRANCH   9  13
ATOM     13  S   UNL A   1      29.976  25.120  25.862  1.00  0.00    -0.125 SA
BRANCH  13  14
ATOM     14  C   UNL A   1      30.055  25.728  24.154  1.00  0.00     0.085 C 
BRANCH  14  15
ATOM     15  C   UNL A   1      30.847  27.004  23.888  1.00  0.00     0.112 C 
BRANCH  15  16
ATOM     16  C   UNL A   1      31.060  27.410  22.456  1.00  0.00     0.228 C 
ATOM     17  C   UNL A   1      33.831  25.744  24.001  1.00  0.00     0.144 C 
ATOM     18  N   UNL A   1      33.574  25.341  22.643  1.00  0.00    -0.341 N 
ATOM     19  C   UNL A   1      32.967  25.942  21.610  1.00  0.00     0.321 C 
ATOM     20  H   UNL A   1      33.916  24.443  22.429  1.00  0.00     0.165 HD
ATOM     21  O   UNL A   1      33.145  25.467  20.485  1.00  0.00    -0.248 OA
ATOM     22  N   UNL A   1      32.178  27.048  21.731  1.00  0.00    -0.278 N 
ATOM     23  H   UNL A   1      32.487  27.779  21.148  1.00  0.00     0.174 HD
ATOM     24  O   UNL A   1      30.200  28.096  21.889  1.00  0.00    -0.275 OA
ENDBRANCH  15  16
ENDBRANCH  14  15
ENDBRANCH  13  14
ENDBRANCH   9  13
ENDBRANCH   5   8
ENDBRANCH   3   4
ENDBRANCH   2   3
ENDBRANCH   1   2
BRANCH   1  25
ATOM     25  C   UNL A   1      37.889  22.231  25.764  1.00  0.00     0.002 C 
BRANCH  25  26
ATOM     26  C   UNL A   1      39.261  22.267  26.443  1.00  0.00     0.021 C 
BRANCH  26  27
ATOM     27  C   UNL A   1      39.710  23.664  26.856  1.00  0.00     0.116 C 
BRANCH  27  28
ATOM     28  N   UNL A   1      40.813  24.127  26.032  1.00  0.00    -0.352 N 
ATOM     29  C   UNL A   1      41.467  25.332  26.058  1.00  0.00     0.251 C 
ATOM     30  H   UNL A   1      41.139  23.485  25.360  1.00  0.00     0.163 HD
ATOM     31  O   UNL A   1      42.183  25.659  25.117  1.00  0.00    -0.269 OA
BRANCH  29  32
ATOM     32  C   UNL A   1      41.306  26.226  27.222  1.00  0.00     0.039 A 
ATOM     33  C   UNL A   1      40.343  25.921  28.186  1.00  0.00     0.014 A 
ATOM     34  C   UNL A   1      42.076  27.388  27.335  1.00  0.00     0.014 A 
ATOM     35  C   UNL A   1      40.165  26.773  29.276  1.00  0.00     0.010 A 
ATOM     36  C   UNL A   1      41.952  28.194  28.461  1.00  0.00     0.010 A 
ATOM     37  C   UNL A   1      40.975  27.912  29.426  1.00  0.00    -0.014 A 
BRANCH  37  38
ATOM     38  C   UNL A   1      40.773  28.852  30.555  1.00  0.00     0.031 A 
ATOM     39  C   UNL A   1      41.628  28.730  31.788  1.00  0.00     0.074 A 
ATOM     40  C   UNL A   1      39.796  29.775  30.491  1.00  0.00     0.049 A 
ATOM     41  N   UNL A   1      41.577  29.415  32.901  1.00  0.00    -0.248 NA
ATOM     42  C   UNL A   1      42.655  27.675  31.783  1.00  0.00     0.031 C 
ATOM     43  C   UNL A   1      38.873  29.953  29.368  1.00  0.00     0.029 A 
ATOM     44  N   UNL A   1      39.412  30.733  31.393  1.00  0.00    -0.354 N 
ATOM     45  C   UNL A   1      42.547  28.863  33.731  1.00  0.00     0.074 A 
ATOM     46  C   UNL A   1      43.128  27.749  33.017  1.00  0.00     0.031 C 
ATOM     47  C   UNL A   1      38.044  30.975  29.639  1.00  0.00     0.029 A 
ATOM     48  C   UNL A   1      38.357  31.503  30.964  1.00  0.00     0.049 A 
ATOM     49  H   UNL A   1      39.850  30.859  32.266  1.00  0.00     0.167 HD
ATOM     50  C   UNL A   1      42.936  29.265  34.964  1.00  0.00     0.037 A 
ATOM     51  C   UNL A   1      37.717  32.521  31.572  1.00  0.00     0.037 A 
ATOM     52  C   UNL A   1      42.373  30.398  35.651  1.00  0.00     0.049 A 
ATOM     53  C   UNL A   1      38.188  32.973  32.927  1.00  0.00     0.074 A 
ATOM     54  C   UNL A   1      42.729  30.926  36.880  1.00  0.00     0.029 A 
ATOM     55  N   UNL A   1      41.335  31.181  35.165  1.00  0.00    -0.354 N 
ATOM     56  N   UNL A   1      39.144  32.476  33.676  1.00  0.00    -0.248 NA
ATOM     57  C   UNL A   1      37.506  34.135  33.512  1.00  0.00     0.031 C 
ATOM     58  C   UNL A   1      41.881  32.005  37.153  1.00  0.00     0.029 A 
ATOM     59  C   UNL A   1      41.032  32.182  36.072  1.00  0.00     0.049 A 
ATOM     60  H   UNL A   1      40.882  31.046  34.301  1.00  0.00     0.167 HD
ATOM     61  C   UNL A   1      39.203  33.286  34.805  1.00  0.00     0.074 A 
ATOM     62  C   UNL A   1      38.189  34.308  34.636  1.00  0.00     0.031 C 
ATOM     63  C   UNL A   1      40.025  33.197  35.880  1.00  0.00     0.037 A 
BRANCH  50  64
ATOM     64  C   UNL A   1      44.021  28.472  35.643  1.00  0.00     0.058 A 
ATOM     65  C   UNL A   1      43.727  27.404  36.507  1.00  0.00     0.135 A 
ATOM     66  C   UNL A   1      45.373  28.779  35.423  1.00  0.00     0.135 A 
ATOM     67  F   UNL A   1      42.452  27.075  36.767  1.00  0.00    -0.206 F 
ATOM     68  C   UNL A   1      44.732  26.700  37.163  1.00  0.00     0.059 A 
ATOM     69  C   UNL A   1      46.396  28.068  36.044  1.00  0.00     0.059 A 
ATOM     70  F   UNL A   1      45.713  29.789  34.606  1.00  0.00    -0.206 F 
ATOM     71  C   UNL A   1      46.063  27.044  36.928  1.00  0.00     0.060 A 
BRANCH  71  72
ATOM     72  S   UNL A   1      47.356  26.133  37.800  1.00  0.00     0.124 S 
ATOM     73  O   UNL A   1      48.465  27.082  37.746  1.00  0.00    -0.237 OA
ATOM     74  O   UNL A   1      46.762  25.928  39.117  1.00  0.00    -0.237 OA
ATOM     75  O   UNL A   1      47.524  24.927  36.996  1.00  0.00    -0.744 OA
ENDBRANCH  71  72
ENDBRANCH  50  64
BRANCH  51  76
ATOM     76  C   UNL A   1      36.595  33.205  30.877  1.00  0.00     0.058 A 
ATOM     77  C   UNL A   1      35.278  33.089  31.347  1.00  0.00     0.135 A 
ATOM     78  C   UNL A   1      36.819  34.014  29.753  1.00  0.00     0.135 A 
ATOM     79  F   UNL A   1      35.013  32.324  32.418  1.00  0.00    -0.206 F 
ATOM     80  C   UNL A   1      34.221  33.739  30.720  1.00  0.00     0.059 A 
ATOM     81  C   UNL A   1      35.781  34.694  29.124  1.00  0.00     0.059 A 
ATOM     82  F   UNL A   1      38.063  34.174  29.277  1.00  0.00    -0.206 F 
ATOM     83  C   UNL A   1      34.483  34.544  29.611  1.00  0.00     0.060 A 
BRANCH  83  84
ATOM     84  S   UNL A   1      33.112  35.433  28.841  1.00  0.00     0.124 S 
ATOM     85  O   UNL A   1      32.379  35.910  30.007  1.00  0.00    -0.237 OA
ATOM     86  O   UNL A   1      33.808  36.451  28.062  1.00  0.00    -0.237 OA
ATOM     87  O   UNL A   1      32.444  34.400  28.053  1.00  0.00    -0.744 OA
ENDBRANCH  83  84
ENDBRANCH  51  76
BRANCH  63  88
ATOM     88  C   UNL A   1      39.900  34.262  36.934  1.00  0.00     0.058 A 
ATOM     89  C   UNL A   1      40.548  35.501  36.821  1.00  0.00     0.135 A 
ATOM     90  C   UNL A   1      39.084  34.048  38.057  1.00  0.00     0.135 A 
ATOM     91  F   UNL A   1      41.342  35.755  35.768  1.00  0.00    -0.206 F 
ATOM     92  C   UNL A   1      40.420  36.480  37.801  1.00  0.00     0.059 A 
ATOM     93  C   UNL A   1      38.918  35.024  39.035  1.00  0.00     0.059 A 
ATOM     94  F   UNL A   1      38.430  32.885  38.208  1.00  0.00    -0.206 F 
ATOM     95  C   UNL A   1      39.603  36.230  38.906  1.00  0.00     0.060 A 
BRANCH  95  96
ATOM     96  S   UNL A   1      39.431  37.513  40.164  1.00  0.00     0.124 S 
ATOM     97  O   UNL A   1      40.782  38.062  40.208  1.00  0.00    -0.237 OA
ATOM     98  O   UNL A   1      38.412  38.384  39.588  1.00  0.00    -0.237 OA
ATOM     99  O   UNL A   1      39.017  36.772  41.351  1.00  0.00    -0.744 OA
ENDBRANCH  95  96
ENDBRANCH  63  88
ENDBRANCH  37  38
ENDBRANCH  29  32
ENDBRANCH  27  28
ENDBRANCH  26  27
ENDBRANCH  25  26
ENDBRANCH   1  25
TORSDOF 20
ENDMDL
MODEL 3
REMARK VINA RESULT:     -10.5      6.180     12.134
REMARK SMILES CNC(=O)NC(=O)CCSc1csc(C(=O)NCCCCCCNC(=O)c2ccc(-c3c4nc(c(-c5c(F)cc(S(=O)(=O)[O-])cc5F)c5ccc([nH]5)c(-c5c(F)cc(S(=O)(=O)[O-])cc5F)c5nc(c(-c6c(F)cc(S(=O)(=O)[O-])cc6F)c6ccc3[nH]6)C=C5)C=C4)cc2)c1
REMARK SMILES IDX 20 1 19 2 18 3 17 4 15 5 16 6 14 8 11 9 12 10 93 11 13 12
REMARK SMILES IDX 10 13 9 14 8 15 6 16 1 17 2 18 3 19 4 21 5 22 7 24 21 25
REMARK SMILES IDX 22 26 23 27 24 28 25 29 26 31 27 32 28 33 92 34 29 35 91 36
REMARK SMILES IDX 30 37 31 38 32 39 85 40 33 41 90 42 84 43 86 44 34 45 89 46
REMARK SMILES IDX 83 47 82 48 35 50 69 51 48 52 68 53 49 54 52 55 67 56 87 57
REMARK SMILES IDX 50 58 51 59 66 61 88 62 53 63 36 64 37 65 46 66 38 67 39 68
REMARK SMILES IDX 45 69 47 70 40 71 41 72 42 73 43 74 44 75 70 76 71 77 80 78
REMARK SMILES IDX 72 79 73 80 79 81 81 82 74 83 75 84 76 85 77 86 78 87 54 88
REMARK SMILES IDX 55 89 64 90 56 91 57 92 63 93 65 94 58 95 59 96 60 97 61 98
REMARK SMILES IDX 62 99
REMARK H PARENT 17 7 2 20 5 23 24 30 86 49 52 60
REMARK Flexibility Score: inf
ROOT
ATOM      1  C   UNL A   1      32.261  29.342  27.136  1.00  0.00     0.002 C 
ENDROOT
BRANCH   1   2
ATOM      2  C   UNL A   1      31.855  27.899  26.826  1.00  0.00     0.021 C 
BRANCH   2   3
ATOM      3  C   UNL A   1      31.961  27.562  25.338  1.00  0.00     0.116 C 
BRANCH   3   4
ATOM      4  N   UNL A   1      30.652  27.600  24.703  1.00  0.00    -0.351 N 
ATOM      5  C   UNL A   1      29.844  26.567  24.265  1.00  0.00     0.261 C 
ATOM      6  O   UNL A   1      28.724  26.858  23.868  1.00  0.00    -0.268 OA
ATOM      7  H   UNL A   1      30.285  28.503  24.563  1.00  0.00     0.163 HD
BRANCH   5   8
ATOM      8  C   UNL A   1      30.358  25.213  24.361  1.00  0.00     0.093 A 
ATOM      9  C   UNL A   1      31.589  23.319  23.847  1.00  0.00     0.019 A 
ATOM     10  C   UNL A   1      31.464  23.190  25.212  1.00  0.00     0.080 A 
ATOM     11  C   UNL A   1      30.779  24.370  23.355  1.00  0.00     0.040 A 
ATOM     12  S   UNL A   1      30.526  24.458  25.888  1.00  0.00    -0.137 S 
BRANCH   9  13
ATOM     13  S   UNL A   1      32.673  22.334  22.879  1.00  0.00    -0.125 SA
BRANCH  13  14
ATOM     14  C   UNL A   1      34.135  22.090  23.926  1.00  0.00     0.085 C 
BRANCH  14  15
ATOM     15  C   UNL A   1      35.241  23.139  23.862  1.00  0.00     0.112 C 
BRANCH  15  16
ATOM     16  C   UNL A   1      35.395  24.067  25.035  1.00  0.00     0.228 C 
ATOM     17  C   UNL A   1      37.636  21.272  24.995  1.00  0.00     0.144 C 
ATOM     18  N   UNL A   1      38.238  22.513  25.404  1.00  0.00    -0.341 N 
ATOM     19  C   UNL A   1      37.741  23.638  25.937  1.00  0.00     0.321 C 
ATOM     20  H   UNL A   1      39.213  22.541  25.267  1.00  0.00     0.165 HD
ATOM     21  O   UNL A   1      38.538  24.432  26.446  1.00  0.00    -0.248 OA
ATOM     22  N   UNL A   1      36.413  23.947  25.959  1.00  0.00    -0.278 N 
ATOM     23  H   UNL A   1      36.099  24.134  26.873  1.00  0.00     0.174 HD
ATOM     24  O   UNL A   1      34.581  24.987  25.187  1.00  0.00    -0.275 OA
ENDBRANCH  15  16
ENDBRANCH  14  15
ENDBRANCH  13  14
ENDBRANCH   9  13
ENDBRANCH   5   8
ENDBRANCH   3   4
ENDBRANCH   2   3
ENDBRANCH   1   2
BRANCH   1  25
ATOM     25  C   UNL A   1      33.692  29.699  26.714  1.00  0.00     0.002 C 
BRANCH  25  26
ATOM     26  C   UNL A   1      34.412  30.673  27.650  1.00  0.00     0.021 C 
BRANCH  26  27
ATOM     27  C   UNL A   1      35.389  30.002  28.609  1.00  0.00     0.116 C 
BRANCH  27  28
ATOM     28  N   UNL A   1      35.580  30.799  29.808  1.00  0.00    -0.352 N 
ATOM     29  C   UNL A   1      36.681  30.892  30.620  1.00  0.00     0.251 C 
ATOM     30  H   UNL A   1      34.811  31.352  30.077  1.00  0.00     0.163 HD
ATOM     31  O   UNL A   1      36.579  31.392  31.735  1.00  0.00    -0.269 OA
BRANCH  29  32
ATOM     32  C   UNL A   1      37.987  30.392  30.141  1.00  0.00     0.039 A 
ATOM     33  C   UNL A   1      38.938  29.973  31.074  1.00  0.00     0.014 A 
ATOM     34  C   UNL A   1      38.284  30.382  28.775  1.00  0.00     0.014 A 
ATOM     35  C   UNL A   1      40.183  29.525  30.634  1.00  0.00     0.010 A 
ATOM     36  C   UNL A   1      39.495  29.862  28.334  1.00  0.00     0.010 A 
ATOM     37  C   UNL A   1      40.468  29.457  29.260  1.00  0.00    -0.014 A 
BRANCH  37  38
ATOM     38  C   UNL A   1      41.800  29.023  28.774  1.00  0.00     0.031 A 
ATOM     39  C   UNL A   1      42.920  30.025  28.675  1.00  0.00     0.074 A 
ATOM     40  C   UNL A   1      41.985  27.751  28.376  1.00  0.00     0.049 A 
ATOM     41  N   UNL A   1      44.138  29.862  28.227  1.00  0.00    -0.248 NA
ATOM     42  C   UNL A   1      42.621  31.400  29.106  1.00  0.00     0.031 C 
ATOM     43  C   UNL A   1      40.960  26.706  28.378  1.00  0.00     0.029 A 
ATOM     44  N   UNL A   1      43.101  27.122  27.887  1.00  0.00    -0.354 N 
ATOM     45  C   UNL A   1      44.740  31.113  28.304  1.00  0.00     0.074 A 
ATOM     46  C   UNL A   1      43.737  32.036  28.784  1.00  0.00     0.031 C 
ATOM     47  C   UNL A   1      41.501  25.559  27.934  1.00  0.00     0.029 A 
ATOM     48  C   UNL A   1      42.899  25.795  27.589  1.00  0.00     0.049 A 
ATOM     49  H   UNL A   1      43.965  27.576  27.761  1.00  0.00     0.167 HD
ATOM     50  C   UNL A   1      46.021  31.456  28.027  1.00  0.00     0.037 A 
ATOM     51  C   UNL A   1      43.749  24.874  27.094  1.00  0.00     0.037 A 
ATOM     52  C   UNL A   1      47.021  30.520  27.583  1.00  0.00     0.049 A 
ATOM     53  C   UNL A   1      45.176  25.268  26.825  1.00  0.00     0.074 A 
ATOM     54  C   UNL A   1      48.361  30.749  27.325  1.00  0.00     0.029 A 
ATOM     55  N   UNL A   1      46.789  29.175  27.334  1.00  0.00    -0.354 N 
ATOM     56  N   UNL A   1      45.745  26.443  26.956  1.00  0.00    -0.248 NA
ATOM     57  C   UNL A   1      46.079  24.208  26.359  1.00  0.00     0.031 C 
ATOM     58  C   UNL A   1      48.931  29.549  26.884  1.00  0.00     0.029 A 
ATOM     59  C   UNL A   1      47.959  28.562  26.917  1.00  0.00     0.049 A 
ATOM     60  H   UNL A   1      45.922  28.722  27.441  1.00  0.00     0.167 HD
ATOM     61  C   UNL A   1      47.083  26.257  26.622  1.00  0.00     0.074 A 
ATOM     62  C   UNL A   1      47.236  24.854  26.290  1.00  0.00     0.031 C 
ATOM     63  C   UNL A   1      48.093  27.161  26.601  1.00  0.00     0.037 A 
BRANCH  50  64
ATOM     64  C   UNL A   1      46.405  32.901  28.198  1.00  0.00     0.058 A 
ATOM     65  C   UNL A   1      46.282  33.829  27.151  1.00  0.00     0.135 A 
ATOM     66  C   UNL A   1      46.899  33.367  29.427  1.00  0.00     0.135 A 
ATOM     67  F   UNL A   1      45.831  33.437  25.949  1.00  0.00    -0.206 F 
ATOM     68  C   UNL A   1      46.677  35.155  27.301  1.00  0.00     0.059 A 
ATOM     69  C   UNL A   1      47.270  34.697  29.610  1.00  0.00     0.059 A 
ATOM     70  F   UNL A   1      47.036  32.526  30.464  1.00  0.00    -0.206 F 
ATOM     71  C   UNL A   1      47.174  35.577  28.534  1.00  0.00     0.060 A 
BRANCH  71  72
ATOM     72  S   UNL A   1      47.698  37.296  28.710  1.00  0.00     0.124 S 
ATOM     73  O   UNL A   1      47.916  37.386  30.152  1.00  0.00    -0.237 OA
ATOM     74  O   UNL A   1      48.900  37.344  27.884  1.00  0.00    -0.237 OA
ATOM     75  O   UNL A   1      46.559  38.053  28.200  1.00  0.00    -0.744 OA
ENDBRANCH  71  72
ENDBRANCH  50  64
BRANCH  51  76
ATOM     76  C   UNL A   1      43.277  23.483  26.868  1.00  0.00     0.058 A 
ATOM     77  C   UNL A   1      43.076  22.992  25.569  1.00  0.00     0.135 A 
ATOM     78  C   UNL A   1      43.051  22.607  27.941  1.00  0.00     0.135 A 
ATOM     79  F   UNL A   1      43.276  23.792  24.511  1.00  0.00    -0.206 F 
ATOM     80  C   UNL A   1      42.654  21.686  25.341  1.00  0.00     0.059 A 
ATOM     81  C   UNL A   1      42.653  21.290  27.737  1.00  0.00     0.059 A 
ATOM     82  F   UNL A   1      43.250  23.022  29.201  1.00  0.00    -0.206 F 
ATOM     83  C   UNL A   1      42.450  20.841  26.432  1.00  0.00     0.060 A 
BRANCH  83  84
ATOM     84  S   UNL A   1      41.962  19.129  26.123  1.00  0.00     0.124 S 
ATOM     85  O   UNL A   1      42.822  18.776  25.001  1.00  0.00    -0.237 OA
ATOM     86  O   UNL A   1      42.274  18.488  27.397  1.00  0.00    -0.237 OA
ATOM     87  O   UNL A   1      40.538  19.237  25.819  1.00  0.00    -0.744 OA
ENDBRANCH  83  84
ENDBRANCH  51  76
BRANCH  63  88
ATOM     88  C   UNL A   1      49.466  26.653  26.255  1.00  0.00     0.058 A 
ATOM     89  C   UNL A   1      50.018  26.816  24.975  1.00  0.00     0.135 A 
ATOM     90  C   UNL A   1      50.253  26.028  27.235  1.00  0.00     0.135 A 
ATOM     91  F   UNL A   1      49.306  27.404  24.000  1.00  0.00    -0.206 F 
ATOM     92  C   UNL A   1      51.291  26.346  24.670  1.00  0.00     0.059 A 
ATOM     93  C   UNL A   1      51.539  25.577  26.960  1.00  0.00     0.059 A 
ATOM     94  F   UNL A   1      49.777  25.859  28.479  1.00  0.00    -0.206 F 
ATOM     95  C   UNL A   1      52.043  25.725  25.669  1.00  0.00     0.060 A 
BRANCH  95  96
ATOM     96  S   UNL A   1      53.700  25.133  25.266  1.00  0.00     0.124 S 
ATOM     97  O   UNL A   1      53.534  23.689  25.393  1.00  0.00    -0.237 OA
ATOM     98  O   UNL A   1      53.889  25.631  23.907  1.00  0.00    -0.237 OA
ATOM     99  O   UNL A   1      54.542  25.760  26.280  1.00  0.00    -0.744 OA
ENDBRANCH  95  96
ENDBRANCH  63  88
ENDBRANCH  37  38
ENDBRANCH  29  32
ENDBRANCH  27  28
ENDBRANCH  26  27
ENDBRANCH  25  26
ENDBRANCH   1  25
TORSDOF 20
ENDMDL
