MODEL 1
REMARK VINA RESULT:     -11.8      0.000      0.000
REMARK SMILES COc1ccc(C(=O)Nc2cccc(C(=O)NCCCCCCNC(=O)c3ccc(-c4c5nc(c(-c6c(F)cc(S(=O)(=O)[O-])cc6F)c6ccc([nH]6)c(-c6c(F)cc(S(=O)(=O)[O-])cc6F)c6nc(c(-c7c(F)cc(S(=O)(=O)[O-])cc7F)c7ccc4[nH]7)C=C6)C=C5)cc3)c2)cc1
REMARK SMILES IDX 20 1 19 2 18 3 17 4 15 5 16 6 14 8 10 9 11 10 93 11 12 12
REMARK SMILES IDX 13 13 9 14 7 15 8 16 6 18 3 19 4 20 95 21 5 22 94 23 2 24
REMARK SMILES IDX 1 25 21 26 22 27 23 28 24 29 25 30 26 32 27 33 28 34 92 35
REMARK SMILES IDX 29 36 91 37 30 38 31 39 32 40 85 41 33 42 90 43 84 44 86 45
REMARK SMILES IDX 34 46 89 47 83 48 82 49 35 51 69 52 48 53 68 54 49 55 52 56
REMARK SMILES IDX 67 57 87 58 50 59 51 60 66 62 88 63 53 64 36 65 37 66 46 67
REMARK SMILES IDX 38 68 39 69 45 70 47 71 40 72 41 73 42 74 43 75 44 76 70 77
REMARK SMILES IDX 71 78 80 79 72 80 73 81 79 82 81 83 74 84 75 85 76 86 77 87
REMARK SMILES IDX 78 88 54 89 55 90 64 91 56 92 57 93 63 94 65 95 58 96 59 97
REMARK SMILES IDX 60 98 61 99 62 100
REMARK H PARENT 17 7 9 17 24 31 86 50 52 61
REMARK Flexibility Score: inf
ROOT
ATOM      1  C   UNL A   1      31.982  27.632  26.848  1.00  0.00     0.002 C 
ENDROOT
BRANCH   1   2
ATOM      2  C   UNL A   1      31.694  26.221  26.322  1.00  0.00     0.021 C 
BRANCH   2   3
ATOM      3  C   UNL A   1      30.212  25.998  26.020  1.00  0.00     0.116 C 
BRANCH   3   4
ATOM      4  N   UNL A   1      29.742  24.783  26.659  1.00  0.00    -0.352 N 
ATOM      5  C   UNL A   1      30.240  23.509  26.748  1.00  0.00     0.251 C 
ATOM      6  O   UNL A   1      29.563  22.691  27.375  1.00  0.00    -0.269 OA
ATOM      7  H   UNL A   1      28.884  24.898  27.126  1.00  0.00     0.163 HD
BRANCH   5   8
ATOM      8  C   UNL A   1      31.562  23.078  26.205  1.00  0.00     0.041 A 
ATOM      9  C   UNL A   1      33.126  22.554  24.427  1.00  0.00     0.042 A 
ATOM     10  C   UNL A   1      34.170  22.445  25.341  1.00  0.00     0.026 A 
ATOM     11  C   UNL A   1      31.815  22.752  24.874  1.00  0.00     0.040 A 
ATOM     12  C   UNL A   1      33.925  22.695  26.689  1.00  0.00     0.003 A 
ATOM     13  C   UNL A   1      32.637  23.040  27.110  1.00  0.00     0.014 A 
BRANCH   9  14
ATOM     14  N   UNL A   1      33.437  22.548  23.062  1.00  0.00    -0.322 N 
ATOM     15  C   UNL A   1      33.200  23.524  22.109  1.00  0.00     0.255 C 
ATOM     16  O   UNL A   1      33.293  23.225  20.919  1.00  0.00    -0.269 OA
ATOM     17  H   UNL A   1      33.886  21.736  22.733  1.00  0.00     0.170 HD
BRANCH  15  18
ATOM     18  C   UNL A   1      32.950  24.957  22.475  1.00  0.00     0.040 A 
ATOM     19  C   UNL A   1      32.378  27.651  23.124  1.00  0.00     0.118 A 
ATOM     20  C   UNL A   1      31.396  26.827  22.570  1.00  0.00     0.047 A 
ATOM     21  C   UNL A   1      33.659  27.138  23.315  1.00  0.00     0.047 A 
ATOM     22  C   UNL A   1      31.675  25.491  22.249  1.00  0.00     0.017 A 
ATOM     23  C   UNL A   1      33.950  25.815  22.956  1.00  0.00     0.017 A 
BRANCH  19  24
ATOM     24  O   UNL A   1      31.970  28.919  23.429  1.00  0.00    -0.497 OA
ATOM     25  C   UNL A   1      30.619  29.080  23.845  1.00  0.00     0.278 C 
ENDBRANCH  19  24
ENDBRANCH  15  18
ENDBRANCH   9  14
ENDBRANCH   5   8
ENDBRANCH   3   4
ENDBRANCH   2   3
ENDBRANCH   1   2
BRANCH   1  26
ATOM     26  C   UNL A   1      33.458  28.045  26.781  1.00  0.00     0.002 C 
BRANCH  26  27
ATOM     27  C   UNL A   1      33.771  29.430  27.358  1.00  0.00     0.021 C 
BRANCH  27  28
ATOM     28  C   UNL A   1      35.208  29.600  27.841  1.00  0.00     0.116 C 
BRANCH  28  29
ATOM     29  N   UNL A   1      35.276  30.410  29.047  1.00  0.00    -0.352 N 
ATOM     30  C   UNL A   1      36.306  30.556  29.942  1.00  0.00     0.251 C 
ATOM     31  H   UNL A   1      34.465  30.930  29.250  1.00  0.00     0.163 HD
ATOM     32  O   UNL A   1      36.103  31.096  31.025  1.00  0.00    -0.269 OA
BRANCH  30  33
ATOM     33  C   UNL A   1      37.654  30.055  29.601  1.00  0.00     0.039 A 
ATOM     34  C   UNL A   1      38.045  30.021  28.260  1.00  0.00     0.014 A 
ATOM     35  C   UNL A   1      38.520  29.598  30.599  1.00  0.00     0.014 A 
ATOM     36  C   UNL A   1      39.325  29.576  27.923  1.00  0.00     0.010 A 
ATOM     37  C   UNL A   1      39.817  29.213  30.267  1.00  0.00     0.010 A 
ATOM     38  C   UNL A   1      40.231  29.195  28.927  1.00  0.00    -0.014 A 
BRANCH  38  39
ATOM     39  C   UNL A   1      41.617  28.777  28.592  1.00  0.00     0.031 A 
ATOM     40  C   UNL A   1      42.719  29.800  28.519  1.00  0.00     0.074 A 
ATOM     41  C   UNL A   1      41.866  27.488  28.287  1.00  0.00     0.049 A 
ATOM     42  N   UNL A   1      43.969  29.641  28.170  1.00  0.00    -0.248 NA
ATOM     43  C   UNL A   1      42.364  31.190  28.854  1.00  0.00     0.031 C 
ATOM     44  C   UNL A   1      40.866  26.416  28.264  1.00  0.00     0.029 A 
ATOM     45  N   UNL A   1      43.029  26.862  27.916  1.00  0.00    -0.354 N 
ATOM     46  C   UNL A   1      44.543  30.906  28.221  1.00  0.00     0.074 A 
ATOM     47  C   UNL A   1      43.498  31.830  28.600  1.00  0.00     0.031 C 
ATOM     48  C   UNL A   1      41.460  25.267  27.904  1.00  0.00     0.029 A 
ATOM     49  C   UNL A   1      42.872  25.523  27.638  1.00  0.00     0.049 A 
ATOM     50  H   UNL A   1      43.894  27.326  27.853  1.00  0.00     0.167 HD
ATOM     51  C   UNL A   1      45.830  31.260  27.989  1.00  0.00     0.037 A 
ATOM     52  C   UNL A   1      43.762  24.609  27.206  1.00  0.00     0.037 A 
ATOM     53  C   UNL A   1      46.874  30.327  27.658  1.00  0.00     0.049 A 
ATOM     54  C   UNL A   1      45.193  25.025  26.989  1.00  0.00     0.074 A 
ATOM     55  C   UNL A   1      48.226  30.575  27.495  1.00  0.00     0.029 A 
ATOM     56  N   UNL A   1      46.688  28.971  27.437  1.00  0.00    -0.354 N 
ATOM     57  N   UNL A   1      45.736  26.211  27.131  1.00  0.00    -0.248 NA
ATOM     58  C   UNL A   1      46.135  23.980  26.564  1.00  0.00     0.031 C 
ATOM     59  C   UNL A   1      48.850  29.378  27.132  1.00  0.00     0.029 A 
ATOM     60  C   UNL A   1      47.896  28.374  27.117  1.00  0.00     0.049 A 
ATOM     61  H   UNL A   1      45.824  28.502  27.498  1.00  0.00     0.167 HD
ATOM     62  C   UNL A   1      47.085  26.048  26.838  1.00  0.00     0.074 A 
ATOM     63  C   UNL A   1      47.280  24.647  26.528  1.00  0.00     0.031 C 
ATOM     64  C   UNL A   1      48.075  26.975  26.826  1.00  0.00     0.037 A 
BRANCH  51  65
ATOM     65  C   UNL A   1      46.197  32.714  28.095  1.00  0.00     0.058 A 
ATOM     66  C   UNL A   1      46.765  33.248  29.261  1.00  0.00     0.135 A 
ATOM     67  C   UNL A   1      46.063  33.563  26.983  1.00  0.00     0.135 A 
ATOM     68  F   UNL A   1      46.902  32.486  30.358  1.00  0.00    -0.206 F 
ATOM     69  C   UNL A   1      47.182  34.573  29.326  1.00  0.00     0.059 A 
ATOM     70  C   UNL A   1      46.496  34.885  27.017  1.00  0.00     0.059 A 
ATOM     71  F   UNL A   1      45.523  33.103  25.844  1.00  0.00    -0.206 F 
ATOM     72  C   UNL A   1      47.050  35.383  28.195  1.00  0.00     0.060 A 
BRANCH  72  73
ATOM     73  S   UNL A   1      47.645  37.085  28.279  1.00  0.00     0.124 S 
ATOM     74  O   UNL A   1      47.863  37.386  26.867  1.00  0.00    -0.237 OA
ATOM     75  O   UNL A   1      46.524  37.777  28.907  1.00  0.00    -0.237 OA
ATOM     76  O   UNL A   1      48.853  36.985  29.093  1.00  0.00    -0.744 OA
ENDBRANCH  72  73
ENDBRANCH  51  65
BRANCH  52  77
ATOM     77  C   UNL A   1      43.332  23.208  26.946  1.00  0.00     0.058 A 
ATOM     78  C   UNL A   1      43.019  22.338  28.001  1.00  0.00     0.135 A 
ATOM     79  C   UNL A   1      43.246  22.706  25.639  1.00  0.00     0.135 A 
ATOM     80  F   UNL A   1      43.089  22.769  29.270  1.00  0.00    -0.206 F 
ATOM     81  C   UNL A   1      42.670  21.011  27.773  1.00  0.00     0.059 A 
ATOM     82  C   UNL A   1      42.872  21.391  25.383  1.00  0.00     0.059 A 
ATOM     83  F   UNL A   1      43.514  23.503  24.593  1.00  0.00    -0.206 F 
ATOM     84  C   UNL A   1      42.603  20.545  26.458  1.00  0.00     0.060 A 
BRANCH  84  85
ATOM     85  S   UNL A   1      42.136  18.825  26.168  1.00  0.00     0.124 S 
ATOM     86  O   UNL A   1      40.741  18.964  25.766  1.00  0.00    -0.237 OA
ATOM     87  O   UNL A   1      43.067  18.426  25.116  1.00  0.00    -0.237 OA
ATOM     88  O   UNL A   1      42.362  18.193  27.465  1.00  0.00    -0.744 OA
ENDBRANCH  84  85
ENDBRANCH  52  77
BRANCH  64  89
ATOM     89  C   UNL A   1      49.465  26.500  26.506  1.00  0.00     0.058 A 
ATOM     90  C   UNL A   1      50.000  26.604  25.213  1.00  0.00     0.135 A 
ATOM     91  C   UNL A   1      50.290  25.987  27.520  1.00  0.00     0.135 A 
ATOM     92  F   UNL A   1      49.250  27.082  24.207  1.00  0.00    -0.206 F 
ATOM     93  C   UNL A   1      51.298  26.193  24.930  1.00  0.00     0.059 A 
ATOM     94  C   UNL A   1      51.601  25.596  27.266  1.00  0.00     0.059 A 
ATOM     95  F   UNL A   1      49.829  25.879  28.777  1.00  0.00    -0.206 F 
ATOM     96  C   UNL A   1      52.092  25.692  25.965  1.00  0.00     0.060 A 
BRANCH  96  97
ATOM     97  S   UNL A   1      53.786  25.194  25.593  1.00  0.00     0.124 S 
ATOM     98  O   UNL A   1      54.038  25.913  24.349  1.00  0.00    -0.237 OA
ATOM     99  O   UNL A   1      54.518  25.673  26.762  1.00  0.00    -0.237 OA
ATOM    100  O   UNL A   1      53.695  23.742  25.471  1.00  0.00    -0.744 OA
ENDBRANCH  96  97
ENDBRANCH  64  89
ENDBRANCH  38  39
ENDBRANCH  30  33
ENDBRANCH  28  29
ENDBRANCH  27  28
ENDBRANCH  26  27
ENDBRANCH   1  26
TORSDOF 19
ENDMDL
MODEL 2
REMARK VINA RESULT:     -11.7      6.601     11.946
REMARK SMILES COc1ccc(C(=O)Nc2cccc(C(=O)NCCCCCCNC(=O)c3ccc(-c4c5nc(c(-c6c(F)cc(S(=O)(=O)[O-])cc6F)c6ccc([nH]6)c(-c6c(F)cc(S(=O)(=O)[O-])cc6F)c6nc(c(-c7c(F)cc(S(=O)(=O)[O-])cc7F)c7ccc4[nH]7)C=C6)C=C5)cc3)c2)cc1
REMARK SMILES IDX 20 1 19 2 18 3 17 4 15 5 16 6 14 8 10 9 11 10 93 11 12 12
REMARK SMILES IDX 13 13 9 14 7 15 8 16 6 18 3 19 4 20 95 21 5 22 94 23 2 24
REMARK SMILES IDX 1 25 21 26 22 27 23 28 24 29 25 30 26 32 27 33 28 34 92 35
REMARK SMILES IDX 29 36 91 37 30 38 31 39 32 40 85 41 33 42 90 43 84 44 86 45
REMARK SMILES IDX 34 46 89 47 83 48 82 49 35 51 69 52 48 53 68 54 49 55 52 56
REMARK SMILES IDX 67 57 87 58 50 59 51 60 66 62 88 63 53 64 36 65 37 66 46 67
REMARK SMILES IDX 38 68 39 69 45 70 47 71 40 72 41 73 42 74 43 75 44 76 70 77
REMARK SMILES IDX 71 78 80 79 72 80 73 81 79 82 81 83 74 84 75 85 76 86 77 87
REMARK SMILES IDX 78 88 54 89 55 90 64 91 56 92 57 93 63 94 65 95 58 96 59 97
REMARK SMILES IDX 60 98 61 99 62 100
REMARK H PARENT 17 7 9 17 24 31 86 50 52 61
REMARK Flexibility Score: inf
ROOT
ATOM      1  C   UNL A   1      37.184  22.205  24.402  1.00  0.00     0.002 C 
ENDROOT
BRANCH   1   2
ATOM      2  C   UNL A   1      36.521  22.940  23.230  1.00  0.00     0.021 C 
BRANCH   2   3
ATOM      3  C   UNL A   1      35.031  23.188  23.461  1.00  0.00     0.116 C 
BRANCH   3   4
ATOM      4  N   UNL A   1      34.537  24.196  22.542  1.00  0.00    -0.352 N 
ATOM      5  C   UNL A   1      33.746  25.305  22.691  1.00  0.00     0.251 C 
ATOM      6  O   UNL A   1      33.503  25.956  21.672  1.00  0.00    -0.269 OA
ATOM      7  H   UNL A   1      34.833  24.052  21.614  1.00  0.00     0.163 HD
BRANCH   5   8
ATOM      8  C   UNL A   1      33.229  25.805  23.999  1.00  0.00     0.041 A 
ATOM      9  C   UNL A   1      31.823  25.706  25.973  1.00  0.00     0.042 A 
ATOM     10  C   UNL A   1      32.509  26.773  26.547  1.00  0.00     0.026 A 
ATOM     11  C   UNL A   1      32.108  25.309  24.662  1.00  0.00     0.040 A 
ATOM     12  C   UNL A   1      33.587  27.335  25.870  1.00  0.00     0.003 A 
ATOM     13  C   UNL A   1      33.963  26.831  24.621  1.00  0.00     0.014 A 
BRANCH   9  14
ATOM     14  N   UNL A   1      30.914  24.998  26.767  1.00  0.00    -0.322 N 
ATOM     15  C   UNL A   1      30.703  23.631  26.845  1.00  0.00     0.255 C 
ATOM     16  O   UNL A   1      29.679  23.220  27.390  1.00  0.00    -0.269 OA
ATOM     17  H   UNL A   1      30.344  25.548  27.353  1.00  0.00     0.170 HD
BRANCH  15  18
ATOM     18  C   UNL A   1      31.731  22.636  26.396  1.00  0.00     0.040 A 
ATOM     19  C   UNL A   1      33.603  20.729  25.467  1.00  0.00     0.118 A 
ATOM     20  C   UNL A   1      32.418  20.964  24.766  1.00  0.00     0.047 A 
ATOM     21  C   UNL A   1      33.832  21.418  26.655  1.00  0.00     0.047 A 
ATOM     22  C   UNL A   1      31.489  21.910  25.223  1.00  0.00     0.017 A 
ATOM     23  C   UNL A   1      32.885  22.334  27.133  1.00  0.00     0.017 A 
BRANCH  19  24
ATOM     24  O   UNL A   1      34.443  19.813  24.898  1.00  0.00    -0.497 OA
ATOM     25  C   UNL A   1      33.946  18.489  24.745  1.00  0.00     0.278 C 
ENDBRANCH  19  24
ENDBRANCH  15  18
ENDBRANCH   9  14
ENDBRANCH   5   8
ENDBRANCH   3   4
ENDBRANCH   2   3
ENDBRANCH   1   2
BRANCH   1  26
ATOM     26  C   UNL A   1      36.953  22.857  25.771  1.00  0.00     0.002 C 
BRANCH  26  27
ATOM     27  C   UNL A   1      37.847  24.063  26.076  1.00  0.00     0.021 C 
BRANCH  27  28
ATOM     28  C   UNL A   1      39.032  23.754  26.986  1.00  0.00     0.116 C 
BRANCH  28  29
ATOM     29  N   UNL A   1      40.299  23.927  26.293  1.00  0.00    -0.352 N 
ATOM     30  C   UNL A   1      41.232  24.926  26.420  1.00  0.00     0.251 C 
ATOM     31  H   UNL A   1      40.520  23.226  25.638  1.00  0.00     0.163 HD
ATOM     32  O   UNL A   1      42.127  25.036  25.588  1.00  0.00    -0.269 OA
BRANCH  30  33
ATOM     33  C   UNL A   1      41.150  25.870  27.555  1.00  0.00     0.039 A 
ATOM     34  C   UNL A   1      42.104  26.886  27.659  1.00  0.00     0.014 A 
ATOM     35  C   UNL A   1      40.151  25.740  28.524  1.00  0.00     0.014 A 
ATOM     36  C   UNL A   1      42.025  27.803  28.710  1.00  0.00     0.010 A 
ATOM     37  C   UNL A   1      40.038  26.692  29.534  1.00  0.00     0.010 A 
ATOM     38  C   UNL A   1      40.975  27.730  29.640  1.00  0.00    -0.014 A 
BRANCH  38  39
ATOM     39  C   UNL A   1      40.841  28.733  30.728  1.00  0.00     0.031 A 
ATOM     40  C   UNL A   1      41.680  28.618  31.972  1.00  0.00     0.074 A 
ATOM     41  C   UNL A   1      39.913  29.705  30.622  1.00  0.00     0.049 A 
ATOM     42  N   UNL A   1      41.651  29.349  33.056  1.00  0.00    -0.248 NA
ATOM     43  C   UNL A   1      42.662  27.521  32.016  1.00  0.00     0.031 C 
ATOM     44  C   UNL A   1      38.998  29.881  29.490  1.00  0.00     0.029 A 
ATOM     45  N   UNL A   1      39.568  30.714  31.485  1.00  0.00    -0.354 N 
ATOM     46  C   UNL A   1      42.589  28.791  33.917  1.00  0.00     0.074 A 
ATOM     47  C   UNL A   1      43.146  27.638  33.246  1.00  0.00     0.031 C 
ATOM     48  C   UNL A   1      38.203  30.937  29.726  1.00  0.00     0.029 A 
ATOM     49  C   UNL A   1      38.525  31.493  31.037  1.00  0.00     0.049 A 
ATOM     50  H   UNL A   1      40.023  30.868  32.343  1.00  0.00     0.167 HD
ATOM     51  C   UNL A   1      42.961  29.213  35.149  1.00  0.00     0.037 A 
ATOM     52  C   UNL A   1      37.891  32.527  31.622  1.00  0.00     0.037 A 
ATOM     53  C   UNL A   1      42.434  30.388  35.791  1.00  0.00     0.049 A 
ATOM     54  C   UNL A   1      38.350  32.995  32.978  1.00  0.00     0.074 A 
ATOM     55  C   UNL A   1      42.814  30.950  36.997  1.00  0.00     0.029 A 
ATOM     56  N   UNL A   1      41.415  31.182  35.284  1.00  0.00    -0.354 N 
ATOM     57  N   UNL A   1      39.302  32.508  33.739  1.00  0.00    -0.248 NA
ATOM     58  C   UNL A   1      37.658  34.158  33.552  1.00  0.00     0.031 C 
ATOM     59  C   UNL A   1      41.996  32.058  37.241  1.00  0.00     0.029 A 
ATOM     60  C   UNL A   1      41.139  32.215  36.164  1.00  0.00     0.049 A 
ATOM     61  H   UNL A   1      40.957  31.032  34.426  1.00  0.00     0.167 HD
ATOM     62  C   UNL A   1      39.339  33.320  34.867  1.00  0.00     0.074 A 
ATOM     63  C   UNL A   1      38.327  34.339  34.682  1.00  0.00     0.031 C 
ATOM     64  C   UNL A   1      40.139  33.230  35.957  1.00  0.00     0.037 A 
BRANCH  51  65
ATOM     65  C   UNL A   1      43.997  28.414  35.891  1.00  0.00     0.058 A 
ATOM     66  C   UNL A   1      45.367  28.686  35.763  1.00  0.00     0.135 A 
ATOM     67  C   UNL A   1      43.607  27.427  36.811  1.00  0.00     0.135 A 
ATOM     68  F   UNL A   1      45.795  29.609  34.887  1.00  0.00    -0.206 F 
ATOM     69  C   UNL A   1      46.317  28.003  36.516  1.00  0.00     0.059 A 
ATOM     70  C   UNL A   1      44.538  26.749  37.592  1.00  0.00     0.059 A 
ATOM     71  F   UNL A   1      42.308  27.126  36.970  1.00  0.00    -0.206 F 
ATOM     72  C   UNL A   1      45.892  27.040  37.434  1.00  0.00     0.060 A 
BRANCH  72  73
ATOM     73  S   UNL A   1      47.133  26.201  38.440  1.00  0.00     0.124 S 
ATOM     74  O   UNL A   1      46.869  24.801  38.119  1.00  0.00    -0.237 OA
ATOM     75  O   UNL A   1      48.381  26.746  37.915  1.00  0.00    -0.237 OA
ATOM     76  O   UNL A   1      46.799  26.605  39.802  1.00  0.00    -0.744 OA
ENDBRANCH  72  73
ENDBRANCH  51  65
BRANCH  52  77
ATOM     77  C   UNL A   1      36.753  33.194  30.935  1.00  0.00     0.058 A 
ATOM     78  C   UNL A   1      35.427  32.955  31.328  1.00  0.00     0.135 A 
ATOM     79  C   UNL A   1      36.966  34.067  29.856  1.00  0.00     0.135 A 
ATOM     80  F   UNL A   1      35.170  32.127  32.351  1.00  0.00    -0.206 F 
ATOM     81  C   UNL A   1      34.352  33.530  30.656  1.00  0.00     0.059 A 
ATOM     82  C   UNL A   1      35.910  34.675  29.187  1.00  0.00     0.059 A 
ATOM     83  F   UNL A   1      38.216  34.345  29.454  1.00  0.00    -0.206 F 
ATOM     84  C   UNL A   1      34.605  34.386  29.583  1.00  0.00     0.060 A 
BRANCH  84  85
ATOM     85  S   UNL A   1      33.206  35.138  28.723  1.00  0.00     0.124 S 
ATOM     86  O   UNL A   1      32.380  35.581  29.841  1.00  0.00    -0.237 OA
ATOM     87  O   UNL A   1      33.852  36.194  27.949  1.00  0.00    -0.237 OA
ATOM     88  O   UNL A   1      32.665  34.036  27.934  1.00  0.00    -0.744 OA
ENDBRANCH  84  85
ENDBRANCH  52  77
BRANCH  64  89
ATOM     89  C   UNL A   1      39.983  34.282  37.020  1.00  0.00     0.058 A 
ATOM     90  C   UNL A   1      40.698  35.489  36.973  1.00  0.00     0.135 A 
ATOM     91  C   UNL A   1      39.065  34.102  38.067  1.00  0.00     0.135 A 
ATOM     92  F   UNL A   1      41.592  35.708  35.996  1.00  0.00    -0.206 F 
ATOM     93  C   UNL A   1      40.525  36.472  37.942  1.00  0.00     0.059 A 
ATOM     94  C   UNL A   1      38.857  35.083  39.031  1.00  0.00     0.059 A 
ATOM     95  F   UNL A   1      38.348  32.970  38.151  1.00  0.00    -0.206 F 
ATOM     96  C   UNL A   1      39.600  36.260  38.967  1.00  0.00     0.060 A 
BRANCH  96  97
ATOM     97  S   UNL A   1      39.360  37.557  40.198  1.00  0.00     0.124 S 
ATOM     98  O   UNL A   1      40.660  38.220  40.185  1.00  0.00    -0.237 OA
ATOM     99  O   UNL A   1      38.252  38.323  39.635  1.00  0.00    -0.237 OA
ATOM    100  O   UNL A   1      39.046  36.815  41.416  1.00  0.00    -0.744 OA
ENDBRANCH  96  97
ENDBRANCH  64  89
ENDBRANCH  38  39
ENDBRANCH  30  33
ENDBRANCH  28  29
ENDBRANCH  27  28
ENDBRANCH  26  27
ENDBRANCH   1  26
TORSDOF 19
ENDMDL
MODEL 3
REMARK VINA RESULT:     -11.7      6.431     11.624
REMARK SMILES COc1ccc(C(=O)Nc2cccc(C(=O)NCCCCCCNC(=O)c3ccc(-c4c5nc(c(-c6c(F)cc(S(=O)(=O)[O-])cc6F)c6ccc([nH]6)c(-c6c(F)cc(S(=O)(=O)[O-])cc6F)c6nc(c(-c7c(F)cc(S(=O)(=O)[O-])cc7F)c7ccc4[nH]7)C=C6)C=C5)cc3)c2)cc1
REMARK SMILES IDX 20 1 19 2 18 3 17 4 15 5 16 6 14 8 10 9 11 10 93 11 12 12
REMARK SMILES IDX 13 13 9 14 7 15 8 16 6 18 3 19 4 20 95 21 5 22 94 23 2 24
REMARK SMILES IDX 1 25 21 26 22 27 23 28 24 29 25 30 26 32 27 33 28 34 92 35
REMARK SMILES IDX 29 36 91 37 30 38 31 39 32 40 85 41 33 42 90 43 84 44 86 45
REMARK SMILES IDX 34 46 89 47 83 48 82 49 35 51 69 52 48 53 68 54 49 55 52 56
REMARK SMILES IDX 67 57 87 58 50 59 51 60 66 62 88 63 53 64 36 65 37 66 46 67
REMARK SMILES IDX 38 68 39 69 45 70 47 71 40 72 41 73 42 74 43 75 44 76 70 77
REMARK SMILES IDX 71 78 80 79 72 80 73 81 79 82 81 83 74 84 75 85 76 86 77 87
REMARK SMILES IDX 78 88 54 89 55 90 64 91 56 92 57 93 63 94 65 95 58 96 59 97
REMARK SMILES IDX 60 98 61 99 62 100
REMARK H PARENT 17 7 9 17 24 31 86 50 52 61
REMARK Flexibility Score: inf
ROOT
ATOM      1  C   UNL A   1      37.747  22.082  24.917  1.00  0.00     0.002 C 
ENDROOT
BRANCH   1   2
ATOM      2  C   UNL A   1      37.153  20.695  25.190  1.00  0.00     0.021 C 
BRANCH   2   3
ATOM      3  C   UNL A   1      35.625  20.712  25.246  1.00  0.00     0.116 C 
BRANCH   3   4
ATOM      4  N   UNL A   1      35.171  21.303  26.490  1.00  0.00    -0.352 N 
ATOM      5  C   UNL A   1      34.246  22.267  26.797  1.00  0.00     0.251 C 
ATOM      6  O   UNL A   1      34.110  22.548  27.990  1.00  0.00    -0.269 OA
ATOM      7  H   UNL A   1      35.623  20.934  27.283  1.00  0.00     0.163 HD
BRANCH   5   8
ATOM      8  C   UNL A   1      33.358  22.933  25.799  1.00  0.00     0.041 A 
ATOM      9  C   UNL A   1      32.906  24.212  23.789  1.00  0.00     0.042 A 
ATOM     10  C   UNL A   1      31.542  23.963  23.904  1.00  0.00     0.026 A 
ATOM     11  C   UNL A   1      33.786  23.798  24.794  1.00  0.00     0.040 A 
ATOM     12  C   UNL A   1      31.080  23.162  24.945  1.00  0.00     0.003 A 
ATOM     13  C   UNL A   1      31.987  22.625  25.864  1.00  0.00     0.014 A 
BRANCH   9  14
ATOM     14  N   UNL A   1      33.375  24.803  22.608  1.00  0.00    -0.322 N 
ATOM     15  C   UNL A   1      33.205  26.100  22.155  1.00  0.00     0.255 C 
ATOM     16  O   UNL A   1      33.451  26.353  20.976  1.00  0.00    -0.269 OA
ATOM     17  H   UNL A   1      33.897  24.213  22.017  1.00  0.00     0.170 HD
BRANCH  15  18
ATOM     18  C   UNL A   1      32.847  27.229  23.076  1.00  0.00     0.040 A 
ATOM     19  C   UNL A   1      32.069  29.351  24.777  1.00  0.00     0.118 A 
ATOM     20  C   UNL A   1      31.121  28.662  24.018  1.00  0.00     0.047 A 
ATOM     21  C   UNL A   1      33.413  29.006  24.653  1.00  0.00     0.047 A 
ATOM     22  C   UNL A   1      31.503  27.609  23.176  1.00  0.00     0.017 A 
ATOM     23  C   UNL A   1      33.799  27.980  23.780  1.00  0.00     0.017 A 
BRANCH  19  24
ATOM     24  O   UNL A   1      31.565  30.329  25.588  1.00  0.00    -0.497 OA
ATOM     25  C   UNL A   1      32.294  30.626  26.773  1.00  0.00     0.278 C 
ENDBRANCH  19  24
ENDBRANCH  15  18
ENDBRANCH   9  14
ENDBRANCH   5   8
ENDBRANCH   3   4
ENDBRANCH   2   3
ENDBRANCH   1   2
BRANCH   1  26
ATOM     26  C   UNL A   1      38.399  22.745  26.138  1.00  0.00     0.002 C 
BRANCH  26  27
ATOM     27  C   UNL A   1      39.670  22.058  26.648  1.00  0.00     0.021 C 
BRANCH  27  28
ATOM     28  C   UNL A   1      40.728  23.013  27.191  1.00  0.00     0.116 C 
BRANCH  28  29
ATOM     29  N   UNL A   1      41.416  23.715  26.119  1.00  0.00    -0.352 N 
ATOM     30  C   UNL A   1      41.714  25.049  26.003  1.00  0.00     0.251 C 
ATOM     31  H   UNL A   1      41.711  23.151  25.368  1.00  0.00     0.163 HD
ATOM     32  O   UNL A   1      42.089  25.501  24.925  1.00  0.00    -0.269 OA
BRANCH  30  33
ATOM     33  C   UNL A   1      41.577  25.940  27.175  1.00  0.00     0.039 A 
ATOM     34  C   UNL A   1      42.559  26.906  27.410  1.00  0.00     0.014 A 
ATOM     35  C   UNL A   1      40.496  25.807  28.051  1.00  0.00     0.014 A 
ATOM     36  C   UNL A   1      42.431  27.773  28.497  1.00  0.00     0.010 A 
ATOM     37  C   UNL A   1      40.338  26.713  29.098  1.00  0.00     0.010 A 
ATOM     38  C   UNL A   1      41.305  27.701  29.334  1.00  0.00    -0.014 A 
BRANCH  38  39
ATOM     39  C   UNL A   1      41.120  28.655  30.458  1.00  0.00     0.031 A 
ATOM     40  C   UNL A   1      41.960  28.531  31.701  1.00  0.00     0.074 A 
ATOM     41  C   UNL A   1      40.149  29.587  30.384  1.00  0.00     0.049 A 
ATOM     42  N   UNL A   1      41.894  29.218  32.812  1.00  0.00    -0.248 NA
ATOM     43  C   UNL A   1      42.991  27.479  31.709  1.00  0.00     0.031 C 
ATOM     44  C   UNL A   1      39.231  29.764  29.255  1.00  0.00     0.029 A 
ATOM     45  N   UNL A   1      39.756  30.546  31.283  1.00  0.00    -0.354 N 
ATOM     46  C   UNL A   1      42.853  28.671  33.656  1.00  0.00     0.074 A 
ATOM     47  C   UNL A   1      43.465  27.571  32.945  1.00  0.00     0.031 C 
ATOM     48  C   UNL A   1      38.388  30.773  29.527  1.00  0.00     0.029 A 
ATOM     49  C   UNL A   1      38.679  31.292  30.860  1.00  0.00     0.049 A 
ATOM     50  H   UNL A   1      40.201  30.687  32.149  1.00  0.00     0.167 HD
ATOM     51  C   UNL A   1      43.201  29.062  34.905  1.00  0.00     0.037 A 
ATOM     52  C   UNL A   1      37.997  32.274  31.481  1.00  0.00     0.037 A 
ATOM     53  C   UNL A   1      42.619  30.187  35.588  1.00  0.00     0.049 A 
ATOM     54  C   UNL A   1      38.430  32.710  32.855  1.00  0.00     0.074 A 
ATOM     55  C   UNL A   1      42.969  30.720  36.817  1.00  0.00     0.029 A 
ATOM     56  N   UNL A   1      41.567  30.952  35.106  1.00  0.00    -0.354 N 
ATOM     57  N   UNL A   1      39.400  32.238  33.602  1.00  0.00    -0.248 NA
ATOM     58  C   UNL A   1      37.683  33.818  33.469  1.00  0.00     0.031 C 
ATOM     59  C   UNL A   1      42.100  31.778  37.098  1.00  0.00     0.029 A 
ATOM     60  C   UNL A   1      41.241  31.937  36.024  1.00  0.00     0.049 A 
ATOM     61  H   UNL A   1      41.119  30.814  34.241  1.00  0.00     0.167 HD
ATOM     62  C   UNL A   1      39.396  33.008  34.760  1.00  0.00     0.074 A 
ATOM     63  C   UNL A   1      38.340  33.986  34.609  1.00  0.00     0.031 C 
ATOM     64  C   UNL A   1      40.196  32.913  35.851  1.00  0.00     0.037 A 
BRANCH  51  65
ATOM     65  C   UNL A   1      44.270  28.284  35.622  1.00  0.00     0.058 A 
ATOM     66  C   UNL A   1      43.959  27.193  36.446  1.00  0.00     0.135 A 
ATOM     67  C   UNL A   1      45.627  28.580  35.408  1.00  0.00     0.135 A 
ATOM     68  F   UNL A   1      42.679  26.876  36.697  1.00  0.00    -0.206 F 
ATOM     69  C   UNL A   1      44.955  26.423  37.039  1.00  0.00     0.059 A 
ATOM     70  C   UNL A   1      46.639  27.809  35.971  1.00  0.00     0.059 A 
ATOM     71  F   UNL A   1      45.978  29.616  34.630  1.00  0.00    -0.206 F 
ATOM     72  C   UNL A   1      46.293  26.734  36.789  1.00  0.00     0.060 A 
BRANCH  72  73
ATOM     73  S   UNL A   1      47.573  25.694  37.523  1.00  0.00     0.124 S 
ATOM     74  O   UNL A   1      46.790  24.882  38.451  1.00  0.00    -0.237 OA
ATOM     75  O   UNL A   1      48.106  24.989  36.361  1.00  0.00    -0.237 OA
ATOM     76  O   UNL A   1      48.481  26.654  38.142  1.00  0.00    -0.744 OA
ENDBRANCH  72  73
ENDBRANCH  51  65
BRANCH  52  77
ATOM     77  C   UNL A   1      36.832  32.914  30.813  1.00  0.00     0.058 A 
ATOM     78  C   UNL A   1      37.010  33.867  29.799  1.00  0.00     0.135 A 
ATOM     79  C   UNL A   1      35.516  32.601  31.191  1.00  0.00     0.135 A 
ATOM     80  F   UNL A   1      38.247  34.203  29.404  1.00  0.00    -0.206 F 
ATOM     81  C   UNL A   1      35.929  34.513  29.207  1.00  0.00     0.059 A 
ATOM     82  C   UNL A   1      34.419  33.213  30.594  1.00  0.00     0.059 A 
ATOM     83  F   UNL A   1      35.291  31.681  32.141  1.00  0.00    -0.206 F 
ATOM     84  C   UNL A   1      34.636  34.181  29.615  1.00  0.00     0.060 A 
BRANCH  84  85
ATOM     85  S   UNL A   1      33.237  35.014  28.833  1.00  0.00     0.124 S 
ATOM     86  O   UNL A   1      33.888  36.166  28.220  1.00  0.00    -0.237 OA
ATOM     87  O   UNL A   1      32.746  33.992  27.912  1.00  0.00    -0.237 OA
ATOM     88  O   UNL A   1      32.352  35.309  29.956  1.00  0.00    -0.744 OA
ENDBRANCH  84  85
ENDBRANCH  52  77
BRANCH  64  89
ATOM     89  C   UNL A   1      39.988  33.916  36.951  1.00  0.00     0.058 A 
ATOM     90  C   UNL A   1      40.651  35.153  36.956  1.00  0.00     0.135 A 
ATOM     91  C   UNL A   1      39.073  33.656  37.984  1.00  0.00     0.135 A 
ATOM     92  F   UNL A   1      41.540  35.447  35.995  1.00  0.00    -0.206 F 
ATOM     93  C   UNL A   1      40.430  36.089  37.960  1.00  0.00     0.059 A 
ATOM     94  C   UNL A   1      38.816  34.589  38.983  1.00  0.00     0.059 A 
ATOM     95  F   UNL A   1      38.405  32.491  38.019  1.00  0.00    -0.206 F 
ATOM     96  C   UNL A   1      39.509  35.799  38.969  1.00  0.00     0.060 A 
BRANCH  96  97
ATOM     97  S   UNL A   1      39.205  37.036  40.248  1.00  0.00     0.124 S 
ATOM     98  O   UNL A   1      40.563  37.350  40.681  1.00  0.00    -0.237 OA
ATOM     99  O   UNL A   1      38.516  38.089  39.509  1.00  0.00    -0.237 OA
ATOM    100  O   UNL A   1      38.384  36.322  41.222  1.00  0.00    -0.744 OA
ENDBRANCH  96  97
ENDBRANCH  64  89
ENDBRANCH  38  39
ENDBRANCH  30  33
ENDBRANCH  28  29
ENDBRANCH  27  28
ENDBRANCH  26  27
ENDBRANCH   1  26
TORSDOF 19
ENDMDL
