MODEL 1
REMARK VINA RESULT:     -11.5      0.000      0.000
REMARK SMILES CCc1cc(OC(F)(F)F)cc2c1O[C@@H](C(F)(F)F)C(C(=O)NCCCCCCNC(=O)c1ccc(-c3c4nc(c(-c5c(F)cc(S(=O)(=O)[O-])cc5F)c5ccc([nH]5)c(-c5c(F)cc(S(=O)(=O)[O-])cc5F)c5nc(c(-c6c(F)cc(S(=O)(=O)[O-])cc6F)c6ccc3[nH]6)C=C5)C=C4)cc1)=C2
REMARK SMILES IDX 27 1 26 2 25 3 24 4 23 5 21 6 22 7 20 9 3 10 4 11 13 12 5 13
REMARK SMILES IDX 12 14 14 15 11 16 99 17 15 18 2 19 1 20 6 21 7 22 8 23 9 24
REMARK SMILES IDX 10 25 16 26 17 27 18 28 19 29 28 30 29 31 30 32 31 33 32 35
REMARK SMILES IDX 33 36 34 37 98 38 35 39 97 40 36 41 37 42 38 43 91 44 39 45
REMARK SMILES IDX 96 46 90 47 92 48 40 49 95 50 89 51 88 52 41 54 75 55 54 56
REMARK SMILES IDX 74 57 55 58 58 59 73 60 93 61 56 62 57 63 72 65 94 66 59 67
REMARK SMILES IDX 42 68 43 69 52 70 44 71 45 72 51 73 53 74 46 75 47 76 48 77
REMARK SMILES IDX 49 78 50 79 76 80 77 81 86 82 78 83 79 84 85 85 87 86 80 87
REMARK SMILES IDX 81 88 82 89 83 90 84 91 60 92 61 93 70 94 62 95 63 96 69 97
REMARK SMILES IDX 71 98 64 99 65 100 66 101 67 102 68 103
REMARK H PARENT 23 8 30 34 92 53 58 64
REMARK Flexibility Score: inf
ROOT
ATOM      1  C   UNL A   1      40.416  21.915  27.575  1.00  0.00     0.002 C 
ENDROOT
BRANCH   1   2
ATOM      2  C   UNL A   1      39.632  22.242  26.298  1.00  0.00     0.002 C 
BRANCH   2   3
ATOM      3  C   UNL A   1      38.520  23.286  26.480  1.00  0.00     0.021 C 
BRANCH   3   4
ATOM      4  C   UNL A   1      37.352  23.097  25.504  1.00  0.00     0.116 C 
BRANCH   4   5
ATOM      5  N   UNL A   1      36.295  22.346  26.160  1.00  0.00    -0.352 N 
ATOM      6  C   UNL A   1      34.990  22.620  26.416  1.00  0.00     0.251 C 
ATOM      7  O   UNL A   1      34.392  21.888  27.200  1.00  0.00    -0.270 OA
ATOM      8  H   UNL A   1      36.582  21.461  26.484  1.00  0.00     0.163 HD
BRANCH   6   9
ATOM      9  C   UNL A   1      34.239  23.700  25.724  1.00  0.00     0.067 C 
ATOM     10  C   UNL A   1      32.217  26.576  23.397  1.00  0.00    -0.002 A 
ATOM     11  C   UNL A   1      32.299  27.930  23.781  1.00  0.00     0.054 A 
ATOM     12  C   UNL A   1      32.866  25.607  24.181  1.00  0.00     0.131 A 
ATOM     13  C   UNL A   1      33.032  28.316  24.903  1.00  0.00     0.130 A 
ATOM     14  C   UNL A   1      33.568  25.983  25.325  1.00  0.00     0.021 A 
ATOM     15  O   UNL A   1      32.829  24.316  23.746  1.00  0.00    -0.475 OA
ATOM     16  C   UNL A   1      33.653  27.335  25.677  1.00  0.00     0.058 A 
ATOM     17  C   UNL A   1      34.274  24.982  26.112  1.00  0.00     0.025 C 
ATOM     18  C   UNL A   1      33.284  23.248  24.623  1.00  0.00     0.314 C 
BRANCH  10  19
ATOM     19  C   UNL A   1      31.389  26.193  22.186  1.00  0.00     0.036 C 
ATOM     20  C   UNL A   1      32.211  25.945  20.927  1.00  0.00     0.009 C 
ENDBRANCH  10  19
BRANCH  13  21
ATOM     21  O   UNL A   1      33.225  29.590  25.354  1.00  0.00    -0.406 OA
BRANCH  21  22
ATOM     22  C   UNL A   1      32.253  30.143  26.226  1.00  0.00     0.573 C 
ATOM     23  F   UNL A   1      31.619  29.178  26.927  1.00  0.00    -0.132 F 
ATOM     24  F   UNL A   1      32.821  31.020  27.082  1.00  0.00    -0.132 F 
ATOM     25  F   UNL A   1      31.334  30.805  25.491  1.00  0.00    -0.132 F 
ENDBRANCH  21  22
ENDBRANCH  13  21
BRANCH  18  26
ATOM     26  C   UNL A   1      33.774  22.094  23.716  1.00  0.00     0.429 C 
ATOM     27  F   UNL A   1      32.965  21.880  22.653  1.00  0.00    -0.167 F 
ATOM     28  F   UNL A   1      34.994  22.382  23.182  1.00  0.00    -0.167 F 
ATOM     29  F   UNL A   1      33.910  20.927  24.386  1.00  0.00    -0.167 F 
ENDBRANCH  18  26
ENDBRANCH   6   9
ENDBRANCH   4   5
ENDBRANCH   3   4
ENDBRANCH   2   3
ENDBRANCH   1   2
BRANCH   1  30
ATOM     30  C   UNL A   1      41.936  21.870  27.404  1.00  0.00     0.021 C 
BRANCH  30  31
ATOM     31  C   UNL A   1      42.624  23.225  27.542  1.00  0.00     0.116 C 
BRANCH  31  32
ATOM     32  N   UNL A   1      42.543  23.990  26.309  1.00  0.00    -0.352 N 
ATOM     33  C   UNL A   1      42.075  25.265  26.110  1.00  0.00     0.251 C 
ATOM     34  H   UNL A   1      42.870  23.529  25.502  1.00  0.00     0.163 HD
ATOM     35  O   UNL A   1      41.847  25.661  24.971  1.00  0.00    -0.269 OA
BRANCH  33  36
ATOM     36  C   UNL A   1      41.842  26.154  27.268  1.00  0.00     0.039 A 
ATOM     37  C   UNL A   1      40.768  25.889  28.121  1.00  0.00     0.014 A 
ATOM     38  C   UNL A   1      42.658  27.269  27.489  1.00  0.00     0.014 A 
ATOM     39  C   UNL A   1      40.531  26.726  29.215  1.00  0.00     0.010 A 
ATOM     40  C   UNL A   1      42.462  28.060  28.617  1.00  0.00     0.010 A 
ATOM     41  C   UNL A   1      41.385  27.808  29.480  1.00  0.00    -0.014 A 
BRANCH  41  42
ATOM     42  C   UNL A   1      41.143  28.713  30.632  1.00  0.00     0.031 A 
ATOM     43  C   UNL A   1      41.979  28.579  31.877  1.00  0.00     0.074 A 
ATOM     44  C   UNL A   1      40.144  29.615  30.579  1.00  0.00     0.049 A 
ATOM     45  N   UNL A   1      41.885  29.226  33.010  1.00  0.00    -0.248 NA
ATOM     46  C   UNL A   1      43.044  27.562  31.856  1.00  0.00     0.031 C 
ATOM     47  C   UNL A   1      39.238  29.808  29.444  1.00  0.00     0.029 A 
ATOM     48  N   UNL A   1      39.717  30.534  31.504  1.00  0.00    -0.354 N 
ATOM     49  C   UNL A   1      42.862  28.686  33.839  1.00  0.00     0.074 A 
ATOM     50  C   UNL A   1      43.503  27.621  33.098  1.00  0.00     0.031 C 
ATOM     51  C   UNL A   1      38.377  30.796  29.733  1.00  0.00     0.029 A 
ATOM     52  C   UNL A   1      38.646  31.285  31.083  1.00  0.00     0.049 A 
ATOM     53  H   UNL A   1      40.138  30.644  32.387  1.00  0.00     0.167 HD
ATOM     54  C   UNL A   1      43.211  29.059  35.093  1.00  0.00     0.037 A 
ATOM     55  C   UNL A   1      37.956  32.255  31.715  1.00  0.00     0.037 A 
ATOM     56  C   UNL A   1      42.592  30.142  35.811  1.00  0.00     0.049 A 
ATOM     57  C   UNL A   1      38.372  32.662  33.103  1.00  0.00     0.074 A 
ATOM     58  C   UNL A   1      42.910  30.639  37.062  1.00  0.00     0.029 A 
ATOM     59  N   UNL A   1      41.529  30.899  35.338  1.00  0.00    -0.354 N 
ATOM     60  N   UNL A   1      39.337  32.179  33.849  1.00  0.00    -0.248 NA
ATOM     61  C   UNL A   1      37.611  33.751  33.732  1.00  0.00     0.031 C 
ATOM     62  C   UNL A   1      42.015  31.671  37.363  1.00  0.00     0.029 A 
ATOM     63  C   UNL A   1      41.169  31.849  36.280  1.00  0.00     0.049 A 
ATOM     64  H   UNL A   1      41.095  30.779  34.463  1.00  0.00     0.167 HD
ATOM     65  C   UNL A   1      39.318  32.925  35.024  1.00  0.00     0.074 A 
ATOM     66  C   UNL A   1      38.253  33.897  34.883  1.00  0.00     0.031 C 
ATOM     67  C   UNL A   1      40.112  32.816  36.118  1.00  0.00     0.037 A 
BRANCH  54  68
ATOM     68  C   UNL A   1      44.319  28.294  35.765  1.00  0.00     0.058 A 
ATOM     69  C   UNL A   1      45.667  28.661  35.612  1.00  0.00     0.135 A 
ATOM     70  C   UNL A   1      44.031  27.198  36.593  1.00  0.00     0.135 A 
ATOM     71  F   UNL A   1      46.001  29.693  34.819  1.00  0.00    -0.206 F 
ATOM     72  C   UNL A   1      46.689  27.950  36.229  1.00  0.00     0.059 A 
ATOM     73  C   UNL A   1      45.037  26.488  37.243  1.00  0.00     0.059 A 
ATOM     74  F   UNL A   1      42.761  26.803  36.774  1.00  0.00    -0.206 F 
ATOM     75  C   UNL A   1      46.365  26.862  37.041  1.00  0.00     0.060 A 
BRANCH  75  76
ATOM     76  S   UNL A   1      47.704  25.948  37.834  1.00  0.00     0.124 S 
ATOM     77  O   UNL A   1      48.661  27.016  38.109  1.00  0.00    -0.237 OA
ATOM     78  O   UNL A   1      47.043  25.374  39.002  1.00  0.00    -0.237 OA
ATOM     79  O   UNL A   1      48.112  24.987  36.815  1.00  0.00    -0.744 OA
ENDBRANCH  75  76
ENDBRANCH  54  68
BRANCH  55  80
ATOM     80  C   UNL A   1      36.822  32.927  31.028  1.00  0.00     0.058 A 
ATOM     81  C   UNL A   1      37.049  33.877  30.021  1.00  0.00     0.135 A 
ATOM     82  C   UNL A   1      35.490  32.624  31.353  1.00  0.00     0.135 A 
ATOM     83  F   UNL A   1      38.303  34.203  29.679  1.00  0.00    -0.206 F 
ATOM     84  C   UNL A   1      35.997  34.517  29.372  1.00  0.00     0.059 A 
ATOM     85  C   UNL A   1      34.422  33.233  30.702  1.00  0.00     0.059 A 
ATOM     86  F   UNL A   1      35.220  31.708  32.297  1.00  0.00    -0.206 F 
ATOM     87  C   UNL A   1      34.686  34.186  29.719  1.00  0.00     0.060 A 
BRANCH  87  88
ATOM     88  S   UNL A   1      33.328  34.987  28.838  1.00  0.00     0.124 S 
ATOM     89  O   UNL A   1      33.961  36.219  28.382  1.00  0.00    -0.237 OA
ATOM     90  O   UNL A   1      33.014  34.007  27.803  1.00  0.00    -0.237 OA
ATOM     91  O   UNL A   1      32.307  35.145  29.870  1.00  0.00    -0.744 OA
ENDBRANCH  87  88
ENDBRANCH  55  80
BRANCH  67  92
ATOM     92  C   UNL A   1      39.885  33.793  37.236  1.00  0.00     0.058 A 
ATOM     93  C   UNL A   1      40.469  35.070  37.230  1.00  0.00     0.135 A 
ATOM     94  C   UNL A   1      39.029  33.467  38.301  1.00  0.00     0.135 A 
ATOM     95  F   UNL A   1      41.300  35.428  36.238  1.00  0.00    -0.206 F 
ATOM     96  C   UNL A   1      40.229  35.982  38.252  1.00  0.00     0.059 A 
ATOM     97  C   UNL A   1      38.755  34.373  39.320  1.00  0.00     0.059 A 
ATOM     98  F   UNL A   1      38.438  32.263  38.348  1.00  0.00    -0.206 F 
ATOM     99  C   UNL A   1      39.368  35.624  39.293  1.00  0.00     0.060 A 
BRANCH  99 100
ATOM    100  S   UNL A   1      39.038  36.829  40.595  1.00  0.00     0.124 S 
ATOM    101  O   UNL A   1      38.417  37.914  39.842  1.00  0.00    -0.237 OA
ATOM    102  O   UNL A   1      38.151  36.090  41.489  1.00  0.00    -0.237 OA
ATOM    103  O   UNL A   1      40.363  37.118  41.135  1.00  0.00    -0.744 OA
ENDBRANCH  99 100
ENDBRANCH  67  92
ENDBRANCH  41  42
ENDBRANCH  33  36
ENDBRANCH  31  32
ENDBRANCH  30  31
ENDBRANCH   1  30
TORSDOF 20
ENDMDL
MODEL 2
REMARK VINA RESULT:     -11.0      0.745      7.975
REMARK SMILES CCc1cc(OC(F)(F)F)cc2c1O[C@@H](C(F)(F)F)C(C(=O)NCCCCCCNC(=O)c1ccc(-c3c4nc(c(-c5c(F)cc(S(=O)(=O)[O-])cc5F)c5ccc([nH]5)c(-c5c(F)cc(S(=O)(=O)[O-])cc5F)c5nc(c(-c6c(F)cc(S(=O)(=O)[O-])cc6F)c6ccc3[nH]6)C=C5)C=C4)cc1)=C2
REMARK SMILES IDX 27 1 26 2 25 3 24 4 23 5 21 6 22 7 20 9 3 10 4 11 13 12 5 13
REMARK SMILES IDX 12 14 14 15 11 16 99 17 15 18 2 19 1 20 6 21 7 22 8 23 9 24
REMARK SMILES IDX 10 25 16 26 17 27 18 28 19 29 28 30 29 31 30 32 31 33 32 35
REMARK SMILES IDX 33 36 34 37 98 38 35 39 97 40 36 41 37 42 38 43 91 44 39 45
REMARK SMILES IDX 96 46 90 47 92 48 40 49 95 50 89 51 88 52 41 54 75 55 54 56
REMARK SMILES IDX 74 57 55 58 58 59 73 60 93 61 56 62 57 63 72 65 94 66 59 67
REMARK SMILES IDX 42 68 43 69 52 70 44 71 45 72 51 73 53 74 46 75 47 76 48 77
REMARK SMILES IDX 49 78 50 79 76 80 77 81 86 82 78 83 79 84 85 85 87 86 80 87
REMARK SMILES IDX 81 88 82 89 83 90 84 91 60 92 61 93 70 94 62 95 63 96 69 97
REMARK SMILES IDX 71 98 64 99 65 100 66 101 67 102 68 103
REMARK H PARENT 23 8 30 34 92 53 58 64
REMARK Flexibility Score: inf
ROOT
ATOM      1  C   UNL A   1      39.952  21.594  26.890  1.00  0.00     0.002 C 
ENDROOT
BRANCH   1   2
ATOM      2  C   UNL A   1      38.895  21.611  25.779  1.00  0.00     0.002 C 
BRANCH   2   3
ATOM      3  C   UNL A   1      37.987  22.850  25.780  1.00  0.00     0.021 C 
BRANCH   3   4
ATOM      4  C   UNL A   1      36.769  22.704  24.859  1.00  0.00     0.116 C 
BRANCH   4   5
ATOM      5  N   UNL A   1      35.727  21.967  25.554  1.00  0.00    -0.352 N 
ATOM      6  C   UNL A   1      34.507  22.323  26.030  1.00  0.00     0.251 C 
ATOM      7  O   UNL A   1      33.935  21.542  26.787  1.00  0.00    -0.270 OA
ATOM      8  H   UNL A   1      35.951  21.021  25.711  1.00  0.00     0.163 HD
BRANCH   6   9
ATOM      9  C   UNL A   1      33.800  23.559  25.605  1.00  0.00     0.067 C 
ATOM     10  C   UNL A   1      31.821  26.920  24.003  1.00  0.00    -0.002 A 
ATOM     11  C   UNL A   1      32.139  28.195  24.516  1.00  0.00     0.054 A 
ATOM     12  C   UNL A   1      32.457  25.791  24.549  1.00  0.00     0.131 A 
ATOM     13  C   UNL A   1      33.085  28.347  25.529  1.00  0.00     0.130 A 
ATOM     14  C   UNL A   1      33.376  25.934  25.587  1.00  0.00     0.021 A 
ATOM     15  O   UNL A   1      32.183  24.581  23.985  1.00  0.00    -0.475 OA
ATOM     16  C   UNL A   1      33.690  27.210  26.068  1.00  0.00     0.058 A 
ATOM     17  C   UNL A   1      34.062  24.768  26.122  1.00  0.00     0.025 C 
ATOM     18  C   UNL A   1      32.631  23.363  24.645  1.00  0.00     0.314 C 
BRANCH  10  19
ATOM     19  C   UNL A   1      30.768  26.792  22.921  1.00  0.00     0.036 C 
ATOM     20  C   UNL A   1      30.195  28.125  22.454  1.00  0.00     0.009 C 
ENDBRANCH  10  19
BRANCH  13  21
ATOM     21  O   UNL A   1      33.511  29.522  26.078  1.00  0.00    -0.406 OA
BRANCH  21  22
ATOM     22  C   UNL A   1      32.612  30.230  26.917  1.00  0.00     0.573 C 
ATOM     23  F   UNL A   1      33.270  30.885  27.897  1.00  0.00    -0.132 F 
ATOM     24  F   UNL A   1      31.882  31.111  26.200  1.00  0.00    -0.132 F 
ATOM     25  F   UNL A   1      31.765  29.349  27.491  1.00  0.00    -0.132 F 
ENDBRANCH  21  22
ENDBRANCH  13  21
BRANCH  18  26
ATOM     26  C   UNL A   1      32.817  22.293  23.543  1.00  0.00     0.429 C 
ATOM     27  F   UNL A   1      31.871  22.362  22.577  1.00  0.00    -0.167 F 
ATOM     28  F   UNL A   1      34.001  22.466  22.893  1.00  0.00    -0.167 F 
ATOM     29  F   UNL A   1      32.826  21.033  24.036  1.00  0.00    -0.167 F 
ENDBRANCH  18  26
ENDBRANCH   6   9
ENDBRANCH   4   5
ENDBRANCH   3   4
ENDBRANCH   2   3
ENDBRANCH   1   2
BRANCH   1  30
ATOM     30  C   UNL A   1      41.317  22.159  26.488  1.00  0.00     0.021 C 
BRANCH  30  31
ATOM     31  C   UNL A   1      41.581  23.576  26.988  1.00  0.00     0.116 C 
BRANCH  31  32
ATOM     32  N   UNL A   1      41.987  24.455  25.904  1.00  0.00    -0.352 N 
ATOM     33  C   UNL A   1      41.946  25.825  25.839  1.00  0.00     0.251 C 
ATOM     34  H   UNL A   1      42.342  24.004  25.104  1.00  0.00     0.163 HD
ATOM     35  O   UNL A   1      42.092  26.389  24.759  1.00  0.00    -0.269 OA
BRANCH  33  36
ATOM     36  C   UNL A   1      41.721  26.615  27.067  1.00  0.00     0.039 A 
ATOM     37  C   UNL A   1      40.672  26.261  27.919  1.00  0.00     0.014 A 
ATOM     38  C   UNL A   1      42.518  27.728  27.358  1.00  0.00     0.014 A 
ATOM     39  C   UNL A   1      40.442  27.004  29.080  1.00  0.00     0.010 A 
ATOM     40  C   UNL A   1      42.332  28.423  28.549  1.00  0.00     0.010 A 
ATOM     41  C   UNL A   1      41.280  28.081  29.411  1.00  0.00    -0.014 A 
BRANCH  41  42
ATOM     42  C   UNL A   1      41.045  28.887  30.636  1.00  0.00     0.031 A 
ATOM     43  C   UNL A   1      39.935  29.903  30.662  1.00  0.00     0.074 A 
ATOM     44  C   UNL A   1      41.858  28.743  31.701  1.00  0.00     0.049 A 
ATOM     45  N   UNL A   1      39.607  30.747  31.607  1.00  0.00    -0.248 NA
ATOM     46  C   UNL A   1      39.098  30.004  29.454  1.00  0.00     0.031 C 
ATOM     47  C   UNL A   1      42.996  27.824  31.778  1.00  0.00     0.029 A 
ATOM     48  N   UNL A   1      41.859  29.374  32.919  1.00  0.00    -0.354 N 
ATOM     49  C   UNL A   1      38.543  31.487  31.104  1.00  0.00     0.074 A 
ATOM     50  C   UNL A   1      38.314  31.030  29.751  1.00  0.00     0.031 C 
ATOM     51  C   UNL A   1      43.570  27.937  32.986  1.00  0.00     0.029 A 
ATOM     52  C   UNL A   1      42.866  28.957  33.757  1.00  0.00     0.049 A 
ATOM     53  H   UNL A   1      41.200  30.061  33.169  1.00  0.00     0.167 HD
ATOM     54  C   UNL A   1      37.807  32.442  31.721  1.00  0.00     0.037 A 
ATOM     55  C   UNL A   1      43.187  29.355  35.003  1.00  0.00     0.037 A 
ATOM     56  C   UNL A   1      38.020  32.867  33.080  1.00  0.00     0.049 A 
ATOM     57  C   UNL A   1      42.347  30.408  35.673  1.00  0.00     0.074 A 
ATOM     58  C   UNL A   1      37.294  33.784  33.818  1.00  0.00     0.029 A 
ATOM     59  N   UNL A   1      39.032  32.399  33.906  1.00  0.00    -0.354 N 
ATOM     60  N   UNL A   1      41.307  31.055  35.203  1.00  0.00    -0.248 NA
ATOM     61  C   UNL A   1      42.716  30.779  37.047  1.00  0.00     0.031 C 
ATOM     62  C   UNL A   1      37.890  33.900  35.078  1.00  0.00     0.029 A 
ATOM     63  C   UNL A   1      38.960  33.021  35.142  1.00  0.00     0.049 A 
ATOM     64  H   UNL A   1      39.703  31.725  33.651  1.00  0.00     0.167 HD
ATOM     65  C   UNL A   1      40.881  31.889  36.232  1.00  0.00     0.074 A 
ATOM     66  C   UNL A   1      41.769  31.655  37.353  1.00  0.00     0.031 C 
ATOM     67  C   UNL A   1      39.847  32.767  36.249  1.00  0.00     0.037 A 
BRANCH  54  68
ATOM     68  C   UNL A   1      36.699  33.086  30.933  1.00  0.00     0.058 A 
ATOM     69  C   UNL A   1      36.960  34.064  29.958  1.00  0.00     0.135 A 
ATOM     70  C   UNL A   1      35.364  32.703  31.133  1.00  0.00     0.135 A 
ATOM     71  F   UNL A   1      38.218  34.478  29.736  1.00  0.00    -0.206 F 
ATOM     72  C   UNL A   1      35.934  34.662  29.235  1.00  0.00     0.059 A 
ATOM     73  C   UNL A   1      34.323  33.268  30.401  1.00  0.00     0.059 A 
ATOM     74  F   UNL A   1      35.057  31.773  32.052  1.00  0.00    -0.206 F 
ATOM     75  C   UNL A   1      34.618  34.259  29.466  1.00  0.00     0.060 A 
BRANCH  75  76
ATOM     76  S   UNL A   1      33.296  35.046  28.519  1.00  0.00     0.124 S 
ATOM     77  O   UNL A   1      32.529  35.696  29.578  1.00  0.00    -0.237 OA
ATOM     78  O   UNL A   1      34.036  35.940  27.633  1.00  0.00    -0.237 OA
ATOM     79  O   UNL A   1      32.634  33.925  27.862  1.00  0.00    -0.744 OA
ENDBRANCH  75  76
ENDBRANCH  54  68
BRANCH  55  80
ATOM     80  C   UNL A   1      44.340  28.735  35.707  1.00  0.00     0.058 A 
ATOM     81  C   UNL A   1      45.619  29.308  35.641  1.00  0.00     0.135 A 
ATOM     82  C   UNL A   1      44.186  27.567  36.470  1.00  0.00     0.135 A 
ATOM     83  F   UNL A   1      45.817  30.422  34.921  1.00  0.00    -0.206 F 
ATOM     84  C   UNL A   1      46.708  28.737  36.292  1.00  0.00     0.059 A 
ATOM     85  C   UNL A   1      45.255  26.990  37.149  1.00  0.00     0.059 A 
ATOM     86  F   UNL A   1      42.979  26.989  36.580  1.00  0.00    -0.206 F 
ATOM     87  C   UNL A   1      46.516  27.577  37.045  1.00  0.00     0.060 A 
BRANCH  87  88
ATOM     88  S   UNL A   1      47.926  26.871  37.923  1.00  0.00     0.124 S 
ATOM     89  O   UNL A   1      47.266  25.971  38.862  1.00  0.00    -0.237 OA
ATOM     90  O   UNL A   1      48.673  26.234  36.843  1.00  0.00    -0.237 OA
ATOM     91  O   UNL A   1      48.571  28.040  38.515  1.00  0.00    -0.744 OA
ENDBRANCH  87  88
ENDBRANCH  55  80
BRANCH  67  92
ATOM     92  C   UNL A   1      39.595  33.514  37.528  1.00  0.00     0.058 A 
ATOM     93  C   UNL A   1      38.667  33.059  38.478  1.00  0.00     0.135 A 
ATOM     94  C   UNL A   1      40.331  34.671  37.831  1.00  0.00     0.135 A 
ATOM     95  F   UNL A   1      37.934  31.960  38.234  1.00  0.00    -0.206 F 
ATOM     96  C   UNL A   1      38.462  33.737  39.675  1.00  0.00     0.059 A 
ATOM     97  C   UNL A   1      40.161  35.350  39.033  1.00  0.00     0.059 A 
ATOM     98  F   UNL A   1      41.238  35.142  36.961  1.00  0.00    -0.206 F 
ATOM     99  C   UNL A   1      39.216  34.882  39.944  1.00  0.00     0.060 A 
BRANCH  99 100
ATOM    100  S   UNL A   1      38.965  35.733  41.515  1.00  0.00     0.124 S 
ATOM    101  O   UNL A   1      40.082  35.228  42.305  1.00  0.00    -0.237 OA
ATOM    102  O   UNL A   1      39.049  37.139  41.127  1.00  0.00    -0.237 OA
ATOM    103  O   UNL A   1      37.642  35.284  41.938  1.00  0.00    -0.744 OA
ENDBRANCH  99 100
ENDBRANCH  67  92
ENDBRANCH  41  42
ENDBRANCH  33  36
ENDBRANCH  31  32
ENDBRANCH  30  31
ENDBRANCH   1  30
TORSDOF 20
ENDMDL
MODEL 3
REMARK VINA RESULT:     -10.5      6.168     11.566
REMARK SMILES CCc1cc(OC(F)(F)F)cc2c1O[C@@H](C(F)(F)F)C(C(=O)NCCCCCCNC(=O)c1ccc(-c3c4nc(c(-c5c(F)cc(S(=O)(=O)[O-])cc5F)c5ccc([nH]5)c(-c5c(F)cc(S(=O)(=O)[O-])cc5F)c5nc(c(-c6c(F)cc(S(=O)(=O)[O-])cc6F)c6ccc3[nH]6)C=C5)C=C4)cc1)=C2
REMARK SMILES IDX 27 1 26 2 25 3 24 4 23 5 21 6 22 7 20 9 3 10 4 11 13 12 5 13
REMARK SMILES IDX 12 14 14 15 11 16 99 17 15 18 2 19 1 20 6 21 7 22 8 23 9 24
REMARK SMILES IDX 10 25 16 26 17 27 18 28 19 29 28 30 29 31 30 32 31 33 32 35
REMARK SMILES IDX 33 36 34 37 98 38 35 39 97 40 36 41 37 42 38 43 91 44 39 45
REMARK SMILES IDX 96 46 90 47 92 48 40 49 95 50 89 51 88 52 41 54 75 55 54 56
REMARK SMILES IDX 74 57 55 58 58 59 73 60 93 61 56 62 57 63 72 65 94 66 59 67
REMARK SMILES IDX 42 68 43 69 52 70 44 71 45 72 51 73 53 74 46 75 47 76 48 77
REMARK SMILES IDX 49 78 50 79 76 80 77 81 86 82 78 83 79 84 85 85 87 86 80 87
REMARK SMILES IDX 81 88 82 89 83 90 84 91 60 92 61 93 70 94 62 95 63 96 69 97
REMARK SMILES IDX 71 98 64 99 65 100 66 101 67 102 68 103
REMARK H PARENT 23 8 30 34 92 53 58 64
REMARK Flexibility Score: inf
ROOT
ATOM      1  C   UNL A   1      37.409  29.254  29.822  1.00  0.00     0.002 C 
ENDROOT
BRANCH   1   2
ATOM      2  C   UNL A   1      37.075  29.454  28.339  1.00  0.00     0.002 C 
BRANCH   2   3
ATOM      3  C   UNL A   1      35.728  30.142  28.074  1.00  0.00     0.021 C 
BRANCH   3   4
ATOM      4  C   UNL A   1      34.881  29.420  27.019  1.00  0.00     0.116 C 
BRANCH   4   5
ATOM      5  N   UNL A   1      33.688  28.881  27.649  1.00  0.00    -0.352 N 
ATOM      6  C   UNL A   1      32.689  28.079  27.199  1.00  0.00     0.251 C 
ATOM      7  O   UNL A   1      31.679  27.974  27.890  1.00  0.00    -0.270 OA
ATOM      8  H   UNL A   1      33.582  29.150  28.590  1.00  0.00     0.163 HD
BRANCH   6   9
ATOM      9  C   UNL A   1      32.804  27.258  25.965  1.00  0.00     0.067 C 
ATOM     10  C   UNL A   1      32.783  25.128  22.326  1.00  0.00    -0.002 A 
ATOM     11  C   UNL A   1      33.090  23.752  22.350  1.00  0.00     0.054 A 
ATOM     12  C   UNL A   1      32.813  25.852  23.530  1.00  0.00     0.131 A 
ATOM     13  C   UNL A   1      33.394  23.104  23.548  1.00  0.00     0.130 A 
ATOM     14  C   UNL A   1      33.153  25.218  24.724  1.00  0.00     0.021 A 
ATOM     15  O   UNL A   1      32.442  27.163  23.486  1.00  0.00    -0.475 OA
ATOM     16  C   UNL A   1      33.435  23.847  24.729  1.00  0.00     0.058 A 
ATOM     17  C   UNL A   1      33.143  25.961  25.976  1.00  0.00     0.025 C 
ATOM     18  C   UNL A   1      32.668  28.013  24.646  1.00  0.00     0.314 C 
BRANCH  10  19
ATOM     19  C   UNL A   1      32.484  25.802  21.002  1.00  0.00     0.036 C 
ATOM     20  C   UNL A   1      32.776  24.934  19.785  1.00  0.00     0.009 C 
ENDBRANCH  10  19
BRANCH  13  21
ATOM     21  O   UNL A   1      33.664  21.777  23.712  1.00  0.00    -0.406 OA
BRANCH  21  22
ATOM     22  C   UNL A   1      32.570  20.875  23.752  1.00  0.00     0.573 C 
ATOM     23  F   UNL A   1      31.883  20.886  22.590  1.00  0.00    -0.132 F 
ATOM     24  F   UNL A   1      32.994  19.619  24.010  1.00  0.00    -0.132 F 
ATOM     25  F   UNL A   1      31.732  21.249  24.742  1.00  0.00    -0.132 F 
ENDBRANCH  21  22
ENDBRANCH  13  21
BRANCH  18  26
ATOM     26  C   UNL A   1      31.602  29.134  24.601  1.00  0.00     0.429 C 
ATOM     27  F   UNL A   1      31.961  30.231  25.306  1.00  0.00    -0.167 F 
ATOM     28  F   UNL A   1      31.417  29.575  23.326  1.00  0.00    -0.167 F 
ATOM     29  F   UNL A   1      30.393  28.722  25.047  1.00  0.00    -0.167 F 
ENDBRANCH  18  26
ENDBRANCH   6   9
ENDBRANCH   4   5
ENDBRANCH   3   4
ENDBRANCH   2   3
ENDBRANCH   1   2
BRANCH   1  30
ATOM     30  C   UNL A   1      36.297  29.660  30.793  1.00  0.00     0.021 C 
BRANCH  30  31
ATOM     31  C   UNL A   1      36.789  30.053  32.182  1.00  0.00     0.116 C 
BRANCH  31  32
ATOM     32  N   UNL A   1      36.958  31.492  32.299  1.00  0.00    -0.352 N 
ATOM     33  C   UNL A   1      38.103  32.241  32.191  1.00  0.00     0.251 C 
ATOM     34  H   UNL A   1      36.135  32.001  32.482  1.00  0.00     0.163 HD
ATOM     35  O   UNL A   1      38.105  33.409  32.565  1.00  0.00    -0.269 OA
BRANCH  33  36
ATOM     36  C   UNL A   1      39.329  31.636  31.629  1.00  0.00     0.039 A 
ATOM     37  C   UNL A   1      40.136  30.847  32.453  1.00  0.00     0.014 A 
ATOM     38  C   UNL A   1      39.703  31.878  30.303  1.00  0.00     0.014 A 
ATOM     39  C   UNL A   1      41.302  30.275  31.938  1.00  0.00     0.010 A 
ATOM     40  C   UNL A   1      40.827  31.252  29.773  1.00  0.00     0.010 A 
ATOM     41  C   UNL A   1      41.648  30.461  30.590  1.00  0.00    -0.014 A 
BRANCH  41  42
ATOM     42  C   UNL A   1      42.888  29.869  30.028  1.00  0.00     0.031 A 
ATOM     43  C   UNL A   1      44.153  30.685  29.981  1.00  0.00     0.074 A 
ATOM     44  C   UNL A   1      42.865  28.623  29.516  1.00  0.00     0.049 A 
ATOM     45  N   UNL A   1      45.319  30.375  29.475  1.00  0.00    -0.248 NA
ATOM     46  C   UNL A   1      44.090  32.040  30.553  1.00  0.00     0.031 C 
ATOM     47  C   UNL A   1      41.689  27.752  29.465  1.00  0.00     0.029 A 
ATOM     48  N   UNL A   1      43.857  27.875  28.934  1.00  0.00    -0.354 N 
ATOM     49  C   UNL A   1      46.120  31.497  29.651  1.00  0.00     0.074 A 
ATOM     50  C   UNL A   1      45.293  32.515  30.262  1.00  0.00     0.031 C 
ATOM     51  C   UNL A   1      42.033  26.583  28.901  1.00  0.00     0.029 A 
ATOM     52  C   UNL A   1      43.442  26.631  28.522  1.00  0.00     0.049 A 
ATOM     53  H   UNL A   1      44.780  28.199  28.822  1.00  0.00     0.167 HD
ATOM     54  C   UNL A   1      47.432  31.658  29.355  1.00  0.00     0.037 A 
ATOM     55  C   UNL A   1      44.120  25.644  27.905  1.00  0.00     0.037 A 
ATOM     56  C   UNL A   1      48.257  30.628  28.778  1.00  0.00     0.049 A 
ATOM     57  C   UNL A   1      45.580  25.840  27.598  1.00  0.00     0.074 A 
ATOM     58  C   UNL A   1      49.610  30.669  28.493  1.00  0.00     0.029 A 
ATOM     59  N   UNL A   1      47.806  29.372  28.402  1.00  0.00    -0.354 N 
ATOM     60  N   UNL A   1      46.336  26.887  27.826  1.00  0.00    -0.248 NA
ATOM     61  C   UNL A   1      46.282  24.718  26.959  1.00  0.00     0.031 C 
ATOM     62  C   UNL A   1      49.970  29.450  27.910  1.00  0.00     0.029 A 
ATOM     63  C   UNL A   1      48.852  28.633  27.873  1.00  0.00     0.049 A 
ATOM     64  H   UNL A   1      46.880  29.051  28.497  1.00  0.00     0.167 HD
ATOM     65  C   UNL A   1      47.609  26.540  27.384  1.00  0.00     0.074 A 
ATOM     66  C   UNL A   1      47.522  25.182  26.886  1.00  0.00     0.031 C 
ATOM     67  C   UNL A   1      48.747  27.278  27.392  1.00  0.00     0.037 A 
BRANCH  54  68
ATOM     68  C   UNL A   1      48.057  32.993  29.657  1.00  0.00     0.058 A 
ATOM     69  C   UNL A   1      48.656  33.262  30.899  1.00  0.00     0.135 A 
ATOM     70  C   UNL A   1      48.082  34.006  28.686  1.00  0.00     0.135 A 
ATOM     71  F   UNL A   1      48.648  32.334  31.869  1.00  0.00    -0.206 F 
ATOM     72  C   UNL A   1      49.228  34.498  31.178  1.00  0.00     0.059 A 
ATOM     73  C   UNL A   1      48.673  35.242  28.934  1.00  0.00     0.059 A 
ATOM     74  F   UNL A   1      47.523  33.804  27.482  1.00  0.00    -0.206 F 
ATOM     75  C   UNL A   1      49.229  35.484  30.190  1.00  0.00     0.060 A 
BRANCH  75  76
ATOM     76  S   UNL A   1      49.974  37.084  30.568  1.00  0.00     0.124 S 
ATOM     77  O   UNL A   1      51.329  36.691  30.945  1.00  0.00    -0.237 OA
ATOM     78  O   UNL A   1      49.850  37.795  29.299  1.00  0.00    -0.237 OA
ATOM     79  O   UNL A   1      49.146  37.598  31.654  1.00  0.00    -0.744 OA
ENDBRANCH  75  76
ENDBRANCH  54  68
BRANCH  55  80
ATOM     80  C   UNL A   1      43.431  24.372  27.563  1.00  0.00     0.058 A 
ATOM     81  C   UNL A   1      43.176  23.403  28.546  1.00  0.00     0.135 A 
ATOM     82  C   UNL A   1      43.001  24.104  26.254  1.00  0.00     0.135 A 
ATOM     83  F   UNL A   1      43.571  23.611  29.810  1.00  0.00    -0.206 F 
ATOM     84  C   UNL A   1      42.535  22.206  28.240  1.00  0.00     0.059 A 
ATOM     85  C   UNL A   1      42.338  22.924  25.929  1.00  0.00     0.059 A 
ATOM     86  F   UNL A   1      43.205  25.006  25.281  1.00  0.00    -0.206 F 
ATOM     87  C   UNL A   1      42.118  21.976  26.928  1.00  0.00     0.060 A 
BRANCH  87  88
ATOM     88  S   UNL A   1      41.246  20.441  26.552  1.00  0.00     0.124 S 
ATOM     89  O   UNL A   1      42.042  19.913  25.451  1.00  0.00    -0.237 OA
ATOM     90  O   UNL A   1      41.341  19.717  27.816  1.00  0.00    -0.237 OA
ATOM     91  O   UNL A   1      39.904  20.896  26.201  1.00  0.00    -0.744 OA
ENDBRANCH  87  88
ENDBRANCH  55  80
BRANCH  67  92
ATOM     92  C   UNL A   1      49.999  26.622  26.882  1.00  0.00     0.058 A 
ATOM     93  C   UNL A   1      50.320  26.606  25.515  1.00  0.00     0.135 A 
ATOM     94  C   UNL A   1      50.917  26.050  27.778  1.00  0.00     0.135 A 
ATOM     95  F   UNL A   1      49.474  27.135  24.616  1.00  0.00    -0.206 F 
ATOM     96  C   UNL A   1      51.497  26.027  25.052  1.00  0.00     0.059 A 
ATOM     97  C   UNL A   1      52.112  25.488  27.340  1.00  0.00     0.059 A 
ATOM     98  F   UNL A   1      50.663  26.049  29.096  1.00  0.00    -0.206 F 
ATOM     99  C   UNL A   1      52.387  25.472  25.974  1.00  0.00     0.060 A 
BRANCH  99 100
ATOM    100  S   UNL A   1      53.927  24.753  25.365  1.00  0.00     0.124 S 
ATOM    101  O   UNL A   1      54.238  25.632  24.243  1.00  0.00    -0.237 OA
ATOM    102  O   UNL A   1      54.808  24.869  26.524  1.00  0.00    -0.237 OA
ATOM    103  O   UNL A   1      53.548  23.389  25.008  1.00  0.00    -0.744 OA
ENDBRANCH  99 100
ENDBRANCH  67  92
ENDBRANCH  41  42
ENDBRANCH  33  36
ENDBRANCH  31  32
ENDBRANCH  30  31
ENDBRANCH   1  30
TORSDOF 20
ENDMDL
