MODEL 1
REMARK VINA RESULT:     -11.9      0.000      0.000
REMARK SMILES C[C@@H](C(=O)NCCCCCCNC(=O)c1ccc(-c2c3nc(c(-c4c(F)cc(S(=O)(=O)[O-])cc4F)c4ccc([nH]4)c(-c4c(F)cc(S(=O)(=O)[O-])cc4F)c4nc(c(-c5c(F)cc(S(=O)(=O)[O-])cc5F)c5ccc2[nH]5)C=C4)C=C3)cc1)c1ccc(-c2cccc(OC(=O)NC3CC3)c2)c(F)c1
REMARK SMILES IDX 7 1 6 2 5 3 3 4 4 5 2 7 1 8 81 9 82 10 100 11 83 12 98 13
REMARK SMILES IDX 84 14 99 15 85 16 86 17 97 18 87 19 89 20 88 21 90 22 91 23
REMARK SMILES IDX 92 24 93 25 94 27 95 28 96 29 8 30 9 31 10 32 11 33 12 34
REMARK SMILES IDX 13 35 14 37 15 38 16 39 80 40 17 41 79 42 18 43 19 44 20 45
REMARK SMILES IDX 73 46 21 47 78 48 72 49 74 50 22 51 77 52 71 53 70 54 23 56
REMARK SMILES IDX 57 57 36 58 56 59 37 60 40 61 55 62 75 63 38 64 39 65 54 67
REMARK SMILES IDX 76 68 41 69 24 70 25 71 34 72 26 73 27 74 33 75 35 76 28 77
REMARK SMILES IDX 29 78 30 79 31 80 32 81 58 82 59 83 68 84 60 85 61 86 67 87
REMARK SMILES IDX 69 88 62 89 63 90 64 91 65 92 66 93 42 94 43 95 52 96 44 97
REMARK SMILES IDX 45 98 51 99 53 100 46 101 47 102 48 103 49 104 50 105
REMARK H PARENT 5 6 93 26 12 36 74 55 40 66
REMARK Flexibility Score: inf
ROOT
ATOM      1  C   UNL A   1      36.052  21.425  25.725  1.00  0.00     0.021 C 
ENDROOT
BRANCH   1   2
ATOM      2  C   UNL A   1      35.115  21.005  24.589  1.00  0.00     0.116 C 
BRANCH   2   3
ATOM      3  N   UNL A   1      34.232  19.956  25.051  1.00  0.00    -0.356 N 
ATOM      4  C   UNL A   1      32.869  19.918  25.054  1.00  0.00     0.227 C 
ATOM      5  O   UNL A   1      32.338  19.056  25.757  1.00  0.00    -0.274 OA
ATOM      6  H   UNL A   1      34.678  19.157  25.415  1.00  0.00     0.163 HD
BRANCH   4   7
ATOM      7  C   UNL A   1      32.075  20.890  24.157  1.00  0.00     0.105 C 
ATOM      8  C   UNL A   1      32.260  20.544  22.674  1.00  0.00     0.023 C 
BRANCH   7   9
ATOM      9  C   UNL A   1      32.413  22.348  24.477  1.00  0.00    -0.033 A 
ATOM     10  C   UNL A   1      32.070  22.950  25.696  1.00  0.00     0.005 A 
ATOM     11  C   UNL A   1      33.059  23.138  23.512  1.00  0.00     0.044 A 
ATOM     12  C   UNL A   1      32.326  24.300  25.930  1.00  0.00     0.012 A 
ATOM     13  C   UNL A   1      33.295  24.493  23.745  1.00  0.00     0.131 A 
ATOM     14  C   UNL A   1      32.922  25.101  24.949  1.00  0.00     0.018 A 
ATOM     15  F   UNL A   1      33.870  25.217  22.771  1.00  0.00    -0.206 F 
BRANCH  14  16
ATOM     16  C   UNL A   1      33.031  26.544  25.174  1.00  0.00    -0.012 A 
ATOM     17  C   UNL A   1      34.111  27.094  25.881  1.00  0.00     0.009 A 
ATOM     18  C   UNL A   1      31.983  27.387  24.772  1.00  0.00     0.056 A 
ATOM     19  C   UNL A   1      34.139  28.454  26.194  1.00  0.00     0.004 A 
ATOM     20  C   UNL A   1      32.009  28.738  25.096  1.00  0.00     0.133 A 
ATOM     21  C   UNL A   1      33.083  29.276  25.806  1.00  0.00     0.047 A 
BRANCH  20  22
ATOM     22  O   UNL A   1      30.980  29.656  24.769  1.00  0.00    -0.410 OA
BRANCH  22  23
ATOM     23  C   UNL A   1      30.823  30.940  25.277  1.00  0.00     0.412 C 
ATOM     24  O   UNL A   1      31.410  31.422  26.241  1.00  0.00    -0.224 OA
ATOM     25  N   UNL A   1      29.895  31.692  24.604  1.00  0.00    -0.318 N 
ATOM     26  H   UNL A   1      29.732  32.587  24.980  1.00  0.00     0.167 HD
BRANCH  25  27
ATOM     27  C   UNL A   1      29.133  31.376  23.445  1.00  0.00     0.085 C 
ATOM     28  C   UNL A   1      27.649  31.533  23.263  1.00  0.00     0.027 C 
ATOM     29  C   UNL A   1      28.582  32.511  22.617  1.00  0.00     0.027 C 
ENDBRANCH  25  27
ENDBRANCH  22  23
ENDBRANCH  20  22
ENDBRANCH  14  16
ENDBRANCH   7   9
ENDBRANCH   4   7
ENDBRANCH   2   3
ENDBRANCH   1   2
BRANCH   1  30
ATOM     30  C   UNL A   1      35.556  22.649  26.506  1.00  0.00     0.002 C 
BRANCH  30  31
ATOM     31  C   UNL A   1      36.249  23.963  26.136  1.00  0.00     0.002 C 
BRANCH  31  32
ATOM     32  C   UNL A   1      37.684  23.799  25.633  1.00  0.00     0.021 C 
BRANCH  32  33
ATOM     33  C   UNL A   1      38.737  24.337  26.591  1.00  0.00     0.116 C 
BRANCH  33  34
ATOM     34  N   UNL A   1      40.085  24.042  26.129  1.00  0.00    -0.352 N 
ATOM     35  C   UNL A   1      41.258  24.676  26.456  1.00  0.00     0.251 C 
ATOM     36  H   UNL A   1      40.167  23.289  25.500  1.00  0.00     0.163 HD
ATOM     37  O   UNL A   1      42.282  24.465  25.816  1.00  0.00    -0.269 OA
BRANCH  35  38
ATOM     38  C   UNL A   1      41.259  25.634  27.581  1.00  0.00     0.039 A 
ATOM     39  C   UNL A   1      42.218  26.647  27.619  1.00  0.00     0.014 A 
ATOM     40  C   UNL A   1      40.277  25.544  28.571  1.00  0.00     0.014 A 
ATOM     41  C   UNL A   1      42.153  27.615  28.623  1.00  0.00     0.010 A 
ATOM     42  C   UNL A   1      40.167  26.554  29.519  1.00  0.00     0.010 A 
ATOM     43  C   UNL A   1      41.107  27.596  29.559  1.00  0.00    -0.014 A 
BRANCH  43  44
ATOM     44  C   UNL A   1      40.967  28.642  30.602  1.00  0.00     0.031 A 
ATOM     45  C   UNL A   1      41.787  28.553  31.858  1.00  0.00     0.074 A 
ATOM     46  C   UNL A   1      40.031  29.602  30.470  1.00  0.00     0.049 A 
ATOM     47  N   UNL A   1      41.712  29.269  32.949  1.00  0.00    -0.248 NA
ATOM     48  C   UNL A   1      42.804  27.490  31.904  1.00  0.00     0.031 C 
ATOM     49  C   UNL A   1      39.143  29.764  29.318  1.00  0.00     0.029 A 
ATOM     50  N   UNL A   1      39.649  30.603  31.328  1.00  0.00    -0.354 N 
ATOM     51  C   UNL A   1      42.648  28.727  33.821  1.00  0.00     0.074 A 
ATOM     52  C   UNL A   1      43.239  27.589  33.151  1.00  0.00     0.031 C 
ATOM     53  C   UNL A   1      38.319  30.800  29.541  1.00  0.00     0.029 A 
ATOM     54  C   UNL A   1      38.584  31.344  30.870  1.00  0.00     0.049 A 
ATOM     55  H   UNL A   1      40.094  30.775  32.189  1.00  0.00     0.167 HD
ATOM     56  C   UNL A   1      42.994  29.149  35.059  1.00  0.00     0.037 A 
ATOM     57  C   UNL A   1      37.881  32.330  31.462  1.00  0.00     0.037 A 
ATOM     58  C   UNL A   1      42.406  30.291  35.708  1.00  0.00     0.049 A 
ATOM     59  C   UNL A   1      38.273  32.786  32.840  1.00  0.00     0.074 A 
ATOM     60  C   UNL A   1      42.731  30.846  36.932  1.00  0.00     0.029 A 
ATOM     61  N   UNL A   1      41.361  31.045  35.192  1.00  0.00    -0.354 N 
ATOM     62  N   UNL A   1      39.211  32.312  33.626  1.00  0.00    -0.248 NA
ATOM     63  C   UNL A   1      37.521  33.911  33.414  1.00  0.00     0.031 C 
ATOM     64  C   UNL A   1      41.841  31.894  37.185  1.00  0.00     0.029 A 
ATOM     65  C   UNL A   1      41.006  32.039  36.086  1.00  0.00     0.049 A 
ATOM     66  H   UNL A   1      40.933  30.893  34.317  1.00  0.00     0.167 HD
ATOM     67  C   UNL A   1      39.184  33.098  34.773  1.00  0.00     0.074 A 
ATOM     68  C   UNL A   1      38.134  34.077  34.580  1.00  0.00     0.031 C 
ATOM     69  C   UNL A   1      39.964  33.017  35.879  1.00  0.00     0.037 A 
BRANCH  56  70
ATOM     70  C   UNL A   1      44.037  28.352  35.798  1.00  0.00     0.058 A 
ATOM     71  C   UNL A   1      45.412  28.601  35.645  1.00  0.00     0.135 A 
ATOM     72  C   UNL A   1      43.657  27.313  36.662  1.00  0.00     0.135 A 
ATOM     73  F   UNL A   1      45.837  29.576  34.825  1.00  0.00    -0.206 F 
ATOM     74  C   UNL A   1      46.370  27.812  36.273  1.00  0.00     0.059 A 
ATOM     75  C   UNL A   1      44.597  26.534  37.331  1.00  0.00     0.059 A 
ATOM     76  F   UNL A   1      42.358  27.032  36.854  1.00  0.00    -0.206 F 
ATOM     77  C   UNL A   1      45.952  26.774  37.107  1.00  0.00     0.060 A 
BRANCH  77  78
ATOM     78  S   UNL A   1      47.205  25.728  37.876  1.00  0.00     0.124 S 
ATOM     79  O   UNL A   1      48.022  25.361  36.724  1.00  0.00    -0.237 OA
ATOM     80  O   UNL A   1      47.829  26.639  38.831  1.00  0.00    -0.237 OA
ATOM     81  O   UNL A   1      46.428  24.643  38.466  1.00  0.00    -0.744 OA
ENDBRANCH  77  78
ENDBRANCH  56  70
BRANCH  57  82
ATOM     82  C   UNL A   1      36.737  32.942  30.735  1.00  0.00     0.058 A 
ATOM     83  C   UNL A   1      35.414  32.710  31.135  1.00  0.00     0.135 A 
ATOM     84  C   UNL A   1      36.951  33.835  29.672  1.00  0.00     0.135 A 
ATOM     85  F   UNL A   1      35.156  31.858  32.139  1.00  0.00    -0.206 F 
ATOM     86  C   UNL A   1      34.343  33.347  30.514  1.00  0.00     0.059 A 
ATOM     87  C   UNL A   1      35.900  34.503  29.052  1.00  0.00     0.059 A 
ATOM     88  F   UNL A   1      38.201  34.104  29.262  1.00  0.00    -0.206 F 
ATOM     89  C   UNL A   1      34.597  34.252  29.482  1.00  0.00     0.060 A 
BRANCH  89  90
ATOM     90  S   UNL A   1      33.209  35.148  28.754  1.00  0.00     0.124 S 
ATOM     91  O   UNL A   1      33.862  36.355  28.261  1.00  0.00    -0.237 OA
ATOM     92  O   UNL A   1      32.743  34.211  27.737  1.00  0.00    -0.237 OA
ATOM     93  O   UNL A   1      32.302  35.337  29.883  1.00  0.00    -0.744 OA
ENDBRANCH  89  90
ENDBRANCH  57  82
BRANCH  69  94
ATOM     94  C   UNL A   1      39.760  34.038  36.965  1.00  0.00     0.058 A 
ATOM     95  C   UNL A   1      38.982  33.769  38.101  1.00  0.00     0.135 A 
ATOM     96  C   UNL A   1      40.455  35.259  36.919  1.00  0.00     0.135 A 
ATOM     97  F   UNL A   1      38.289  32.623  38.189  1.00  0.00    -0.206 F 
ATOM     98  C   UNL A   1      38.904  34.673  39.156  1.00  0.00     0.059 A 
ATOM     99  C   UNL A   1      40.414  36.163  37.974  1.00  0.00     0.059 A 
ATOM    100  F   UNL A   1      41.218  35.563  35.857  1.00  0.00    -0.206 F 
ATOM    101  C   UNL A   1      39.636  35.860  39.091  1.00  0.00     0.060 A 
BRANCH 101 102
ATOM    102  S   UNL A   1      39.599  36.980  40.507  1.00  0.00     0.124 S 
ATOM    103  O   UNL A   1      38.478  36.447  41.275  1.00  0.00    -0.237 OA
ATOM    104  O   UNL A   1      40.921  36.782  41.093  1.00  0.00    -0.237 OA
ATOM    105  O   UNL A   1      39.377  38.290  39.901  1.00  0.00    -0.744 OA
ENDBRANCH 101 102
ENDBRANCH  69  94
ENDBRANCH  43  44
ENDBRANCH  35  38
ENDBRANCH  33  34
ENDBRANCH  32  33
ENDBRANCH  31  32
ENDBRANCH  30  31
ENDBRANCH   1  30
TORSDOF 21
ENDMDL
MODEL 2
REMARK VINA RESULT:     -11.6      0.888      8.038
REMARK SMILES C[C@@H](C(=O)NCCCCCCNC(=O)c1ccc(-c2c3nc(c(-c4c(F)cc(S(=O)(=O)[O-])cc4F)c4ccc([nH]4)c(-c4c(F)cc(S(=O)(=O)[O-])cc4F)c4nc(c(-c5c(F)cc(S(=O)(=O)[O-])cc5F)c5ccc2[nH]5)C=C4)C=C3)cc1)c1ccc(-c2cccc(OC(=O)NC3CC3)c2)c(F)c1
REMARK SMILES IDX 7 1 6 2 5 3 3 4 4 5 2 7 1 8 81 9 82 10 100 11 83 12 98 13
REMARK SMILES IDX 84 14 99 15 85 16 86 17 97 18 87 19 89 20 88 21 90 22 91 23
REMARK SMILES IDX 92 24 93 25 94 27 95 28 96 29 8 30 9 31 10 32 11 33 12 34
REMARK SMILES IDX 13 35 14 37 15 38 16 39 80 40 17 41 79 42 18 43 19 44 20 45
REMARK SMILES IDX 73 46 21 47 78 48 72 49 74 50 22 51 77 52 71 53 70 54 23 56
REMARK SMILES IDX 57 57 36 58 56 59 37 60 40 61 55 62 75 63 38 64 39 65 54 67
REMARK SMILES IDX 76 68 41 69 24 70 25 71 34 72 26 73 27 74 33 75 35 76 28 77
REMARK SMILES IDX 29 78 30 79 31 80 32 81 58 82 59 83 68 84 60 85 61 86 67 87
REMARK SMILES IDX 69 88 62 89 63 90 64 91 65 92 66 93 42 94 43 95 52 96 44 97
REMARK SMILES IDX 45 98 51 99 53 100 46 101 47 102 48 103 49 104 50 105
REMARK H PARENT 5 6 93 26 12 36 74 55 40 66
REMARK Flexibility Score: inf
ROOT
ATOM      1  C   UNL A   1      35.982  21.252  25.758  1.00  0.00     0.021 C 
ENDROOT
BRANCH   1   2
ATOM      2  C   UNL A   1      35.146  20.578  24.666  1.00  0.00     0.116 C 
BRANCH   2   3
ATOM      3  N   UNL A   1      34.327  19.539  25.254  1.00  0.00    -0.356 N 
ATOM      4  C   UNL A   1      32.968  19.443  25.310  1.00  0.00     0.227 C 
ATOM      5  O   UNL A   1      32.501  18.628  26.108  1.00  0.00    -0.274 OA
ATOM      6  H   UNL A   1      34.821  18.797  25.673  1.00  0.00     0.163 HD
BRANCH   4   7
ATOM      7  C   UNL A   1      32.102  20.291  24.358  1.00  0.00     0.105 C 
ATOM      8  C   UNL A   1      32.406  19.954  22.892  1.00  0.00     0.023 C 
BRANCH   7   9
ATOM      9  C   UNL A   1      32.231  21.785  24.666  1.00  0.00    -0.033 A 
ATOM     10  C   UNL A   1      31.824  22.339  25.889  1.00  0.00     0.005 A 
ATOM     11  C   UNL A   1      32.742  22.654  23.687  1.00  0.00     0.044 A 
ATOM     12  C   UNL A   1      31.886  23.713  26.113  1.00  0.00     0.012 A 
ATOM     13  C   UNL A   1      32.784  24.030  23.912  1.00  0.00     0.131 A 
ATOM     14  C   UNL A   1      32.345  24.585  25.119  1.00  0.00     0.018 A 
ATOM     15  F   UNL A   1      33.232  24.824  22.926  1.00  0.00    -0.206 F 
BRANCH  14  16
ATOM     16  C   UNL A   1      32.249  26.031  25.337  1.00  0.00    -0.012 A 
ATOM     17  C   UNL A   1      32.872  26.649  26.432  1.00  0.00     0.009 A 
ATOM     18  C   UNL A   1      31.428  26.802  24.499  1.00  0.00     0.056 A 
ATOM     19  C   UNL A   1      32.670  28.004  26.695  1.00  0.00     0.004 A 
ATOM     20  C   UNL A   1      31.220  28.149  24.771  1.00  0.00     0.133 A 
ATOM     21  C   UNL A   1      31.838  28.754  25.866  1.00  0.00     0.047 A 
BRANCH  20  22
ATOM     22  O   UNL A   1      30.379  28.995  24.007  1.00  0.00    -0.410 OA
BRANCH  22  23
ATOM     23  C   UNL A   1      30.105  28.886  22.649  1.00  0.00     0.412 C 
ATOM     24  O   UNL A   1      30.350  27.922  21.930  1.00  0.00    -0.224 OA
ATOM     25  N   UNL A   1      29.517  30.001  22.111  1.00  0.00    -0.318 N 
ATOM     26  H   UNL A   1      29.362  29.963  21.140  1.00  0.00     0.167 HD
BRANCH  25  27
ATOM     27  C   UNL A   1      29.097  31.205  22.743  1.00  0.00     0.085 C 
ATOM     28  C   UNL A   1      27.993  32.125  22.301  1.00  0.00     0.027 C 
ATOM     29  C   UNL A   1      27.773  31.211  23.467  1.00  0.00     0.027 C 
ENDBRANCH  25  27
ENDBRANCH  22  23
ENDBRANCH  20  22
ENDBRANCH  14  16
ENDBRANCH   7   9
ENDBRANCH   4   7
ENDBRANCH   2   3
ENDBRANCH   1   2
BRANCH   1  30
ATOM     30  C   UNL A   1      35.356  22.545  26.297  1.00  0.00     0.002 C 
BRANCH  30  31
ATOM     31  C   UNL A   1      36.052  23.829  25.835  1.00  0.00     0.002 C 
BRANCH  31  32
ATOM     32  C   UNL A   1      37.541  23.663  25.528  1.00  0.00     0.021 C 
BRANCH  32  33
ATOM     33  C   UNL A   1      38.457  24.349  26.532  1.00  0.00     0.116 C 
BRANCH  33  34
ATOM     34  N   UNL A   1      39.836  24.377  26.068  1.00  0.00    -0.352 N 
ATOM     35  C   UNL A   1      40.829  25.268  26.395  1.00  0.00     0.251 C 
ATOM     36  H   UNL A   1      40.091  23.665  25.439  1.00  0.00     0.163 HD
ATOM     37  O   UNL A   1      41.873  25.302  25.756  1.00  0.00    -0.269 OA
BRANCH  35  38
ATOM     38  C   UNL A   1      40.607  26.199  27.521  1.00  0.00     0.039 A 
ATOM     39  C   UNL A   1      39.653  25.888  28.491  1.00  0.00     0.014 A 
ATOM     40  C   UNL A   1      41.381  27.358  27.628  1.00  0.00     0.014 A 
ATOM     41  C   UNL A   1      39.518  26.712  29.610  1.00  0.00     0.010 A 
ATOM     42  C   UNL A   1      41.301  28.129  28.781  1.00  0.00     0.010 A 
ATOM     43  C   UNL A   1      40.366  27.818  29.780  1.00  0.00    -0.014 A 
BRANCH  43  44
ATOM     44  C   UNL A   1      40.297  28.682  30.985  1.00  0.00     0.031 A 
ATOM     45  C   UNL A   1      39.311  29.815  31.032  1.00  0.00     0.074 A 
ATOM     46  C   UNL A   1      41.189  28.517  31.982  1.00  0.00     0.049 A 
ATOM     47  N   UNL A   1      39.189  30.772  31.915  1.00  0.00    -0.248 NA
ATOM     48  C   UNL A   1      38.358  29.902  29.914  1.00  0.00     0.031 C 
ATOM     49  C   UNL A   1      42.223  27.483  32.029  1.00  0.00     0.029 A 
ATOM     50  N   UNL A   1      41.389  29.240  33.132  1.00  0.00    -0.354 N 
ATOM     51  C   UNL A   1      38.169  31.589  31.446  1.00  0.00     0.074 A 
ATOM     52  C   UNL A   1      37.743  31.045  30.175  1.00  0.00     0.031 C 
ATOM     53  C   UNL A   1      42.949  27.638  33.147  1.00  0.00     0.029 A 
ATOM     54  C   UNL A   1      42.466  28.810  33.871  1.00  0.00     0.049 A 
ATOM     55  H   UNL A   1      40.816  29.994  33.403  1.00  0.00     0.167 HD
ATOM     56  C   UNL A   1      37.625  32.683  32.029  1.00  0.00     0.037 A 
ATOM     57  C   UNL A   1      43.022  29.318  34.990  1.00  0.00     0.037 A 
ATOM     58  C   UNL A   1      38.051  33.204  33.302  1.00  0.00     0.049 A 
ATOM     59  C   UNL A   1      42.412  30.536  35.626  1.00  0.00     0.074 A 
ATOM     60  C   UNL A   1      37.524  34.265  34.016  1.00  0.00     0.029 A 
ATOM     61  N   UNL A   1      39.117  32.713  34.043  1.00  0.00    -0.354 N 
ATOM     62  N   UNL A   1      41.398  31.258  35.210  1.00  0.00    -0.248 NA
ATOM     63  C   UNL A   1      43.011  31.009  36.881  1.00  0.00     0.031 C 
ATOM     64  C   UNL A   1      38.310  34.455  35.156  1.00  0.00     0.029 A 
ATOM     65  C   UNL A   1      39.285  33.469  35.190  1.00  0.00     0.049 A 
ATOM     66  H   UNL A   1      39.674  31.941  33.789  1.00  0.00     0.167 HD
ATOM     67  C   UNL A   1      41.217  32.251  36.166  1.00  0.00     0.074 A 
ATOM     68  C   UNL A   1      42.229  32.040  37.181  1.00  0.00     0.031 C 
ATOM     69  C   UNL A   1      40.291  33.242  36.201  1.00  0.00     0.037 A 
BRANCH  56  70
ATOM     70  C   UNL A   1      36.532  33.398  31.281  1.00  0.00     0.058 A 
ATOM     71  C   UNL A   1      35.190  33.350  31.696  1.00  0.00     0.135 A 
ATOM     72  C   UNL A   1      36.828  34.133  30.122  1.00  0.00     0.135 A 
ATOM     73  F   UNL A   1      34.844  32.656  32.791  1.00  0.00    -0.206 F 
ATOM     74  C   UNL A   1      34.177  33.952  30.956  1.00  0.00     0.059 A 
ATOM     75  C   UNL A   1      35.836  34.775  29.387  1.00  0.00     0.059 A 
ATOM     76  F   UNL A   1      38.093  34.221  29.680  1.00  0.00    -0.206 F 
ATOM     77  C   UNL A   1      34.509  34.655  29.797  1.00  0.00     0.060 A 
BRANCH  77  78
ATOM     78  S   UNL A   1      33.180  35.388  28.822  1.00  0.00     0.124 S 
ATOM     79  O   UNL A   1      32.583  34.204  28.212  1.00  0.00    -0.237 OA
ATOM     80  O   UNL A   1      32.373  36.050  29.843  1.00  0.00    -0.237 OA
ATOM     81  O   UNL A   1      33.881  36.280  27.906  1.00  0.00    -0.744 OA
ENDBRANCH  77  78
ENDBRANCH  56  70
BRANCH  57  82
ATOM     82  C   UNL A   1      44.223  28.658  35.566  1.00  0.00     0.058 A 
ATOM     83  C   UNL A   1      45.516  29.094  35.245  1.00  0.00     0.135 A 
ATOM     84  C   UNL A   1      44.097  27.627  36.511  1.00  0.00     0.135 A 
ATOM     85  F   UNL A   1      45.690  30.069  34.341  1.00  0.00    -0.206 F 
ATOM     86  C   UNL A   1      46.642  28.538  35.846  1.00  0.00     0.059 A 
ATOM     87  C   UNL A   1      45.206  27.073  37.144  1.00  0.00     0.059 A 
ATOM     88  F   UNL A   1      42.880  27.185  36.866  1.00  0.00    -0.206 F 
ATOM     89  C   UNL A   1      46.476  27.537  36.805  1.00  0.00     0.060 A 
BRANCH  89  90
ATOM     90  S   UNL A   1      47.937  26.896  37.651  1.00  0.00     0.124 S 
ATOM     91  O   UNL A   1      48.506  26.020  36.634  1.00  0.00    -0.237 OA
ATOM     92  O   UNL A   1      48.684  28.118  37.934  1.00  0.00    -0.237 OA
ATOM     93  O   UNL A   1      47.380  26.227  38.822  1.00  0.00    -0.744 OA
ENDBRANCH  89  90
ENDBRANCH  57  82
BRANCH  69  94
ATOM     94  C   UNL A   1      40.281  34.160  37.393  1.00  0.00     0.058 A 
ATOM     95  C   UNL A   1      40.869  35.433  37.355  1.00  0.00     0.135 A 
ATOM     96  C   UNL A   1      39.566  33.801  38.549  1.00  0.00     0.135 A 
ATOM     97  F   UNL A   1      41.573  35.821  36.280  1.00  0.00    -0.206 F 
ATOM     98  C   UNL A   1      40.743  36.321  38.419  1.00  0.00     0.059 A 
ATOM     99  C   UNL A   1      39.404  34.683  39.610  1.00  0.00     0.059 A 
ATOM    100  F   UNL A   1      38.979  32.596  38.633  1.00  0.00    -0.206 F 
ATOM    101  C   UNL A   1      39.995  35.943  39.536  1.00  0.00     0.060 A 
BRANCH 101 102
ATOM    102  S   UNL A   1      39.763  37.140  40.868  1.00  0.00     0.124 S 
ATOM    103  O   UNL A   1      39.489  38.363  40.122  1.00  0.00    -0.237 OA
ATOM    104  O   UNL A   1      38.633  36.575  41.599  1.00  0.00    -0.237 OA
ATOM    105  O   UNL A   1      41.039  37.111  41.579  1.00  0.00    -0.744 OA
ENDBRANCH 101 102
ENDBRANCH  69  94
ENDBRANCH  43  44
ENDBRANCH  35  38
ENDBRANCH  33  34
ENDBRANCH  32  33
ENDBRANCH  31  32
ENDBRANCH  30  31
ENDBRANCH   1  30
TORSDOF 21
ENDMDL
MODEL 3
REMARK VINA RESULT:     -11.3      1.374      2.109
REMARK SMILES C[C@@H](C(=O)NCCCCCCNC(=O)c1ccc(-c2c3nc(c(-c4c(F)cc(S(=O)(=O)[O-])cc4F)c4ccc([nH]4)c(-c4c(F)cc(S(=O)(=O)[O-])cc4F)c4nc(c(-c5c(F)cc(S(=O)(=O)[O-])cc5F)c5ccc2[nH]5)C=C4)C=C3)cc1)c1ccc(-c2cccc(OC(=O)NC3CC3)c2)c(F)c1
REMARK SMILES IDX 7 1 6 2 5 3 3 4 4 5 2 7 1 8 81 9 82 10 100 11 83 12 98 13
REMARK SMILES IDX 84 14 99 15 85 16 86 17 97 18 87 19 89 20 88 21 90 22 91 23
REMARK SMILES IDX 92 24 93 25 94 27 95 28 96 29 8 30 9 31 10 32 11 33 12 34
REMARK SMILES IDX 13 35 14 37 15 38 16 39 80 40 17 41 79 42 18 43 19 44 20 45
REMARK SMILES IDX 73 46 21 47 78 48 72 49 74 50 22 51 77 52 71 53 70 54 23 56
REMARK SMILES IDX 57 57 36 58 56 59 37 60 40 61 55 62 75 63 38 64 39 65 54 67
REMARK SMILES IDX 76 68 41 69 24 70 25 71 34 72 26 73 27 74 33 75 35 76 28 77
REMARK SMILES IDX 29 78 30 79 31 80 32 81 58 82 59 83 68 84 60 85 61 86 67 87
REMARK SMILES IDX 69 88 62 89 63 90 64 91 65 92 66 93 42 94 43 95 52 96 44 97
REMARK SMILES IDX 45 98 51 99 53 100 46 101 47 102 48 103 49 104 50 105
REMARK H PARENT 5 6 93 26 12 36 74 55 40 66
REMARK Flexibility Score: inf
ROOT
ATOM      1  C   UNL A   1      36.032  20.662  25.306  1.00  0.00     0.021 C 
ENDROOT
BRANCH   1   2
ATOM      2  C   UNL A   1      35.316  19.784  24.276  1.00  0.00     0.116 C 
BRANCH   2   3
ATOM      3  N   UNL A   1      34.874  18.558  24.907  1.00  0.00    -0.356 N 
ATOM      4  C   UNL A   1      33.609  18.072  25.050  1.00  0.00     0.227 C 
ATOM      5  O   UNL A   1      33.450  17.165  25.869  1.00  0.00    -0.274 OA
ATOM      6  H   UNL A   1      35.589  17.996  25.286  1.00  0.00     0.163 HD
BRANCH   4   7
ATOM      7  C   UNL A   1      32.473  18.622  24.163  1.00  0.00     0.105 C 
ATOM      8  C   UNL A   1      32.610  18.119  22.721  1.00  0.00     0.023 C 
BRANCH   7   9
ATOM      9  C   UNL A   1      32.380  20.147  24.257  1.00  0.00    -0.033 A 
ATOM     10  C   UNL A   1      32.134  20.813  25.467  1.00  0.00     0.005 A 
ATOM     11  C   UNL A   1      32.509  20.924  23.094  1.00  0.00     0.044 A 
ATOM     12  C   UNL A   1      31.981  22.198  25.510  1.00  0.00     0.012 A 
ATOM     13  C   UNL A   1      32.337  22.307  23.140  1.00  0.00     0.131 A 
ATOM     14  C   UNL A   1      32.057  22.966  24.342  1.00  0.00     0.018 A 
ATOM     15  F   UNL A   1      32.419  22.999  21.992  1.00  0.00    -0.206 F 
BRANCH  14  16
ATOM     16  C   UNL A   1      31.738  24.395  24.405  1.00  0.00    -0.012 A 
ATOM     17  C   UNL A   1      30.431  24.862  24.196  1.00  0.00     0.009 A 
ATOM     18  C   UNL A   1      32.774  25.327  24.569  1.00  0.00     0.056 A 
ATOM     19  C   UNL A   1      30.165  26.231  24.137  1.00  0.00     0.004 A 
ATOM     20  C   UNL A   1      32.507  26.689  24.498  1.00  0.00     0.133 A 
ATOM     21  C   UNL A   1      31.207  27.146  24.281  1.00  0.00     0.047 A 
BRANCH  20  22
ATOM     22  O   UNL A   1      33.492  27.701  24.610  1.00  0.00    -0.410 OA
BRANCH  22  23
ATOM     23  C   UNL A   1      33.422  28.988  24.089  1.00  0.00     0.412 C 
ATOM     24  O   UNL A   1      33.481  29.300  22.904  1.00  0.00    -0.224 OA
ATOM     25  N   UNL A   1      33.290  29.964  25.041  1.00  0.00    -0.318 N 
ATOM     26  H   UNL A   1      33.290  30.887  24.696  1.00  0.00     0.167 HD
BRANCH  25  27
ATOM     27  C   UNL A   1      33.152  29.849  26.453  1.00  0.00     0.085 C 
ATOM     28  C   UNL A   1      34.067  29.123  27.399  1.00  0.00     0.027 C 
ATOM     29  C   UNL A   1      34.105  30.619  27.332  1.00  0.00     0.027 C 
ENDBRANCH  25  27
ENDBRANCH  22  23
ENDBRANCH  20  22
ENDBRANCH  14  16
ENDBRANCH   7   9
ENDBRANCH   4   7
ENDBRANCH   2   3
ENDBRANCH   1   2
BRANCH   1  30
ATOM     30  C   UNL A   1      36.801  21.834  24.680  1.00  0.00     0.002 C 
BRANCH  30  31
ATOM     31  C   UNL A   1      36.721  23.141  25.473  1.00  0.00     0.002 C 
BRANCH  31  32
ATOM     32  C   UNL A   1      37.753  23.263  26.595  1.00  0.00     0.021 C 
BRANCH  32  33
ATOM     33  C   UNL A   1      38.648  24.489  26.477  1.00  0.00     0.116 C 
BRANCH  33  34
ATOM     34  N   UNL A   1      39.996  24.132  26.057  1.00  0.00    -0.352 N 
ATOM     35  C   UNL A   1      41.185  24.716  26.418  1.00  0.00     0.251 C 
ATOM     36  H   UNL A   1      40.063  23.373  25.435  1.00  0.00     0.163 HD
ATOM     37  O   UNL A   1      42.217  24.456  25.811  1.00  0.00    -0.269 OA
BRANCH  35  38
ATOM     38  C   UNL A   1      41.194  25.679  27.538  1.00  0.00     0.039 A 
ATOM     39  C   UNL A   1      42.147  26.698  27.560  1.00  0.00     0.014 A 
ATOM     40  C   UNL A   1      40.224  25.588  28.541  1.00  0.00     0.014 A 
ATOM     41  C   UNL A   1      42.088  27.671  28.560  1.00  0.00     0.010 A 
ATOM     42  C   UNL A   1      40.120  26.601  29.485  1.00  0.00     0.010 A 
ATOM     43  C   UNL A   1      41.053  27.649  29.508  1.00  0.00    -0.014 A 
BRANCH  43  44
ATOM     44  C   UNL A   1      40.919  28.699  30.549  1.00  0.00     0.031 A 
ATOM     45  C   UNL A   1      41.742  28.612  31.802  1.00  0.00     0.074 A 
ATOM     46  C   UNL A   1      39.986  29.662  30.416  1.00  0.00     0.049 A 
ATOM     47  N   UNL A   1      41.673  29.332  32.892  1.00  0.00    -0.248 NA
ATOM     48  C   UNL A   1      42.756  27.546  31.850  1.00  0.00     0.031 C 
ATOM     49  C   UNL A   1      39.096  29.824  29.265  1.00  0.00     0.029 A 
ATOM     50  N   UNL A   1      39.610  30.668  31.271  1.00  0.00    -0.354 N 
ATOM     51  C   UNL A   1      42.609  28.790  33.763  1.00  0.00     0.074 A 
ATOM     52  C   UNL A   1      43.195  27.648  33.095  1.00  0.00     0.031 C 
ATOM     53  C   UNL A   1      38.276  30.863  29.487  1.00  0.00     0.029 A 
ATOM     54  C   UNL A   1      38.547  31.411  30.813  1.00  0.00     0.049 A 
ATOM     55  H   UNL A   1      40.058  30.841  32.131  1.00  0.00     0.167 HD
ATOM     56  C   UNL A   1      42.960  29.215  34.999  1.00  0.00     0.037 A 
ATOM     57  C   UNL A   1      37.848  32.401  31.403  1.00  0.00     0.037 A 
ATOM     58  C   UNL A   1      42.377  30.362  35.645  1.00  0.00     0.049 A 
ATOM     59  C   UNL A   1      38.245  32.861  32.779  1.00  0.00     0.074 A 
ATOM     60  C   UNL A   1      42.708  30.920  36.867  1.00  0.00     0.029 A 
ATOM     61  N   UNL A   1      41.333  31.117  35.129  1.00  0.00    -0.354 N 
ATOM     62  N   UNL A   1      39.184  32.386  33.564  1.00  0.00    -0.248 NA
ATOM     63  C   UNL A   1      37.499  33.990  33.351  1.00  0.00     0.031 C 
ATOM     64  C   UNL A   1      41.821  31.972  37.118  1.00  0.00     0.029 A 
ATOM     65  C   UNL A   1      40.985  32.116  36.021  1.00  0.00     0.049 A 
ATOM     66  H   UNL A   1      40.903  30.964  34.256  1.00  0.00     0.167 HD
ATOM     67  C   UNL A   1      39.162  33.176  34.708  1.00  0.00     0.074 A 
ATOM     68  C   UNL A   1      38.115  34.158  34.515  1.00  0.00     0.031 C 
ATOM     69  C   UNL A   1      39.945  33.097  35.813  1.00  0.00     0.037 A 
BRANCH  56  70
ATOM     70  C   UNL A   1      44.002  28.417  35.738  1.00  0.00     0.058 A 
ATOM     71  C   UNL A   1      43.660  27.371  36.611  1.00  0.00     0.135 A 
ATOM     72  C   UNL A   1      45.366  28.713  35.581  1.00  0.00     0.135 A 
ATOM     73  F   UNL A   1      42.372  27.048  36.809  1.00  0.00    -0.206 F 
ATOM     74  C   UNL A   1      44.625  26.690  37.345  1.00  0.00     0.059 A 
ATOM     75  C   UNL A   1      46.352  28.020  36.277  1.00  0.00     0.059 A 
ATOM     76  F   UNL A   1      45.755  29.699  34.755  1.00  0.00    -0.206 F 
ATOM     77  C   UNL A   1      45.969  27.029  37.178  1.00  0.00     0.060 A 
BRANCH  77  78
ATOM     78  S   UNL A   1      47.205  26.170  38.174  1.00  0.00     0.124 S 
ATOM     79  O   UNL A   1      47.821  27.282  38.891  1.00  0.00    -0.237 OA
ATOM     80  O   UNL A   1      46.386  25.272  38.982  1.00  0.00    -0.237 OA
ATOM     81  O   UNL A   1      48.051  25.519  37.180  1.00  0.00    -0.744 OA
ENDBRANCH  77  78
ENDBRANCH  56  70
BRANCH  57  82
ATOM     82  C   UNL A   1      36.705  33.015  30.677  1.00  0.00     0.058 A 
ATOM     83  C   UNL A   1      35.381  32.758  31.058  1.00  0.00     0.135 A 
ATOM     84  C   UNL A   1      36.919  33.932  29.636  1.00  0.00     0.135 A 
ATOM     85  F   UNL A   1      35.123  31.883  32.042  1.00  0.00    -0.206 F 
ATOM     86  C   UNL A   1      34.309  33.395  30.440  1.00  0.00     0.059 A 
ATOM     87  C   UNL A   1      35.866  34.601  29.019  1.00  0.00     0.059 A 
ATOM     88  F   UNL A   1      38.170  34.225  29.244  1.00  0.00    -0.206 F 
ATOM     89  C   UNL A   1      34.563  34.325  29.430  1.00  0.00     0.060 A 
BRANCH  89  90
ATOM     90  S   UNL A   1      33.171  35.219  28.706  1.00  0.00     0.124 S 
ATOM     91  O   UNL A   1      33.848  36.312  28.018  1.00  0.00    -0.237 OA
ATOM     92  O   UNL A   1      32.568  34.202  27.851  1.00  0.00    -0.237 OA
ATOM     93  O   UNL A   1      32.376  35.602  29.869  1.00  0.00    -0.744 OA
ENDBRANCH  89  90
ENDBRANCH  57  82
BRANCH  69  94
ATOM     94  C   UNL A   1      39.747  34.122  36.896  1.00  0.00     0.058 A 
ATOM     95  C   UNL A   1      38.952  33.868  38.023  1.00  0.00     0.135 A 
ATOM     96  C   UNL A   1      40.464  35.331  36.856  1.00  0.00     0.135 A 
ATOM     97  F   UNL A   1      38.238  32.735  38.105  1.00  0.00    -0.206 F 
ATOM     98  C   UNL A   1      38.879  34.774  39.077  1.00  0.00     0.059 A 
ATOM     99  C   UNL A   1      40.428  36.236  37.911  1.00  0.00     0.059 A 
ATOM    100  F   UNL A   1      41.245  35.620  35.803  1.00  0.00    -0.206 F 
ATOM    101  C   UNL A   1      39.633  35.948  39.019  1.00  0.00     0.060 A 
BRANCH 101 102
ATOM    102  S   UNL A   1      39.600  37.069  40.434  1.00  0.00     0.124 S 
ATOM    103  O   UNL A   1      38.334  37.764  40.230  1.00  0.00    -0.237 OA
ATOM    104  O   UNL A   1      39.642  36.145  41.563  1.00  0.00    -0.237 OA
ATOM    105  O   UNL A   1      40.798  37.883  40.253  1.00  0.00    -0.744 OA
ENDBRANCH 101 102
ENDBRANCH  69  94
ENDBRANCH  43  44
ENDBRANCH  35  38
ENDBRANCH  33  34
ENDBRANCH  32  33
ENDBRANCH  31  32
ENDBRANCH  30  31
ENDBRANCH   1  30
TORSDOF 21
ENDMDL
