MODEL 1
REMARK VINA RESULT:     -11.4      0.000      0.000
REMARK SMILES Cc1csc(C[C@@H](Cc2ccc(Br)cc2)C(=O)NCCCCCCNC(=O)c2ccc(-c3c4nc(c(-c5c(F)cc(S(=O)(=O)[O-])cc5F)c5ccc([nH]5)c(-c5c(F)cc(S(=O)(=O)[O-])cc5F)c5nc(c(-c6c(F)cc(S(=O)(=O)[O-])cc6F)c6ccc3[nH]6)C=C5)C=C4)cc2)n1
REMARK SMILES IDX 22 1 21 2 20 3 19 4 18 5 16 6 17 7 7 9 6 10 5 11 1 12 2 13
REMARK SMILES IDX 3 14 94 15 4 16 8 17 9 18 10 19 15 20 11 21 14 22 12 23
REMARK SMILES IDX 13 24 23 25 24 26 25 27 26 28 27 30 28 31 29 32 93 33 30 34
REMARK SMILES IDX 92 35 31 36 32 37 33 38 86 39 34 40 91 41 85 42 87 43 35 44
REMARK SMILES IDX 90 45 84 46 83 47 36 49 70 50 49 51 69 52 50 53 53 54 68 55
REMARK SMILES IDX 88 56 51 57 52 58 67 60 89 61 54 62 37 63 38 64 47 65 39 66
REMARK SMILES IDX 40 67 46 68 48 69 41 70 42 71 43 72 44 73 45 74 71 75 72 76
REMARK SMILES IDX 81 77 73 78 74 79 80 80 82 81 75 82 76 83 77 84 78 85 79 86
REMARK SMILES IDX 55 87 56 88 65 89 57 90 58 91 64 92 66 93 59 94 60 95 61 96
REMARK SMILES IDX 62 97 63 98
REMARK H PARENT 18 8 25 29 87 48 53 59
REMARK Flexibility Score: inf
ROOT
ATOM      1  C   UNL A   1      37.188  23.126  25.784  1.00  0.00     0.002 C 
ENDROOT
BRANCH   1   2
ATOM      2  C   UNL A   1      37.380  22.283  24.516  1.00  0.00     0.002 C 
BRANCH   2   3
ATOM      3  C   UNL A   1      36.571  22.712  23.289  1.00  0.00     0.021 C 
BRANCH   3   4
ATOM      4  C   UNL A   1      35.390  23.626  23.588  1.00  0.00     0.116 C 
BRANCH   4   5
ATOM      5  N   UNL A   1      34.131  23.151  23.055  1.00  0.00    -0.356 N 
ATOM      6  C   UNL A   1      32.894  23.108  23.619  1.00  0.00     0.223 C 
ATOM      7  O   UNL A   1      31.946  22.866  22.863  1.00  0.00    -0.275 OA
ATOM      8  H   UNL A   1      34.178  22.802  22.135  1.00  0.00     0.163 HD
BRANCH   6   9
ATOM      9  C   UNL A   1      32.635  23.318  25.112  1.00  0.00     0.089 C 
BRANCH   9  10
ATOM     10  C   UNL A   1      31.275  23.985  25.359  1.00  0.00     0.081 C 
BRANCH  10  11
ATOM     11  C   UNL A   1      31.321  25.479  25.480  1.00  0.00     0.094 A 
ATOM     12  C   UNL A   1      31.549  28.331  27.652  1.00  0.00     0.067 C 
ATOM     13  C   UNL A   1      31.368  27.471  26.457  1.00  0.00     0.048 A 
ATOM     14  C   UNL A   1      30.985  27.857  25.188  1.00  0.00     0.090 A 
ATOM     15  N   UNL A   1      31.573  26.114  26.601  1.00  0.00    -0.247 NA
ATOM     16  S   UNL A   1      30.881  26.488  24.160  1.00  0.00    -0.127 S 
ENDBRANCH  10  11
ENDBRANCH   9  10
BRANCH   9  17
ATOM     17  C   UNL A   1      33.096  22.124  25.981  1.00  0.00     0.049 C 
BRANCH  17  18
ATOM     18  C   UNL A   1      33.311  20.762  25.365  1.00  0.00    -0.047 A 
ATOM     19  C   UNL A   1      32.232  19.956  24.973  1.00  0.00     0.005 A 
ATOM     20  C   UNL A   1      34.613  20.258  25.208  1.00  0.00     0.005 A 
ATOM     21  C   UNL A   1      32.445  18.705  24.389  1.00  0.00     0.016 A 
ATOM     22  C   UNL A   1      34.830  19.004  24.629  1.00  0.00     0.016 A 
ATOM     23  C   UNL A   1      33.744  18.238  24.213  1.00  0.00     0.017 A 
ATOM     24  Br  UNL A   1      34.035  16.563  23.387  1.00  0.00    -0.051 Br
ENDBRANCH  17  18
ENDBRANCH   9  17
ENDBRANCH   6   9
ENDBRANCH   4   5
ENDBRANCH   3   4
ENDBRANCH   2   3
ENDBRANCH   1   2
BRANCH   1  25
ATOM     25  C   UNL A   1      38.334  24.074  26.152  1.00  0.00     0.021 C 
BRANCH  25  26
ATOM     26  C   UNL A   1      39.562  23.421  26.777  1.00  0.00     0.116 C 
BRANCH  26  27
ATOM     27  N   UNL A   1      40.793  23.805  26.113  1.00  0.00    -0.352 N 
ATOM     28  C   UNL A   1      41.584  24.911  26.292  1.00  0.00     0.251 C 
ATOM     29  H   UNL A   1      41.109  23.173  25.427  1.00  0.00     0.163 HD
ATOM     30  O   UNL A   1      42.504  25.119  25.505  1.00  0.00    -0.269 OA
BRANCH  28  31
ATOM     31  C   UNL A   1      41.337  25.862  27.404  1.00  0.00     0.039 A 
ATOM     32  C   UNL A   1      42.167  26.983  27.515  1.00  0.00     0.014 A 
ATOM     33  C   UNL A   1      40.351  25.635  28.369  1.00  0.00     0.014 A 
ATOM     34  C   UNL A   1      41.988  27.887  28.566  1.00  0.00     0.010 A 
ATOM     35  C   UNL A   1      40.130  26.572  29.380  1.00  0.00     0.010 A 
ATOM     36  C   UNL A   1      40.959  27.698  29.500  1.00  0.00    -0.014 A 
BRANCH  36  37
ATOM     37  C   UNL A   1      40.763  28.650  30.626  1.00  0.00     0.031 A 
ATOM     38  C   UNL A   1      41.615  28.548  31.862  1.00  0.00     0.074 A 
ATOM     39  C   UNL A   1      39.798  29.588  30.550  1.00  0.00     0.049 A 
ATOM     40  N   UNL A   1      41.574  29.262  32.959  1.00  0.00    -0.248 NA
ATOM     41  C   UNL A   1      42.633  27.484  31.881  1.00  0.00     0.031 C 
ATOM     42  C   UNL A   1      38.877  29.765  29.425  1.00  0.00     0.029 A 
ATOM     43  N   UNL A   1      39.427  30.567  31.438  1.00  0.00    -0.354 N 
ATOM     44  C   UNL A   1      42.544  28.728  33.799  1.00  0.00     0.074 A 
ATOM     45  C   UNL A   1      43.124  27.598  33.106  1.00  0.00     0.031 C 
ATOM     46  C   UNL A   1      38.066  30.805  29.680  1.00  0.00     0.029 A 
ATOM     47  C   UNL A   1      38.388  31.350  30.996  1.00  0.00     0.049 A 
ATOM     48  H   UNL A   1      39.866  30.696  32.310  1.00  0.00     0.167 HD
ATOM     49  C   UNL A   1      42.934  29.153  35.025  1.00  0.00     0.037 A 
ATOM     50  C   UNL A   1      37.765  32.390  31.583  1.00  0.00     0.037 A 
ATOM     51  C   UNL A   1      42.376  30.297  35.700  1.00  0.00     0.049 A 
ATOM     52  C   UNL A   1      38.229  32.857  32.935  1.00  0.00     0.074 A 
ATOM     53  C   UNL A   1      42.736  30.837  36.923  1.00  0.00     0.029 A 
ATOM     54  N   UNL A   1      41.343  31.080  35.206  1.00  0.00    -0.354 N 
ATOM     55  N   UNL A   1      39.182  32.370  33.695  1.00  0.00    -0.248 NA
ATOM     56  C   UNL A   1      37.540  34.022  33.508  1.00  0.00     0.031 C 
ATOM     57  C   UNL A   1      41.899  31.928  37.182  1.00  0.00     0.029 A 
ATOM     58  C   UNL A   1      41.045  32.093  36.103  1.00  0.00     0.049 A 
ATOM     59  H   UNL A   1      40.889  30.937  34.345  1.00  0.00     0.167 HD
ATOM     60  C   UNL A   1      39.226  33.187  34.820  1.00  0.00     0.074 A 
ATOM     61  C   UNL A   1      38.210  34.204  34.638  1.00  0.00     0.031 C 
ATOM     62  C   UNL A   1      40.037  33.104  35.904  1.00  0.00     0.037 A 
BRANCH  49  63
ATOM     63  C   UNL A   1      44.021  28.375  35.715  1.00  0.00     0.058 A 
ATOM     64  C   UNL A   1      43.727  27.320  36.595  1.00  0.00     0.135 A 
ATOM     65  C   UNL A   1      45.374  28.672  35.483  1.00  0.00     0.135 A 
ATOM     66  F   UNL A   1      42.450  27.001  36.863  1.00  0.00    -0.206 F 
ATOM     67  C   UNL A   1      44.731  26.614  37.249  1.00  0.00     0.059 A 
ATOM     68  C   UNL A   1      46.397  27.962  36.106  1.00  0.00     0.059 A 
ATOM     69  F   UNL A   1      45.714  29.668  34.650  1.00  0.00    -0.206 F 
ATOM     70  C   UNL A   1      46.063  26.946  37.002  1.00  0.00     0.060 A 
BRANCH  70  71
ATOM     71  S   UNL A   1      47.358  26.033  37.868  1.00  0.00     0.124 S 
ATOM     72  O   UNL A   1      47.865  25.171  36.805  1.00  0.00    -0.237 OA
ATOM     73  O   UNL A   1      48.257  27.097  38.302  1.00  0.00    -0.237 OA
ATOM     74  O   UNL A   1      46.636  25.352  38.939  1.00  0.00    -0.744 OA
ENDBRANCH  70  71
ENDBRANCH  49  63
BRANCH  50  75
ATOM     75  C   UNL A   1      36.659  33.085  30.874  1.00  0.00     0.058 A 
ATOM     76  C   UNL A   1      35.323  32.871  31.241  1.00  0.00     0.135 A 
ATOM     77  C   UNL A   1      36.914  33.991  29.833  1.00  0.00     0.135 A 
ATOM     78  F   UNL A   1      35.029  32.008  32.226  1.00  0.00    -0.206 F 
ATOM     79  C   UNL A   1      34.276  33.518  30.594  1.00  0.00     0.059 A 
ATOM     80  C   UNL A   1      35.885  34.668  29.186  1.00  0.00     0.059 A 
ATOM     81  F   UNL A   1      38.177  34.243  29.456  1.00  0.00    -0.206 F 
ATOM     82  C   UNL A   1      34.568  34.418  29.568  1.00  0.00     0.060 A 
BRANCH  82  83
ATOM     83  S   UNL A   1      33.205  35.293  28.769  1.00  0.00     0.124 S 
ATOM     84  O   UNL A   1      32.501  35.851  29.917  1.00  0.00    -0.237 OA
ATOM     85  O   UNL A   1      33.908  36.252  27.923  1.00  0.00    -0.237 OA
ATOM     86  O   UNL A   1      32.503  34.234  28.051  1.00  0.00    -0.744 OA
ENDBRANCH  82  83
ENDBRANCH  50  75
BRANCH  62  87
ATOM     87  C   UNL A   1      39.885  34.160  36.962  1.00  0.00     0.058 A 
ATOM     88  C   UNL A   1      40.493  35.419  36.841  1.00  0.00     0.135 A 
ATOM     89  C   UNL A   1      39.091  33.921  38.094  1.00  0.00     0.135 A 
ATOM     90  F   UNL A   1      41.267  35.697  35.780  1.00  0.00    -0.206 F 
ATOM     91  C   UNL A   1      40.340  36.396  37.819  1.00  0.00     0.059 A 
ATOM     92  C   UNL A   1      38.904  34.892  39.073  1.00  0.00     0.059 A 
ATOM     93  F   UNL A   1      38.478  32.736  38.253  1.00  0.00    -0.206 F 
ATOM     94  C   UNL A   1      39.544  36.122  38.933  1.00  0.00     0.060 A 
BRANCH  94  95
ATOM     95  S   UNL A   1      39.333  37.404  40.187  1.00  0.00     0.124 S 
ATOM     96  O   UNL A   1      38.740  36.647  41.283  1.00  0.00    -0.237 OA
ATOM     97  O   UNL A   1      40.701  37.864  40.401  1.00  0.00    -0.237 OA
ATOM     98  O   UNL A   1      38.449  38.369  39.539  1.00  0.00    -0.744 OA
ENDBRANCH  94  95
ENDBRANCH  62  87
ENDBRANCH  36  37
ENDBRANCH  28  31
ENDBRANCH  26  27
ENDBRANCH  25  26
ENDBRANCH   1  25
TORSDOF 20
ENDMDL
MODEL 2
REMARK VINA RESULT:     -11.3      1.898      3.102
REMARK SMILES Cc1csc(C[C@@H](Cc2ccc(Br)cc2)C(=O)NCCCCCCNC(=O)c2ccc(-c3c4nc(c(-c5c(F)cc(S(=O)(=O)[O-])cc5F)c5ccc([nH]5)c(-c5c(F)cc(S(=O)(=O)[O-])cc5F)c5nc(c(-c6c(F)cc(S(=O)(=O)[O-])cc6F)c6ccc3[nH]6)C=C5)C=C4)cc2)n1
REMARK SMILES IDX 22 1 21 2 20 3 19 4 18 5 16 6 17 7 7 9 6 10 5 11 1 12 2 13
REMARK SMILES IDX 3 14 94 15 4 16 8 17 9 18 10 19 15 20 11 21 14 22 12 23
REMARK SMILES IDX 13 24 23 25 24 26 25 27 26 28 27 30 28 31 29 32 93 33 30 34
REMARK SMILES IDX 92 35 31 36 32 37 33 38 86 39 34 40 91 41 85 42 87 43 35 44
REMARK SMILES IDX 90 45 84 46 83 47 36 49 70 50 49 51 69 52 50 53 53 54 68 55
REMARK SMILES IDX 88 56 51 57 52 58 67 60 89 61 54 62 37 63 38 64 47 65 39 66
REMARK SMILES IDX 40 67 46 68 48 69 41 70 42 71 43 72 44 73 45 74 71 75 72 76
REMARK SMILES IDX 81 77 73 78 74 79 80 80 82 81 75 82 76 83 77 84 78 85 79 86
REMARK SMILES IDX 55 87 56 88 65 89 57 90 58 91 64 92 66 93 59 94 60 95 61 96
REMARK SMILES IDX 62 97 63 98
REMARK H PARENT 18 8 25 29 87 48 53 59
REMARK Flexibility Score: inf
ROOT
ATOM      1  C   UNL A   1      37.260  23.146  25.120  1.00  0.00     0.002 C 
ENDROOT
BRANCH   1   2
ATOM      2  C   UNL A   1      35.732  23.244  25.008  1.00  0.00     0.002 C 
BRANCH   2   3
ATOM      3  C   UNL A   1      35.031  22.089  24.288  1.00  0.00     0.021 C 
BRANCH   3   4
ATOM      4  C   UNL A   1      33.679  22.438  23.682  1.00  0.00     0.116 C 
BRANCH   4   5
ATOM      5  N   UNL A   1      32.557  22.173  24.558  1.00  0.00    -0.356 N 
ATOM      6  C   UNL A   1      31.579  23.001  25.015  1.00  0.00     0.223 C 
ATOM      7  O   UNL A   1      30.611  22.467  25.567  1.00  0.00    -0.275 OA
ATOM      8  H   UNL A   1      32.492  21.243  24.874  1.00  0.00     0.163 HD
BRANCH   6   9
ATOM      9  C   UNL A   1      31.637  24.526  24.899  1.00  0.00     0.089 C 
BRANCH   9  10
ATOM     10  C   UNL A   1      30.933  25.020  23.627  1.00  0.00     0.081 C 
BRANCH  10  11
ATOM     11  C   UNL A   1      31.226  26.444  23.260  1.00  0.00     0.094 A 
ATOM     12  C   UNL A   1      33.718  28.977  22.729  1.00  0.00     0.067 C 
ATOM     13  C   UNL A   1      32.419  28.282  22.914  1.00  0.00     0.048 A 
ATOM     14  C   UNL A   1      31.163  28.848  22.995  1.00  0.00     0.090 A 
ATOM     15  N   UNL A   1      32.436  26.909  23.049  1.00  0.00    -0.247 NA
ATOM     16  S   UNL A   1      29.982  27.629  23.247  1.00  0.00    -0.127 S 
ENDBRANCH  10  11
ENDBRANCH   9  10
BRANCH   9  17
ATOM     17  C   UNL A   1      31.418  25.245  26.250  1.00  0.00     0.049 C 
BRANCH  17  18
ATOM     18  C   UNL A   1      32.067  26.581  26.524  1.00  0.00    -0.047 A 
ATOM     19  C   UNL A   1      33.434  26.793  26.296  1.00  0.00     0.005 A 
ATOM     20  C   UNL A   1      31.308  27.637  27.056  1.00  0.00     0.005 A 
ATOM     21  C   UNL A   1      34.019  28.039  26.538  1.00  0.00     0.016 A 
ATOM     22  C   UNL A   1      31.890  28.883  27.305  1.00  0.00     0.016 A 
ATOM     23  C   UNL A   1      33.241  29.081  27.034  1.00  0.00     0.017 A 
ATOM     24  Br  UNL A   1      34.021  30.777  27.325  1.00  0.00    -0.051 Br
ENDBRANCH  17  18
ENDBRANCH   9  17
ENDBRANCH   6   9
ENDBRANCH   4   5
ENDBRANCH   3   4
ENDBRANCH   2   3
ENDBRANCH   1   2
BRANCH   1  25
ATOM     25  C   UNL A   1      37.929  24.065  26.147  1.00  0.00     0.021 C 
BRANCH  25  26
ATOM     26  C   UNL A   1      39.170  23.504  26.832  1.00  0.00     0.116 C 
BRANCH  26  27
ATOM     27  N   UNL A   1      40.394  23.869  26.145  1.00  0.00    -0.352 N 
ATOM     28  C   UNL A   1      41.204  24.963  26.306  1.00  0.00     0.251 C 
ATOM     29  H   UNL A   1      40.689  23.230  25.455  1.00  0.00     0.163 HD
ATOM     30  O   UNL A   1      42.114  25.155  25.502  1.00  0.00    -0.269 OA
BRANCH  28  31
ATOM     31  C   UNL A   1      40.991  25.921  27.419  1.00  0.00     0.039 A 
ATOM     32  C   UNL A   1      41.822  27.044  27.496  1.00  0.00     0.014 A 
ATOM     33  C   UNL A   1      40.037  25.699  28.416  1.00  0.00     0.014 A 
ATOM     34  C   UNL A   1      41.676  27.955  28.547  1.00  0.00     0.010 A 
ATOM     35  C   UNL A   1      39.847  26.642  29.428  1.00  0.00     0.010 A 
ATOM     36  C   UNL A   1      40.677  27.770  29.514  1.00  0.00    -0.014 A 
BRANCH  36  37
ATOM     37  C   UNL A   1      40.515  28.730  30.639  1.00  0.00     0.031 A 
ATOM     38  C   UNL A   1      41.384  28.616  31.863  1.00  0.00     0.074 A 
ATOM     39  C   UNL A   1      39.566  29.684  30.575  1.00  0.00     0.049 A 
ATOM     40  N   UNL A   1      41.373  29.335  32.957  1.00  0.00    -0.248 NA
ATOM     41  C   UNL A   1      42.384  27.535  31.869  1.00  0.00     0.031 C 
ATOM     42  C   UNL A   1      38.631  29.873  29.463  1.00  0.00     0.029 A 
ATOM     43  N   UNL A   1      39.226  30.672  31.465  1.00  0.00    -0.354 N 
ATOM     44  C   UNL A   1      42.346  28.786  33.784  1.00  0.00     0.074 A 
ATOM     45  C   UNL A   1      42.896  27.644  33.087  1.00  0.00     0.031 C 
ATOM     46  C   UNL A   1      37.842  30.928  29.727  1.00  0.00     0.029 A 
ATOM     47  C   UNL A   1      38.193  31.471  31.037  1.00  0.00     0.049 A 
ATOM     48  H   UNL A   1      39.681  30.797  32.330  1.00  0.00     0.167 HD
ATOM     49  C   UNL A   1      42.763  29.209  35.002  1.00  0.00     0.037 A 
ATOM     50  C   UNL A   1      37.598  32.524  31.629  1.00  0.00     0.037 A 
ATOM     51  C   UNL A   1      42.235  30.365  35.681  1.00  0.00     0.049 A 
ATOM     52  C   UNL A   1      38.091  32.988  32.972  1.00  0.00     0.074 A 
ATOM     53  C   UNL A   1      42.623  30.902  36.897  1.00  0.00     0.029 A 
ATOM     54  N   UNL A   1      41.208  31.164  35.201  1.00  0.00    -0.354 N 
ATOM     55  N   UNL A   1      39.047  32.487  33.719  1.00  0.00    -0.248 NA
ATOM     56  C   UNL A   1      37.431  34.167  33.551  1.00  0.00     0.031 C 
ATOM     57  C   UNL A   1      41.810  32.009  37.165  1.00  0.00     0.029 A 
ATOM     58  C   UNL A   1      40.942  32.185  36.099  1.00  0.00     0.049 A 
ATOM     59  H   UNL A   1      40.738  31.026  34.348  1.00  0.00     0.167 HD
ATOM     60  C   UNL A   1      39.123  33.306  34.840  1.00  0.00     0.074 A 
ATOM     61  C   UNL A   1      38.122  34.340  34.670  1.00  0.00     0.031 C 
ATOM     62  C   UNL A   1      39.949  33.213  35.911  1.00  0.00     0.037 A 
BRANCH  49  63
ATOM     63  C   UNL A   1      43.847  28.414  35.678  1.00  0.00     0.058 A 
ATOM     64  C   UNL A   1      43.548  27.377  36.577  1.00  0.00     0.135 A 
ATOM     65  C   UNL A   1      45.200  28.677  35.414  1.00  0.00     0.135 A 
ATOM     66  F   UNL A   1      42.270  27.091  36.878  1.00  0.00    -0.206 F 
ATOM     67  C   UNL A   1      44.550  26.656  37.219  1.00  0.00     0.059 A 
ATOM     68  C   UNL A   1      46.220  27.951  36.023  1.00  0.00     0.059 A 
ATOM     69  F   UNL A   1      45.544  29.655  34.561  1.00  0.00    -0.206 F 
ATOM     70  C   UNL A   1      45.883  26.955  36.939  1.00  0.00     0.060 A 
BRANCH  70  71
ATOM     71  S   UNL A   1      47.175  26.022  37.788  1.00  0.00     0.124 S 
ATOM     72  O   UNL A   1      47.152  24.761  37.054  1.00  0.00    -0.237 OA
ATOM     73  O   UNL A   1      48.355  26.855  37.577  1.00  0.00    -0.237 OA
ATOM     74  O   UNL A   1      46.697  25.955  39.166  1.00  0.00    -0.744 OA
ENDBRANCH  70  71
ENDBRANCH  49  63
BRANCH  50  75
ATOM     75  C   UNL A   1      36.494  33.237  30.935  1.00  0.00     0.058 A 
ATOM     76  C   UNL A   1      35.172  33.134  31.393  1.00  0.00     0.135 A 
ATOM     77  C   UNL A   1      36.737  34.048  29.816  1.00  0.00     0.135 A 
ATOM     78  F   UNL A   1      34.889  32.365  32.456  1.00  0.00    -0.206 F 
ATOM     79  C   UNL A   1      34.127  33.799  30.760  1.00  0.00     0.059 A 
ATOM     80  C   UNL A   1      35.712  34.741  29.180  1.00  0.00     0.059 A 
ATOM     81  F   UNL A   1      37.987  34.190  29.348  1.00  0.00    -0.206 F 
ATOM     82  C   UNL A   1      34.409  34.603  29.654  1.00  0.00     0.060 A 
BRANCH  82  83
ATOM     83  S   UNL A   1      33.053  35.505  28.872  1.00  0.00     0.124 S 
ATOM     84  O   UNL A   1      32.259  35.902  30.028  1.00  0.00    -0.237 OA
ATOM     85  O   UNL A   1      33.757  36.580  28.180  1.00  0.00    -0.237 OA
ATOM     86  O   UNL A   1      32.445  34.503  28.001  1.00  0.00    -0.744 OA
ENDBRANCH  82  83
ENDBRANCH  50  75
BRANCH  62  87
ATOM     87  C   UNL A   1      39.832  34.275  36.968  1.00  0.00     0.058 A 
ATOM     88  C   UNL A   1      39.001  34.118  38.086  1.00  0.00     0.135 A 
ATOM     89  C   UNL A   1      40.591  35.453  36.875  1.00  0.00     0.135 A 
ATOM     90  F   UNL A   1      38.250  33.012  38.220  1.00  0.00    -0.206 F 
ATOM     91  C   UNL A   1      38.905  35.101  39.065  1.00  0.00     0.059 A 
ATOM     92  C   UNL A   1      40.530  36.439  37.855  1.00  0.00     0.059 A 
ATOM     93  F   UNL A   1      41.411  35.649  35.830  1.00  0.00    -0.206 F 
ATOM     94  C   UNL A   1      39.673  36.260  38.939  1.00  0.00     0.060 A 
BRANCH  94  95
ATOM     95  S   UNL A   1      39.560  37.521  40.226  1.00  0.00     0.124 S 
ATOM     96  O   UNL A   1      39.584  36.708  41.437  1.00  0.00    -0.237 OA
ATOM     97  O   UNL A   1      40.751  38.328  39.982  1.00  0.00    -0.237 OA
ATOM     98  O   UNL A   1      38.292  38.186  39.940  1.00  0.00    -0.744 OA
ENDBRANCH  94  95
ENDBRANCH  62  87
ENDBRANCH  36  37
ENDBRANCH  28  31
ENDBRANCH  26  27
ENDBRANCH  25  26
ENDBRANCH   1  25
TORSDOF 20
ENDMDL
MODEL 3
REMARK VINA RESULT:     -11.3      6.461     11.883
REMARK SMILES Cc1csc(C[C@@H](Cc2ccc(Br)cc2)C(=O)NCCCCCCNC(=O)c2ccc(-c3c4nc(c(-c5c(F)cc(S(=O)(=O)[O-])cc5F)c5ccc([nH]5)c(-c5c(F)cc(S(=O)(=O)[O-])cc5F)c5nc(c(-c6c(F)cc(S(=O)(=O)[O-])cc6F)c6ccc3[nH]6)C=C5)C=C4)cc2)n1
REMARK SMILES IDX 22 1 21 2 20 3 19 4 18 5 16 6 17 7 7 9 6 10 5 11 1 12 2 13
REMARK SMILES IDX 3 14 94 15 4 16 8 17 9 18 10 19 15 20 11 21 14 22 12 23
REMARK SMILES IDX 13 24 23 25 24 26 25 27 26 28 27 30 28 31 29 32 93 33 30 34
REMARK SMILES IDX 92 35 31 36 32 37 33 38 86 39 34 40 91 41 85 42 87 43 35 44
REMARK SMILES IDX 90 45 84 46 83 47 36 49 70 50 49 51 69 52 50 53 53 54 68 55
REMARK SMILES IDX 88 56 51 57 52 58 67 60 89 61 54 62 37 63 38 64 47 65 39 66
REMARK SMILES IDX 40 67 46 68 48 69 41 70 42 71 43 72 44 73 45 74 71 75 72 76
REMARK SMILES IDX 81 77 73 78 74 79 80 80 82 81 75 82 76 83 77 84 78 85 79 86
REMARK SMILES IDX 55 87 56 88 65 89 57 90 58 91 64 92 66 93 59 94 60 95 61 96
REMARK SMILES IDX 62 97 63 98
REMARK H PARENT 18 8 25 29 87 48 53 59
REMARK Flexibility Score: inf
ROOT
ATOM      1  C   UNL A   1      35.064  31.387  27.652  1.00  0.00     0.002 C 
ENDROOT
BRANCH   1   2
ATOM      2  C   UNL A   1      33.566  31.063  27.577  1.00  0.00     0.002 C 
BRANCH   2   3
ATOM      3  C   UNL A   1      33.199  29.680  27.031  1.00  0.00     0.021 C 
BRANCH   3   4
ATOM      4  C   UNL A   1      32.371  29.695  25.753  1.00  0.00     0.116 C 
BRANCH   4   5
ATOM      5  N   UNL A   1      33.163  29.698  24.542  1.00  0.00    -0.356 N 
ATOM      6  C   UNL A   1      33.282  28.760  23.563  1.00  0.00     0.223 C 
ATOM      7  O   UNL A   1      33.850  29.111  22.522  1.00  0.00    -0.275 OA
ATOM      8  H   UNL A   1      33.702  30.510  24.403  1.00  0.00     0.163 HD
BRANCH   6   9
ATOM      9  C   UNL A   1      32.778  27.322  23.701  1.00  0.00     0.089 C 
BRANCH   9  10
ATOM     10  C   UNL A   1      31.827  26.948  22.556  1.00  0.00     0.081 C 
BRANCH  10  11
ATOM     11  C   UNL A   1      30.494  27.633  22.597  1.00  0.00     0.094 A 
ATOM     12  C   UNL A   1      28.559  30.535  21.735  1.00  0.00     0.067 C 
ATOM     13  C   UNL A   1      28.991  29.243  22.324  1.00  0.00     0.048 A 
ATOM     14  C   UNL A   1      28.312  28.462  23.237  1.00  0.00     0.090 A 
ATOM     15  N   UNL A   1      30.225  28.748  21.956  1.00  0.00    -0.247 NA
ATOM     16  S   UNL A   1      29.245  27.079  23.639  1.00  0.00    -0.127 S 
ENDBRANCH  10  11
ENDBRANCH   9  10
BRANCH   9  17
ATOM     17  C   UNL A   1      33.875  26.338  24.168  1.00  0.00     0.049 C 
BRANCH  17  18
ATOM     18  C   UNL A   1      33.557  24.877  24.382  1.00  0.00    -0.047 A 
ATOM     19  C   UNL A   1      32.960  24.422  25.566  1.00  0.00     0.005 A 
ATOM     20  C   UNL A   1      33.896  23.932  23.399  1.00  0.00     0.005 A 
ATOM     21  C   UNL A   1      32.656  23.070  25.744  1.00  0.00     0.016 A 
ATOM     22  C   UNL A   1      33.599  22.577  23.576  1.00  0.00     0.016 A 
ATOM     23  C   UNL A   1      32.971  22.154  24.744  1.00  0.00     0.017 A 
ATOM     24  Br  UNL A   1      32.525  20.332  24.966  1.00  0.00    -0.051 Br
ENDBRANCH  17  18
ENDBRANCH   9  17
ENDBRANCH   6   9
ENDBRANCH   4   5
ENDBRANCH   3   4
ENDBRANCH   2   3
ENDBRANCH   1   2
BRANCH   1  25
ATOM     25  C   UNL A   1      35.436  32.767  28.204  1.00  0.00     0.021 C 
BRANCH  25  26
ATOM     26  C   UNL A   1      36.421  32.774  29.368  1.00  0.00     0.116 C 
BRANCH  26  27
ATOM     27  N   UNL A   1      36.027  31.869  30.432  1.00  0.00    -0.352 N 
ATOM     28  C   UNL A   1      36.643  30.736  30.899  1.00  0.00     0.251 C 
ATOM     29  H   UNL A   1      35.188  32.106  30.890  1.00  0.00     0.163 HD
ATOM     30  O   UNL A   1      36.050  30.027  31.709  1.00  0.00    -0.269 OA
BRANCH  28  31
ATOM     31  C   UNL A   1      37.997  30.348  30.433  1.00  0.00     0.039 A 
ATOM     32  C   UNL A   1      38.197  30.157  29.062  1.00  0.00     0.014 A 
ATOM     33  C   UNL A   1      39.047  30.109  31.324  1.00  0.00     0.014 A 
ATOM     34  C   UNL A   1      39.449  29.760  28.583  1.00  0.00     0.010 A 
ATOM     35  C   UNL A   1      40.315  29.778  30.841  1.00  0.00     0.010 A 
ATOM     36  C   UNL A   1      40.524  29.582  29.468  1.00  0.00    -0.014 A 
BRANCH  36  37
ATOM     37  C   UNL A   1      41.860  29.156  28.971  1.00  0.00     0.031 A 
ATOM     38  C   UNL A   1      42.993  30.146  28.900  1.00  0.00     0.074 A 
ATOM     39  C   UNL A   1      42.048  27.889  28.553  1.00  0.00     0.049 A 
ATOM     40  N   UNL A   1      44.216  29.975  28.467  1.00  0.00    -0.248 NA
ATOM     41  C   UNL A   1      42.705  31.516  29.354  1.00  0.00     0.031 C 
ATOM     42  C   UNL A   1      41.020  26.845  28.530  1.00  0.00     0.029 A 
ATOM     43  N   UNL A   1      43.167  27.263  28.062  1.00  0.00    -0.354 N 
ATOM     44  C   UNL A   1      44.837  31.214  28.581  1.00  0.00     0.074 A 
ATOM     45  C   UNL A   1      43.842  32.139  29.077  1.00  0.00     0.031 C 
ATOM     46  C   UNL A   1      41.563  25.704  28.075  1.00  0.00     0.029 A 
ATOM     47  C   UNL A   1      42.967  25.941  27.746  1.00  0.00     0.049 A 
ATOM     48  H   UNL A   1      44.032  27.719  27.949  1.00  0.00     0.167 HD
ATOM     49  C   UNL A   1      46.125  31.546  28.320  1.00  0.00     0.037 A 
ATOM     50  C   UNL A   1      43.817  25.021  27.250  1.00  0.00     0.037 A 
ATOM     51  C   UNL A   1      47.122  30.616  27.855  1.00  0.00     0.049 A 
ATOM     52  C   UNL A   1      45.246  25.407  26.987  1.00  0.00     0.074 A 
ATOM     53  C   UNL A   1      48.464  30.844  27.606  1.00  0.00     0.029 A 
ATOM     54  N   UNL A   1      46.885  29.278  27.573  1.00  0.00    -0.354 N 
ATOM     55  N   UNL A   1      45.830  26.572  27.147  1.00  0.00    -0.248 NA
ATOM     56  C   UNL A   1      46.138  24.353  26.485  1.00  0.00     0.031 C 
ATOM     57  C   UNL A   1      49.032  29.651  27.145  1.00  0.00     0.029 A 
ATOM     58  C   UNL A   1      48.054  28.671  27.144  1.00  0.00     0.049 A 
ATOM     59  H   UNL A   1      46.015  28.828  27.664  1.00  0.00     0.167 HD
ATOM     60  C   UNL A   1      47.161  26.383  26.794  1.00  0.00     0.074 A 
ATOM     61  C   UNL A   1      47.300  24.989  26.420  1.00  0.00     0.031 C 
ATOM     62  C   UNL A   1      48.178  27.280  26.784  1.00  0.00     0.037 A 
BRANCH  49  63
ATOM     63  C   UNL A   1      46.527  32.980  28.535  1.00  0.00     0.058 A 
ATOM     64  C   UNL A   1      46.453  33.928  27.501  1.00  0.00     0.135 A 
ATOM     65  C   UNL A   1      46.977  33.418  29.790  1.00  0.00     0.135 A 
ATOM     66  F   UNL A   1      46.043  33.561  26.276  1.00  0.00    -0.206 F 
ATOM     67  C   UNL A   1      46.846  35.249  27.693  1.00  0.00     0.059 A 
ATOM     68  C   UNL A   1      47.350  34.740  30.014  1.00  0.00     0.059 A 
ATOM     69  F   UNL A   1      47.066  32.555  30.815  1.00  0.00    -0.206 F 
ATOM     70  C   UNL A   1      47.298  35.644  28.953  1.00  0.00     0.060 A 
BRANCH  70  71
ATOM     71  S   UNL A   1      47.819  37.357  29.186  1.00  0.00     0.124 S 
ATOM     72  O   UNL A   1      46.617  37.948  29.767  1.00  0.00    -0.237 OA
ATOM     73  O   UNL A   1      48.956  37.220  30.091  1.00  0.00    -0.237 OA
ATOM     74  O   UNL A   1      48.147  37.801  27.835  1.00  0.00    -0.744 OA
ENDBRANCH  70  71
ENDBRANCH  49  63
BRANCH  50  75
ATOM     75  C   UNL A   1      43.345  23.633  27.006  1.00  0.00     0.058 A 
ATOM     76  C   UNL A   1      43.078  23.182  25.705  1.00  0.00     0.135 A 
ATOM     77  C   UNL A   1      43.172  22.724  28.061  1.00  0.00     0.135 A 
ATOM     78  F   UNL A   1      43.222  24.017  24.664  1.00  0.00    -0.206 F 
ATOM     79  C   UNL A   1      42.643  21.885  25.458  1.00  0.00     0.059 A 
ATOM     80  C   UNL A   1      42.760  21.414  27.837  1.00  0.00     0.059 A 
ATOM     81  F   UNL A   1      43.430  23.103  29.323  1.00  0.00    -0.206 F 
ATOM     82  C   UNL A   1      42.489  21.007  26.532  1.00  0.00     0.060 A 
BRANCH  82  83
ATOM     83  S   UNL A   1      41.975  19.308  26.195  1.00  0.00     0.124 S 
ATOM     84  O   UNL A   1      42.349  18.637  27.434  1.00  0.00    -0.237 OA
ATOM     85  O   UNL A   1      40.543  19.461  25.959  1.00  0.00    -0.237 OA
ATOM     86  O   UNL A   1      42.760  18.949  25.019  1.00  0.00    -0.744 OA
ENDBRANCH  82  83
ENDBRANCH  50  75
BRANCH  62  87
ATOM     87  C   UNL A   1      49.538  26.777  26.390  1.00  0.00     0.058 A 
ATOM     88  C   UNL A   1      50.353  26.070  27.287  1.00  0.00     0.135 A 
ATOM     89  C   UNL A   1      50.017  26.974  25.085  1.00  0.00     0.135 A 
ATOM     90  F   UNL A   1      49.944  25.859  28.549  1.00  0.00    -0.206 F 
ATOM     91  C   UNL A   1      51.607  25.599  26.913  1.00  0.00     0.059 A 
ATOM     92  C   UNL A   1      51.257  26.490  24.682  1.00  0.00     0.059 A 
ATOM     93  F   UNL A   1      49.272  27.635  24.184  1.00  0.00    -0.206 F 
ATOM     94  C   UNL A   1      52.052  25.816  25.608  1.00  0.00     0.060 A 
BRANCH  94  95
ATOM     95  S   UNL A   1      53.671  25.180  25.124  1.00  0.00     0.124 S 
ATOM     96  O   UNL A   1      53.496  23.747  25.330  1.00  0.00    -0.237 OA
ATOM     97  O   UNL A   1      53.777  25.612  23.734  1.00  0.00    -0.237 OA
ATOM     98  O   UNL A   1      54.586  25.841  26.051  1.00  0.00    -0.744 OA
ENDBRANCH  94  95
ENDBRANCH  62  87
ENDBRANCH  36  37
ENDBRANCH  28  31
ENDBRANCH  26  27
ENDBRANCH  25  26
ENDBRANCH   1  25
TORSDOF 20
ENDMDL
