MODEL 1
REMARK VINA RESULT:      -9.3      0.000      0.000
REMARK SMILES Cc1ccc(NC(=O)C[C@H]2C(=O)NCCN2C(=O)CCC(=O)NCCCCCCNC(=O)c2ccc(-c3c4nc(c(-c5c(F)cc(S(=O)(=O)[O-])cc5F)c5ccc([nH]5)c(-c5c(F)cc(S(=O)(=O)[O-])cc5F)c5nc(c(-c6c(F)cc(S(=O)(=O)[O-])cc6F)c6ccc3[nH]6)C=C5)C=C4)cc2)c(C)c1
REMARK SMILES IDX 25 1 24 2 23 3 21 4 22 5 20 7 19 8 17 9 18 10 16 11 10 12
REMARK SMILES IDX 11 13 12 14 13 15 15 16 14 17 9 19 7 20 6 21 8 23 5 24 1 25
REMARK SMILES IDX 2 26 3 27 101 28 4 29 99 30 100 31 26 32 27 33 28 34 29 35
REMARK SMILES IDX 30 36 31 37 32 39 33 40 34 41 98 42 35 43 97 44 36 45 37 46
REMARK SMILES IDX 38 47 91 48 39 49 96 50 90 51 92 52 40 53 95 54 89 55 88 56
REMARK SMILES IDX 41 58 75 59 54 60 74 61 55 62 58 63 73 64 93 65 56 66 57 67
REMARK SMILES IDX 72 69 94 70 59 71 42 72 43 73 52 74 44 75 45 76 51 77 53 78
REMARK SMILES IDX 46 79 47 80 48 81 49 82 50 83 76 84 77 85 86 86 78 87 79 88
REMARK SMILES IDX 85 89 87 90 80 91 81 92 82 93 83 94 84 95 60 96 61 97 70 98
REMARK SMILES IDX 62 99 63 100 69 101 71 102 64 103 65 104 66 105 67 106
REMARK SMILES IDX 68 107
REMARK H PARENT 23 6 13 18 6 22 30 38 92 57 58 68
REMARK Flexibility Score: inf
ROOT
ATOM      1  C   UNL A   1      41.048  33.419  32.856  1.00  0.00     0.021 C 
ENDROOT
BRANCH   1   2
ATOM      2  C   UNL A   1      41.558  32.388  33.958  1.00  0.00     0.116 C 
BRANCH   2   3
ATOM      3  N   UNL A   1      40.639  31.560  34.748  1.00  0.00    -0.356 N 
ATOM      4  C   UNL A   1      40.426  30.233  34.983  1.00  0.00     0.220 C 
ATOM      5  O   UNL A   1      39.641  29.887  35.870  1.00  0.00    -0.275 OA
ATOM      6  H   UNL A   1      39.998  32.117  35.245  1.00  0.00     0.163 HD
BRANCH   4   7
ATOM      7  C   UNL A   1      40.974  29.190  34.091  1.00  0.00     0.110 C 
BRANCH   7   8
ATOM      8  C   UNL A   1      41.812  28.281  34.966  1.00  0.00     0.110 C 
BRANCH   8   9
ATOM      9  C   UNL A   1      43.240  28.533  34.622  1.00  0.00     0.223 C 
ATOM     10  O   UNL A   1      43.804  29.428  35.273  1.00  0.00    -0.275 OA
BRANCH   9  11
ATOM     11  N   UNL A   1      43.889  27.875  33.562  1.00  0.00    -0.328 N 
ATOM     12  C   UNL A   1      44.581  26.480  33.529  1.00  0.00     0.183 C 
ATOM     13  C   UNL A   1      45.944  26.562  32.774  1.00  0.00     0.243 C 
ATOM     14  O   UNL A   1      46.812  25.696  32.885  1.00  0.00    -0.273 OA
ATOM     15  N   UNL A   1      46.220  27.628  31.966  1.00  0.00    -0.353 N 
ATOM     16  C   UNL A   1      44.136  28.861  32.489  1.00  0.00     0.141 C 
ATOM     17  C   UNL A   1      45.314  28.664  31.567  1.00  0.00     0.137 C 
ATOM     18  H   UNL A   1      47.140  27.693  31.621  1.00  0.00     0.163 HD
BRANCH  12  19
ATOM     19  C   UNL A   1      43.942  24.877  33.502  1.00  0.00     0.135 C 
BRANCH  19  20
ATOM     20  C   UNL A   1      43.683  23.583  34.528  1.00  0.00     0.227 C 
ATOM     21  N   UNL A   1      44.445  22.578  35.125  1.00  0.00    -0.326 N 
ATOM     22  H   UNL A   1      43.831  22.024  35.659  1.00  0.00     0.169 HD
ATOM     23  O   UNL A   1      42.488  23.459  34.886  1.00  0.00    -0.275 OA
BRANCH  21  24
ATOM     24  C   UNL A   1      45.766  22.018  35.280  1.00  0.00     0.044 A 
ATOM     25  C   UNL A   1      49.724  21.227  33.857  1.00  0.00     0.044 C 
ATOM     26  C   UNL A   1      48.469  21.395  34.675  1.00  0.00    -0.051 A 
ATOM     27  C   UNL A   1      48.146  22.622  35.253  1.00  0.00     0.005 A 
ATOM     28  C   UNL A   1      47.490  20.398  34.700  1.00  0.00     0.009 A 
ATOM     29  C   UNL A   1      46.807  22.908  35.605  1.00  0.00     0.026 A 
ATOM     30  C   UNL A   1      46.144  20.693  35.043  1.00  0.00    -0.027 A 
ATOM     31  C   UNL A   1      45.195  19.550  35.231  1.00  0.00     0.046 C 
ENDBRANCH  21  24
ENDBRANCH  19  20
ENDBRANCH  12  19
ENDBRANCH   9  11
ENDBRANCH   8   9
ENDBRANCH   7   8
ENDBRANCH   4   7
ENDBRANCH   2   3
ENDBRANCH   1   2
BRANCH   1  32
ATOM     32  C   UNL A   1      39.716  34.204  32.811  1.00  0.00     0.002 C 
BRANCH  32  33
ATOM     33  C   UNL A   1      38.882  34.181  31.510  1.00  0.00     0.002 C 
BRANCH  33  34
ATOM     34  C   UNL A   1      37.378  34.090  31.698  1.00  0.00     0.021 C 
BRANCH  34  35
ATOM     35  C   UNL A   1      36.665  33.324  30.600  1.00  0.00     0.116 C 
BRANCH  35  36
ATOM     36  N   UNL A   1      36.084  32.068  31.054  1.00  0.00    -0.352 N 
ATOM     37  C   UNL A   1      36.636  30.801  31.009  1.00  0.00     0.251 C 
ATOM     38  H   UNL A   1      35.181  32.128  31.442  1.00  0.00     0.163 HD
ATOM     39  O   UNL A   1      36.000  29.822  31.328  1.00  0.00    -0.269 OA
BRANCH  37  40
ATOM     40  C   UNL A   1      38.027  30.681  30.515  1.00  0.00     0.039 A 
ATOM     41  C   UNL A   1      39.064  30.549  31.438  1.00  0.00     0.014 A 
ATOM     42  C   UNL A   1      38.266  30.561  29.145  1.00  0.00     0.014 A 
ATOM     43  C   UNL A   1      40.337  30.202  30.985  1.00  0.00     0.010 A 
ATOM     44  C   UNL A   1      39.504  30.110  28.710  1.00  0.00     0.010 A 
ATOM     45  C   UNL A   1      40.553  29.927  29.623  1.00  0.00    -0.014 A 
BRANCH  45  46
ATOM     46  C   UNL A   1      41.870  29.458  29.124  1.00  0.00     0.031 A 
ATOM     47  C   UNL A   1      43.010  30.435  29.011  1.00  0.00     0.074 A 
ATOM     48  C   UNL A   1      42.017  28.188  28.696  1.00  0.00     0.049 A 
ATOM     49  N   UNL A   1      44.206  30.254  28.517  1.00  0.00    -0.248 NA
ATOM     50  C   UNL A   1      42.755  31.809  29.476  1.00  0.00     0.031 C 
ATOM     51  C   UNL A   1      40.964  27.168  28.683  1.00  0.00     0.029 A 
ATOM     52  N   UNL A   1      43.109  27.539  28.178  1.00  0.00    -0.354 N 
ATOM     53  C   UNL A   1      44.834  31.493  28.587  1.00  0.00     0.074 A 
ATOM     54  C   UNL A   1      43.866  32.430  29.111  1.00  0.00     0.031 C 
ATOM     55  C   UNL A   1      41.471  26.017  28.214  1.00  0.00     0.029 A 
ATOM     56  C   UNL A   1      42.872  26.221  27.863  1.00  0.00     0.049 A 
ATOM     57  H   UNL A   1      43.980  27.976  28.044  1.00  0.00     0.167 HD
ATOM     58  C   UNL A   1      46.110  31.814  28.275  1.00  0.00     0.037 A 
ATOM     59  C   UNL A   1      43.696  25.284  27.355  1.00  0.00     0.037 A 
ATOM     60  C   UNL A   1      47.082  30.865  27.806  1.00  0.00     0.049 A 
ATOM     61  C   UNL A   1      45.127  25.650  27.069  1.00  0.00     0.074 A 
ATOM     62  C   UNL A   1      48.423  31.069  27.530  1.00  0.00     0.029 A 
ATOM     63  N   UNL A   1      46.821  29.525  27.556  1.00  0.00    -0.354 N 
ATOM     64  N   UNL A   1      45.722  26.812  27.203  1.00  0.00    -0.248 NA
ATOM     65  C   UNL A   1      46.002  24.578  26.575  1.00  0.00     0.031 C 
ATOM     66  C   UNL A   1      48.965  29.857  27.089  1.00  0.00     0.029 A 
ATOM     67  C   UNL A   1      47.971  28.892  27.123  1.00  0.00     0.049 A 
ATOM     68  H   UNL A   1      45.945  29.091  27.670  1.00  0.00     0.167 HD
ATOM     69  C   UNL A   1      47.046  26.606  26.833  1.00  0.00     0.074 A 
ATOM     70  C   UNL A   1      47.167  25.205  26.481  1.00  0.00     0.031 C 
ATOM     71  C   UNL A   1      48.070  27.494  26.789  1.00  0.00     0.037 A 
BRANCH  58  72
ATOM     72  C   UNL A   1      46.525  33.248  28.452  1.00  0.00     0.058 A 
ATOM     73  C   UNL A   1      46.409  34.181  27.408  1.00  0.00     0.135 A 
ATOM     74  C   UNL A   1      47.036  33.698  29.679  1.00  0.00     0.135 A 
ATOM     75  F   UNL A   1      45.945  33.798  26.208  1.00  0.00    -0.206 F 
ATOM     76  C   UNL A   1      46.820  35.500  27.563  1.00  0.00     0.059 A 
ATOM     77  C   UNL A   1      47.427  35.021  29.865  1.00  0.00     0.059 A 
ATOM     78  F   UNL A   1      47.171  32.848  30.709  1.00  0.00    -0.206 F 
ATOM     79  C   UNL A   1      47.332  35.910  28.794  1.00  0.00     0.060 A 
BRANCH  79  80
ATOM     80  S   UNL A   1      47.867  37.623  28.979  1.00  0.00     0.124 S 
ATOM     81  O   UNL A   1      48.328  37.930  27.629  1.00  0.00    -0.237 OA
ATOM     82  O   UNL A   1      46.638  38.293  29.396  1.00  0.00    -0.237 OA
ATOM     83  O   UNL A   1      48.910  37.544  29.997  1.00  0.00    -0.744 OA
ENDBRANCH  79  80
ENDBRANCH  58  72
BRANCH  59  84
ATOM     84  C   UNL A   1      43.201  23.900  27.129  1.00  0.00     0.058 A 
ATOM     85  C   UNL A   1      42.772  23.490  25.858  1.00  0.00     0.135 A 
ATOM     86  C   UNL A   1      43.163  22.959  28.169  1.00  0.00     0.135 A 
ATOM     87  F   UNL A   1      42.786  24.357  24.834  1.00  0.00    -0.206 F 
ATOM     88  C   UNL A   1      42.309  22.198  25.626  1.00  0.00     0.059 A 
ATOM     89  C   UNL A   1      42.724  21.655  27.957  1.00  0.00     0.059 A 
ATOM     90  F   UNL A   1      43.580  23.298  29.398  1.00  0.00    -0.206 F 
ATOM     91  C   UNL A   1      42.290  21.287  26.684  1.00  0.00     0.060 A 
BRANCH  91  92
ATOM     92  S   UNL A   1      41.738  19.597  26.362  1.00  0.00     0.124 S 
ATOM     93  O   UNL A   1      42.070  18.936  27.618  1.00  0.00    -0.237 OA
ATOM     94  O   UNL A   1      40.315  19.783  26.094  1.00  0.00    -0.237 OA
ATOM     95  O   UNL A   1      42.537  19.200  25.207  1.00  0.00    -0.744 OA
ENDBRANCH  91  92
ENDBRANCH  59  84
BRANCH  71  96
ATOM     96  C   UNL A   1      49.415  26.972  26.376  1.00  0.00     0.058 A 
ATOM     97  C   UNL A   1      50.280  26.357  27.294  1.00  0.00     0.135 A 
ATOM     98  C   UNL A   1      49.819  27.038  25.032  1.00  0.00     0.135 A 
ATOM     99  F   UNL A   1      49.940  26.274  28.590  1.00  0.00    -0.206 F 
ATOM    100  C   UNL A   1      51.510  25.846  26.899  1.00  0.00     0.059 A 
ATOM    101  C   UNL A   1      51.034  26.512  24.611  1.00  0.00     0.059 A 
ATOM    102  F   UNL A   1      49.021  27.605  24.113  1.00  0.00    -0.206 F 
ATOM    103  C   UNL A   1      51.880  25.928  25.555  1.00  0.00     0.060 A 
BRANCH 103 104
ATOM    104  S   UNL A   1      53.465  25.229  25.046  1.00  0.00     0.124 S 
ATOM    105  O   UNL A   1      54.389  25.923  25.937  1.00  0.00    -0.237 OA
ATOM    106  O   UNL A   1      53.279  23.806  25.307  1.00  0.00    -0.237 OA
ATOM    107  O   UNL A   1      53.557  25.594  23.635  1.00  0.00    -0.744 OA
ENDBRANCH 103 104
ENDBRANCH  71  96
ENDBRANCH  45  46
ENDBRANCH  37  40
ENDBRANCH  35  36
ENDBRANCH  34  35
ENDBRANCH  33  34
ENDBRANCH  32  33
ENDBRANCH   1  32
TORSDOF 22
ENDMDL
MODEL 2
REMARK VINA RESULT:      -9.1      6.383     13.510
REMARK SMILES Cc1ccc(NC(=O)C[C@H]2C(=O)NCCN2C(=O)CCC(=O)NCCCCCCNC(=O)c2ccc(-c3c4nc(c(-c5c(F)cc(S(=O)(=O)[O-])cc5F)c5ccc([nH]5)c(-c5c(F)cc(S(=O)(=O)[O-])cc5F)c5nc(c(-c6c(F)cc(S(=O)(=O)[O-])cc6F)c6ccc3[nH]6)C=C5)C=C4)cc2)c(C)c1
REMARK SMILES IDX 25 1 24 2 23 3 21 4 22 5 20 7 19 8 17 9 18 10 16 11 10 12
REMARK SMILES IDX 11 13 12 14 13 15 15 16 14 17 9 19 7 20 6 21 8 23 5 24 1 25
REMARK SMILES IDX 2 26 3 27 101 28 4 29 99 30 100 31 26 32 27 33 28 34 29 35
REMARK SMILES IDX 30 36 31 37 32 39 33 40 34 41 98 42 35 43 97 44 36 45 37 46
REMARK SMILES IDX 38 47 91 48 39 49 96 50 90 51 92 52 40 53 95 54 89 55 88 56
REMARK SMILES IDX 41 58 75 59 54 60 74 61 55 62 58 63 73 64 93 65 56 66 57 67
REMARK SMILES IDX 72 69 94 70 59 71 42 72 43 73 52 74 44 75 45 76 51 77 53 78
REMARK SMILES IDX 46 79 47 80 48 81 49 82 50 83 76 84 77 85 86 86 78 87 79 88
REMARK SMILES IDX 85 89 87 90 80 91 81 92 82 93 83 94 84 95 60 96 61 97 70 98
REMARK SMILES IDX 62 99 63 100 69 101 71 102 64 103 65 104 66 105 67 106
REMARK SMILES IDX 68 107
REMARK H PARENT 23 6 13 18 6 22 30 38 92 57 58 68
REMARK Flexibility Score: inf
ROOT
ATOM      1  C   UNL A   1      39.679  25.450  26.768  1.00  0.00     0.021 C 
ENDROOT
BRANCH   1   2
ATOM      2  C   UNL A   1      39.274  24.102  27.514  1.00  0.00     0.116 C 
BRANCH   2   3
ATOM      3  N   UNL A   1      38.727  22.941  26.802  1.00  0.00    -0.356 N 
ATOM      4  C   UNL A   1      37.919  22.707  25.727  1.00  0.00     0.220 C 
ATOM      5  O   UNL A   1      37.800  21.558  25.291  1.00  0.00    -0.275 OA
ATOM      6  H   UNL A   1      39.023  22.098  27.215  1.00  0.00     0.163 HD
BRANCH   4   7
ATOM      7  C   UNL A   1      37.043  23.759  25.172  1.00  0.00     0.110 C 
BRANCH   7   8
ATOM      8  C   UNL A   1      35.640  23.434  25.641  1.00  0.00     0.110 C 
BRANCH   8   9
ATOM      9  C   UNL A   1      34.715  23.751  24.516  1.00  0.00     0.223 C 
ATOM     10  O   UNL A   1      35.013  24.745  23.833  1.00  0.00    -0.275 OA
BRANCH   9  11
ATOM     11  N   UNL A   1      33.524  23.037  24.293  1.00  0.00    -0.328 N 
ATOM     12  C   UNL A   1      32.676  22.180  25.279  1.00  0.00     0.183 C 
ATOM     13  C   UNL A   1      32.233  20.844  24.604  1.00  0.00     0.243 C 
ATOM     14  O   UNL A   1      31.840  19.876  25.255  1.00  0.00    -0.273 OA
ATOM     15  N   UNL A   1      32.288  20.709  23.246  1.00  0.00    -0.353 N 
ATOM     16  C   UNL A   1      33.320  22.923  22.833  1.00  0.00     0.141 C 
ATOM     17  C   UNL A   1      32.561  21.739  22.288  1.00  0.00     0.137 C 
ATOM     18  H   UNL A   1      32.123  19.808  22.886  1.00  0.00     0.163 HD
BRANCH  12  19
ATOM     19  C   UNL A   1      31.612  22.618  26.565  1.00  0.00     0.135 C 
BRANCH  19  20
ATOM     20  C   UNL A   1      30.304  23.616  26.862  1.00  0.00     0.227 C 
ATOM     21  N   UNL A   1      29.877  24.890  26.483  1.00  0.00    -0.326 N 
ATOM     22  H   UNL A   1      29.018  25.056  26.935  1.00  0.00     0.169 HD
ATOM     23  O   UNL A   1      29.448  23.107  27.625  1.00  0.00    -0.275 OA
BRANCH  21  24
ATOM     24  C   UNL A   1      30.181  26.063  25.700  1.00  0.00     0.044 A 
ATOM     25  C   UNL A   1      32.291  28.069  22.564  1.00  0.00     0.044 C 
ATOM     26  C   UNL A   1      31.344  27.664  23.665  1.00  0.00    -0.051 A 
ATOM     27  C   UNL A   1      30.207  26.904  23.394  1.00  0.00     0.005 A 
ATOM     28  C   UNL A   1      31.685  27.849  25.008  1.00  0.00     0.009 A 
ATOM     29  C   UNL A   1      29.596  26.151  24.422  1.00  0.00     0.026 A 
ATOM     30  C   UNL A   1      31.077  27.082  26.037  1.00  0.00    -0.027 A 
ATOM     31  C   UNL A   1      31.351  27.461  27.459  1.00  0.00     0.046 C 
ENDBRANCH  21  24
ENDBRANCH  19  20
ENDBRANCH  12  19
ENDBRANCH   9  11
ENDBRANCH   8   9
ENDBRANCH   7   8
ENDBRANCH   4   7
ENDBRANCH   2   3
ENDBRANCH   1   2
BRANCH   1  32
ATOM     32  C   UNL A   1      40.343  26.717  27.356  1.00  0.00     0.002 C 
BRANCH  32  33
ATOM     33  C   UNL A   1      41.456  27.419  26.544  1.00  0.00     0.002 C 
BRANCH  33  34
ATOM     34  C   UNL A   1      42.141  26.562  25.496  1.00  0.00     0.021 C 
BRANCH  34  35
ATOM     35  C   UNL A   1      42.917  25.391  26.068  1.00  0.00     0.116 C 
BRANCH  35  36
ATOM     36  N   UNL A   1      44.292  25.319  25.592  1.00  0.00    -0.352 N 
ATOM     37  C   UNL A   1      45.401  25.992  26.071  1.00  0.00     0.251 C 
ATOM     38  H   UNL A   1      44.452  24.715  24.831  1.00  0.00     0.163 HD
ATOM     39  O   UNL A   1      46.473  25.919  25.514  1.00  0.00    -0.269 OA
BRANCH  37  40
ATOM     40  C   UNL A   1      45.218  26.842  27.270  1.00  0.00     0.039 A 
ATOM     41  C   UNL A   1      45.428  28.216  27.163  1.00  0.00     0.014 A 
ATOM     42  C   UNL A   1      44.708  26.282  28.443  1.00  0.00     0.014 A 
ATOM     43  C   UNL A   1      45.034  29.047  28.213  1.00  0.00     0.010 A 
ATOM     44  C   UNL A   1      44.218  27.119  29.435  1.00  0.00     0.010 A 
ATOM     45  C   UNL A   1      44.377  28.509  29.333  1.00  0.00    -0.014 A 
BRANCH  45  46
ATOM     46  C   UNL A   1      43.856  29.376  30.420  1.00  0.00     0.031 A 
ATOM     47  C   UNL A   1      44.664  29.554  31.677  1.00  0.00     0.074 A 
ATOM     48  C   UNL A   1      42.631  29.929  30.314  1.00  0.00     0.049 A 
ATOM     49  N   UNL A   1      44.352  30.189  32.776  1.00  0.00    -0.248 NA
ATOM     50  C   UNL A   1      45.979  28.892  31.720  1.00  0.00     0.031 C 
ATOM     51  C   UNL A   1      41.720  29.766  29.177  1.00  0.00     0.029 A 
ATOM     52  N   UNL A   1      41.934  30.732  31.180  1.00  0.00    -0.354 N 
ATOM     53  C   UNL A   1      45.417  29.981  33.646  1.00  0.00     0.074 A 
ATOM     54  C   UNL A   1      46.353  29.110  32.971  1.00  0.00     0.031 C 
ATOM     55  C   UNL A   1      40.602  30.474  29.402  1.00  0.00     0.029 A 
ATOM     56  C   UNL A   1      40.699  31.115  30.710  1.00  0.00     0.049 A 
ATOM     57  H   UNL A   1      42.285  31.009  32.057  1.00  0.00     0.167 HD
ATOM     58  C   UNL A   1      45.614  30.496  34.881  1.00  0.00     0.037 A 
ATOM     59  C   UNL A   1      39.757  31.899  31.269  1.00  0.00     0.037 A 
ATOM     60  C   UNL A   1      44.705  31.406  35.523  1.00  0.00     0.049 A 
ATOM     61  C   UNL A   1      40.023  32.507  32.619  1.00  0.00     0.074 A 
ATOM     62  C   UNL A   1      44.843  32.046  36.742  1.00  0.00     0.029 A 
ATOM     63  N   UNL A   1      43.492  31.817  34.989  1.00  0.00    -0.354 N 
ATOM     64  N   UNL A   1      41.065  32.352  33.401  1.00  0.00    -0.248 NA
ATOM     65  C   UNL A   1      38.993  33.404  33.160  1.00  0.00     0.031 C 
ATOM     66  C   UNL A   1      43.700  32.824  36.956  1.00  0.00     0.029 A 
ATOM     67  C   UNL A   1      42.868  32.696  35.856  1.00  0.00     0.049 A 
ATOM     68  H   UNL A   1      43.130  31.526  34.122  1.00  0.00     0.167 HD
ATOM     69  C   UNL A   1      40.828  33.150  34.514  1.00  0.00     0.074 A 
ATOM     70  C   UNL A   1      39.549  33.796  34.298  1.00  0.00     0.031 C 
ATOM     71  C   UNL A   1      41.599  33.335  35.614  1.00  0.00     0.037 A 
BRANCH  58  72
ATOM     72  C   UNL A   1      46.871  30.099  35.603  1.00  0.00     0.058 A 
ATOM     73  C   UNL A   1      48.065  30.823  35.453  1.00  0.00     0.135 A 
ATOM     74  C   UNL A   1      46.883  28.987  36.460  1.00  0.00     0.135 A 
ATOM     75  F   UNL A   1      48.113  31.883  34.629  1.00  0.00    -0.206 F 
ATOM     76  C   UNL A   1      49.235  30.439  36.098  1.00  0.00     0.059 A 
ATOM     77  C   UNL A   1      48.036  28.601  37.138  1.00  0.00     0.059 A 
ATOM     78  F   UNL A   1      45.771  28.258  36.638  1.00  0.00    -0.206 F 
ATOM     79  C   UNL A   1      49.212  29.324  36.935  1.00  0.00     0.060 A 
BRANCH  79  80
ATOM     80  S   UNL A   1      50.739  28.832  37.761  1.00  0.00     0.124 S 
ATOM     81  O   UNL A   1      50.227  28.263  39.002  1.00  0.00    -0.237 OA
ATOM     82  O   UNL A   1      51.315  27.879  36.817  1.00  0.00    -0.237 OA
ATOM     83  O   UNL A   1      51.469  30.089  37.899  1.00  0.00    -0.744 OA
ENDBRANCH  79  80
ENDBRANCH  58  72
BRANCH  59  84
ATOM     84  C   UNL A   1      38.499  32.191  30.533  1.00  0.00     0.058 A 
ATOM     85  C   UNL A   1      37.358  31.396  30.719  1.00  0.00     0.135 A 
ATOM     86  C   UNL A   1      38.404  33.275  29.648  1.00  0.00     0.135 A 
ATOM     87  F   UNL A   1      37.401  30.345  31.553  1.00  0.00    -0.206 F 
ATOM     88  C   UNL A   1      36.170  31.655  30.043  1.00  0.00     0.059 A 
ATOM     89  C   UNL A   1      37.221  33.568  28.975  1.00  0.00     0.059 A 
ATOM     90  F   UNL A   1      39.463  34.076  29.450  1.00  0.00    -0.206 F 
ATOM     91  C   UNL A   1      36.112  32.746  29.173  1.00  0.00     0.060 A 
BRANCH  91  92
ATOM     92  S   UNL A   1      34.550  33.108  28.340  1.00  0.00     0.124 S 
ATOM     93  O   UNL A   1      34.257  31.832  27.698  1.00  0.00    -0.237 OA
ATOM     94  O   UNL A   1      33.683  33.476  29.456  1.00  0.00    -0.237 OA
ATOM     95  O   UNL A   1      34.898  34.204  27.441  1.00  0.00    -0.744 OA
ENDBRANCH  91  92
ENDBRANCH  59  84
BRANCH  71  96
ATOM     96  C   UNL A   1      41.095  34.293  36.653  1.00  0.00     0.058 A 
ATOM     97  C   UNL A   1      40.246  33.876  37.689  1.00  0.00     0.135 A 
ATOM     98  C   UNL A   1      41.512  35.635  36.642  1.00  0.00     0.135 A 
ATOM     99  F   UNL A   1      39.817  32.604  37.739  1.00  0.00    -0.206 F 
ATOM    100  C   UNL A   1      39.809  34.760  38.668  1.00  0.00     0.059 A 
ATOM    101  C   UNL A   1      41.106  36.531  37.624  1.00  0.00     0.059 A 
ATOM    102  F   UNL A   1      42.334  36.079  35.679  1.00  0.00    -0.206 F 
ATOM    103  C   UNL A   1      40.244  36.086  38.628  1.00  0.00     0.060 A 
BRANCH 103 104
ATOM    104  S   UNL A   1      39.698  37.219  39.923  1.00  0.00     0.124 S 
ATOM    105  O   UNL A   1      39.339  36.290  40.990  1.00  0.00    -0.237 OA
ATOM    106  O   UNL A   1      40.891  38.025  40.159  1.00  0.00    -0.237 OA
ATOM    107  O   UNL A   1      38.582  37.928  39.304  1.00  0.00    -0.744 OA
ENDBRANCH 103 104
ENDBRANCH  71  96
ENDBRANCH  45  46
ENDBRANCH  37  40
ENDBRANCH  35  36
ENDBRANCH  34  35
ENDBRANCH  33  34
ENDBRANCH  32  33
ENDBRANCH   1  32
TORSDOF 22
ENDMDL
MODEL 3
REMARK VINA RESULT:      -9.0      1.076      2.224
REMARK SMILES Cc1ccc(NC(=O)C[C@H]2C(=O)NCCN2C(=O)CCC(=O)NCCCCCCNC(=O)c2ccc(-c3c4nc(c(-c5c(F)cc(S(=O)(=O)[O-])cc5F)c5ccc([nH]5)c(-c5c(F)cc(S(=O)(=O)[O-])cc5F)c5nc(c(-c6c(F)cc(S(=O)(=O)[O-])cc6F)c6ccc3[nH]6)C=C5)C=C4)cc2)c(C)c1
REMARK SMILES IDX 25 1 24 2 23 3 21 4 22 5 20 7 19 8 17 9 18 10 16 11 10 12
REMARK SMILES IDX 11 13 12 14 13 15 15 16 14 17 9 19 7 20 6 21 8 23 5 24 1 25
REMARK SMILES IDX 2 26 3 27 101 28 4 29 99 30 100 31 26 32 27 33 28 34 29 35
REMARK SMILES IDX 30 36 31 37 32 39 33 40 34 41 98 42 35 43 97 44 36 45 37 46
REMARK SMILES IDX 38 47 91 48 39 49 96 50 90 51 92 52 40 53 95 54 89 55 88 56
REMARK SMILES IDX 41 58 75 59 54 60 74 61 55 62 58 63 73 64 93 65 56 66 57 67
REMARK SMILES IDX 72 69 94 70 59 71 42 72 43 73 52 74 44 75 45 76 51 77 53 78
REMARK SMILES IDX 46 79 47 80 48 81 49 82 50 83 76 84 77 85 86 86 78 87 79 88
REMARK SMILES IDX 85 89 87 90 80 91 81 92 82 93 83 94 84 95 60 96 61 97 70 98
REMARK SMILES IDX 62 99 63 100 69 101 71 102 64 103 65 104 66 105 67 106
REMARK SMILES IDX 68 107
REMARK H PARENT 23 6 13 18 6 22 30 38 92 57 58 68
REMARK Flexibility Score: inf
ROOT
ATOM      1  C   UNL A   1      40.990  33.499  32.430  1.00  0.00     0.021 C 
ENDROOT
BRANCH   1   2
ATOM      2  C   UNL A   1      41.555  32.515  33.548  1.00  0.00     0.116 C 
BRANCH   2   3
ATOM      3  N   UNL A   1      40.915  32.363  34.860  1.00  0.00    -0.356 N 
ATOM      4  C   UNL A   1      40.574  31.345  35.703  1.00  0.00     0.220 C 
ATOM      5  O   UNL A   1      40.185  31.602  36.846  1.00  0.00    -0.275 OA
ATOM      6  H   UNL A   1      40.661  33.236  35.235  1.00  0.00     0.163 HD
BRANCH   4   7
ATOM      7  C   UNL A   1      40.488  29.946  35.234  1.00  0.00     0.110 C 
BRANCH   7   8
ATOM      8  C   UNL A   1      41.628  29.205  35.901  1.00  0.00     0.110 C 
BRANCH   8   9
ATOM      9  C   UNL A   1      41.891  27.982  35.091  1.00  0.00     0.223 C 
ATOM     10  O   UNL A   1      41.702  28.091  33.868  1.00  0.00    -0.275 OA
BRANCH   9  11
ATOM     11  N   UNL A   1      42.235  26.749  35.674  1.00  0.00    -0.328 N 
ATOM     12  C   UNL A   1      43.156  25.615  35.137  1.00  0.00     0.183 C 
ATOM     13  C   UNL A   1      42.499  24.218  35.371  1.00  0.00     0.243 C 
ATOM     14  O   UNL A   1      42.862  23.210  34.766  1.00  0.00    -0.273 OA
ATOM     15  N   UNL A   1      41.471  24.082  36.261  1.00  0.00    -0.353 N 
ATOM     16  C   UNL A   1      41.307  26.495  36.797  1.00  0.00     0.141 C 
ATOM     17  C   UNL A   1      40.991  25.070  37.181  1.00  0.00     0.137 C 
ATOM     18  H   UNL A   1      41.010  23.212  36.272  1.00  0.00     0.163 HD
BRANCH  12  19
ATOM     19  C   UNL A   1      44.872  25.488  35.004  1.00  0.00     0.135 C 
BRANCH  19  20
ATOM     20  C   UNL A   1      46.033  24.746  34.057  1.00  0.00     0.227 C 
ATOM     21  N   UNL A   1      46.678  23.510  34.004  1.00  0.00    -0.326 N 
ATOM     22  H   UNL A   1      47.310  23.543  33.251  1.00  0.00     0.169 HD
ATOM     23  O   UNL A   1      46.455  25.469  33.124  1.00  0.00    -0.275 OA
BRANCH  21  24
ATOM     24  C   UNL A   1      46.796  22.202  34.603  1.00  0.00     0.044 A 
ATOM     25  C   UNL A   1      46.302  19.484  37.872  1.00  0.00     0.044 C 
ATOM     26  C   UNL A   1      46.539  20.137  36.533  1.00  0.00    -0.051 A 
ATOM     27  C   UNL A   1      45.478  20.433  35.679  1.00  0.00     0.005 A 
ATOM     28  C   UNL A   1      47.793  20.657  36.200  1.00  0.00     0.009 A 
ATOM     29  C   UNL A   1      45.626  21.423  34.681  1.00  0.00     0.026 A 
ATOM     30  C   UNL A   1      47.936  21.660  35.206  1.00  0.00    -0.027 A 
ATOM     31  C   UNL A   1      49.319  22.035  34.772  1.00  0.00     0.046 C 
ENDBRANCH  21  24
ENDBRANCH  19  20
ENDBRANCH  12  19
ENDBRANCH   9  11
ENDBRANCH   8   9
ENDBRANCH   7   8
ENDBRANCH   4   7
ENDBRANCH   2   3
ENDBRANCH   1   2
BRANCH   1  32
ATOM     32  C   UNL A   1      39.619  34.213  32.376  1.00  0.00     0.002 C 
BRANCH  32  33
ATOM     33  C   UNL A   1      38.768  34.094  31.091  1.00  0.00     0.002 C 
BRANCH  33  34
ATOM     34  C   UNL A   1      37.280  33.887  31.308  1.00  0.00     0.021 C 
BRANCH  34  35
ATOM     35  C   UNL A   1      36.601  33.098  30.205  1.00  0.00     0.116 C 
BRANCH  35  36
ATOM     36  N   UNL A   1      36.020  31.844  30.664  1.00  0.00    -0.352 N 
ATOM     37  C   UNL A   1      36.597  30.587  30.684  1.00  0.00     0.251 C 
ATOM     38  H   UNL A   1      35.097  31.897  31.003  1.00  0.00     0.163 HD
ATOM     39  O   UNL A   1      35.963  29.605  30.997  1.00  0.00    -0.269 OA
BRANCH  37  40
ATOM     40  C   UNL A   1      38.014  30.482  30.266  1.00  0.00     0.039 A 
ATOM     41  C   UNL A   1      38.996  30.319  31.242  1.00  0.00     0.014 A 
ATOM     42  C   UNL A   1      38.331  30.406  28.908  1.00  0.00     0.014 A 
ATOM     43  C   UNL A   1      40.294  29.985  30.851  1.00  0.00     0.010 A 
ATOM     44  C   UNL A   1      39.592  29.967  28.530  1.00  0.00     0.010 A 
ATOM     45  C   UNL A   1      40.587  29.754  29.496  1.00  0.00    -0.014 A 
BRANCH  45  46
ATOM     46  C   UNL A   1      41.931  29.300  29.057  1.00  0.00     0.031 A 
ATOM     47  C   UNL A   1      43.067  30.286  29.008  1.00  0.00     0.074 A 
ATOM     48  C   UNL A   1      42.108  28.035  28.626  1.00  0.00     0.049 A 
ATOM     49  N   UNL A   1      44.287  30.119  28.571  1.00  0.00    -0.248 NA
ATOM     50  C   UNL A   1      42.778  31.654  29.472  1.00  0.00     0.031 C 
ATOM     51  C   UNL A   1      41.066  27.007  28.553  1.00  0.00     0.029 A 
ATOM     52  N   UNL A   1      43.229  27.399  28.156  1.00  0.00    -0.354 N 
ATOM     53  C   UNL A   1      44.900  31.362  28.683  1.00  0.00     0.074 A 
ATOM     54  C   UNL A   1      43.900  32.287  29.167  1.00  0.00     0.031 C 
ATOM     55  C   UNL A   1      41.604  25.863  28.099  1.00  0.00     0.029 A 
ATOM     56  C   UNL A   1      43.019  26.082  27.819  1.00  0.00     0.049 A 
ATOM     57  H   UNL A   1      44.103  27.844  28.069  1.00  0.00     0.167 HD
ATOM     58  C   UNL A   1      46.187  31.696  28.436  1.00  0.00     0.037 A 
ATOM     59  C   UNL A   1      43.874  25.156  27.343  1.00  0.00     0.037 A 
ATOM     60  C   UNL A   1      47.189  30.759  28.007  1.00  0.00     0.049 A 
ATOM     61  C   UNL A   1      45.315  25.535  27.131  1.00  0.00     0.074 A 
ATOM     62  C   UNL A   1      48.540  30.975  27.800  1.00  0.00     0.029 A 
ATOM     63  N   UNL A   1      46.951  29.419  27.734  1.00  0.00    -0.354 N 
ATOM     64  N   UNL A   1      45.893  26.700  27.304  1.00  0.00    -0.248 NA
ATOM     65  C   UNL A   1      46.222  24.475  26.671  1.00  0.00     0.031 C 
ATOM     66  C   UNL A   1      49.113  29.772  27.375  1.00  0.00     0.029 A 
ATOM     67  C   UNL A   1      48.127  28.799  27.352  1.00  0.00     0.049 A 
ATOM     68  H   UNL A   1      46.075  28.977  27.801  1.00  0.00     0.167 HD
ATOM     69  C   UNL A   1      47.235  26.508  26.997  1.00  0.00     0.074 A 
ATOM     70  C   UNL A   1      47.385  25.111  26.640  1.00  0.00     0.031 C 
ATOM     71  C   UNL A   1      48.253  27.404  27.011  1.00  0.00     0.037 A 
BRANCH  58  72
ATOM     72  C   UNL A   1      46.581  33.131  28.646  1.00  0.00     0.058 A 
ATOM     73  C   UNL A   1      46.330  34.112  27.672  1.00  0.00     0.135 A 
ATOM     74  C   UNL A   1      47.209  33.534  29.835  1.00  0.00     0.135 A 
ATOM     75  F   UNL A   1      45.750  33.776  26.509  1.00  0.00    -0.206 F 
ATOM     76  C   UNL A   1      46.721  35.434  27.854  1.00  0.00     0.059 A 
ATOM     77  C   UNL A   1      47.583  34.858  30.049  1.00  0.00     0.059 A 
ATOM     78  F   UNL A   1      47.476  32.638  30.797  1.00  0.00    -0.206 F 
ATOM     79  C   UNL A   1      47.351  35.797  29.044  1.00  0.00     0.060 A 
BRANCH  79  80
ATOM     80  S   UNL A   1      47.858  37.514  29.264  1.00  0.00     0.124 S 
ATOM     81  O   UNL A   1      48.820  37.395  30.354  1.00  0.00    -0.237 OA
ATOM     82  O   UNL A   1      48.418  37.847  27.957  1.00  0.00    -0.237 OA
ATOM     83  O   UNL A   1      46.611  38.195  29.599  1.00  0.00    -0.744 OA
ENDBRANCH  79  80
ENDBRANCH  58  72
BRANCH  59  84
ATOM     84  C   UNL A   1      43.402  23.771  27.082  1.00  0.00     0.058 A 
ATOM     85  C   UNL A   1      43.281  22.844  28.128  1.00  0.00     0.135 A 
ATOM     86  C   UNL A   1      43.047  23.351  25.791  1.00  0.00     0.135 A 
ATOM     87  F   UNL A   1      43.614  23.198  29.379  1.00  0.00    -0.206 F 
ATOM     88  C   UNL A   1      42.838  21.544  27.905  1.00  0.00     0.059 A 
ATOM     89  C   UNL A   1      42.580  22.062  25.545  1.00  0.00     0.059 A 
ATOM     90  F   UNL A   1      43.127  24.205  24.760  1.00  0.00    -0.206 F 
ATOM     91  C   UNL A   1      42.489  21.163  26.607  1.00  0.00     0.060 A 
BRANCH  91  92
ATOM     92  S   UNL A   1      41.863  19.491  26.334  1.00  0.00     0.124 S 
ATOM     93  O   UNL A   1      42.599  19.093  25.140  1.00  0.00    -0.237 OA
ATOM     94  O   UNL A   1      42.239  18.815  27.572  1.00  0.00    -0.237 OA
ATOM     95  O   UNL A   1      40.429  19.697  26.154  1.00  0.00    -0.744 OA
ENDBRANCH  91  92
ENDBRANCH  59  84
BRANCH  71  96
ATOM     96  C   UNL A   1      49.621  26.896  26.660  1.00  0.00     0.058 A 
ATOM     97  C   UNL A   1      50.492  26.391  27.636  1.00  0.00     0.135 A 
ATOM     98  C   UNL A   1      50.042  26.864  25.320  1.00  0.00     0.135 A 
ATOM     99  F   UNL A   1      50.135  26.406  28.931  1.00  0.00    -0.206 F 
ATOM    100  C   UNL A   1      51.744  25.892  27.301  1.00  0.00     0.059 A 
ATOM    101  C   UNL A   1      51.281  26.347  24.959  1.00  0.00     0.059 A 
ATOM    102  F   UNL A   1      49.239  27.324  24.347  1.00  0.00    -0.206 F 
ATOM    103  C   UNL A   1      52.131  25.873  25.959  1.00  0.00     0.060 A 
BRANCH 103 104
ATOM    104  S   UNL A   1      53.746  25.190  25.530  1.00  0.00     0.124 S 
ATOM    105  O   UNL A   1      53.369  23.966  24.832  1.00  0.00    -0.237 OA
ATOM    106  O   UNL A   1      54.322  26.243  24.701  1.00  0.00    -0.237 OA
ATOM    107  O   UNL A   1      54.388  25.002  26.828  1.00  0.00    -0.744 OA
ENDBRANCH 103 104
ENDBRANCH  71  96
ENDBRANCH  45  46
ENDBRANCH  37  40
ENDBRANCH  35  36
ENDBRANCH  34  35
ENDBRANCH  33  34
ENDBRANCH  32  33
ENDBRANCH   1  32
TORSDOF 22
ENDMDL
