MODEL 1
REMARK VINA RESULT:     -12.5      0.000      0.000
REMARK SMILES Cn1c(C(=O)N2CCC[C@@H](C(=O)NCCCCCCNC(=O)c3ccc(-c4c5nc(c(-c6c(F)cc(S(=O)(=O)[O-])cc6F)c6ccc([nH]6)c(-c6c(F)cc(S(=O)(=O)[O-])cc6F)c6nc(c(-c7c(F)cc(S(=O)(=O)[O-])cc7F)c7ccc4[nH]7)C=C6)C=C5)cc3)C2)cc2sccc21
REMARK SMILES IDX 17 1 16 2 15 3 14 4 13 5 11 6 12 7 10 9 6 10 7 11 89 12 8 13
REMARK SMILES IDX 9 14 4 15 5 16 3 17 1 18 2 19 95 20 90 21 91 22 94 23 92 24
REMARK SMILES IDX 93 25 18 26 19 27 20 28 21 29 22 31 23 32 24 33 88 34 25 35
REMARK SMILES IDX 87 36 26 37 27 38 28 39 81 40 29 41 86 42 80 43 82 44 30 45
REMARK SMILES IDX 85 46 79 47 78 48 31 50 65 51 44 52 64 53 45 54 48 55 63 56
REMARK SMILES IDX 83 57 46 58 47 59 62 61 84 62 49 63 32 64 33 65 42 66 34 67
REMARK SMILES IDX 35 68 41 69 43 70 36 71 37 72 38 73 39 74 40 75 66 76 67 77
REMARK SMILES IDX 76 78 68 79 69 80 75 81 77 82 70 83 71 84 72 85 73 86 74 87
REMARK SMILES IDX 50 88 51 89 60 90 52 91 53 92 59 93 61 94 54 95 55 96 56 97
REMARK SMILES IDX 57 98 58 99
REMARK H PARENT 13 8 20 30 82 49 48 60
REMARK Flexibility Score: inf
ROOT
ATOM      1  C   UNL A   1      40.378  21.176  26.948  1.00  0.00     0.002 C 
ENDROOT
BRANCH   1   2
ATOM      2  C   UNL A   1      39.224  21.758  26.117  1.00  0.00     0.002 C 
BRANCH   2   3
ATOM      3  C   UNL A   1      39.096  23.284  26.110  1.00  0.00     0.021 C 
BRANCH   3   4
ATOM      4  C   UNL A   1      37.685  23.805  25.855  1.00  0.00     0.116 C 
BRANCH   4   5
ATOM      5  N   UNL A   1      37.241  23.538  24.496  1.00  0.00    -0.356 N 
ATOM      6  C   UNL A   1      36.033  23.138  24.010  1.00  0.00     0.224 C 
ATOM      7  O   UNL A   1      35.918  23.027  22.787  1.00  0.00    -0.275 OA
ATOM      8  H   UNL A   1      37.933  23.667  23.809  1.00  0.00     0.163 HD
BRANCH   6   9
ATOM      9  C   UNL A   1      34.848  22.861  24.926  1.00  0.00     0.098 C 
ATOM     10  N   UNL A   1      32.488  23.550  25.345  1.00  0.00    -0.337 N 
ATOM     11  C   UNL A   1      32.004  22.216  25.062  1.00  0.00     0.120 C 
ATOM     12  C   UNL A   1      33.776  23.952  24.790  1.00  0.00     0.133 C 
ATOM     13  C   UNL A   1      33.022  21.168  25.466  1.00  0.00     0.022 C 
ATOM     14  C   UNL A   1      34.355  21.412  24.769  1.00  0.00     0.017 C 
BRANCH  10  15
ATOM     15  C   UNL A   1      31.668  24.393  26.089  1.00  0.00     0.270 C 
ATOM     16  O   UNL A   1      31.273  24.026  27.195  1.00  0.00    -0.267 OA
BRANCH  15  17
ATOM     17  C   UNL A   1      31.233  25.623  25.432  1.00  0.00     0.108 A 
ATOM     18  C   UNL A   1      32.876  27.275  26.489  1.00  0.00     0.150 C 
ATOM     19  N   UNL A   1      31.780  26.880  25.637  1.00  0.00    -0.339 N 
ATOM     20  C   UNL A   1      31.124  27.792  24.837  1.00  0.00     0.059 A 
ATOM     21  C   UNL A   1      30.137  25.791  24.590  1.00  0.00     0.053 A 
ATOM     22  C   UNL A   1      30.137  27.142  24.167  1.00  0.00     0.053 A 
ATOM     23  C   UNL A   1      31.176  29.183  24.547  1.00  0.00     0.038 A 
ATOM     24  S   UNL A   1      29.262  28.172  23.090  1.00  0.00    -0.142 S 
ATOM     25  C   UNL A   1      30.252  29.491  23.572  1.00  0.00     0.068 A 
ENDBRANCH  15  17
ENDBRANCH  10  15
ENDBRANCH   6   9
ENDBRANCH   4   5
ENDBRANCH   3   4
ENDBRANCH   2   3
ENDBRANCH   1   2
BRANCH   1  26
ATOM     26  C   UNL A   1      41.081  19.934  26.385  1.00  0.00     0.021 C 
BRANCH  26  27
ATOM     27  C   UNL A   1      42.435  19.631  27.009  1.00  0.00     0.116 C 
BRANCH  27  28
ATOM     28  N   UNL A   1      43.473  19.379  26.016  1.00  0.00    -0.352 N 
ATOM     29  C   UNL A   1      44.075  20.293  25.170  1.00  0.00     0.251 C 
ATOM     30  H   UNL A   1      43.782  18.448  25.938  1.00  0.00     0.163 HD
ATOM     31  O   UNL A   1      44.622  19.919  24.145  1.00  0.00    -0.269 OA
BRANCH  29  32
ATOM     32  C   UNL A   1      44.021  21.727  25.522  1.00  0.00     0.039 A 
ATOM     33  C   UNL A   1      43.146  22.588  24.862  1.00  0.00     0.014 A 
ATOM     34  C   UNL A   1      44.830  22.200  26.555  1.00  0.00     0.014 A 
ATOM     35  C   UNL A   1      43.021  23.897  25.324  1.00  0.00     0.010 A 
ATOM     36  C   UNL A   1      44.604  23.447  27.097  1.00  0.00     0.010 A 
ATOM     37  C   UNL A   1      43.719  24.317  26.475  1.00  0.00    -0.014 A 
BRANCH  37  38
ATOM     38  C   UNL A   1      43.415  25.624  27.069  1.00  0.00     0.031 A 
ATOM     39  C   UNL A   1      44.393  26.689  26.712  1.00  0.00     0.074 A 
ATOM     40  C   UNL A   1      42.304  25.946  27.770  1.00  0.00     0.049 A 
ATOM     41  N   UNL A   1      45.353  27.137  27.449  1.00  0.00    -0.248 NA
ATOM     42  C   UNL A   1      44.419  27.201  25.333  1.00  0.00     0.031 C 
ATOM     43  C   UNL A   1      41.078  25.157  27.945  1.00  0.00     0.029 A 
ATOM     44  N   UNL A   1      42.006  27.107  28.430  1.00  0.00    -0.354 N 
ATOM     45  C   UNL A   1      45.933  28.175  26.729  1.00  0.00     0.074 A 
ATOM     46  C   UNL A   1      45.465  28.034  25.375  1.00  0.00     0.031 C 
ATOM     47  C   UNL A   1      40.097  25.940  28.449  1.00  0.00     0.029 A 
ATOM     48  C   UNL A   1      40.680  27.211  28.835  1.00  0.00     0.049 A 
ATOM     49  H   UNL A   1      42.675  27.808  28.606  1.00  0.00     0.167 HD
ATOM     50  C   UNL A   1      46.513  29.224  27.378  1.00  0.00     0.037 A 
ATOM     51  C   UNL A   1      40.091  28.241  29.490  1.00  0.00     0.037 A 
ATOM     52  C   UNL A   1      46.630  28.948  28.787  1.00  0.00     0.049 A 
ATOM     53  C   UNL A   1      41.138  28.986  30.213  1.00  0.00     0.074 A 
ATOM     54  C   UNL A   1      47.460  28.222  29.612  1.00  0.00     0.029 A 
ATOM     55  N   UNL A   1      45.484  29.210  29.488  1.00  0.00    -0.354 N 
ATOM     56  N   UNL A   1      41.819  28.483  31.205  1.00  0.00    -0.248 NA
ATOM     57  C   UNL A   1      41.684  30.204  29.628  1.00  0.00     0.031 C 
ATOM     58  C   UNL A   1      46.703  27.932  30.788  1.00  0.00     0.029 A 
ATOM     59  C   UNL A   1      45.447  28.521  30.670  1.00  0.00     0.049 A 
ATOM     60  H   UNL A   1      44.774  29.819  29.179  1.00  0.00     0.167 HD
ATOM     61  C   UNL A   1      43.069  29.050  31.072  1.00  0.00     0.074 A 
ATOM     62  C   UNL A   1      42.879  30.216  30.221  1.00  0.00     0.031 C 
ATOM     63  C   UNL A   1      44.195  28.343  31.371  1.00  0.00     0.037 A 
BRANCH  50  64
ATOM     64  C   UNL A   1      46.537  30.655  26.885  1.00  0.00     0.058 A 
ATOM     65  C   UNL A   1      47.754  31.371  26.905  1.00  0.00     0.135 A 
ATOM     66  C   UNL A   1      45.378  31.435  26.684  1.00  0.00     0.135 A 
ATOM     67  F   UNL A   1      48.918  30.734  27.110  1.00  0.00    -0.206 F 
ATOM     68  C   UNL A   1      47.809  32.761  26.779  1.00  0.00     0.059 A 
ATOM     69  C   UNL A   1      45.414  32.815  26.506  1.00  0.00     0.059 A 
ATOM     70  F   UNL A   1      44.148  30.910  26.749  1.00  0.00    -0.206 F 
ATOM     71  C   UNL A   1      46.630  33.475  26.587  1.00  0.00     0.060 A 
BRANCH  71  72
ATOM     72  S   UNL A   1      46.690  35.273  26.479  1.00  0.00     0.124 S 
ATOM     73  O   UNL A   1      47.668  35.472  25.415  1.00  0.00    -0.237 OA
ATOM     74  O   UNL A   1      45.308  35.604  26.148  1.00  0.00    -0.237 OA
ATOM     75  O   UNL A   1      47.120  35.674  27.816  1.00  0.00    -0.744 OA
ENDBRANCH  71  72
ENDBRANCH  50  64
BRANCH  51  76
ATOM     76  C   UNL A   1      38.770  28.841  29.207  1.00  0.00     0.058 A 
ATOM     77  C   UNL A   1      37.829  29.098  30.218  1.00  0.00     0.135 A 
ATOM     78  C   UNL A   1      38.548  29.463  27.966  1.00  0.00     0.135 A 
ATOM     79  F   UNL A   1      38.007  28.591  31.446  1.00  0.00    -0.206 F 
ATOM     80  C   UNL A   1      36.720  29.926  30.005  1.00  0.00     0.059 A 
ATOM     81  C   UNL A   1      37.465  30.306  27.737  1.00  0.00     0.059 A 
ATOM     82  F   UNL A   1      39.439  29.326  26.971  1.00  0.00    -0.206 F 
ATOM     83  C   UNL A   1      36.553  30.534  28.760  1.00  0.00     0.060 A 
BRANCH  83  84
ATOM     84  S   UNL A   1      35.142  31.629  28.479  1.00  0.00     0.124 S 
ATOM     85  O   UNL A   1      34.199  30.747  27.799  1.00  0.00    -0.237 OA
ATOM     86  O   UNL A   1      34.786  32.019  29.838  1.00  0.00    -0.237 OA
ATOM     87  O   UNL A   1      35.697  32.691  27.642  1.00  0.00    -0.744 OA
ENDBRANCH  83  84
ENDBRANCH  51  76
BRANCH  63  88
ATOM     88  C   UNL A   1      44.083  27.254  32.393  1.00  0.00     0.058 A 
ATOM     89  C   UNL A   1      43.921  27.444  33.776  1.00  0.00     0.135 A 
ATOM     90  C   UNL A   1      44.086  25.934  31.918  1.00  0.00     0.135 A 
ATOM     91  F   UNL A   1      43.842  28.675  34.299  1.00  0.00    -0.206 F 
ATOM     92  C   UNL A   1      43.796  26.359  34.649  1.00  0.00     0.059 A 
ATOM     93  C   UNL A   1      43.935  24.843  32.763  1.00  0.00     0.059 A 
ATOM     94  F   UNL A   1      44.205  25.695  30.601  1.00  0.00    -0.206 F 
ATOM     95  C   UNL A   1      43.803  25.062  34.131  1.00  0.00     0.060 A 
BRANCH  95  96
ATOM     96  S   UNL A   1      43.580  23.660  35.247  1.00  0.00     0.124 S 
ATOM     97  O   UNL A   1      42.133  23.640  35.433  1.00  0.00    -0.237 OA
ATOM     98  O   UNL A   1      44.137  22.552  34.477  1.00  0.00    -0.237 OA
ATOM     99  O   UNL A   1      44.354  24.037  36.428  1.00  0.00    -0.744 OA
ENDBRANCH  95  96
ENDBRANCH  63  88
ENDBRANCH  37  38
ENDBRANCH  29  32
ENDBRANCH  27  28
ENDBRANCH  26  27
ENDBRANCH   1  26
TORSDOF 18
ENDMDL
MODEL 2
REMARK VINA RESULT:     -11.7      2.975      9.523
REMARK SMILES Cn1c(C(=O)N2CCC[C@@H](C(=O)NCCCCCCNC(=O)c3ccc(-c4c5nc(c(-c6c(F)cc(S(=O)(=O)[O-])cc6F)c6ccc([nH]6)c(-c6c(F)cc(S(=O)(=O)[O-])cc6F)c6nc(c(-c7c(F)cc(S(=O)(=O)[O-])cc7F)c7ccc4[nH]7)C=C6)C=C5)cc3)C2)cc2sccc21
REMARK SMILES IDX 17 1 16 2 15 3 14 4 13 5 11 6 12 7 10 9 6 10 7 11 89 12 8 13
REMARK SMILES IDX 9 14 4 15 5 16 3 17 1 18 2 19 95 20 90 21 91 22 94 23 92 24
REMARK SMILES IDX 93 25 18 26 19 27 20 28 21 29 22 31 23 32 24 33 88 34 25 35
REMARK SMILES IDX 87 36 26 37 27 38 28 39 81 40 29 41 86 42 80 43 82 44 30 45
REMARK SMILES IDX 85 46 79 47 78 48 31 50 65 51 44 52 64 53 45 54 48 55 63 56
REMARK SMILES IDX 83 57 46 58 47 59 62 61 84 62 49 63 32 64 33 65 42 66 34 67
REMARK SMILES IDX 35 68 41 69 43 70 36 71 37 72 38 73 39 74 40 75 66 76 67 77
REMARK SMILES IDX 76 78 68 79 69 80 75 81 77 82 70 83 71 84 72 85 73 86 74 87
REMARK SMILES IDX 50 88 51 89 60 90 52 91 53 92 59 93 61 94 54 95 55 96 56 97
REMARK SMILES IDX 57 98 58 99
REMARK H PARENT 13 8 20 30 82 49 48 60
REMARK Flexibility Score: inf
ROOT
ATOM      1  C   UNL A   1      34.232  29.639  27.148  1.00  0.00     0.002 C 
ENDROOT
BRANCH   1   2
ATOM      2  C   UNL A   1      33.523  28.647  26.214  1.00  0.00     0.002 C 
BRANCH   2   3
ATOM      3  C   UNL A   1      33.371  29.081  24.753  1.00  0.00     0.021 C 
BRANCH   3   4
ATOM      4  C   UNL A   1      32.338  28.291  23.955  1.00  0.00     0.116 C 
BRANCH   4   5
ATOM      5  N   UNL A   1      32.951  27.503  22.897  1.00  0.00    -0.356 N 
ATOM      6  C   UNL A   1      33.360  26.204  22.869  1.00  0.00     0.224 C 
ATOM      7  O   UNL A   1      33.815  25.772  21.807  1.00  0.00    -0.275 OA
ATOM      8  H   UNL A   1      33.096  27.994  22.057  1.00  0.00     0.163 HD
BRANCH   6   9
ATOM      9  C   UNL A   1      33.241  25.296  24.086  1.00  0.00     0.098 C 
ATOM     10  N   UNL A   1      32.951  22.904  24.729  1.00  0.00    -0.337 N 
ATOM     11  C   UNL A   1      34.232  22.886  25.402  1.00  0.00     0.120 C 
ATOM     12  C   UNL A   1      32.729  23.904  23.690  1.00  0.00     0.133 C 
ATOM     13  C   UNL A   1      34.555  24.242  25.998  1.00  0.00     0.022 C 
ATOM     14  C   UNL A   1      34.531  25.324  24.924  1.00  0.00     0.017 C 
BRANCH  10  15
ATOM     15  C   UNL A   1      32.022  21.929  25.077  1.00  0.00     0.270 C 
ATOM     16  O   UNL A   1      31.003  22.256  25.683  1.00  0.00    -0.267 OA
BRANCH  15  17
ATOM     17  C   UNL A   1      32.397  20.545  24.795  1.00  0.00     0.108 A 
ATOM     18  C   UNL A   1      32.012  20.506  22.266  1.00  0.00     0.150 C 
ATOM     19  N   UNL A   1      32.373  19.944  23.546  1.00  0.00    -0.339 N 
ATOM     20  C   UNL A   1      32.805  18.639  23.666  1.00  0.00     0.059 A 
ATOM     21  C   UNL A   1      32.724  19.552  25.715  1.00  0.00     0.053 A 
ATOM     22  C   UNL A   1      33.053  18.390  24.978  1.00  0.00     0.053 A 
ATOM     23  C   UNL A   1      33.030  17.514  22.828  1.00  0.00     0.038 A 
ATOM     24  S   UNL A   1      33.646  16.791  25.258  1.00  0.00    -0.142 S 
ATOM     25  C   UNL A   1      33.542  16.472  23.573  1.00  0.00     0.068 A 
ENDBRANCH  15  17
ENDBRANCH  10  15
ENDBRANCH   6   9
ENDBRANCH   4   5
ENDBRANCH   3   4
ENDBRANCH   2   3
ENDBRANCH   1   2
BRANCH   1  26
ATOM     26  C   UNL A   1      33.484  30.938  27.475  1.00  0.00     0.021 C 
BRANCH  26  27
ATOM     27  C   UNL A   1      34.379  32.147  27.707  1.00  0.00     0.116 C 
BRANCH  27  28
ATOM     28  N   UNL A   1      34.357  32.610  29.090  1.00  0.00    -0.352 N 
ATOM     29  C   UNL A   1      35.117  32.149  30.151  1.00  0.00     0.251 C 
ATOM     30  H   UNL A   1      33.726  33.337  29.294  1.00  0.00     0.163 HD
ATOM     31  O   UNL A   1      34.746  32.327  31.300  1.00  0.00    -0.269 OA
BRANCH  29  32
ATOM     32  C   UNL A   1      36.368  31.419  29.861  1.00  0.00     0.039 A 
ATOM     33  C   UNL A   1      37.561  32.110  29.652  1.00  0.00     0.014 A 
ATOM     34  C   UNL A   1      36.348  30.025  29.841  1.00  0.00     0.014 A 
ATOM     35  C   UNL A   1      38.742  31.380  29.528  1.00  0.00     0.010 A 
ATOM     36  C   UNL A   1      37.529  29.314  29.860  1.00  0.00     0.010 A 
ATOM     37  C   UNL A   1      38.734  29.978  29.678  1.00  0.00    -0.014 A 
BRANCH  37  38
ATOM     38  C   UNL A   1      40.007  29.251  29.758  1.00  0.00     0.031 A 
ATOM     39  C   UNL A   1      40.433  28.938  31.149  1.00  0.00     0.074 A 
ATOM     40  C   UNL A   1      40.713  28.757  28.715  1.00  0.00     0.049 A 
ATOM     41  N   UNL A   1      41.322  29.563  31.846  1.00  0.00    -0.248 NA
ATOM     42  C   UNL A   1      39.684  27.930  31.916  1.00  0.00     0.031 C 
ATOM     43  C   UNL A   1      40.310  28.658  27.307  1.00  0.00     0.029 A 
ATOM     44  N   UNL A   1      41.946  28.162  28.713  1.00  0.00    -0.354 N 
ATOM     45  C   UNL A   1      41.436  28.858  33.039  1.00  0.00     0.074 A 
ATOM     46  C   UNL A   1      40.278  28.007  33.112  1.00  0.00     0.031 C 
ATOM     47  C   UNL A   1      41.158  27.840  26.643  1.00  0.00     0.029 A 
ATOM     48  C   UNL A   1      42.278  27.539  27.516  1.00  0.00     0.049 A 
ATOM     49  H   UNL A   1      42.546  28.175  29.493  1.00  0.00     0.167 HD
ATOM     50  C   UNL A   1      42.620  28.832  33.713  1.00  0.00     0.037 A 
ATOM     51  C   UNL A   1      43.413  26.860  27.221  1.00  0.00     0.037 A 
ATOM     52  C   UNL A   1      43.545  29.783  33.153  1.00  0.00     0.049 A 
ATOM     53  C   UNL A   1      44.481  27.335  28.120  1.00  0.00     0.074 A 
ATOM     54  C   UNL A   1      43.760  31.142  33.209  1.00  0.00     0.029 A 
ATOM     55  N   UNL A   1      44.213  29.308  32.056  1.00  0.00    -0.354 N 
ATOM     56  N   UNL A   1      44.959  28.547  28.085  1.00  0.00    -0.248 NA
ATOM     57  C   UNL A   1      44.811  26.561  29.310  1.00  0.00     0.031 C 
ATOM     58  C   UNL A   1      44.464  31.487  32.015  1.00  0.00     0.029 A 
ATOM     59  C   UNL A   1      44.697  30.327  31.281  1.00  0.00     0.049 A 
ATOM     60  H   UNL A   1      44.331  28.352  31.851  1.00  0.00     0.167 HD
ATOM     61  C   UNL A   1      45.257  28.825  29.402  1.00  0.00     0.074 A 
ATOM     62  C   UNL A   1      45.322  27.532  30.069  1.00  0.00     0.031 C 
ATOM     63  C   UNL A   1      45.086  30.078  29.910  1.00  0.00     0.037 A 
BRANCH  50  64
ATOM     64  C   UNL A   1      43.137  27.668  34.530  1.00  0.00     0.058 A 
ATOM     65  C   UNL A   1      43.394  27.851  35.907  1.00  0.00     0.135 A 
ATOM     66  C   UNL A   1      43.670  26.488  33.967  1.00  0.00     0.135 A 
ATOM     67  F   UNL A   1      42.953  28.949  36.543  1.00  0.00    -0.206 F 
ATOM     68  C   UNL A   1      44.159  26.953  36.653  1.00  0.00     0.059 A 
ATOM     69  C   UNL A   1      44.393  25.555  34.704  1.00  0.00     0.059 A 
ATOM     70  F   UNL A   1      43.599  26.234  32.654  1.00  0.00    -0.206 F 
ATOM     71  C   UNL A   1      44.661  25.810  36.039  1.00  0.00     0.060 A 
BRANCH  71  72
ATOM     72  S   UNL A   1      45.694  24.676  36.985  1.00  0.00     0.124 S 
ATOM     73  O   UNL A   1      46.998  25.323  36.898  1.00  0.00    -0.237 OA
ATOM     74  O   UNL A   1      45.052  24.701  38.295  1.00  0.00    -0.237 OA
ATOM     75  O   UNL A   1      45.564  23.417  36.256  1.00  0.00    -0.744 OA
ENDBRANCH  71  72
ENDBRANCH  50  64
BRANCH  51  76
ATOM     76  C   UNL A   1      43.523  25.573  26.501  1.00  0.00     0.058 A 
ATOM     77  C   UNL A   1      44.370  25.401  25.394  1.00  0.00     0.135 A 
ATOM     78  C   UNL A   1      43.023  24.404  27.101  1.00  0.00     0.135 A 
ATOM     79  F   UNL A   1      44.935  26.466  24.808  1.00  0.00    -0.206 F 
ATOM     80  C   UNL A   1      44.701  24.131  24.905  1.00  0.00     0.059 A 
ATOM     81  C   UNL A   1      43.354  23.132  26.645  1.00  0.00     0.059 A 
ATOM     82  F   UNL A   1      42.266  24.480  28.207  1.00  0.00    -0.206 F 
ATOM     83  C   UNL A   1      44.194  23.000  25.546  1.00  0.00     0.060 A 
BRANCH  83  84
ATOM     84  S   UNL A   1      44.635  21.353  24.943  1.00  0.00     0.124 S 
ATOM     85  O   UNL A   1      45.933  21.134  25.571  1.00  0.00    -0.237 OA
ATOM     86  O   UNL A   1      43.534  20.542  25.451  1.00  0.00    -0.237 OA
ATOM     87  O   UNL A   1      44.678  21.523  23.492  1.00  0.00    -0.744 OA
ENDBRANCH  83  84
ENDBRANCH  51  76
BRANCH  63  88
ATOM     88  C   UNL A   1      45.192  31.234  28.964  1.00  0.00     0.058 A 
ATOM     89  C   UNL A   1      46.388  31.837  28.541  1.00  0.00     0.135 A 
ATOM     90  C   UNL A   1      43.995  31.716  28.414  1.00  0.00     0.135 A 
ATOM     91  F   UNL A   1      47.576  31.390  28.969  1.00  0.00    -0.206 F 
ATOM     92  C   UNL A   1      46.384  32.897  27.628  1.00  0.00     0.059 A 
ATOM     93  C   UNL A   1      43.971  32.748  27.485  1.00  0.00     0.059 A 
ATOM     94  F   UNL A   1      42.823  31.155  28.758  1.00  0.00    -0.206 F 
ATOM     95  C   UNL A   1      45.169  33.343  27.105  1.00  0.00     0.060 A 
BRANCH  95  96
ATOM     96  S   UNL A   1      45.164  34.670  25.880  1.00  0.00     0.124 S 
ATOM     97  O   UNL A   1      46.390  34.406  25.134  1.00  0.00    -0.237 OA
ATOM     98  O   UNL A   1      43.918  34.429  25.159  1.00  0.00    -0.237 OA
ATOM     99  O   UNL A   1      45.180  35.884  26.692  1.00  0.00    -0.744 OA
ENDBRANCH  95  96
ENDBRANCH  63  88
ENDBRANCH  37  38
ENDBRANCH  29  32
ENDBRANCH  27  28
ENDBRANCH  26  27
ENDBRANCH   1  26
TORSDOF 18
ENDMDL
MODEL 3
REMARK VINA RESULT:     -11.6      2.536      3.449
REMARK SMILES Cn1c(C(=O)N2CCC[C@@H](C(=O)NCCCCCCNC(=O)c3ccc(-c4c5nc(c(-c6c(F)cc(S(=O)(=O)[O-])cc6F)c6ccc([nH]6)c(-c6c(F)cc(S(=O)(=O)[O-])cc6F)c6nc(c(-c7c(F)cc(S(=O)(=O)[O-])cc7F)c7ccc4[nH]7)C=C6)C=C5)cc3)C2)cc2sccc21
REMARK SMILES IDX 17 1 16 2 15 3 14 4 13 5 11 6 12 7 10 9 6 10 7 11 89 12 8 13
REMARK SMILES IDX 9 14 4 15 5 16 3 17 1 18 2 19 95 20 90 21 91 22 94 23 92 24
REMARK SMILES IDX 93 25 18 26 19 27 20 28 21 29 22 31 23 32 24 33 88 34 25 35
REMARK SMILES IDX 87 36 26 37 27 38 28 39 81 40 29 41 86 42 80 43 82 44 30 45
REMARK SMILES IDX 85 46 79 47 78 48 31 50 65 51 44 52 64 53 45 54 48 55 63 56
REMARK SMILES IDX 83 57 46 58 47 59 62 61 84 62 49 63 32 64 33 65 42 66 34 67
REMARK SMILES IDX 35 68 41 69 43 70 36 71 37 72 38 73 39 74 40 75 66 76 67 77
REMARK SMILES IDX 76 78 68 79 69 80 75 81 77 82 70 83 71 84 72 85 73 86 74 87
REMARK SMILES IDX 50 88 51 89 60 90 52 91 53 92 59 93 61 94 54 95 55 96 56 97
REMARK SMILES IDX 57 98 58 99
REMARK H PARENT 13 8 20 30 82 49 48 60
REMARK Flexibility Score: inf
ROOT
ATOM      1  C   UNL A   1      38.537  20.394  25.357  1.00  0.00     0.002 C 
ENDROOT
BRANCH   1   2
ATOM      2  C   UNL A   1      37.648  21.643  25.448  1.00  0.00     0.002 C 
BRANCH   2   3
ATOM      3  C   UNL A   1      36.174  21.401  25.785  1.00  0.00     0.021 C 
BRANCH   3   4
ATOM      4  C   UNL A   1      35.374  20.699  24.691  1.00  0.00     0.116 C 
BRANCH   4   5
ATOM      5  N   UNL A   1      34.452  19.715  25.234  1.00  0.00    -0.356 N 
ATOM      6  C   UNL A   1      33.097  19.737  25.376  1.00  0.00     0.224 C 
ATOM      7  O   UNL A   1      32.555  18.730  25.837  1.00  0.00    -0.275 OA
ATOM      8  H   UNL A   1      34.881  18.889  25.556  1.00  0.00     0.163 HD
BRANCH   6   9
ATOM      9  C   UNL A   1      32.265  20.943  24.960  1.00  0.00     0.098 C 
ATOM     10  N   UNL A   1      32.009  23.388  25.375  1.00  0.00    -0.337 N 
ATOM     11  C   UNL A   1      32.325  23.699  23.997  1.00  0.00     0.120 C 
ATOM     12  C   UNL A   1      32.473  22.119  25.924  1.00  0.00     0.133 C 
ATOM     13  C   UNL A   1      31.853  22.599  23.067  1.00  0.00     0.022 C 
ATOM     14  C   UNL A   1      32.456  21.257  23.465  1.00  0.00     0.017 C 
BRANCH  10  15
ATOM     15  C   UNL A   1      31.322  24.347  26.113  1.00  0.00     0.270 C 
ATOM     16  O   UNL A   1      30.934  24.070  27.247  1.00  0.00    -0.267 OA
BRANCH  15  17
ATOM     17  C   UNL A   1      31.002  25.594  25.421  1.00  0.00     0.108 A 
ATOM     18  C   UNL A   1      32.929  27.052  26.262  1.00  0.00     0.150 C 
ATOM     19  N   UNL A   1      31.726  26.773  25.515  1.00  0.00    -0.339 N 
ATOM     20  C   UNL A   1      31.135  27.728  24.714  1.00  0.00     0.059 A 
ATOM     21  C   UNL A   1      29.875  25.871  24.653  1.00  0.00     0.053 A 
ATOM     22  C   UNL A   1      30.021  27.188  24.155  1.00  0.00     0.053 A 
ATOM     23  C   UNL A   1      31.348  29.084  24.344  1.00  0.00     0.038 A 
ATOM     24  S   UNL A   1      29.207  28.278  23.089  1.00  0.00    -0.142 S 
ATOM     25  C   UNL A   1      30.398  29.470  23.422  1.00  0.00     0.068 A 
ENDBRANCH  15  17
ENDBRANCH  10  15
ENDBRANCH   6   9
ENDBRANCH   4   5
ENDBRANCH   3   4
ENDBRANCH   2   3
ENDBRANCH   1   2
BRANCH   1  26
ATOM     26  C   UNL A   1      39.903  20.464  26.053  1.00  0.00     0.021 C 
BRANCH  26  27
ATOM     27  C   UNL A   1      40.399  21.872  26.345  1.00  0.00     0.116 C 
BRANCH  27  28
ATOM     28  N   UNL A   1      41.716  22.138  25.777  1.00  0.00    -0.352 N 
ATOM     29  C   UNL A   1      42.343  23.363  25.628  1.00  0.00     0.251 C 
ATOM     30  H   UNL A   1      42.218  21.353  25.462  1.00  0.00     0.163 HD
ATOM     31  O   UNL A   1      43.237  23.503  24.809  1.00  0.00    -0.269 OA
BRANCH  29  32
ATOM     32  C   UNL A   1      41.891  24.496  26.461  1.00  0.00     0.039 A 
ATOM     33  C   UNL A   1      42.368  24.655  27.761  1.00  0.00     0.014 A 
ATOM     34  C   UNL A   1      41.013  25.430  25.913  1.00  0.00     0.014 A 
ATOM     35  C   UNL A   1      42.032  25.815  28.459  1.00  0.00     0.010 A 
ATOM     36  C   UNL A   1      40.797  26.635  26.547  1.00  0.00     0.010 A 
ATOM     37  C   UNL A   1      41.281  26.831  27.834  1.00  0.00    -0.014 A 
BRANCH  37  38
ATOM     38  C   UNL A   1      41.119  28.127  28.502  1.00  0.00     0.031 A 
ATOM     39  C   UNL A   1      42.191  29.108  28.180  1.00  0.00     0.074 A 
ATOM     40  C   UNL A   1      40.056  28.519  29.243  1.00  0.00     0.049 A 
ATOM     41  N   UNL A   1      43.204  29.419  28.918  1.00  0.00    -0.248 NA
ATOM     42  C   UNL A   1      42.245  29.689  26.829  1.00  0.00     0.031 C 
ATOM     43  C   UNL A   1      38.762  27.846  29.404  1.00  0.00     0.029 A 
ATOM     44  N   UNL A   1      39.888  29.666  29.970  1.00  0.00    -0.354 N 
ATOM     45  C   UNL A   1      43.872  30.432  28.240  1.00  0.00     0.074 A 
ATOM     46  C   UNL A   1      43.370  30.411  26.892  1.00  0.00     0.031 C 
ATOM     47  C   UNL A   1      37.872  28.694  29.969  1.00  0.00     0.029 A 
ATOM     48  C   UNL A   1      38.586  29.878  30.408  1.00  0.00     0.049 A 
ATOM     49  H   UNL A   1      40.625  30.287  30.167  1.00  0.00     0.167 HD
ATOM     50  C   UNL A   1      44.564  31.382  28.930  1.00  0.00     0.037 A 
ATOM     51  C   UNL A   1      38.113  30.924  31.129  1.00  0.00     0.037 A 
ATOM     52  C   UNL A   1      44.677  31.019  30.320  1.00  0.00     0.049 A 
ATOM     53  C   UNL A   1      39.241  31.522  31.867  1.00  0.00     0.074 A 
ATOM     54  C   UNL A   1      45.444  30.172  31.088  1.00  0.00     0.029 A 
ATOM     55  N   UNL A   1      43.574  31.355  31.058  1.00  0.00    -0.354 N 
ATOM     56  N   UNL A   1      39.885  30.901  32.816  1.00  0.00    -0.248 NA
ATOM     57  C   UNL A   1      39.896  32.710  31.334  1.00  0.00     0.031 C 
ATOM     58  C   UNL A   1      44.682  29.894  32.263  1.00  0.00     0.029 A 
ATOM     59  C   UNL A   1      43.489  30.610  32.203  1.00  0.00     0.049 A 
ATOM     60  H   UNL A   1      42.924  32.047  30.798  1.00  0.00     0.167 HD
ATOM     61  C   UNL A   1      41.182  31.348  32.685  1.00  0.00     0.074 A 
ATOM     62  C   UNL A   1      41.096  32.572  31.900  1.00  0.00     0.031 C 
ATOM     63  C   UNL A   1      42.237  30.519  32.922  1.00  0.00     0.037 A 
BRANCH  50  64
ATOM     64  C   UNL A   1      44.723  32.828  28.513  1.00  0.00     0.058 A 
ATOM     65  C   UNL A   1      46.017  33.339  28.271  1.00  0.00     0.135 A 
ATOM     66  C   UNL A   1      43.703  33.796  28.633  1.00  0.00     0.135 A 
ATOM     67  F   UNL A   1      47.068  32.510  28.159  1.00  0.00    -0.206 F 
ATOM     68  C   UNL A   1      46.282  34.708  28.200  1.00  0.00     0.059 A 
ATOM     69  C   UNL A   1      43.936  35.163  28.516  1.00  0.00     0.059 A 
ATOM     70  F   UNL A   1      42.449  33.468  28.969  1.00  0.00    -0.206 F 
ATOM     71  C   UNL A   1      45.234  35.613  28.331  1.00  0.00     0.060 A 
BRANCH  71  72
ATOM     72  S   UNL A   1      45.579  37.381  28.294  1.00  0.00     0.124 S 
ATOM     73  O   UNL A   1      44.799  37.811  27.140  1.00  0.00    -0.237 OA
ATOM     74  O   UNL A   1      45.086  37.814  29.597  1.00  0.00    -0.237 OA
ATOM     75  O   UNL A   1      47.029  37.435  28.132  1.00  0.00    -0.744 OA
ENDBRANCH  71  72
ENDBRANCH  50  64
BRANCH  51  76
ATOM     76  C   UNL A   1      36.853  31.666  30.907  1.00  0.00     0.058 A 
ATOM     77  C   UNL A   1      36.005  32.040  31.962  1.00  0.00     0.135 A 
ATOM     78  C   UNL A   1      36.634  32.294  29.669  1.00  0.00     0.135 A 
ATOM     79  F   UNL A   1      36.193  31.530  33.188  1.00  0.00    -0.206 F 
ATOM     80  C   UNL A   1      34.986  32.985  31.794  1.00  0.00     0.059 A 
ATOM     81  C   UNL A   1      35.642  33.251  29.484  1.00  0.00     0.059 A 
ATOM     82  F   UNL A   1      37.447  32.047  28.630  1.00  0.00    -0.206 F 
ATOM     83  C   UNL A   1      34.819  33.594  30.550  1.00  0.00     0.060 A 
BRANCH  83  84
ATOM     84  S   UNL A   1      33.526  34.837  30.325  1.00  0.00     0.124 S 
ATOM     85  O   UNL A   1      32.752  34.280  29.220  1.00  0.00    -0.237 OA
ATOM     86  O   UNL A   1      32.873  34.832  31.629  1.00  0.00    -0.237 OA
ATOM     87  O   UNL A   1      34.273  36.050  29.998  1.00  0.00    -0.744 OA
ENDBRANCH  83  84
ENDBRANCH  51  76
BRANCH  63  88
ATOM     88  C   UNL A   1      42.034  29.392  33.888  1.00  0.00     0.058 A 
ATOM     89  C   UNL A   1      41.556  28.113  33.564  1.00  0.00     0.135 A 
ATOM     90  C   UNL A   1      42.408  29.625  35.220  1.00  0.00     0.135 A 
ATOM     91  F   UNL A   1      41.241  27.793  32.301  1.00  0.00    -0.206 F 
ATOM     92  C   UNL A   1      41.429  27.116  34.536  1.00  0.00     0.059 A 
ATOM     93  C   UNL A   1      42.318  28.641  36.196  1.00  0.00     0.059 A 
ATOM     94  F   UNL A   1      42.903  30.820  35.581  1.00  0.00    -0.206 F 
ATOM     95  C   UNL A   1      41.815  27.390  35.849  1.00  0.00     0.060 A 
BRANCH  95  96
ATOM     96  S   UNL A   1      41.712  26.088  37.096  1.00  0.00     0.124 S 
ATOM     97  O   UNL A   1      40.340  26.228  37.574  1.00  0.00    -0.237 OA
ATOM     98  O   UNL A   1      41.994  24.884  36.320  1.00  0.00    -0.237 OA
ATOM     99  O   UNL A   1      42.747  26.454  38.060  1.00  0.00    -0.744 OA
ENDBRANCH  95  96
ENDBRANCH  63  88
ENDBRANCH  37  38
ENDBRANCH  29  32
ENDBRANCH  27  28
ENDBRANCH  26  27
ENDBRANCH   1  26
TORSDOF 18
ENDMDL
