MODEL 1
REMARK VINA RESULT:     -10.7      0.000      0.000
REMARK SMILES CCS(=O)(=O)c1ccccc1NC[C@H]1CC[C@H](C(=O)NCCCCCCNC(=O)c2ccc(-c3c4nc(c(-c5c(F)cc(S(=O)(=O)[O-])cc5F)c5ccc([nH]5)c(-c5c(F)cc(S(=O)(=O)[O-])cc5F)c5nc(c(-c6c(F)cc(S(=O)(=O)[O-])cc6F)c6ccc3[nH]6)C=C5)C=C4)cc2)O1
REMARK SMILES IDX 22 1 21 2 20 3 18 4 19 5 17 7 14 8 15 9 96 10 16 11 13 12
REMARK SMILES IDX 12 13 11 15 6 16 7 17 8 18 10 19 9 20 3 21 4 22 5 23 2 24
REMARK SMILES IDX 1 25 23 26 24 27 25 28 26 29 27 30 28 31 29 33 30 34 31 35
REMARK SMILES IDX 95 36 32 37 94 38 33 39 34 40 35 41 88 42 36 43 93 44 87 45
REMARK SMILES IDX 89 46 37 47 92 48 86 49 85 50 38 52 72 53 51 54 71 55 52 56
REMARK SMILES IDX 55 57 70 58 90 59 53 60 54 61 69 63 91 64 56 65 39 66 40 67
REMARK SMILES IDX 49 68 41 69 42 70 48 71 50 72 43 73 44 74 45 75 46 76 47 77
REMARK SMILES IDX 73 78 74 79 83 80 75 81 76 82 82 83 84 84 77 85 78 86 79 87
REMARK SMILES IDX 80 88 81 89 57 90 58 91 67 92 59 93 60 94 66 95 68 96 61 97
REMARK SMILES IDX 62 98 63 99 64 100 65 101
REMARK H PARENT 20 6 12 14 27 32 89 51 55 62
REMARK Flexibility Score: inf
ROOT
ATOM      1  C   UNL A   1      30.304  27.803  23.815  1.00  0.00     0.021 C 
ENDROOT
BRANCH   1   2
ATOM      2  C   UNL A   1      30.459  26.421  23.182  1.00  0.00     0.116 C 
BRANCH   2   3
ATOM      3  N   UNL A   1      31.649  26.355  22.364  1.00  0.00    -0.354 N 
ATOM      4  C   UNL A   1      32.700  25.489  22.423  1.00  0.00     0.249 C 
ATOM      5  O   UNL A   1      33.635  25.671  21.634  1.00  0.00    -0.272 OA
ATOM      6  H   UNL A   1      31.710  27.038  21.657  1.00  0.00     0.163 HD
BRANCH   4   7
ATOM      7  C   UNL A   1      32.765  24.358  23.474  1.00  0.00     0.207 C 
ATOM      8  C   UNL A   1      31.239  23.296  24.908  1.00  0.00     0.138 C 
ATOM      9  C   UNL A   1      31.771  24.522  25.639  1.00  0.00     0.037 C 
ATOM     10  O   UNL A   1      31.626  23.488  23.527  1.00  0.00    -0.363 OA
ATOM     11  C   UNL A   1      33.021  24.881  24.879  1.00  0.00     0.045 C 
BRANCH   8  12
ATOM     12  C   UNL A   1      31.769  21.929  25.384  1.00  0.00     0.145 C 
BRANCH  12  13
ATOM     13  N   UNL A   1      32.530  21.231  24.364  1.00  0.00    -0.381 N 
ATOM     14  H   UNL A   1      32.554  21.655  23.476  1.00  0.00     0.160 HD
BRANCH  13  15
ATOM     15  C   UNL A   1      33.226  20.043  24.488  1.00  0.00     0.053 A 
ATOM     16  C   UNL A   1      34.629  20.018  24.659  1.00  0.00     0.090 A 
ATOM     17  C   UNL A   1      35.348  18.810  24.670  1.00  0.00     0.022 A 
ATOM     18  C   UNL A   1      34.678  17.598  24.542  1.00  0.00     0.001 A 
ATOM     19  C   UNL A   1      32.586  18.800  24.368  1.00  0.00     0.027 A 
ATOM     20  C   UNL A   1      33.297  17.593  24.398  1.00  0.00     0.002 A 
BRANCH  16  21
ATOM     21  S   UNL A   1      35.567  21.523  24.873  1.00  0.00     0.180 S 
ATOM     22  O   UNL A   1      35.243  22.091  26.169  1.00  0.00    -0.224 OA
ATOM     23  O   UNL A   1      35.359  22.311  23.668  1.00  0.00    -0.224 OA
BRANCH  21  24
ATOM     24  C   UNL A   1      37.287  21.073  24.923  1.00  0.00     0.139 C 
ATOM     25  C   UNL A   1      38.149  21.973  25.783  1.00  0.00     0.021 C 
ENDBRANCH  21  24
ENDBRANCH  16  21
ENDBRANCH  13  15
ENDBRANCH  12  13
ENDBRANCH   8  12
ENDBRANCH   4   7
ENDBRANCH   2   3
ENDBRANCH   1   2
BRANCH   1  26
ATOM     26  C   UNL A   1      31.600  28.327  24.436  1.00  0.00     0.002 C 
BRANCH  26  27
ATOM     27  C   UNL A   1      31.470  28.749  25.906  1.00  0.00     0.002 C 
BRANCH  27  28
ATOM     28  C   UNL A   1      32.281  27.907  26.896  1.00  0.00     0.021 C 
BRANCH  28  29
ATOM     29  C   UNL A   1      33.648  28.490  27.239  1.00  0.00     0.116 C 
BRANCH  29  30
ATOM     30  N   UNL A   1      33.550  29.899  27.589  1.00  0.00    -0.352 N 
ATOM     31  C   UNL A   1      34.434  30.691  28.276  1.00  0.00     0.251 C 
ATOM     32  H   UNL A   1      32.728  30.351  27.287  1.00  0.00     0.163 HD
ATOM     33  O   UNL A   1      34.069  31.776  28.719  1.00  0.00    -0.269 OA
BRANCH  31  34
ATOM     34  C   UNL A   1      35.823  30.231  28.483  1.00  0.00     0.039 A 
ATOM     35  C   UNL A   1      36.724  30.289  27.418  1.00  0.00     0.014 A 
ATOM     36  C   UNL A   1      36.227  29.723  29.722  1.00  0.00     0.014 A 
ATOM     37  C   UNL A   1      38.048  29.894  27.614  1.00  0.00     0.010 A 
ATOM     38  C   UNL A   1      37.562  29.397  29.934  1.00  0.00     0.010 A 
ATOM     39  C   UNL A   1      38.486  29.478  28.883  1.00  0.00    -0.014 A 
BRANCH  39  40
ATOM     40  C   UNL A   1      39.911  29.145  29.133  1.00  0.00     0.031 A 
ATOM     41  C   UNL A   1      40.852  30.187  29.672  1.00  0.00     0.074 A 
ATOM     42  C   UNL A   1      40.369  27.920  28.808  1.00  0.00     0.049 A 
ATOM     43  N   UNL A   1      42.139  30.103  29.889  1.00  0.00    -0.248 NA
ATOM     44  C   UNL A   1      40.278  31.505  29.986  1.00  0.00     0.031 C 
ATOM     45  C   UNL A   1      39.559  26.842  28.233  1.00  0.00     0.029 A 
ATOM     46  N   UNL A   1      41.625  27.376  28.902  1.00  0.00    -0.354 N 
ATOM     47  C   UNL A   1      42.530  31.353  30.354  1.00  0.00     0.074 A 
ATOM     48  C   UNL A   1      41.353  32.195  30.336  1.00  0.00     0.031 C 
ATOM     49  C   UNL A   1      40.334  25.762  28.046  1.00  0.00     0.029 A 
ATOM     50  C   UNL A   1      41.700  26.081  28.446  1.00  0.00     0.049 A 
ATOM     51  H   UNL A   1      42.398  27.866  29.263  1.00  0.00     0.167 HD
ATOM     52  C   UNL A   1      43.753  31.754  30.775  1.00  0.00     0.037 A 
ATOM     53  C   UNL A   1      42.755  25.248  28.348  1.00  0.00     0.037 A 
ATOM     54  C   UNL A   1      44.914  30.902  30.803  1.00  0.00     0.049 A 
ATOM     55  C   UNL A   1      44.106  25.722  28.810  1.00  0.00     0.074 A 
ATOM     56  C   UNL A   1      46.185  31.196  31.267  1.00  0.00     0.029 A 
ATOM     57  N   UNL A   1      44.950  29.592  30.345  1.00  0.00    -0.354 N 
ATOM     58  N   UNL A   1      44.443  26.888  29.309  1.00  0.00    -0.248 NA
ATOM     59  C   UNL A   1      45.217  24.769  28.702  1.00  0.00     0.031 C 
ATOM     60  C   UNL A   1      47.002  30.084  31.038  1.00  0.00     0.029 A 
ATOM     61  C   UNL A   1      46.227  29.075  30.488  1.00  0.00     0.049 A 
ATOM     62  H   UNL A   1      44.181  29.104  29.972  1.00  0.00     0.167 HD
ATOM     63  C   UNL A   1      45.800  26.799  29.597  1.00  0.00     0.074 A 
ATOM     64  C   UNL A   1      46.217  25.460  29.232  1.00  0.00     0.031 C 
ATOM     65  C   UNL A   1      46.626  27.739  30.119  1.00  0.00     0.037 A 
BRANCH  52  66
ATOM     66  C   UNL A   1      43.901  33.178  31.241  1.00  0.00     0.058 A 
ATOM     67  C   UNL A   1      43.712  33.539  32.585  1.00  0.00     0.135 A 
ATOM     68  C   UNL A   1      44.282  34.188  30.341  1.00  0.00     0.135 A 
ATOM     69  F   UNL A   1      43.333  32.618  33.487  1.00  0.00    -0.206 F 
ATOM     70  C   UNL A   1      43.866  34.853  33.016  1.00  0.00     0.059 A 
ATOM     71  C   UNL A   1      44.472  35.503  30.756  1.00  0.00     0.059 A 
ATOM     72  F   UNL A   1      44.475  33.900  29.045  1.00  0.00    -0.206 F 
ATOM     73  C   UNL A   1      44.248  35.828  32.093  1.00  0.00     0.060 A 
BRANCH  73  74
ATOM     74  S   UNL A   1      44.454  37.527  32.670  1.00  0.00     0.124 S 
ATOM     75  O   UNL A   1      45.833  37.505  33.150  1.00  0.00    -0.237 OA
ATOM     76  O   UNL A   1      44.218  38.299  31.454  1.00  0.00    -0.237 OA
ATOM     77  O   UNL A   1      43.433  37.661  33.704  1.00  0.00    -0.744 OA
ENDBRANCH  73  74
ENDBRANCH  52  66
BRANCH  53  78
ATOM     78  C   UNL A   1      42.570  23.878  27.799  1.00  0.00     0.058 A 
ATOM     79  C   UNL A   1      42.523  23.654  26.414  1.00  0.00     0.135 A 
ATOM     80  C   UNL A   1      42.451  22.765  28.645  1.00  0.00     0.135 A 
ATOM     81  F   UNL A   1      42.628  24.686  25.564  1.00  0.00    -0.206 F 
ATOM     82  C   UNL A   1      42.346  22.378  25.888  1.00  0.00     0.059 A 
ATOM     83  C   UNL A   1      42.302  21.476  28.143  1.00  0.00     0.059 A 
ATOM     84  F   UNL A   1      42.506  22.922  29.977  1.00  0.00    -0.206 F 
ATOM     85  C   UNL A   1      42.239  21.294  26.762  1.00  0.00     0.060 A 
BRANCH  85  86
ATOM     86  S   UNL A   1      42.055  19.637  26.068  1.00  0.00     0.124 S 
ATOM     87  O   UNL A   1      43.006  19.675  24.964  1.00  0.00    -0.237 OA
ATOM     88  O   UNL A   1      42.419  18.790  27.200  1.00  0.00    -0.237 OA
ATOM     89  O   UNL A   1      40.646  19.589  25.688  1.00  0.00    -0.744 OA
ENDBRANCH  85  86
ENDBRANCH  53  78
BRANCH  65  90
ATOM     90  C   UNL A   1      48.061  27.348  30.349  1.00  0.00     0.058 A 
ATOM     91  C   UNL A   1      49.067  27.641  29.415  1.00  0.00     0.135 A 
ATOM     92  C   UNL A   1      48.442  26.713  31.543  1.00  0.00     0.135 A 
ATOM     93  F   UNL A   1      48.757  28.240  28.253  1.00  0.00    -0.206 F 
ATOM     94  C   UNL A   1      50.394  27.296  29.644  1.00  0.00     0.059 A 
ATOM     95  C   UNL A   1      49.768  26.388  31.807  1.00  0.00     0.059 A 
ATOM     96  F   UNL A   1      47.521  26.419  32.476  1.00  0.00    -0.206 F 
ATOM     97  C   UNL A   1      50.735  26.671  30.846  1.00  0.00     0.060 A 
BRANCH  97  98
ATOM     98  S   UNL A   1      52.468  26.260  31.143  1.00  0.00     0.124 S 
ATOM     99  O   UNL A   1      52.348  25.016  31.897  1.00  0.00    -0.237 OA
ATOM    100  O   UNL A   1      52.995  26.133  29.788  1.00  0.00    -0.237 OA
ATOM    101  O   UNL A   1      52.964  27.406  31.897  1.00  0.00    -0.744 OA
ENDBRANCH  97  98
ENDBRANCH  65  90
ENDBRANCH  39  40
ENDBRANCH  31  34
ENDBRANCH  29  30
ENDBRANCH  28  29
ENDBRANCH  27  28
ENDBRANCH  26  27
ENDBRANCH   1  26
TORSDOF 21
ENDMDL
MODEL 2
REMARK VINA RESULT:     -10.4      2.704      3.599
REMARK SMILES CCS(=O)(=O)c1ccccc1NC[C@H]1CC[C@H](C(=O)NCCCCCCNC(=O)c2ccc(-c3c4nc(c(-c5c(F)cc(S(=O)(=O)[O-])cc5F)c5ccc([nH]5)c(-c5c(F)cc(S(=O)(=O)[O-])cc5F)c5nc(c(-c6c(F)cc(S(=O)(=O)[O-])cc6F)c6ccc3[nH]6)C=C5)C=C4)cc2)O1
REMARK SMILES IDX 22 1 21 2 20 3 18 4 19 5 17 7 14 8 15 9 96 10 16 11 13 12
REMARK SMILES IDX 12 13 11 15 6 16 7 17 8 18 10 19 9 20 3 21 4 22 5 23 2 24
REMARK SMILES IDX 1 25 23 26 24 27 25 28 26 29 27 30 28 31 29 33 30 34 31 35
REMARK SMILES IDX 95 36 32 37 94 38 33 39 34 40 35 41 88 42 36 43 93 44 87 45
REMARK SMILES IDX 89 46 37 47 92 48 86 49 85 50 38 52 72 53 51 54 71 55 52 56
REMARK SMILES IDX 55 57 70 58 90 59 53 60 54 61 69 63 91 64 56 65 39 66 40 67
REMARK SMILES IDX 49 68 41 69 42 70 48 71 50 72 43 73 44 74 45 75 46 76 47 77
REMARK SMILES IDX 73 78 74 79 83 80 75 81 76 82 82 83 84 84 77 85 78 86 79 87
REMARK SMILES IDX 80 88 81 89 57 90 58 91 67 92 59 93 60 94 66 95 68 96 61 97
REMARK SMILES IDX 62 98 63 99 64 100 65 101
REMARK H PARENT 20 6 12 14 27 32 89 51 55 62
REMARK Flexibility Score: inf
ROOT
ATOM      1  C   UNL A   1      31.570  28.380  27.234  1.00  0.00     0.021 C 
ENDROOT
BRANCH   1   2
ATOM      2  C   UNL A   1      31.265  27.515  26.012  1.00  0.00     0.116 C 
BRANCH   2   3
ATOM      3  N   UNL A   1      30.835  28.326  24.896  1.00  0.00    -0.354 N 
ATOM      4  C   UNL A   1      31.272  28.334  23.604  1.00  0.00     0.249 C 
ATOM      5  O   UNL A   1      30.773  29.167  22.839  1.00  0.00    -0.272 OA
ATOM      6  H   UNL A   1      30.117  28.969  25.098  1.00  0.00     0.163 HD
BRANCH   4   7
ATOM      7  C   UNL A   1      32.394  27.389  23.119  1.00  0.00     0.207 C 
ATOM      8  C   UNL A   1      33.263  25.314  23.791  1.00  0.00     0.138 C 
ATOM      9  C   UNL A   1      33.992  26.390  24.585  1.00  0.00     0.037 C 
ATOM     10  O   UNL A   1      32.116  25.986  23.219  1.00  0.00    -0.363 OA
ATOM     11  C   UNL A   1      33.722  27.655  23.813  1.00  0.00     0.045 C 
BRANCH   8  12
ATOM     12  C   UNL A   1      34.058  24.641  22.656  1.00  0.00     0.145 C 
BRANCH  12  13
ATOM     13  N   UNL A   1      33.928  23.196  22.653  1.00  0.00    -0.381 N 
ATOM     14  H   UNL A   1      34.024  22.755  21.779  1.00  0.00     0.160 HD
BRANCH  13  15
ATOM     15  C   UNL A   1      33.684  22.363  23.729  1.00  0.00     0.053 A 
ATOM     16  C   UNL A   1      34.715  21.967  24.611  1.00  0.00     0.090 A 
ATOM     17  C   UNL A   1      34.490  21.030  25.635  1.00  0.00     0.022 A 
ATOM     18  C   UNL A   1      33.221  20.493  25.822  1.00  0.00     0.001 A 
ATOM     19  C   UNL A   1      32.416  21.802  23.953  1.00  0.00     0.027 A 
ATOM     20  C   UNL A   1      32.184  20.884  24.985  1.00  0.00     0.002 A 
BRANCH  16  21
ATOM     21  S   UNL A   1      36.365  22.637  24.473  1.00  0.00     0.180 S 
ATOM     22  O   UNL A   1      36.406  23.915  25.162  1.00  0.00    -0.224 OA
ATOM     23  O   UNL A   1      36.720  22.567  23.064  1.00  0.00    -0.224 OA
BRANCH  21  24
ATOM     24  C   UNL A   1      37.458  21.542  25.350  1.00  0.00     0.139 C 
ATOM     25  C   UNL A   1      38.702  22.204  25.904  1.00  0.00     0.021 C 
ENDBRANCH  21  24
ENDBRANCH  16  21
ENDBRANCH  13  15
ENDBRANCH  12  13
ENDBRANCH   8  12
ENDBRANCH   4   7
ENDBRANCH   2   3
ENDBRANCH   1   2
BRANCH   1  26
ATOM     26  C   UNL A   1      32.129  29.757  26.870  1.00  0.00     0.002 C 
BRANCH  26  27
ATOM     27  C   UNL A   1      33.662  29.832  26.853  1.00  0.00     0.002 C 
BRANCH  27  28
ATOM     28  C   UNL A   1      34.264  30.976  27.675  1.00  0.00     0.021 C 
BRANCH  28  29
ATOM     29  C   UNL A   1      35.627  30.659  28.283  1.00  0.00     0.116 C 
BRANCH  29  30
ATOM     30  N   UNL A   1      35.577  30.683  29.736  1.00  0.00    -0.352 N 
ATOM     31  C   UNL A   1      36.509  30.259  30.648  1.00  0.00     0.251 C 
ATOM     32  H   UNL A   1      34.752  31.058  30.123  1.00  0.00     0.163 HD
ATOM     33  O   UNL A   1      36.190  30.098  31.822  1.00  0.00    -0.269 OA
BRANCH  31  34
ATOM     34  C   UNL A   1      37.896  29.996  30.210  1.00  0.00     0.039 A 
ATOM     35  C   UNL A   1      38.872  29.723  31.170  1.00  0.00     0.014 A 
ATOM     36  C   UNL A   1      38.233  30.039  28.853  1.00  0.00     0.014 A 
ATOM     37  C   UNL A   1      40.175  29.434  30.764  1.00  0.00     0.010 A 
ATOM     38  C   UNL A   1      39.514  29.682  28.447  1.00  0.00     0.010 A 
ATOM     39  C   UNL A   1      40.499  29.376  29.398  1.00  0.00    -0.014 A 
BRANCH  39  40
ATOM     40  C   UNL A   1      41.856  28.978  28.945  1.00  0.00     0.031 A 
ATOM     41  C   UNL A   1      42.958  29.998  28.859  1.00  0.00     0.074 A 
ATOM     42  C   UNL A   1      42.072  27.709  28.548  1.00  0.00     0.049 A 
ATOM     43  N   UNL A   1      44.183  29.853  28.424  1.00  0.00    -0.248 NA
ATOM     44  C   UNL A   1      42.636  31.366  29.297  1.00  0.00     0.031 C 
ATOM     45  C   UNL A   1      41.066  26.643  28.541  1.00  0.00     0.029 A 
ATOM     46  N   UNL A   1      43.201  27.100  28.061  1.00  0.00    -0.354 N 
ATOM     47  C   UNL A   1      44.774  31.107  28.525  1.00  0.00     0.074 A 
ATOM     48  C   UNL A   1      43.757  32.013  29.013  1.00  0.00     0.031 C 
ATOM     49  C   UNL A   1      41.628  25.510  28.094  1.00  0.00     0.029 A 
ATOM     50  C   UNL A   1      43.019  25.775  27.743  1.00  0.00     0.049 A 
ATOM     51  H   UNL A   1      44.060  27.567  27.952  1.00  0.00     0.167 HD
ATOM     52  C   UNL A   1      46.052  31.463  28.256  1.00  0.00     0.037 A 
ATOM     53  C   UNL A   1      43.874  24.877  27.215  1.00  0.00     0.037 A 
ATOM     54  C   UNL A   1      47.061  30.549  27.786  1.00  0.00     0.049 A 
ATOM     55  C   UNL A   1      45.285  25.301  26.912  1.00  0.00     0.074 A 
ATOM     56  C   UNL A   1      48.400  30.798  27.540  1.00  0.00     0.029 A 
ATOM     57  N   UNL A   1      46.843  29.211  27.487  1.00  0.00    -0.354 N 
ATOM     58  N   UNL A   1      45.844  26.476  27.076  1.00  0.00    -0.248 NA
ATOM     59  C   UNL A   1      46.182  24.279  26.358  1.00  0.00     0.031 C 
ATOM     60  C   UNL A   1      48.979  29.627  27.039  1.00  0.00     0.029 A 
ATOM     61  C   UNL A   1      48.016  28.631  27.031  1.00  0.00     0.049 A 
ATOM     62  H   UNL A   1      45.983  28.744  27.584  1.00  0.00     0.167 HD
ATOM     63  C   UNL A   1      47.166  26.328  26.669  1.00  0.00     0.074 A 
ATOM     64  C   UNL A   1      47.325  24.945  26.266  1.00  0.00     0.031 C 
ATOM     65  C   UNL A   1      48.158  27.252  26.633  1.00  0.00     0.037 A 
BRANCH  52  66
ATOM     66  C   UNL A   1      46.436  32.904  28.462  1.00  0.00     0.058 A 
ATOM     67  C   UNL A   1      46.324  33.854  27.433  1.00  0.00     0.135 A 
ATOM     68  C   UNL A   1      46.880  33.352  29.718  1.00  0.00     0.135 A 
ATOM     69  F   UNL A   1      45.920  33.481  26.209  1.00  0.00    -0.206 F 
ATOM     70  C   UNL A   1      46.665  35.188  27.633  1.00  0.00     0.059 A 
ATOM     71  C   UNL A   1      47.196  34.687  29.949  1.00  0.00     0.059 A 
ATOM     72  F   UNL A   1      47.007  32.487  30.737  1.00  0.00    -0.206 F 
ATOM     73  C   UNL A   1      47.099  35.596  28.896  1.00  0.00     0.060 A 
BRANCH  73  74
ATOM     74  S   UNL A   1      47.527  37.332  29.140  1.00  0.00     0.124 S 
ATOM     75  O   UNL A   1      46.356  37.820  29.864  1.00  0.00    -0.237 OA
ATOM     76  O   UNL A   1      48.760  37.243  29.916  1.00  0.00    -0.237 OA
ATOM     77  O   UNL A   1      47.679  37.841  27.781  1.00  0.00    -0.744 OA
ENDBRANCH  73  74
ENDBRANCH  52  66
BRANCH  53  78
ATOM     78  C   UNL A   1      43.418  23.485  26.950  1.00  0.00     0.058 A 
ATOM     79  C   UNL A   1      43.135  23.053  25.646  1.00  0.00     0.135 A 
ATOM     80  C   UNL A   1      43.271  22.557  27.993  1.00  0.00     0.135 A 
ATOM     81  F   UNL A   1      43.256  23.903  24.616  1.00  0.00    -0.206 F 
ATOM     82  C   UNL A   1      42.704  21.755  25.386  1.00  0.00     0.059 A 
ATOM     83  C   UNL A   1      42.869  21.247  27.755  1.00  0.00     0.059 A 
ATOM     84  F   UNL A   1      43.546  22.915  29.257  1.00  0.00    -0.206 F 
ATOM     85  C   UNL A   1      42.577  20.859  26.448  1.00  0.00     0.060 A 
BRANCH  85  86
ATOM     86  S   UNL A   1      42.060  19.165  26.094  1.00  0.00     0.124 S 
ATOM     87  O   UNL A   1      42.860  18.855  24.916  1.00  0.00    -0.237 OA
ATOM     88  O   UNL A   1      42.432  18.469  27.323  1.00  0.00    -0.237 OA
ATOM     89  O   UNL A   1      40.624  19.294  25.867  1.00  0.00    -0.744 OA
ENDBRANCH  85  86
ENDBRANCH  53  78
BRANCH  65  90
ATOM     90  C   UNL A   1      49.513  26.794  26.164  1.00  0.00     0.058 A 
ATOM     91  C   UNL A   1      49.933  26.968  24.837  1.00  0.00     0.135 A 
ATOM     92  C   UNL A   1      50.419  26.216  27.068  1.00  0.00     0.135 A 
ATOM     93  F   UNL A   1      49.103  27.508  23.929  1.00  0.00    -0.206 F 
ATOM     94  C   UNL A   1      51.195  26.561  24.415  1.00  0.00     0.059 A 
ATOM     95  C   UNL A   1      51.697  25.831  26.676  1.00  0.00     0.059 A 
ATOM     96  F   UNL A   1      50.072  26.035  28.352  1.00  0.00    -0.206 F 
ATOM     97  C   UNL A   1      52.071  25.996  25.344  1.00  0.00     0.060 A 
BRANCH  97  98
ATOM     98  S   UNL A   1      53.718  25.505  24.789  1.00  0.00     0.124 S 
ATOM     99  O   UNL A   1      53.802  26.172  23.494  1.00  0.00    -0.237 OA
ATOM    100  O   UNL A   1      54.574  26.047  25.839  1.00  0.00    -0.237 OA
ATOM    101  O   UNL A   1      53.639  24.049  24.742  1.00  0.00    -0.744 OA
ENDBRANCH  97  98
ENDBRANCH  65  90
ENDBRANCH  39  40
ENDBRANCH  31  34
ENDBRANCH  29  30
ENDBRANCH  28  29
ENDBRANCH  27  28
ENDBRANCH  26  27
ENDBRANCH   1  26
TORSDOF 21
ENDMDL
MODEL 3
REMARK VINA RESULT:     -10.3      4.725     10.509
REMARK SMILES CCS(=O)(=O)c1ccccc1NC[C@H]1CC[C@H](C(=O)NCCCCCCNC(=O)c2ccc(-c3c4nc(c(-c5c(F)cc(S(=O)(=O)[O-])cc5F)c5ccc([nH]5)c(-c5c(F)cc(S(=O)(=O)[O-])cc5F)c5nc(c(-c6c(F)cc(S(=O)(=O)[O-])cc6F)c6ccc3[nH]6)C=C5)C=C4)cc2)O1
REMARK SMILES IDX 22 1 21 2 20 3 18 4 19 5 17 7 14 8 15 9 96 10 16 11 13 12
REMARK SMILES IDX 12 13 11 15 6 16 7 17 8 18 10 19 9 20 3 21 4 22 5 23 2 24
REMARK SMILES IDX 1 25 23 26 24 27 25 28 26 29 27 30 28 31 29 33 30 34 31 35
REMARK SMILES IDX 95 36 32 37 94 38 33 39 34 40 35 41 88 42 36 43 93 44 87 45
REMARK SMILES IDX 89 46 37 47 92 48 86 49 85 50 38 52 72 53 51 54 71 55 52 56
REMARK SMILES IDX 55 57 70 58 90 59 53 60 54 61 69 63 91 64 56 65 39 66 40 67
REMARK SMILES IDX 49 68 41 69 42 70 48 71 50 72 43 73 44 74 45 75 46 76 47 77
REMARK SMILES IDX 73 78 74 79 83 80 75 81 76 82 82 83 84 84 77 85 78 86 79 87
REMARK SMILES IDX 80 88 81 89 57 90 58 91 67 92 59 93 60 94 66 95 68 96 61 97
REMARK SMILES IDX 62 98 63 99 64 100 65 101
REMARK H PARENT 20 6 12 14 27 32 89 51 55 62
REMARK Flexibility Score: inf
ROOT
ATOM      1  C   UNL A   1      35.715  21.503  26.117  1.00  0.00     0.021 C 
ENDROOT
BRANCH   1   2
ATOM      2  C   UNL A   1      35.558  20.512  24.966  1.00  0.00     0.116 C 
BRANCH   2   3
ATOM      3  N   UNL A   1      34.269  19.860  25.014  1.00  0.00    -0.354 N 
ATOM      4  C   UNL A   1      33.024  20.399  25.150  1.00  0.00     0.249 C 
ATOM      5  O   UNL A   1      32.068  19.618  25.214  1.00  0.00    -0.272 OA
ATOM      6  H   UNL A   1      34.293  18.879  24.936  1.00  0.00     0.163 HD
BRANCH   4   7
ATOM      7  C   UNL A   1      32.808  21.923  25.286  1.00  0.00     0.207 C 
ATOM      8  C   UNL A   1      31.485  23.328  26.622  1.00  0.00     0.138 C 
ATOM      9  C   UNL A   1      30.649  22.935  25.413  1.00  0.00     0.037 C 
ATOM     10  O   UNL A   1      32.602  22.408  26.620  1.00  0.00    -0.363 OA
ATOM     11  C   UNL A   1      31.663  22.430  24.420  1.00  0.00     0.045 C 
BRANCH   8  12
ATOM     12  C   UNL A   1      32.032  24.769  26.640  1.00  0.00     0.145 C 
BRANCH  12  13
ATOM     13  N   UNL A   1      31.127  25.726  26.030  1.00  0.00    -0.381 N 
ATOM     14  H   UNL A   1      30.312  25.352  25.624  1.00  0.00     0.160 HD
BRANCH  13  15
ATOM     15  C   UNL A   1      31.271  27.098  25.948  1.00  0.00     0.053 A 
ATOM     16  C   UNL A   1      31.175  27.784  24.715  1.00  0.00     0.090 A 
ATOM     17  C   UNL A   1      31.436  29.161  24.616  1.00  0.00     0.022 A 
ATOM     18  C   UNL A   1      31.766  29.892  25.752  1.00  0.00     0.001 A 
ATOM     19  C   UNL A   1      31.602  27.871  27.072  1.00  0.00     0.027 A 
ATOM     20  C   UNL A   1      31.842  29.249  26.980  1.00  0.00     0.002 A 
BRANCH  16  21
ATOM     21  S   UNL A   1      30.716  26.934  23.212  1.00  0.00     0.180 S 
ATOM     22  O   UNL A   1      30.344  27.923  22.216  1.00  0.00    -0.224 OA
ATOM     23  O   UNL A   1      29.763  25.906  23.597  1.00  0.00    -0.224 OA
BRANCH  21  24
ATOM     24  C   UNL A   1      32.170  26.110  22.603  1.00  0.00     0.139 C 
ATOM     25  C   UNL A   1      32.091  25.683  21.152  1.00  0.00     0.021 C 
ENDBRANCH  21  24
ENDBRANCH  16  21
ENDBRANCH  13  15
ENDBRANCH  12  13
ENDBRANCH   8  12
ENDBRANCH   4   7
ENDBRANCH   2   3
ENDBRANCH   1   2
BRANCH   1  26
ATOM     26  C   UNL A   1      36.466  22.775  25.717  1.00  0.00     0.002 C 
BRANCH  26  27
ATOM     27  C   UNL A   1      37.993  22.621  25.678  1.00  0.00     0.002 C 
BRANCH  27  28
ATOM     28  C   UNL A   1      38.774  23.737  26.379  1.00  0.00     0.021 C 
BRANCH  28  29
ATOM     29  C   UNL A   1      40.060  23.270  27.055  1.00  0.00     0.116 C 
BRANCH  29  30
ATOM     30  N   UNL A   1      41.234  23.671  26.295  1.00  0.00    -0.352 N 
ATOM     31  C   UNL A   1      41.878  24.881  26.259  1.00  0.00     0.251 C 
ATOM     32  H   UNL A   1      41.622  22.971  25.721  1.00  0.00     0.163 HD
ATOM     33  O   UNL A   1      42.677  25.124  25.360  1.00  0.00    -0.269 OA
BRANCH  31  34
ATOM     34  C   UNL A   1      41.604  25.888  27.305  1.00  0.00     0.039 A 
ATOM     35  C   UNL A   1      40.652  25.607  28.287  1.00  0.00     0.014 A 
ATOM     36  C   UNL A   1      42.274  27.116  27.303  1.00  0.00     0.014 A 
ATOM     37  C   UNL A   1      40.415  26.535  29.302  1.00  0.00     0.010 A 
ATOM     38  C   UNL A   1      42.088  28.008  28.353  1.00  0.00     0.010 A 
ATOM     39  C   UNL A   1      41.156  27.727  29.363  1.00  0.00    -0.014 A 
BRANCH  39  40
ATOM     40  C   UNL A   1      40.984  28.682  30.487  1.00  0.00     0.031 A 
ATOM     41  C   UNL A   1      41.827  28.556  31.727  1.00  0.00     0.074 A 
ATOM     42  C   UNL A   1      40.020  29.621  30.414  1.00  0.00     0.049 A 
ATOM     43  N   UNL A   1      41.774  29.251  32.834  1.00  0.00    -0.248 NA
ATOM     44  C   UNL A   1      42.847  27.495  31.734  1.00  0.00     0.031 C 
ATOM     45  C   UNL A   1      39.109  29.808  29.282  1.00  0.00     0.029 A 
ATOM     46  N   UNL A   1      39.635  30.585  31.311  1.00  0.00    -0.354 N 
ATOM     47  C   UNL A   1      42.742  28.708  33.670  1.00  0.00     0.074 A 
ATOM     48  C   UNL A   1      43.331  27.591  32.964  1.00  0.00     0.031 C 
ATOM     49  C   UNL A   1      38.287  30.836  29.543  1.00  0.00     0.029 A 
ATOM     50  C   UNL A   1      38.582  31.354  30.875  1.00  0.00     0.049 A 
ATOM     51  H   UNL A   1      40.073  30.714  32.183  1.00  0.00     0.167 HD
ATOM     52  C   UNL A   1      43.118  29.117  34.905  1.00  0.00     0.037 A 
ATOM     53  C   UNL A   1      37.918  32.354  31.486  1.00  0.00     0.037 A 
ATOM     54  C   UNL A   1      42.536  30.241  35.593  1.00  0.00     0.049 A 
ATOM     55  C   UNL A   1      38.346  32.782  32.863  1.00  0.00     0.074 A 
ATOM     56  C   UNL A   1      42.886  30.772  36.822  1.00  0.00     0.029 A 
ATOM     57  N   UNL A   1      41.479  31.004  35.115  1.00  0.00    -0.354 N 
ATOM     58  N   UNL A   1      39.308  32.299  33.613  1.00  0.00    -0.248 NA
ATOM     59  C   UNL A   1      37.605  33.891  33.476  1.00  0.00     0.031 C 
ATOM     60  C   UNL A   1      42.007  31.820  37.112  1.00  0.00     0.029 A 
ATOM     61  C   UNL A   1      41.146  31.982  36.039  1.00  0.00     0.049 A 
ATOM     62  H   UNL A   1      41.032  30.869  34.249  1.00  0.00     0.167 HD
ATOM     63  C   UNL A   1      39.303  33.062  34.775  1.00  0.00     0.074 A 
ATOM     64  C   UNL A   1      38.254  34.048  34.622  1.00  0.00     0.031 C 
ATOM     65  C   UNL A   1      40.097  32.957  35.870  1.00  0.00     0.037 A 
BRANCH  52  66
ATOM     66  C   UNL A   1      44.212  28.347  35.596  1.00  0.00     0.058 A 
ATOM     67  C   UNL A   1      45.567  28.671  35.422  1.00  0.00     0.135 A 
ATOM     68  C   UNL A   1      43.899  27.299  36.479  1.00  0.00     0.135 A 
ATOM     69  F   UNL A   1      45.926  29.652  34.579  1.00  0.00    -0.206 F 
ATOM     70  C   UNL A   1      46.574  27.967  36.075  1.00  0.00     0.059 A 
ATOM     71  C   UNL A   1      44.888  26.603  37.167  1.00  0.00     0.059 A 
ATOM     72  F   UNL A   1      42.620  26.946  36.683  1.00  0.00    -0.206 F 
ATOM     73  C   UNL A   1      46.224  26.935  36.948  1.00  0.00     0.060 A 
BRANCH  73  74
ATOM     74  S   UNL A   1      47.543  26.038  37.795  1.00  0.00     0.124 S 
ATOM     75  O   UNL A   1      48.555  25.954  36.746  1.00  0.00    -0.237 OA
ATOM     76  O   UNL A   1      47.857  26.927  38.909  1.00  0.00    -0.237 OA
ATOM     77  O   UNL A   1      46.914  24.773  38.161  1.00  0.00    -0.744 OA
ENDBRANCH  73  74
ENDBRANCH  52  66
BRANCH  53  78
ATOM     78  C   UNL A   1      36.787  33.027  30.792  1.00  0.00     0.058 A 
ATOM     79  C   UNL A   1      35.458  32.662  31.055  1.00  0.00     0.135 A 
ATOM     80  C   UNL A   1      37.010  34.056  29.864  1.00  0.00     0.135 A 
ATOM     81  F   UNL A   1      35.192  31.681  31.930  1.00  0.00    -0.206 F 
ATOM     82  C   UNL A   1      34.391  33.280  30.409  1.00  0.00     0.059 A 
ATOM     83  C   UNL A   1      35.960  34.708  29.227  1.00  0.00     0.059 A 
ATOM     84  F   UNL A   1      38.262  34.455  29.589  1.00  0.00    -0.206 F 
ATOM     85  C   UNL A   1      34.653  34.305  29.498  1.00  0.00     0.060 A 
BRANCH  85  86
ATOM     86  S   UNL A   1      33.260  35.131  28.700  1.00  0.00     0.124 S 
ATOM     87  O   UNL A   1      32.526  35.644  29.849  1.00  0.00    -0.237 OA
ATOM     88  O   UNL A   1      33.930  36.128  27.871  1.00  0.00    -0.237 OA
ATOM     89  O   UNL A   1      32.608  34.051  27.964  1.00  0.00    -0.744 OA
ENDBRANCH  85  86
ENDBRANCH  53  78
BRANCH  65  90
ATOM     90  C   UNL A   1      39.878  33.949  36.981  1.00  0.00     0.058 A 
ATOM     91  C   UNL A   1      40.420  35.242  36.934  1.00  0.00     0.135 A 
ATOM     92  C   UNL A   1      39.076  33.615  38.084  1.00  0.00     0.135 A 
ATOM     93  F   UNL A   1      41.201  35.612  35.905  1.00  0.00    -0.206 F 
ATOM     94  C   UNL A   1      40.196  36.162  37.953  1.00  0.00     0.059 A 
ATOM     95  C   UNL A   1      38.812  34.528  39.099  1.00  0.00     0.059 A 
ATOM     96  F   UNL A   1      38.524  32.394  38.174  1.00  0.00    -0.206 F 
ATOM     97  C   UNL A   1      39.387  35.795  39.032  1.00  0.00     0.060 A 
BRANCH  97  98
ATOM     98  S   UNL A   1      39.078  37.010  40.331  1.00  0.00     0.124 S 
ATOM     99  O   UNL A   1      38.545  38.131  39.563  1.00  0.00    -0.237 OA
ATOM    100  O   UNL A   1      38.122  36.315  41.186  1.00  0.00    -0.237 OA
ATOM    101  O   UNL A   1      40.397  37.222  40.918  1.00  0.00    -0.744 OA
ENDBRANCH  97  98
ENDBRANCH  65  90
ENDBRANCH  39  40
ENDBRANCH  31  34
ENDBRANCH  29  30
ENDBRANCH  28  29
ENDBRANCH  27  28
ENDBRANCH  26  27
ENDBRANCH   1  26
TORSDOF 21
ENDMDL
