MODEL 1
REMARK VINA RESULT:     -14.0      0.000      0.000
REMARK SMILES Cc1ccc(N2C(=O)C[C@H](Sc3ccccc3C(=O)NCCCCCCNC(=O)c3ccc(-c4c5nc(c(-c6c(F)cc(S(=O)(=O)[O-])cc6F)c6ccc([nH]6)c(-c6c(F)cc(S(=O)(=O)[O-])cc6F)c6nc(c(-c7c(F)cc(S(=O)(=O)[O-])cc7F)c7ccc4[nH]7)C=C6)C=C5)cc3)C2=O)cc1
REMARK SMILES IDX 23 1 22 2 21 3 20 4 18 5 19 6 17 8 12 9 13 10 14 11 16 12
REMARK SMILES IDX 15 13 11 14 10 15 6 16 7 17 96 18 8 19 9 20 97 21 5 22 1 23
REMARK SMILES IDX 2 24 3 25 99 26 4 27 98 28 24 29 25 30 26 31 27 32 28 33
REMARK SMILES IDX 29 35 30 36 31 37 95 38 32 39 94 40 33 41 34 42 35 43 88 44
REMARK SMILES IDX 36 45 93 46 87 47 89 48 37 49 92 50 86 51 85 52 38 54 72 55
REMARK SMILES IDX 51 56 71 57 52 58 55 59 70 60 90 61 53 62 54 63 69 65 91 66
REMARK SMILES IDX 56 67 39 68 40 69 49 70 41 71 42 72 48 73 50 74 43 75 44 76
REMARK SMILES IDX 45 77 46 78 47 79 73 80 74 81 83 82 75 83 76 84 82 85 84 86
REMARK SMILES IDX 77 87 78 88 79 89 80 90 81 91 57 92 58 93 67 94 59 95 60 96
REMARK SMILES IDX 66 97 68 98 61 99 62 100 63 101 64 102 65 103
REMARK H PARENT 20 7 27 34 89 53 55 64
REMARK Flexibility Score: inf
ROOT
ATOM      1  C   UNL A   1      32.527  29.101  24.854  1.00  0.00     0.002 C 
ENDROOT
BRANCH   1   2
ATOM      2  C   UNL A   1      31.392  29.251  23.837  1.00  0.00     0.021 C 
BRANCH   2   3
ATOM      3  C   UNL A   1      31.230  28.200  22.738  1.00  0.00     0.116 C 
BRANCH   3   4
ATOM      4  N   UNL A   1      32.453  27.583  22.255  1.00  0.00    -0.352 N 
ATOM      5  C   UNL A   1      32.912  26.286  22.367  1.00  0.00     0.252 C 
ATOM      6  O   UNL A   1      33.892  25.952  21.705  1.00  0.00    -0.269 OA
ATOM      7  H   UNL A   1      33.055  28.191  21.767  1.00  0.00     0.163 HD
BRANCH   5   8
ATOM      8  C   UNL A   1      32.271  25.319  23.300  1.00  0.00     0.053 A 
ATOM      9  C   UNL A   1      32.732  25.123  24.623  1.00  0.00     0.021 A 
ATOM     10  C   UNL A   1      32.052  24.204  25.445  1.00  0.00     0.016 A 
ATOM     11  C   UNL A   1      30.964  23.472  24.966  1.00  0.00     0.001 A 
ATOM     12  C   UNL A   1      31.218  24.522  22.814  1.00  0.00     0.015 A 
ATOM     13  C   UNL A   1      30.560  23.616  23.645  1.00  0.00     0.001 A 
BRANCH   9  14
ATOM     14  S   UNL A   1      34.288  25.728  25.295  1.00  0.00    -0.111 SA
BRANCH  14  15
ATOM     15  C   UNL A   1      35.341  24.252  25.488  1.00  0.00     0.151 C 
ATOM     16  N   UNL A   1      34.620  22.036  25.326  1.00  0.00    -0.250 N 
ATOM     17  C   UNL A   1      34.645  22.330  26.672  1.00  0.00     0.235 C 
ATOM     18  C   UNL A   1      34.986  23.122  24.560  1.00  0.00     0.247 C 
ATOM     19  O   UNL A   1      34.286  21.646  27.619  1.00  0.00    -0.274 OA
ATOM     20  C   UNL A   1      35.354  23.634  26.862  1.00  0.00     0.126 C 
ATOM     21  O   UNL A   1      35.011  23.217  23.338  1.00  0.00    -0.273 OA
BRANCH  16  22
ATOM     22  C   UNL A   1      34.320  20.748  24.806  1.00  0.00     0.052 A 
ATOM     23  C   UNL A   1      33.320  16.715  23.582  1.00  0.00     0.044 C 
ATOM     24  C   UNL A   1      33.681  18.121  23.958  1.00  0.00    -0.051 A 
ATOM     25  C   UNL A   1      34.955  18.419  24.449  1.00  0.00     0.005 A 
ATOM     26  C   UNL A   1      32.731  19.142  23.891  1.00  0.00     0.005 A 
ATOM     27  C   UNL A   1      35.277  19.722  24.846  1.00  0.00     0.027 A 
ATOM     28  C   UNL A   1      33.045  20.437  24.318  1.00  0.00     0.027 A 
ENDBRANCH  16  22
ENDBRANCH  14  15
ENDBRANCH   9  14
ENDBRANCH   5   8
ENDBRANCH   3   4
ENDBRANCH   2   3
ENDBRANCH   1   2
BRANCH   1  29
ATOM     29  C   UNL A   1      32.186  28.686  26.288  1.00  0.00     0.002 C 
BRANCH  29  30
ATOM     30  C   UNL A   1      32.964  29.353  27.421  1.00  0.00     0.021 C 
BRANCH  30  31
ATOM     31  C   UNL A   1      34.431  29.641  27.110  1.00  0.00     0.116 C 
BRANCH  31  32
ATOM     32  N   UNL A   1      34.944  30.808  27.821  1.00  0.00    -0.352 N 
ATOM     33  C   UNL A   1      36.101  30.905  28.578  1.00  0.00     0.251 C 
ATOM     34  H   UNL A   1      34.400  31.626  27.755  1.00  0.00     0.163 HD
ATOM     35  O   UNL A   1      36.397  31.923  29.180  1.00  0.00    -0.269 OA
BRANCH  33  36
ATOM     36  C   UNL A   1      36.996  29.730  28.591  1.00  0.00     0.039 A 
ATOM     37  C   UNL A   1      37.157  29.033  29.792  1.00  0.00     0.014 A 
ATOM     38  C   UNL A   1      37.841  29.505  27.508  1.00  0.00     0.014 A 
ATOM     39  C   UNL A   1      38.294  28.248  29.976  1.00  0.00     0.010 A 
ATOM     40  C   UNL A   1      39.004  28.789  27.720  1.00  0.00     0.010 A 
ATOM     41  C   UNL A   1      39.262  28.207  28.973  1.00  0.00    -0.014 A 
BRANCH  41  42
ATOM     42  C   UNL A   1      40.616  27.686  29.164  1.00  0.00     0.031 A 
ATOM     43  C   UNL A   1      40.971  26.321  28.709  1.00  0.00     0.074 A 
ATOM     44  C   UNL A   1      41.585  28.480  29.670  1.00  0.00     0.049 A 
ATOM     45  N   UNL A   1      42.079  25.715  28.982  1.00  0.00    -0.248 NA
ATOM     46  C   UNL A   1      40.035  25.485  27.967  1.00  0.00     0.031 C 
ATOM     47  C   UNL A   1      43.028  28.283  29.560  1.00  0.00     0.029 A 
ATOM     48  N   UNL A   1      41.446  29.517  30.592  1.00  0.00    -0.354 N 
ATOM     49  C   UNL A   1      42.122  24.542  28.263  1.00  0.00     0.074 A 
ATOM     50  C   UNL A   1      40.787  24.405  27.734  1.00  0.00     0.031 C 
ATOM     51  C   UNL A   1      43.638  28.977  30.530  1.00  0.00     0.029 A 
ATOM     52  C   UNL A   1      42.607  29.518  31.395  1.00  0.00     0.049 A 
ATOM     53  H   UNL A   1      40.683  30.134  30.668  1.00  0.00     0.167 HD
ATOM     54  C   UNL A   1      43.317  23.893  28.126  1.00  0.00     0.037 A 
ATOM     55  C   UNL A   1      42.529  29.301  32.743  1.00  0.00     0.037 A 
ATOM     56  C   UNL A   1      44.309  24.418  29.072  1.00  0.00     0.049 A 
ATOM     57  C   UNL A   1      43.223  28.046  33.231  1.00  0.00     0.074 A 
ATOM     58  C   UNL A   1      45.401  25.267  28.989  1.00  0.00     0.029 A 
ATOM     59  N   UNL A   1      44.083  24.227  30.425  1.00  0.00    -0.354 N 
ATOM     60  N   UNL A   1      43.870  27.211  32.467  1.00  0.00    -0.248 NA
ATOM     61  C   UNL A   1      43.169  27.591  34.624  1.00  0.00     0.031 C 
ATOM     62  C   UNL A   1      45.792  25.622  30.316  1.00  0.00     0.029 A 
ATOM     63  C   UNL A   1      44.942  24.981  31.199  1.00  0.00     0.049 A 
ATOM     64  H   UNL A   1      43.392  23.628  30.790  1.00  0.00     0.167 HD
ATOM     65  C   UNL A   1      44.213  26.105  33.196  1.00  0.00     0.074 A 
ATOM     66  C   UNL A   1      43.792  26.402  34.550  1.00  0.00     0.031 C 
ATOM     67  C   UNL A   1      44.759  24.988  32.641  1.00  0.00     0.037 A 
BRANCH  54  68
ATOM     68  C   UNL A   1      43.671  22.907  27.015  1.00  0.00     0.058 A 
ATOM     69  C   UNL A   1      42.938  21.703  26.870  1.00  0.00     0.135 A 
ATOM     70  C   UNL A   1      44.765  23.010  26.131  1.00  0.00     0.135 A 
ATOM     71  F   UNL A   1      41.828  21.468  27.584  1.00  0.00    -0.206 F 
ATOM     72  C   UNL A   1      43.314  20.671  26.001  1.00  0.00     0.059 A 
ATOM     73  C   UNL A   1      45.171  21.989  25.270  1.00  0.00     0.059 A 
ATOM     74  F   UNL A   1      45.502  24.114  26.023  1.00  0.00    -0.206 F 
ATOM     75  C   UNL A   1      44.455  20.810  25.225  1.00  0.00     0.060 A 
BRANCH  75  76
ATOM     76  S   UNL A   1      44.997  19.450  24.178  1.00  0.00     0.124 S 
ATOM     77  O   UNL A   1      44.493  19.856  22.870  1.00  0.00    -0.237 OA
ATOM     78  O   UNL A   1      46.446  19.492  24.344  1.00  0.00    -0.237 OA
ATOM     79  O   UNL A   1      44.336  18.286  24.760  1.00  0.00    -0.744 OA
ENDBRANCH  75  76
ENDBRANCH  54  68
BRANCH  55  80
ATOM     80  C   UNL A   1      41.310  29.902  33.345  1.00  0.00     0.058 A 
ATOM     81  C   UNL A   1      41.305  31.295  33.547  1.00  0.00     0.135 A 
ATOM     82  C   UNL A   1      40.074  29.243  33.290  1.00  0.00     0.135 A 
ATOM     83  F   UNL A   1      42.466  31.966  33.623  1.00  0.00    -0.206 F 
ATOM     84  C   UNL A   1      40.129  32.029  33.509  1.00  0.00     0.059 A 
ATOM     85  C   UNL A   1      38.879  29.960  33.266  1.00  0.00     0.059 A 
ATOM     86  F   UNL A   1      40.020  27.916  33.103  1.00  0.00    -0.206 F 
ATOM     87  C   UNL A   1      38.928  31.355  33.297  1.00  0.00     0.060 A 
BRANCH  87  88
ATOM     88  S   UNL A   1      37.481  32.342  32.852  1.00  0.00     0.124 S 
ATOM     89  O   UNL A   1      37.189  33.035  34.100  1.00  0.00    -0.237 OA
ATOM     90  O   UNL A   1      38.018  33.171  31.775  1.00  0.00    -0.237 OA
ATOM     91  O   UNL A   1      36.506  31.338  32.443  1.00  0.00    -0.744 OA
ENDBRANCH  87  88
ENDBRANCH  55  80
BRANCH  67  92
ATOM     92  C   UNL A   1      45.141  23.792  33.453  1.00  0.00     0.058 A 
ATOM     93  C   UNL A   1      44.190  22.837  33.846  1.00  0.00     0.135 A 
ATOM     94  C   UNL A   1      46.442  23.643  33.972  1.00  0.00     0.135 A 
ATOM     95  F   UNL A   1      42.924  22.915  33.403  1.00  0.00    -0.206 F 
ATOM     96  C   UNL A   1      44.510  21.791  34.709  1.00  0.00     0.059 A 
ATOM     97  C   UNL A   1      46.775  22.629  34.864  1.00  0.00     0.059 A 
ATOM     98  F   UNL A   1      47.427  24.478  33.607  1.00  0.00    -0.206 F 
ATOM     99  C   UNL A   1      45.804  21.700  35.222  1.00  0.00     0.060 A 
BRANCH  99 100
ATOM    100  S   UNL A   1      46.210  20.392  36.397  1.00  0.00     0.124 S 
ATOM    101  O   UNL A   1      47.664  20.306  36.298  1.00  0.00    -0.237 OA
ATOM    102  O   UNL A   1      45.696  20.952  37.643  1.00  0.00    -0.237 OA
ATOM    103  O   UNL A   1      45.484  19.238  35.876  1.00  0.00    -0.744 OA
ENDBRANCH  99 100
ENDBRANCH  67  92
ENDBRANCH  41  42
ENDBRANCH  33  36
ENDBRANCH  31  32
ENDBRANCH  30  31
ENDBRANCH  29  30
ENDBRANCH   1  29
TORSDOF 19
ENDMDL
MODEL 2
REMARK VINA RESULT:     -13.9      4.414     11.312
REMARK SMILES Cc1ccc(N2C(=O)C[C@H](Sc3ccccc3C(=O)NCCCCCCNC(=O)c3ccc(-c4c5nc(c(-c6c(F)cc(S(=O)(=O)[O-])cc6F)c6ccc([nH]6)c(-c6c(F)cc(S(=O)(=O)[O-])cc6F)c6nc(c(-c7c(F)cc(S(=O)(=O)[O-])cc7F)c7ccc4[nH]7)C=C6)C=C5)cc3)C2=O)cc1
REMARK SMILES IDX 23 1 22 2 21 3 20 4 18 5 19 6 17 8 12 9 13 10 14 11 16 12
REMARK SMILES IDX 15 13 11 14 10 15 6 16 7 17 96 18 8 19 9 20 97 21 5 22 1 23
REMARK SMILES IDX 2 24 3 25 99 26 4 27 98 28 24 29 25 30 26 31 27 32 28 33
REMARK SMILES IDX 29 35 30 36 31 37 95 38 32 39 94 40 33 41 34 42 35 43 88 44
REMARK SMILES IDX 36 45 93 46 87 47 89 48 37 49 92 50 86 51 85 52 38 54 72 55
REMARK SMILES IDX 51 56 71 57 52 58 55 59 70 60 90 61 53 62 54 63 69 65 91 66
REMARK SMILES IDX 56 67 39 68 40 69 49 70 41 71 42 72 48 73 50 74 43 75 44 76
REMARK SMILES IDX 45 77 46 78 47 79 73 80 74 81 83 82 75 83 76 84 82 85 84 86
REMARK SMILES IDX 77 87 78 88 79 89 80 90 81 91 57 92 58 93 67 94 59 95 60 96
REMARK SMILES IDX 66 97 68 98 61 99 62 100 63 101 64 102 65 103
REMARK H PARENT 20 7 27 34 89 53 55 64
REMARK Flexibility Score: inf
ROOT
ATOM      1  C   UNL A   1      35.267  23.323  25.491  1.00  0.00     0.002 C 
ENDROOT
BRANCH   1   2
ATOM      2  C   UNL A   1      34.942  23.291  26.987  1.00  0.00     0.021 C 
BRANCH   2   3
ATOM      3  C   UNL A   1      34.008  22.208  27.526  1.00  0.00     0.116 C 
BRANCH   3   4
ATOM      4  N   UNL A   1      32.610  22.579  27.668  1.00  0.00    -0.352 N 
ATOM      5  C   UNL A   1      31.570  22.531  26.762  1.00  0.00     0.252 C 
ATOM      6  O   UNL A   1      30.427  22.716  27.172  1.00  0.00    -0.269 OA
ATOM      7  H   UNL A   1      32.364  22.921  28.557  1.00  0.00     0.163 HD
BRANCH   5   8
ATOM      8  C   UNL A   1      31.820  22.309  25.311  1.00  0.00     0.053 A 
ATOM      9  C   UNL A   1      31.792  23.362  24.367  1.00  0.00     0.021 A 
ATOM     10  C   UNL A   1      32.063  23.065  23.017  1.00  0.00     0.016 A 
ATOM     11  C   UNL A   1      32.324  21.758  22.602  1.00  0.00     0.001 A 
ATOM     12  C   UNL A   1      32.016  20.989  24.863  1.00  0.00     0.015 A 
ATOM     13  C   UNL A   1      32.280  20.717  23.521  1.00  0.00     0.001 A 
BRANCH   9  14
ATOM     14  S   UNL A   1      31.167  25.024  24.662  1.00  0.00    -0.111 SA
BRANCH  14  15
ATOM     15  C   UNL A   1      32.497  25.892  25.557  1.00  0.00     0.151 C 
ATOM     16  N   UNL A   1      32.691  28.209  25.790  1.00  0.00    -0.250 N 
ATOM     17  C   UNL A   1      33.514  27.861  24.740  1.00  0.00     0.235 C 
ATOM     18  C   UNL A   1      32.034  27.112  26.307  1.00  0.00     0.247 C 
ATOM     19  O   UNL A   1      34.158  28.583  23.993  1.00  0.00    -0.274 OA
ATOM     20  C   UNL A   1      33.648  26.371  24.712  1.00  0.00     0.126 C 
ATOM     21  O   UNL A   1      31.192  27.080  27.197  1.00  0.00    -0.273 OA
BRANCH  16  22
ATOM     22  C   UNL A   1      32.594  29.526  26.315  1.00  0.00     0.052 A 
ATOM     23  C   UNL A   1      32.522  33.657  27.616  1.00  0.00     0.044 C 
ATOM     24  C   UNL A   1      32.522  32.214  27.208  1.00  0.00    -0.051 A 
ATOM     25  C   UNL A   1      33.583  31.376  27.560  1.00  0.00     0.005 A 
ATOM     26  C   UNL A   1      31.497  31.701  26.410  1.00  0.00     0.005 A 
ATOM     27  C   UNL A   1      33.607  30.042  27.138  1.00  0.00     0.027 A 
ATOM     28  C   UNL A   1      31.539  30.376  25.962  1.00  0.00     0.027 A 
ENDBRANCH  16  22
ENDBRANCH  14  15
ENDBRANCH   9  14
ENDBRANCH   5   8
ENDBRANCH   3   4
ENDBRANCH   2   3
ENDBRANCH   1   2
BRANCH   1  29
ATOM     29  C   UNL A   1      35.935  22.101  24.852  1.00  0.00     0.002 C 
BRANCH  29  30
ATOM     30  C   UNL A   1      37.412  21.862  25.162  1.00  0.00     0.021 C 
BRANCH  30  31
ATOM     31  C   UNL A   1      38.157  23.074  25.714  1.00  0.00     0.116 C 
BRANCH  31  32
ATOM     32  N   UNL A   1      39.469  22.736  26.259  1.00  0.00    -0.352 N 
ATOM     33  C   UNL A   1      40.368  23.572  26.902  1.00  0.00     0.251 C 
ATOM     34  H   UNL A   1      39.748  21.797  26.157  1.00  0.00     0.163 HD
ATOM     35  O   UNL A   1      41.466  23.186  27.263  1.00  0.00    -0.269 OA
BRANCH  33  36
ATOM     36  C   UNL A   1      39.921  24.952  27.178  1.00  0.00     0.039 A 
ATOM     37  C   UNL A   1      40.435  25.986  26.388  1.00  0.00     0.014 A 
ATOM     38  C   UNL A   1      39.225  25.222  28.352  1.00  0.00     0.014 A 
ATOM     39  C   UNL A   1      40.421  27.290  26.879  1.00  0.00     0.010 A 
ATOM     40  C   UNL A   1      39.281  26.502  28.871  1.00  0.00     0.010 A 
ATOM     41  C   UNL A   1      39.931  27.528  28.163  1.00  0.00    -0.014 A 
BRANCH  41  42
ATOM     42  C   UNL A   1      40.145  28.772  28.902  1.00  0.00     0.031 A 
ATOM     43  C   UNL A   1      39.135  29.856  28.865  1.00  0.00     0.074 A 
ATOM     44  C   UNL A   1      41.222  28.908  29.706  1.00  0.00     0.049 A 
ATOM     45  N   UNL A   1      39.308  31.044  29.342  1.00  0.00    -0.248 NA
ATOM     46  C   UNL A   1      37.853  29.696  28.190  1.00  0.00     0.031 C 
ATOM     47  C   UNL A   1      41.391  29.869  30.793  1.00  0.00     0.029 A 
ATOM     48  N   UNL A   1      42.487  28.343  29.545  1.00  0.00    -0.354 N 
ATOM     49  C   UNL A   1      38.109  31.719  29.273  1.00  0.00     0.074 A 
ATOM     50  C   UNL A   1      37.275  30.870  28.459  1.00  0.00     0.031 C 
ATOM     51  C   UNL A   1      42.698  30.015  31.048  1.00  0.00     0.029 A 
ATOM     52  C   UNL A   1      43.426  29.277  30.033  1.00  0.00     0.049 A 
ATOM     53  H   UNL A   1      42.688  27.459  29.163  1.00  0.00     0.167 HD
ATOM     54  C   UNL A   1      37.951  32.862  30.005  1.00  0.00     0.037 A 
ATOM     55  C   UNL A   1      44.375  29.816  29.210  1.00  0.00     0.037 A 
ATOM     56  C   UNL A   1      39.244  33.351  30.499  1.00  0.00     0.049 A 
ATOM     57  C   UNL A   1      44.268  31.313  29.003  1.00  0.00     0.074 A 
ATOM     58  C   UNL A   1      39.908  33.333  31.715  1.00  0.00     0.029 A 
ATOM     59  N   UNL A   1      40.175  33.785  29.569  1.00  0.00    -0.354 N 
ATOM     60  N   UNL A   1      43.367  32.076  29.556  1.00  0.00    -0.248 NA
ATOM     61  C   UNL A   1      45.132  32.057  28.081  1.00  0.00     0.031 C 
ATOM     62  C   UNL A   1      41.265  33.716  31.488  1.00  0.00     0.029 A 
ATOM     63  C   UNL A   1      41.419  33.971  30.138  1.00  0.00     0.049 A 
ATOM     64  H   UNL A   1      39.972  33.940  28.618  1.00  0.00     0.167 HD
ATOM     65  C   UNL A   1      43.447  33.331  29.016  1.00  0.00     0.074 A 
ATOM     66  C   UNL A   1      44.591  33.287  28.128  1.00  0.00     0.031 C 
ATOM     67  C   UNL A   1      42.537  34.311  29.274  1.00  0.00     0.037 A 
BRANCH  54  68
ATOM     68  C   UNL A   1      36.615  33.457  30.447  1.00  0.00     0.058 A 
ATOM     69  C   UNL A   1      35.719  33.989  29.487  1.00  0.00     0.135 A 
ATOM     70  C   UNL A   1      36.189  33.641  31.779  1.00  0.00     0.135 A 
ATOM     71  F   UNL A   1      35.934  33.845  28.172  1.00  0.00    -0.206 F 
ATOM     72  C   UNL A   1      34.567  34.711  29.824  1.00  0.00     0.059 A 
ATOM     73  C   UNL A   1      35.057  34.374  32.141  1.00  0.00     0.059 A 
ATOM     74  F   UNL A   1      36.826  33.107  32.819  1.00  0.00    -0.206 F 
ATOM     75  C   UNL A   1      34.260  34.928  31.159  1.00  0.00     0.060 A 
BRANCH  75  76
ATOM     76  S   UNL A   1      32.836  35.936  31.599  1.00  0.00     0.124 S 
ATOM     77  O   UNL A   1      32.264  36.239  30.291  1.00  0.00    -0.237 OA
ATOM     78  O   UNL A   1      32.063  35.028  32.438  1.00  0.00    -0.237 OA
ATOM     79  O   UNL A   1      33.426  37.076  32.294  1.00  0.00    -0.744 OA
ENDBRANCH  75  76
ENDBRANCH  54  68
BRANCH  55  80
ATOM     80  C   UNL A   1      44.876  28.840  28.206  1.00  0.00     0.058 A 
ATOM     81  C   UNL A   1      45.828  27.897  28.638  1.00  0.00     0.135 A 
ATOM     82  C   UNL A   1      44.141  28.547  27.050  1.00  0.00     0.135 A 
ATOM     83  F   UNL A   1      46.569  28.143  29.732  1.00  0.00    -0.206 F 
ATOM     84  C   UNL A   1      45.918  26.640  28.059  1.00  0.00     0.059 A 
ATOM     85  C   UNL A   1      44.226  27.295  26.443  1.00  0.00     0.059 A 
ATOM     86  F   UNL A   1      43.223  29.412  26.592  1.00  0.00    -0.206 F 
ATOM     87  C   UNL A   1      45.060  26.328  27.006  1.00  0.00     0.060 A 
BRANCH  87  88
ATOM     88  S   UNL A   1      44.907  24.588  26.539  1.00  0.00     0.124 S 
ATOM     89  O   UNL A   1      46.242  24.289  26.035  1.00  0.00    -0.237 OA
ATOM     90  O   UNL A   1      44.559  23.975  27.819  1.00  0.00    -0.237 OA
ATOM     91  O   UNL A   1      43.843  24.604  25.541  1.00  0.00    -0.744 OA
ENDBRANCH  87  88
ENDBRANCH  55  80
BRANCH  67  92
ATOM     92  C   UNL A   1      42.644  35.682  28.687  1.00  0.00     0.058 A 
ATOM     93  C   UNL A   1      43.028  36.786  29.465  1.00  0.00     0.135 A 
ATOM     94  C   UNL A   1      42.234  35.947  27.366  1.00  0.00     0.135 A 
ATOM     95  F   UNL A   1      43.421  36.618  30.738  1.00  0.00    -0.206 F 
ATOM     96  C   UNL A   1      43.004  38.085  28.960  1.00  0.00     0.059 A 
ATOM     97  C   UNL A   1      42.168  37.238  26.853  1.00  0.00     0.059 A 
ATOM     98  F   UNL A   1      41.903  34.946  26.535  1.00  0.00    -0.206 F 
ATOM     99  C   UNL A   1      42.564  38.303  27.655  1.00  0.00     0.060 A 
BRANCH  99 100
ATOM    100  S   UNL A   1      42.460  39.988  27.017  1.00  0.00     0.124 S 
ATOM    101  O   UNL A   1      42.586  40.801  28.223  1.00  0.00    -0.237 OA
ATOM    102  O   UNL A   1      43.604  40.026  26.110  1.00  0.00    -0.237 OA
ATOM    103  O   UNL A   1      41.148  40.023  26.380  1.00  0.00    -0.744 OA
ENDBRANCH  99 100
ENDBRANCH  67  92
ENDBRANCH  41  42
ENDBRANCH  33  36
ENDBRANCH  31  32
ENDBRANCH  30  31
ENDBRANCH  29  30
ENDBRANCH   1  29
TORSDOF 19
ENDMDL
MODEL 3
REMARK VINA RESULT:     -13.8      1.591      4.231
REMARK SMILES Cc1ccc(N2C(=O)C[C@H](Sc3ccccc3C(=O)NCCCCCCNC(=O)c3ccc(-c4c5nc(c(-c6c(F)cc(S(=O)(=O)[O-])cc6F)c6ccc([nH]6)c(-c6c(F)cc(S(=O)(=O)[O-])cc6F)c6nc(c(-c7c(F)cc(S(=O)(=O)[O-])cc7F)c7ccc4[nH]7)C=C6)C=C5)cc3)C2=O)cc1
REMARK SMILES IDX 23 1 22 2 21 3 20 4 18 5 19 6 17 8 12 9 13 10 14 11 16 12
REMARK SMILES IDX 15 13 11 14 10 15 6 16 7 17 96 18 8 19 9 20 97 21 5 22 1 23
REMARK SMILES IDX 2 24 3 25 99 26 4 27 98 28 24 29 25 30 26 31 27 32 28 33
REMARK SMILES IDX 29 35 30 36 31 37 95 38 32 39 94 40 33 41 34 42 35 43 88 44
REMARK SMILES IDX 36 45 93 46 87 47 89 48 37 49 92 50 86 51 85 52 38 54 72 55
REMARK SMILES IDX 51 56 71 57 52 58 55 59 70 60 90 61 53 62 54 63 69 65 91 66
REMARK SMILES IDX 56 67 39 68 40 69 49 70 41 71 42 72 48 73 50 74 43 75 44 76
REMARK SMILES IDX 45 77 46 78 47 79 73 80 74 81 83 82 75 83 76 84 82 85 84 86
REMARK SMILES IDX 77 87 78 88 79 89 80 90 81 91 57 92 58 93 67 94 59 95 60 96
REMARK SMILES IDX 66 97 68 98 61 99 62 100 63 101 64 102 65 103
REMARK H PARENT 20 7 27 34 89 53 55 64
REMARK Flexibility Score: inf
ROOT
ATOM      1  C   UNL A   1      34.023  27.209  26.116  1.00  0.00     0.002 C 
ENDROOT
BRANCH   1   2
ATOM      2  C   UNL A   1      33.819  25.816  25.514  1.00  0.00     0.021 C 
BRANCH   2   3
ATOM      3  C   UNL A   1      34.577  24.628  26.106  1.00  0.00     0.116 C 
BRANCH   3   4
ATOM      4  N   UNL A   1      35.684  24.115  25.317  1.00  0.00    -0.352 N 
ATOM      5  C   UNL A   1      35.710  23.175  24.307  1.00  0.00     0.252 C 
ATOM      6  O   UNL A   1      36.742  23.046  23.653  1.00  0.00    -0.269 OA
ATOM      7  H   UNL A   1      36.562  24.502  25.541  1.00  0.00     0.163 HD
BRANCH   5   8
ATOM      8  C   UNL A   1      34.537  22.299  24.037  1.00  0.00     0.053 A 
ATOM      9  C   UNL A   1      33.478  22.692  23.186  1.00  0.00     0.021 A 
ATOM     10  C   UNL A   1      32.418  21.790  22.968  1.00  0.00     0.016 A 
ATOM     11  C   UNL A   1      32.386  20.545  23.598  1.00  0.00     0.001 A 
ATOM     12  C   UNL A   1      34.453  21.070  24.717  1.00  0.00     0.015 A 
ATOM     13  C   UNL A   1      33.393  20.193  24.489  1.00  0.00     0.001 A 
BRANCH   9  14
ATOM     14  S   UNL A   1      33.195  24.353  22.556  1.00  0.00    -0.111 SA
BRANCH  14  15
ATOM     15  C   UNL A   1      31.394  24.614  22.664  1.00  0.00     0.151 C 
ATOM     16  N   UNL A   1      30.344  26.597  23.318  1.00  0.00    -0.250 N 
ATOM     17  C   UNL A   1      30.376  25.795  24.439  1.00  0.00     0.235 C 
ATOM     18  C   UNL A   1      30.948  25.988  22.239  1.00  0.00     0.247 C 
ATOM     19  O   UNL A   1      30.031  26.053  25.582  1.00  0.00    -0.274 OA
ATOM     20  C   UNL A   1      30.785  24.416  24.027  1.00  0.00     0.126 C 
ATOM     21  O   UNL A   1      31.141  26.445  21.118  1.00  0.00    -0.273 OA
BRANCH  16  22
ATOM     22  C   UNL A   1      29.700  27.863  23.271  1.00  0.00     0.052 A 
ATOM     23  C   UNL A   1      27.632  31.662  23.498  1.00  0.00     0.044 C 
ATOM     24  C   UNL A   1      28.357  30.355  23.371  1.00  0.00    -0.051 A 
ATOM     25  C   UNL A   1      27.659  29.183  23.069  1.00  0.00     0.005 A 
ATOM     26  C   UNL A   1      29.728  30.276  23.619  1.00  0.00     0.005 A 
ATOM     27  C   UNL A   1      28.327  27.956  22.998  1.00  0.00     0.027 A 
ATOM     28  C   UNL A   1      30.389  29.043  23.579  1.00  0.00     0.027 A 
ENDBRANCH  16  22
ENDBRANCH  14  15
ENDBRANCH   9  14
ENDBRANCH   5   8
ENDBRANCH   3   4
ENDBRANCH   2   3
ENDBRANCH   1   2
BRANCH   1  29
ATOM     29  C   UNL A   1      32.809  27.956  26.678  1.00  0.00     0.002 C 
BRANCH  29  30
ATOM     30  C   UNL A   1      33.071  29.245  27.455  1.00  0.00     0.021 C 
BRANCH  30  31
ATOM     31  C   UNL A   1      34.124  30.163  26.839  1.00  0.00     0.116 C 
BRANCH  31  32
ATOM     32  N   UNL A   1      34.539  31.236  27.739  1.00  0.00    -0.352 N 
ATOM     33  C   UNL A   1      35.623  31.254  28.602  1.00  0.00     0.251 C 
ATOM     34  H   UNL A   1      33.979  32.045  27.732  1.00  0.00     0.163 HD
ATOM     35  O   UNL A   1      35.835  32.189  29.355  1.00  0.00    -0.269 OA
BRANCH  33  36
ATOM     36  C   UNL A   1      36.549  30.104  28.542  1.00  0.00     0.039 A 
ATOM     37  C   UNL A   1      36.709  29.322  29.689  1.00  0.00     0.014 A 
ATOM     38  C   UNL A   1      37.417  29.984  27.460  1.00  0.00     0.014 A 
ATOM     39  C   UNL A   1      37.863  28.553  29.833  1.00  0.00     0.010 A 
ATOM     40  C   UNL A   1      38.595  29.283  27.638  1.00  0.00     0.010 A 
ATOM     41  C   UNL A   1      38.848  28.614  28.847  1.00  0.00    -0.014 A 
BRANCH  41  42
ATOM     42  C   UNL A   1      40.212  28.114  29.023  1.00  0.00     0.031 A 
ATOM     43  C   UNL A   1      40.547  26.706  28.705  1.00  0.00     0.074 A 
ATOM     44  C   UNL A   1      41.204  28.957  29.384  1.00  0.00     0.049 A 
ATOM     45  N   UNL A   1      41.671  26.132  28.983  1.00  0.00    -0.248 NA
ATOM     46  C   UNL A   1      39.576  25.795  28.111  1.00  0.00     0.031 C 
ATOM     47  C   UNL A   1      42.639  28.746  29.220  1.00  0.00     0.029 A 
ATOM     48  N   UNL A   1      41.111  30.092  30.191  1.00  0.00    -0.354 N 
ATOM     49  C   UNL A   1      41.679  24.886  28.399  1.00  0.00     0.074 A 
ATOM     50  C   UNL A   1      40.318  24.694  27.960  1.00  0.00     0.031 C 
ATOM     51  C   UNL A   1      43.298  29.542  30.073  1.00  0.00     0.029 A 
ATOM     52  C   UNL A   1      42.313  30.179  30.926  1.00  0.00     0.049 A 
ATOM     53  H   UNL A   1      40.351  30.714  30.239  1.00  0.00     0.167 HD
ATOM     54  C   UNL A   1      42.868  24.223  28.271  1.00  0.00     0.037 A 
ATOM     55  C   UNL A   1      42.308  30.114  32.291  1.00  0.00     0.037 A 
ATOM     56  C   UNL A   1      43.907  24.848  29.098  1.00  0.00     0.049 A 
ATOM     57  C   UNL A   1      43.031  28.919  32.879  1.00  0.00     0.074 A 
ATOM     58  C   UNL A   1      44.989  25.680  28.863  1.00  0.00     0.029 A 
ATOM     59  N   UNL A   1      43.754  24.810  30.474  1.00  0.00    -0.354 N 
ATOM     60  N   UNL A   1      43.640  28.003  32.179  1.00  0.00    -0.248 NA
ATOM     61  C   UNL A   1      43.053  28.622  34.314  1.00  0.00     0.031 C 
ATOM     62  C   UNL A   1      45.449  26.179  30.119  1.00  0.00     0.029 A 
ATOM     63  C   UNL A   1      44.651  25.643  31.112  1.00  0.00     0.049 A 
ATOM     64  H   UNL A   1      43.086  24.256  30.940  1.00  0.00     0.167 HD
ATOM     65  C   UNL A   1      44.025  26.985  33.007  1.00  0.00     0.074 A 
ATOM     66  C   UNL A   1      43.676  27.432  34.341  1.00  0.00     0.031 C 
ATOM     67  C   UNL A   1      44.545  25.811  32.552  1.00  0.00     0.037 A 
BRANCH  54  68
ATOM     68  C   UNL A   1      43.165  23.118  27.259  1.00  0.00     0.058 A 
ATOM     69  C   UNL A   1      42.492  21.874  27.344  1.00  0.00     0.135 A 
ATOM     70  C   UNL A   1      44.157  23.155  26.258  1.00  0.00     0.135 A 
ATOM     71  F   UNL A   1      41.475  21.683  28.196  1.00  0.00    -0.206 F 
ATOM     72  C   UNL A   1      42.839  20.756  26.574  1.00  0.00     0.059 A 
ATOM     73  C   UNL A   1      44.534  22.050  25.492  1.00  0.00     0.059 A 
ATOM     74  F   UNL A   1      44.815  24.268  25.936  1.00  0.00    -0.206 F 
ATOM     75  C   UNL A   1      43.886  20.844  25.670  1.00  0.00     0.060 A 
BRANCH  75  76
ATOM     76  S   UNL A   1      44.399  19.386  24.748  1.00  0.00     0.124 S 
ATOM     77  O   UNL A   1      44.381  19.876  23.373  1.00  0.00    -0.237 OA
ATOM     78  O   UNL A   1      45.716  19.113  25.311  1.00  0.00    -0.237 OA
ATOM     79  O   UNL A   1      43.369  18.401  25.066  1.00  0.00    -0.744 OA
ENDBRANCH  75  76
ENDBRANCH  54  68
BRANCH  55  80
ATOM     80  C   UNL A   1      41.120  30.781  32.887  1.00  0.00     0.058 A 
ATOM     81  C   UNL A   1      39.994  29.980  33.155  1.00  0.00     0.135 A 
ATOM     82  C   UNL A   1      41.240  31.995  33.576  1.00  0.00     0.135 A 
ATOM     83  F   UNL A   1      39.828  28.816  32.506  1.00  0.00    -0.206 F 
ATOM     84  C   UNL A   1      39.122  30.279  34.191  1.00  0.00     0.059 A 
ATOM     85  C   UNL A   1      40.367  32.323  34.612  1.00  0.00     0.059 A 
ATOM     86  F   UNL A   1      42.292  32.798  33.357  1.00  0.00    -0.206 F 
ATOM     87  C   UNL A   1      39.361  31.418  34.958  1.00  0.00     0.060 A 
BRANCH  87  88
ATOM     88  S   UNL A   1      38.476  31.573  36.526  1.00  0.00     0.124 S 
ATOM     89  O   UNL A   1      37.351  32.425  36.158  1.00  0.00    -0.237 OA
ATOM     90  O   UNL A   1      38.150  30.177  36.812  1.00  0.00    -0.237 OA
ATOM     91  O   UNL A   1      39.467  32.179  37.409  1.00  0.00    -0.744 OA
ENDBRANCH  87  88
ENDBRANCH  55  80
BRANCH  67  92
ATOM     92  C   UNL A   1      44.974  24.712  33.471  1.00  0.00     0.058 A 
ATOM     93  C   UNL A   1      46.330  24.433  33.700  1.00  0.00     0.135 A 
ATOM     94  C   UNL A   1      44.038  23.823  34.036  1.00  0.00     0.135 A 
ATOM     95  F   UNL A   1      47.284  25.227  33.186  1.00  0.00    -0.206 F 
ATOM     96  C   UNL A   1      46.739  23.331  34.450  1.00  0.00     0.059 A 
ATOM     97  C   UNL A   1      44.423  22.697  34.757  1.00  0.00     0.059 A 
ATOM     98  F   UNL A   1      42.720  24.043  33.914  1.00  0.00    -0.206 F 
ATOM     99  C   UNL A   1      45.778  22.463  34.967  1.00  0.00     0.060 A 
BRANCH  99 100
ATOM    100  S   UNL A   1      46.299  20.994  35.876  1.00  0.00     0.124 S 
ATOM    101  O   UNL A   1      45.964  19.908  34.960  1.00  0.00    -0.237 OA
ATOM    102  O   UNL A   1      47.725  21.251  36.052  1.00  0.00    -0.237 OA
ATOM    103  O   UNL A   1      45.493  21.051  37.091  1.00  0.00    -0.744 OA
ENDBRANCH  99 100
ENDBRANCH  67  92
ENDBRANCH  41  42
ENDBRANCH  33  36
ENDBRANCH  31  32
ENDBRANCH  30  31
ENDBRANCH  29  30
ENDBRANCH   1  29
TORSDOF 19
ENDMDL
