MODEL 1
REMARK VINA RESULT:     -12.7      0.000      0.000
REMARK SMILES Cc1cc2c(cc1C(=O)c1ccccc1C(=O)NCCCCCCNC(=O)c1ccc(-c3c4nc(c(-c5c(F)cc(S(=O)(=O)[O-])cc5F)c5ccc([nH]5)c(-c5c(F)cc(S(=O)(=O)[O-])cc5F)c5nc(c(-c6c(F)cc(S(=O)(=O)[O-])cc6F)c6ccc3[nH]6)C=C5)C=C4)cc1)CCCC2
REMARK SMILES IDX 22 1 21 2 20 3 19 4 18 5 16 6 17 7 15 9 10 10 11 11 12 12
REMARK SMILES IDX 14 13 13 14 8 15 9 16 7 17 1 18 2 19 3 20 4 21 6 22 5 23
REMARK SMILES IDX 97 24 94 25 96 26 95 27 23 28 24 29 25 30 26 31 27 33 28 34
REMARK SMILES IDX 29 35 93 36 30 37 92 38 31 39 32 40 33 41 86 42 34 43 91 44
REMARK SMILES IDX 85 45 87 46 35 47 90 48 84 49 83 50 36 52 70 53 49 54 69 55
REMARK SMILES IDX 50 56 53 57 68 58 88 59 51 60 52 61 67 63 89 64 54 65 37 66
REMARK SMILES IDX 38 67 47 68 39 69 40 70 46 71 48 72 41 73 42 74 43 75 44 76
REMARK SMILES IDX 45 77 71 78 72 79 81 80 73 81 74 82 80 83 82 84 75 85 76 86
REMARK SMILES IDX 77 87 78 88 79 89 55 90 56 91 65 92 57 93 58 94 64 95 66 96
REMARK SMILES IDX 59 97 60 98 61 99 62 100 63 101
REMARK H PARENT 18 8 25 32 87 51 53 62
REMARK Flexibility Score: inf
ROOT
ATOM      1  C   UNL A   1      39.029  22.482  26.225  1.00  0.00     0.002 C 
ENDROOT
BRANCH   1   2
ATOM      2  C   UNL A   1      38.455  21.342  25.381  1.00  0.00     0.002 C 
BRANCH   2   3
ATOM      3  C   UNL A   1      37.122  21.553  24.665  1.00  0.00     0.021 C 
BRANCH   3   4
ATOM      4  C   UNL A   1      35.865  20.927  25.258  1.00  0.00     0.116 C 
BRANCH   4   5
ATOM      5  N   UNL A   1      35.407  21.450  26.511  1.00  0.00    -0.352 N 
ATOM      6  C   UNL A   1      34.575  22.499  26.819  1.00  0.00     0.252 C 
ATOM      7  O   UNL A   1      34.386  22.650  28.035  1.00  0.00    -0.269 OA
ATOM      8  H   UNL A   1      35.752  20.969  27.298  1.00  0.00     0.163 HD
BRANCH   6   9
ATOM      9  C   UNL A   1      33.918  23.499  25.891  1.00  0.00     0.050 A 
ATOM     10  C   UNL A   1      32.659  23.513  25.262  1.00  0.00     0.035 A 
ATOM     11  C   UNL A   1      32.184  24.669  24.596  1.00  0.00     0.013 A 
ATOM     12  C   UNL A   1      32.988  25.792  24.444  1.00  0.00     0.001 A 
ATOM     13  C   UNL A   1      34.711  24.661  25.694  1.00  0.00     0.014 A 
ATOM     14  C   UNL A   1      34.267  25.778  24.973  1.00  0.00     0.001 A 
BRANCH  10  15
ATOM     15  C   UNL A   1      31.697  22.414  25.221  1.00  0.00     0.194 C 
ATOM     16  O   UNL A   1      30.633  22.605  25.805  1.00  0.00    -0.289 OA
BRANCH  15  17
ATOM     17  C   UNL A   1      31.975  21.113  24.486  1.00  0.00     0.026 A 
ATOM     18  C   UNL A   1      32.114  22.000  22.035  1.00  0.00     0.045 C 
ATOM     19  C   UNL A   1      32.201  20.942  23.100  1.00  0.00    -0.040 A 
ATOM     20  C   UNL A   1      32.541  19.658  22.623  1.00  0.00     0.008 A 
ATOM     21  C   UNL A   1      32.768  18.578  23.480  1.00  0.00    -0.044 A 
ATOM     22  C   UNL A   1      32.169  20.002  25.337  1.00  0.00     0.016 A 
ATOM     23  C   UNL A   1      32.591  18.752  24.855  1.00  0.00    -0.044 A 
ATOM     24  C   UNL A   1      33.153  17.245  22.891  1.00  0.00     0.036 C 
ATOM     25  C   UNL A   1      32.964  17.665  25.831  1.00  0.00     0.036 C 
ATOM     26  C   UNL A   1      33.881  16.356  23.890  1.00  0.00     0.005 C 
ATOM     27  C   UNL A   1      33.094  16.285  25.190  1.00  0.00     0.005 C 
ENDBRANCH  15  17
ENDBRANCH  10  15
ENDBRANCH   6   9
ENDBRANCH   4   5
ENDBRANCH   3   4
ENDBRANCH   2   3
ENDBRANCH   1   2
BRANCH   1  28
ATOM     28  C   UNL A   1      40.144  22.163  27.221  1.00  0.00     0.021 C 
BRANCH  28  29
ATOM     29  C   UNL A   1      41.445  22.952  27.107  1.00  0.00     0.116 C 
BRANCH  29  30
ATOM     30  N   UNL A   1      41.483  23.904  26.011  1.00  0.00    -0.352 N 
ATOM     31  C   UNL A   1      41.438  25.281  26.030  1.00  0.00     0.251 C 
ATOM     32  H   UNL A   1      41.551  23.503  25.114  1.00  0.00     0.163 HD
ATOM     33  O   UNL A   1      41.449  25.899  24.968  1.00  0.00    -0.269 OA
BRANCH  31  34
ATOM     34  C   UNL A   1      41.330  26.030  27.310  1.00  0.00     0.039 A 
ATOM     35  C   UNL A   1      40.262  25.841  28.187  1.00  0.00     0.014 A 
ATOM     36  C   UNL A   1      42.336  26.946  27.642  1.00  0.00     0.014 A 
ATOM     37  C   UNL A   1      40.114  26.682  29.290  1.00  0.00     0.010 A 
ATOM     38  C   UNL A   1      42.219  27.739  28.793  1.00  0.00     0.010 A 
ATOM     39  C   UNL A   1      41.077  27.653  29.601  1.00  0.00    -0.014 A 
BRANCH  39  40
ATOM     40  C   UNL A   1      40.840  28.588  30.738  1.00  0.00     0.031 A 
ATOM     41  C   UNL A   1      41.731  28.549  31.954  1.00  0.00     0.074 A 
ATOM     42  C   UNL A   1      39.873  29.524  30.656  1.00  0.00     0.049 A 
ATOM     43  N   UNL A   1      41.675  29.275  33.043  1.00  0.00    -0.248 NA
ATOM     44  C   UNL A   1      42.828  27.568  31.947  1.00  0.00     0.031 C 
ATOM     45  C   UNL A   1      38.961  29.699  29.524  1.00  0.00     0.029 A 
ATOM     46  N   UNL A   1      39.507  30.517  31.531  1.00  0.00    -0.354 N 
ATOM     47  C   UNL A   1      42.708  28.824  33.857  1.00  0.00     0.074 A 
ATOM     48  C   UNL A   1      43.363  27.747  33.146  1.00  0.00     0.031 C 
ATOM     49  C   UNL A   1      38.170  30.759  29.755  1.00  0.00     0.029 A 
ATOM     50  C   UNL A   1      38.474  31.304  31.075  1.00  0.00     0.049 A 
ATOM     51  H   UNL A   1      39.943  30.655  32.403  1.00  0.00     0.167 HD
ATOM     52  C   UNL A   1      43.085  29.270  35.080  1.00  0.00     0.037 A 
ATOM     53  C   UNL A   1      37.829  32.336  31.656  1.00  0.00     0.037 A 
ATOM     54  C   UNL A   1      42.458  30.364  35.777  1.00  0.00     0.049 A 
ATOM     55  C   UNL A   1      38.234  32.784  33.032  1.00  0.00     0.074 A 
ATOM     56  C   UNL A   1      42.789  30.900  37.010  1.00  0.00     0.029 A 
ATOM     57  N   UNL A   1      41.376  31.091  35.305  1.00  0.00    -0.354 N 
ATOM     58  N   UNL A   1      39.205  32.333  33.791  1.00  0.00    -0.248 NA
ATOM     59  C   UNL A   1      37.449  33.868  33.639  1.00  0.00     0.031 C 
ATOM     60  C   UNL A   1      41.884  31.925  37.301  1.00  0.00     0.029 A 
ATOM     61  C   UNL A   1      41.014  32.056  36.231  1.00  0.00     0.049 A 
ATOM     62  H   UNL A   1      40.931  30.944  34.439  1.00  0.00     0.167 HD
ATOM     63  C   UNL A   1      39.149  33.082  34.962  1.00  0.00     0.074 A 
ATOM     64  C   UNL A   1      38.063  34.028  34.804  1.00  0.00     0.031 C 
ATOM     65  C   UNL A   1      39.926  32.988  36.068  1.00  0.00     0.037 A 
BRANCH  52  66
ATOM     66  C   UNL A   1      44.226  28.566  35.760  1.00  0.00     0.058 A 
ATOM     67  C   UNL A   1      45.557  28.968  35.577  1.00  0.00     0.135 A 
ATOM     68  C   UNL A   1      43.977  27.502  36.644  1.00  0.00     0.135 A 
ATOM     69  F   UNL A   1      45.851  29.968  34.732  1.00  0.00    -0.206 F 
ATOM     70  C   UNL A   1      46.605  28.329  36.232  1.00  0.00     0.059 A 
ATOM     71  C   UNL A   1      45.007  26.863  37.327  1.00  0.00     0.059 A 
ATOM     72  F   UNL A   1      42.721  27.079  36.854  1.00  0.00    -0.206 F 
ATOM     73  C   UNL A   1      46.321  27.278  37.106  1.00  0.00     0.060 A 
BRANCH  73  74
ATOM     74  S   UNL A   1      47.692  26.464  37.955  1.00  0.00     0.124 S 
ATOM     75  O   UNL A   1      48.216  25.602  36.899  1.00  0.00    -0.237 OA
ATOM     76  O   UNL A   1      48.538  27.592  38.331  1.00  0.00    -0.237 OA
ATOM     77  O   UNL A   1      47.043  25.772  39.064  1.00  0.00    -0.744 OA
ENDBRANCH  73  74
ENDBRANCH  52  66
BRANCH  53  78
ATOM     78  C   UNL A   1      36.716  33.006  30.933  1.00  0.00     0.058 A 
ATOM     79  C   UNL A   1      35.379  32.759  31.276  1.00  0.00     0.135 A 
ATOM     80  C   UNL A   1      36.971  33.935  29.913  1.00  0.00     0.135 A 
ATOM     81  F   UNL A   1      35.086  31.870  32.236  1.00  0.00    -0.206 F 
ATOM     82  C   UNL A   1      34.332  33.413  30.636  1.00  0.00     0.059 A 
ATOM     83  C   UNL A   1      35.942  34.619  29.274  1.00  0.00     0.059 A 
ATOM     84  F   UNL A   1      38.234  34.212  29.554  1.00  0.00    -0.206 F 
ATOM     85  C   UNL A   1      34.625  34.350  29.642  1.00  0.00     0.060 A 
BRANCH  85  86
ATOM     86  S   UNL A   1      33.261  35.256  28.879  1.00  0.00     0.124 S 
ATOM     87  O   UNL A   1      33.972  36.316  28.172  1.00  0.00    -0.237 OA
ATOM     88  O   UNL A   1      32.644  34.233  28.041  1.00  0.00    -0.237 OA
ATOM     89  O   UNL A   1      32.461  35.685  30.022  1.00  0.00    -0.744 OA
ENDBRANCH  85  86
ENDBRANCH  53  78
BRANCH  65  90
ATOM     90  C   UNL A   1      39.639  33.932  37.203  1.00  0.00     0.058 A 
ATOM     91  C   UNL A   1      38.836  33.547  38.287  1.00  0.00     0.135 A 
ATOM     92  C   UNL A   1      40.226  35.206  37.240  1.00  0.00     0.135 A 
ATOM     93  F   UNL A   1      38.246  32.341  38.296  1.00  0.00    -0.206 F 
ATOM     94  C   UNL A   1      38.616  34.397  39.366  1.00  0.00     0.059 A 
ATOM     95  C   UNL A   1      40.037  36.065  38.319  1.00  0.00     0.059 A 
ATOM     96  F   UNL A   1      41.009  35.620  36.231  1.00  0.00    -0.206 F 
ATOM     97  C   UNL A   1      39.223  35.654  39.374  1.00  0.00     0.060 A 
BRANCH  97  98
ATOM     98  S   UNL A   1      38.964  36.730  40.800  1.00  0.00     0.124 S 
ATOM     99  O   UNL A   1      38.346  37.897  40.180  1.00  0.00    -0.237 OA
ATOM    100  O   UNL A   1      38.089  35.923  41.646  1.00  0.00    -0.237 OA
ATOM    101  O   UNL A   1      40.312  36.937  41.321  1.00  0.00    -0.744 OA
ENDBRANCH  97  98
ENDBRANCH  65  90
ENDBRANCH  39  40
ENDBRANCH  31  34
ENDBRANCH  29  30
ENDBRANCH  28  29
ENDBRANCH   1  28
TORSDOF 18
ENDMDL
MODEL 2
REMARK VINA RESULT:     -12.7      6.688     12.166
REMARK SMILES Cc1cc2c(cc1C(=O)c1ccccc1C(=O)NCCCCCCNC(=O)c1ccc(-c3c4nc(c(-c5c(F)cc(S(=O)(=O)[O-])cc5F)c5ccc([nH]5)c(-c5c(F)cc(S(=O)(=O)[O-])cc5F)c5nc(c(-c6c(F)cc(S(=O)(=O)[O-])cc6F)c6ccc3[nH]6)C=C5)C=C4)cc1)CCCC2
REMARK SMILES IDX 22 1 21 2 20 3 19 4 18 5 16 6 17 7 15 9 10 10 11 11 12 12
REMARK SMILES IDX 14 13 13 14 8 15 9 16 7 17 1 18 2 19 3 20 4 21 6 22 5 23
REMARK SMILES IDX 97 24 94 25 96 26 95 27 23 28 24 29 25 30 26 31 27 33 28 34
REMARK SMILES IDX 29 35 93 36 30 37 92 38 31 39 32 40 33 41 86 42 34 43 91 44
REMARK SMILES IDX 85 45 87 46 35 47 90 48 84 49 83 50 36 52 70 53 49 54 69 55
REMARK SMILES IDX 50 56 53 57 68 58 88 59 51 60 52 61 67 63 89 64 54 65 37 66
REMARK SMILES IDX 38 67 47 68 39 69 40 70 46 71 48 72 41 73 42 74 43 75 44 76
REMARK SMILES IDX 45 77 71 78 72 79 81 80 73 81 74 82 80 83 82 84 75 85 76 86
REMARK SMILES IDX 77 87 78 88 79 89 55 90 56 91 65 92 57 93 58 94 64 95 66 96
REMARK SMILES IDX 59 97 60 98 61 99 62 100 63 101
REMARK H PARENT 18 8 25 32 87 51 53 62
REMARK Flexibility Score: inf
ROOT
ATOM      1  C   UNL A   1      34.625  29.259  26.932  1.00  0.00     0.002 C 
ENDROOT
BRANCH   1   2
ATOM      2  C   UNL A   1      33.757  28.745  25.781  1.00  0.00     0.002 C 
BRANCH   2   3
ATOM      3  C   UNL A   1      32.269  28.501  26.030  1.00  0.00     0.021 C 
BRANCH   3   4
ATOM      4  C   UNL A   1      31.856  27.670  27.239  1.00  0.00     0.116 C 
BRANCH   4   5
ATOM      5  N   UNL A   1      31.036  26.522  26.988  1.00  0.00    -0.352 N 
ATOM      6  C   UNL A   1      31.286  25.339  26.335  1.00  0.00     0.252 C 
ATOM      7  O   UNL A   1      30.327  24.555  26.329  1.00  0.00    -0.269 OA
ATOM      8  H   UNL A   1      30.123  26.592  27.352  1.00  0.00     0.163 HD
BRANCH   6   9
ATOM      9  C   UNL A   1      32.534  24.905  25.595  1.00  0.00     0.050 A 
ATOM     10  C   UNL A   1      32.907  25.000  24.241  1.00  0.00     0.035 A 
ATOM     11  C   UNL A   1      34.228  24.705  23.821  1.00  0.00     0.013 A 
ATOM     12  C   UNL A   1      35.170  24.204  24.711  1.00  0.00     0.001 A 
ATOM     13  C   UNL A   1      33.523  24.372  26.465  1.00  0.00     0.014 A 
ATOM     14  C   UNL A   1      34.808  24.013  26.033  1.00  0.00     0.001 A 
BRANCH  10  15
ATOM     15  C   UNL A   1      32.052  25.415  23.132  1.00  0.00     0.194 C 
ATOM     16  O   UNL A   1      31.770  24.545  22.312  1.00  0.00    -0.289 OA
BRANCH  15  17
ATOM     17  C   UNL A   1      31.519  26.832  22.998  1.00  0.00     0.026 A 
ATOM     18  C   UNL A   1      33.669  28.043  22.148  1.00  0.00     0.045 C 
ATOM     19  C   UNL A   1      32.216  27.969  22.525  1.00  0.00    -0.040 A 
ATOM     20  C   UNL A   1      31.512  29.184  22.384  1.00  0.00     0.008 A 
ATOM     21  C   UNL A   1      30.133  29.277  22.589  1.00  0.00    -0.044 A 
ATOM     22  C   UNL A   1      30.132  26.951  23.240  1.00  0.00     0.016 A 
ATOM     23  C   UNL A   1      29.430  28.146  23.012  1.00  0.00    -0.044 A 
ATOM     24  C   UNL A   1      29.452  30.608  22.392  1.00  0.00     0.036 C 
ATOM     25  C   UNL A   1      27.925  28.155  23.105  1.00  0.00     0.036 C 
ATOM     26  C   UNL A   1      27.964  30.463  22.108  1.00  0.00     0.005 C 
ATOM     27  C   UNL A   1      27.323  29.558  23.149  1.00  0.00     0.005 C 
ENDBRANCH  15  17
ENDBRANCH  10  15
ENDBRANCH   6   9
ENDBRANCH   4   5
ENDBRANCH   3   4
ENDBRANCH   2   3
ENDBRANCH   1   2
BRANCH   1  28
ATOM     28  C   UNL A   1      34.421  30.694  27.416  1.00  0.00     0.021 C 
BRANCH  28  29
ATOM     29  C   UNL A   1      35.486  31.294  28.329  1.00  0.00     0.116 C 
BRANCH  29  30
ATOM     30  N   UNL A   1      35.436  30.829  29.705  1.00  0.00    -0.352 N 
ATOM     31  C   UNL A   1      36.431  30.303  30.500  1.00  0.00     0.251 C 
ATOM     32  H   UNL A   1      34.554  30.903  30.136  1.00  0.00     0.163 HD
ATOM     33  O   UNL A   1      36.159  29.938  31.642  1.00  0.00    -0.269 OA
BRANCH  31  34
ATOM     34  C   UNL A   1      37.814  30.126  29.986  1.00  0.00     0.039 A 
ATOM     35  C   UNL A   1      38.076  29.903  28.634  1.00  0.00     0.014 A 
ATOM     36  C   UNL A   1      38.882  30.193  30.889  1.00  0.00     0.014 A 
ATOM     37  C   UNL A   1      39.369  29.576  28.223  1.00  0.00     0.010 A 
ATOM     38  C   UNL A   1      40.192  29.936  30.457  1.00  0.00     0.010 A 
ATOM     39  C   UNL A   1      40.442  29.571  29.127  1.00  0.00    -0.014 A 
BRANCH  39  40
ATOM     40  C   UNL A   1      41.790  29.134  28.666  1.00  0.00     0.031 A 
ATOM     41  C   UNL A   1      42.952  30.095  28.693  1.00  0.00     0.074 A 
ATOM     42  C   UNL A   1      41.998  27.855  28.291  1.00  0.00     0.049 A 
ATOM     43  N   UNL A   1      44.194  29.901  28.324  1.00  0.00    -0.248 NA
ATOM     44  C   UNL A   1      42.686  31.451  29.200  1.00  0.00     0.031 C 
ATOM     45  C   UNL A   1      40.973  26.811  28.250  1.00  0.00     0.029 A 
ATOM     46  N   UNL A   1      43.142  27.211  27.890  1.00  0.00    -0.354 N 
ATOM     47  C   UNL A   1      44.848  31.110  28.530  1.00  0.00     0.074 A 
ATOM     48  C   UNL A   1      43.862  32.040  29.038  1.00  0.00     0.031 C 
ATOM     49  C   UNL A   1      41.542  25.650  27.888  1.00  0.00     0.029 A 
ATOM     50  C   UNL A   1      42.958  25.876  27.611  1.00  0.00     0.049 A 
ATOM     51  H   UNL A   1      44.015  27.661  27.811  1.00  0.00     0.167 HD
ATOM     52  C   UNL A   1      46.152  31.419  28.327  1.00  0.00     0.037 A 
ATOM     53  C   UNL A   1      43.820  24.941  27.165  1.00  0.00     0.037 A 
ATOM     54  C   UNL A   1      47.145  30.488  27.855  1.00  0.00     0.049 A 
ATOM     55  C   UNL A   1      45.251  25.317  26.902  1.00  0.00     0.074 A 
ATOM     56  C   UNL A   1      48.496  30.707  27.642  1.00  0.00     0.029 A 
ATOM     57  N   UNL A   1      46.900  29.163  27.526  1.00  0.00    -0.354 N 
ATOM     58  N   UNL A   1      45.846  26.471  27.089  1.00  0.00    -0.248 NA
ATOM     59  C   UNL A   1      46.126  24.272  26.352  1.00  0.00     0.031 C 
ATOM     60  C   UNL A   1      49.059  29.527  27.147  1.00  0.00     0.029 A 
ATOM     61  C   UNL A   1      48.069  28.560  27.091  1.00  0.00     0.049 A 
ATOM     62  H   UNL A   1      46.025  28.718  27.592  1.00  0.00     0.167 HD
ATOM     63  C   UNL A   1      47.164  26.288  26.686  1.00  0.00     0.074 A 
ATOM     64  C   UNL A   1      47.286  24.908  26.263  1.00  0.00     0.031 C 
ATOM     65  C   UNL A   1      48.179  27.187  26.664  1.00  0.00     0.037 A 
BRANCH  52  66
ATOM     66  C   UNL A   1      46.587  32.831  28.599  1.00  0.00     0.058 A 
ATOM     67  C   UNL A   1      47.048  33.233  29.862  1.00  0.00     0.135 A 
ATOM     68  C   UNL A   1      46.587  33.785  27.568  1.00  0.00     0.135 A 
ATOM     69  F   UNL A   1      47.054  32.366  30.886  1.00  0.00    -0.206 F 
ATOM     70  C   UNL A   1      47.475  34.536  30.098  1.00  0.00     0.059 A 
ATOM     71  C   UNL A   1      47.030  35.087  27.775  1.00  0.00     0.059 A 
ATOM     72  F   UNL A   1      46.156  33.452  26.340  1.00  0.00    -0.206 F 
ATOM     73  C   UNL A   1      47.464  35.456  29.049  1.00  0.00     0.060 A 
BRANCH  73  74
ATOM     74  S   UNL A   1      48.029  37.141  29.370  1.00  0.00     0.124 S 
ATOM     75  O   UNL A   1      49.096  37.283  28.382  1.00  0.00    -0.237 OA
ATOM     76  O   UNL A   1      46.825  37.927  29.119  1.00  0.00    -0.237 OA
ATOM     77  O   UNL A   1      48.466  37.095  30.762  1.00  0.00    -0.744 OA
ENDBRANCH  73  74
ENDBRANCH  52  66
BRANCH  53  78
ATOM     78  C   UNL A   1      43.340  23.555  26.925  1.00  0.00     0.058 A 
ATOM     79  C   UNL A   1      43.084  23.093  25.626  1.00  0.00     0.135 A 
ATOM     80  C   UNL A   1      43.166  22.654  27.987  1.00  0.00     0.135 A 
ATOM     81  F   UNL A   1      43.224  23.921  24.580  1.00  0.00    -0.206 F 
ATOM     82  C   UNL A   1      42.676  21.785  25.387  1.00  0.00     0.059 A 
ATOM     83  C   UNL A   1      42.783  21.335  27.771  1.00  0.00     0.059 A 
ATOM     84  F   UNL A   1      43.407  23.046  29.248  1.00  0.00    -0.206 F 
ATOM     85  C   UNL A   1      42.538  20.910  26.467  1.00  0.00     0.060 A 
BRANCH  85  86
ATOM     86  S   UNL A   1      42.093  19.191  26.136  1.00  0.00     0.124 S 
ATOM     87  O   UNL A   1      40.658  19.299  25.899  1.00  0.00    -0.237 OA
ATOM     88  O   UNL A   1      42.912  18.882  24.969  1.00  0.00    -0.237 OA
ATOM     89  O   UNL A   1      42.481  18.501  27.364  1.00  0.00    -0.744 OA
ENDBRANCH  85  86
ENDBRANCH  53  78
BRANCH  65  90
ATOM     90  C   UNL A   1      49.517  26.714  26.169  1.00  0.00     0.058 A 
ATOM     91  C   UNL A   1      49.907  26.896  24.833  1.00  0.00     0.135 A 
ATOM     92  C   UNL A   1      50.443  26.137  27.051  1.00  0.00     0.135 A 
ATOM     93  F   UNL A   1      49.055  27.436  23.948  1.00  0.00    -0.206 F 
ATOM     94  C   UNL A   1      51.167  26.511  24.386  1.00  0.00     0.059 A 
ATOM     95  C   UNL A   1      51.717  25.764  26.630  1.00  0.00     0.059 A 
ATOM     96  F   UNL A   1      50.122  25.948  28.341  1.00  0.00    -0.206 F 
ATOM     97  C   UNL A   1      52.067  25.949  25.293  1.00  0.00     0.060 A 
BRANCH  97  98
ATOM     98  S   UNL A   1      53.714  25.495  24.709  1.00  0.00     0.124 S 
ATOM     99  O   UNL A   1      54.566  26.110  25.721  1.00  0.00    -0.237 OA
ATOM    100  O   UNL A   1      53.660  24.036  24.726  1.00  0.00    -0.237 OA
ATOM    101  O   UNL A   1      53.782  26.098  23.381  1.00  0.00    -0.744 OA
ENDBRANCH  97  98
ENDBRANCH  65  90
ENDBRANCH  39  40
ENDBRANCH  31  34
ENDBRANCH  29  30
ENDBRANCH  28  29
ENDBRANCH   1  28
TORSDOF 18
ENDMDL
MODEL 3
REMARK VINA RESULT:     -12.6      4.911     10.243
REMARK SMILES Cc1cc2c(cc1C(=O)c1ccccc1C(=O)NCCCCCCNC(=O)c1ccc(-c3c4nc(c(-c5c(F)cc(S(=O)(=O)[O-])cc5F)c5ccc([nH]5)c(-c5c(F)cc(S(=O)(=O)[O-])cc5F)c5nc(c(-c6c(F)cc(S(=O)(=O)[O-])cc6F)c6ccc3[nH]6)C=C5)C=C4)cc1)CCCC2
REMARK SMILES IDX 22 1 21 2 20 3 19 4 18 5 16 6 17 7 15 9 10 10 11 11 12 12
REMARK SMILES IDX 14 13 13 14 8 15 9 16 7 17 1 18 2 19 3 20 4 21 6 22 5 23
REMARK SMILES IDX 97 24 94 25 96 26 95 27 23 28 24 29 25 30 26 31 27 33 28 34
REMARK SMILES IDX 29 35 93 36 30 37 92 38 31 39 32 40 33 41 86 42 34 43 91 44
REMARK SMILES IDX 85 45 87 46 35 47 90 48 84 49 83 50 36 52 70 53 49 54 69 55
REMARK SMILES IDX 50 56 53 57 68 58 88 59 51 60 52 61 67 63 89 64 54 65 37 66
REMARK SMILES IDX 38 67 47 68 39 69 40 70 46 71 48 72 41 73 42 74 43 75 44 76
REMARK SMILES IDX 45 77 71 78 72 79 81 80 73 81 74 82 80 83 82 84 75 85 76 86
REMARK SMILES IDX 77 87 78 88 79 89 55 90 56 91 65 92 57 93 58 94 64 95 66 96
REMARK SMILES IDX 59 97 60 98 61 99 62 100 63 101
REMARK H PARENT 18 8 25 32 87 51 53 62
REMARK Flexibility Score: inf
ROOT
ATOM      1  C   UNL A   1      33.021  26.718  25.701  1.00  0.00     0.002 C 
ENDROOT
BRANCH   1   2
ATOM      2  C   UNL A   1      33.996  26.908  24.537  1.00  0.00     0.002 C 
BRANCH   2   3
ATOM      3  C   UNL A   1      34.120  28.290  23.897  1.00  0.00     0.021 C 
BRANCH   3   4
ATOM      4  C   UNL A   1      33.754  28.451  22.426  1.00  0.00     0.116 C 
BRANCH   4   5
ATOM      5  N   UNL A   1      33.514  27.250  21.681  1.00  0.00    -0.352 N 
ATOM      6  C   UNL A   1      32.442  26.392  21.643  1.00  0.00     0.252 C 
ATOM      7  O   UNL A   1      32.581  25.449  20.852  1.00  0.00    -0.269 OA
ATOM      8  H   UNL A   1      34.254  26.992  21.085  1.00  0.00     0.163 HD
BRANCH   6   9
ATOM      9  C   UNL A   1      31.167  26.422  22.460  1.00  0.00     0.050 A 
ATOM     10  C   UNL A   1      30.566  25.468  23.303  1.00  0.00     0.035 A 
ATOM     11  C   UNL A   1      29.468  25.808  24.130  1.00  0.00     0.013 A 
ATOM     12  C   UNL A   1      28.873  27.061  24.056  1.00  0.00     0.001 A 
ATOM     13  C   UNL A   1      30.515  27.683  22.404  1.00  0.00     0.014 A 
ATOM     14  C   UNL A   1      29.383  27.995  23.170  1.00  0.00     0.001 A 
BRANCH  10  15
ATOM     15  C   UNL A   1      30.972  24.074  23.464  1.00  0.00     0.194 C 
ATOM     16  O   UNL A   1      30.311  23.244  22.845  1.00  0.00    -0.289 OA
BRANCH  15  17
ATOM     17  C   UNL A   1      32.152  23.663  24.329  1.00  0.00     0.026 A 
ATOM     18  C   UNL A   1      30.921  23.209  26.584  1.00  0.00     0.045 C 
ATOM     19  C   UNL A   1      32.120  23.242  25.679  1.00  0.00    -0.040 A 
ATOM     20  C   UNL A   1      33.320  22.806  26.281  1.00  0.00     0.008 A 
ATOM     21  C   UNL A   1      34.511  22.671  25.562  1.00  0.00    -0.044 A 
ATOM     22  C   UNL A   1      33.373  23.560  23.625  1.00  0.00     0.016 A 
ATOM     23  C   UNL A   1      34.538  23.042  24.216  1.00  0.00    -0.044 A 
ATOM     24  C   UNL A   1      35.743  22.174  26.275  1.00  0.00     0.036 C 
ATOM     25  C   UNL A   1      35.752  22.779  23.361  1.00  0.00     0.036 C 
ATOM     26  C   UNL A   1      36.762  21.568  25.319  1.00  0.00     0.005 C 
ATOM     27  C   UNL A   1      37.025  22.525  24.166  1.00  0.00     0.005 C 
ENDBRANCH  15  17
ENDBRANCH  10  15
ENDBRANCH   6   9
ENDBRANCH   4   5
ENDBRANCH   3   4
ENDBRANCH   2   3
ENDBRANCH   1   2
BRANCH   1  28
ATOM     28  C   UNL A   1      32.416  27.959  26.358  1.00  0.00     0.021 C 
BRANCH  28  29
ATOM     29  C   UNL A   1      33.044  28.454  27.656  1.00  0.00     0.116 C 
BRANCH  29  30
ATOM     30  N   UNL A   1      33.125  29.899  27.779  1.00  0.00    -0.352 N 
ATOM     31  C   UNL A   1      34.213  30.709  28.023  1.00  0.00     0.251 C 
ATOM     32  H   UNL A   1      32.270  30.373  27.669  1.00  0.00     0.163 HD
ATOM     33  O   UNL A   1      34.050  31.923  28.122  1.00  0.00    -0.269 OA
BRANCH  31  34
ATOM     34  C   UNL A   1      35.572  30.136  28.215  1.00  0.00     0.039 A 
ATOM     35  C   UNL A   1      36.006  29.669  29.455  1.00  0.00     0.014 A 
ATOM     36  C   UNL A   1      36.433  30.061  27.113  1.00  0.00     0.014 A 
ATOM     37  C   UNL A   1      37.341  29.297  29.627  1.00  0.00     0.010 A 
ATOM     38  C   UNL A   1      37.754  29.617  27.276  1.00  0.00     0.010 A 
ATOM     39  C   UNL A   1      38.237  29.280  28.549  1.00  0.00    -0.014 A 
BRANCH  39  40
ATOM     40  C   UNL A   1      39.672  28.960  28.791  1.00  0.00     0.031 A 
ATOM     41  C   UNL A   1      40.576  29.967  29.457  1.00  0.00     0.074 A 
ATOM     42  C   UNL A   1      40.157  27.740  28.483  1.00  0.00     0.049 A 
ATOM     43  N   UNL A   1      41.850  29.874  29.742  1.00  0.00    -0.248 NA
ATOM     44  C   UNL A   1      39.968  31.248  29.855  1.00  0.00     0.031 C 
ATOM     45  C   UNL A   1      39.388  26.657  27.868  1.00  0.00     0.029 A 
ATOM     46  N   UNL A   1      41.406  27.197  28.662  1.00  0.00    -0.354 N 
ATOM     47  C   UNL A   1      42.202  31.085  30.327  1.00  0.00     0.074 A 
ATOM     48  C   UNL A   1      41.011  31.907  30.339  1.00  0.00     0.031 C 
ATOM     49  C   UNL A   1      40.168  25.569  27.758  1.00  0.00     0.029 A 
ATOM     50  C   UNL A   1      41.509  25.892  28.238  1.00  0.00     0.049 A 
ATOM     51  H   UNL A   1      42.159  27.694  29.057  1.00  0.00     0.167 HD
ATOM     52  C   UNL A   1      43.403  31.476  30.821  1.00  0.00     0.037 A 
ATOM     53  C   UNL A   1      42.563  25.052  28.217  1.00  0.00     0.037 A 
ATOM     54  C   UNL A   1      44.582  30.649  30.843  1.00  0.00     0.049 A 
ATOM     55  C   UNL A   1      43.896  25.523  28.727  1.00  0.00     0.074 A 
ATOM     56  C   UNL A   1      45.836  30.955  31.345  1.00  0.00     0.029 A 
ATOM     57  N   UNL A   1      44.656  29.357  30.347  1.00  0.00    -0.354 N 
ATOM     58  N   UNL A   1      44.211  26.678  29.263  1.00  0.00    -0.248 NA
ATOM     59  C   UNL A   1      45.022  24.584  28.616  1.00  0.00     0.031 C 
ATOM     60  C   UNL A   1      46.678  29.862  31.117  1.00  0.00     0.029 A 
ATOM     61  C   UNL A   1      45.939  28.860  30.511  1.00  0.00     0.049 A 
ATOM     62  H   UNL A   1      43.907  28.865  29.938  1.00  0.00     0.167 HD
ATOM     63  C   UNL A   1      45.568  26.602  29.557  1.00  0.00     0.074 A 
ATOM     64  C   UNL A   1      46.011  25.282  29.158  1.00  0.00     0.031 C 
ATOM     65  C   UNL A   1      46.373  27.547  30.103  1.00  0.00     0.037 A 
BRANCH  52  66
ATOM     66  C   UNL A   1      43.512  32.871  31.368  1.00  0.00     0.058 A 
ATOM     67  C   UNL A   1      43.310  33.150  32.728  1.00  0.00     0.135 A 
ATOM     68  C   UNL A   1      43.873  33.937  30.527  1.00  0.00     0.135 A 
ATOM     69  F   UNL A   1      42.948  32.172  33.572  1.00  0.00    -0.206 F 
ATOM     70  C   UNL A   1      43.441  34.441  33.232  1.00  0.00     0.059 A 
ATOM     71  C   UNL A   1      44.032  35.231  31.012  1.00  0.00     0.059 A 
ATOM     72  F   UNL A   1      44.079  33.724  29.217  1.00  0.00    -0.206 F 
ATOM     73  C   UNL A   1      43.803  35.475  32.366  1.00  0.00     0.060 A 
BRANCH  73  74
ATOM     74  S   UNL A   1      43.978  37.142  33.038  1.00  0.00     0.124 S 
ATOM     75  O   UNL A   1      43.901  37.953  31.826  1.00  0.00    -0.237 OA
ATOM     76  O   UNL A   1      42.831  37.238  33.937  1.00  0.00    -0.237 OA
ATOM     77  O   UNL A   1      45.282  37.112  33.691  1.00  0.00    -0.744 OA
ENDBRANCH  73  74
ENDBRANCH  52  66
BRANCH  53  78
ATOM     78  C   UNL A   1      42.396  23.677  27.678  1.00  0.00     0.058 A 
ATOM     79  C   UNL A   1      42.382  23.440  26.296  1.00  0.00     0.135 A 
ATOM     80  C   UNL A   1      42.284  22.571  28.534  1.00  0.00     0.135 A 
ATOM     81  F   UNL A   1      42.473  24.467  25.438  1.00  0.00    -0.206 F 
ATOM     82  C   UNL A   1      42.270  22.152  25.780  1.00  0.00     0.059 A 
ATOM     83  C   UNL A   1      42.195  21.273  28.043  1.00  0.00     0.059 A 
ATOM     84  F   UNL A   1      42.300  22.745  29.865  1.00  0.00    -0.206 F 
ATOM     85  C   UNL A   1      42.186  21.074  26.664  1.00  0.00     0.060 A 
BRANCH  85  86
ATOM     86  S   UNL A   1      42.128  19.401  25.984  1.00  0.00     0.124 S 
ATOM     87  O   UNL A   1      40.704  19.244  25.712  1.00  0.00    -0.237 OA
ATOM     88  O   UNL A   1      42.993  19.516  24.814  1.00  0.00    -0.237 OA
ATOM     89  O   UNL A   1      42.659  18.580  27.068  1.00  0.00    -0.744 OA
ENDBRANCH  85  86
ENDBRANCH  53  78
BRANCH  65  90
ATOM     90  C   UNL A   1      47.820  27.194  30.308  1.00  0.00     0.058 A 
ATOM     91  C   UNL A   1      48.800  27.565  29.376  1.00  0.00     0.135 A 
ATOM     92  C   UNL A   1      48.238  26.540  31.477  1.00  0.00     0.135 A 
ATOM     93  F   UNL A   1      48.451  28.185  28.238  1.00  0.00    -0.206 F 
ATOM     94  C   UNL A   1      50.147  27.290  29.591  1.00  0.00     0.059 A 
ATOM     95  C   UNL A   1      49.582  26.275  31.723  1.00  0.00     0.059 A 
ATOM     96  F   UNL A   1      47.340  26.171  32.405  1.00  0.00    -0.206 F 
ATOM     97  C   UNL A   1      50.529  26.648  30.770  1.00  0.00     0.060 A 
BRANCH  97  98
ATOM     98  S   UNL A   1      52.285  26.337  31.055  1.00  0.00     0.124 S 
ATOM     99  O   UNL A   1      52.795  26.253  29.691  1.00  0.00    -0.237 OA
ATOM    100  O   UNL A   1      52.691  27.517  31.813  1.00  0.00    -0.237 OA
ATOM    101  O   UNL A   1      52.291  25.085  31.806  1.00  0.00    -0.744 OA
ENDBRANCH  97  98
ENDBRANCH  65  90
ENDBRANCH  39  40
ENDBRANCH  31  34
ENDBRANCH  29  30
ENDBRANCH  28  29
ENDBRANCH   1  28
TORSDOF 18
ENDMDL
