MODEL 1
REMARK VINA RESULT:     -11.9      0.000      0.000
REMARK SMILES Cc1c(Br)c(C)c2c(c1Br)O[C@H](C(F)(F)F)C(C(=O)NCCCCCCNC(=O)c1ccc(-c3c4nc(c(-c5c(F)cc(S(=O)(=O)[O-])cc5F)c5ccc([nH]5)c(-c5c(F)cc(S(=O)(=O)[O-])cc5F)c5nc(c(-c6c(F)cc(S(=O)(=O)[O-])cc6F)c6ccc3[nH]6)C=C5)C=C4)cc1)=C2
REMARK SMILES IDX 24 1 23 2 22 3 21 4 20 5 18 6 19 7 17 9 1 10 2 11 3 12 9 13
REMARK SMILES IDX 4 14 5 15 8 16 10 17 6 18 7 19 11 20 96 21 12 22 13 23 14 24
REMARK SMILES IDX 15 25 16 26 25 27 26 28 27 29 28 30 29 32 30 33 31 34 95 35
REMARK SMILES IDX 32 36 94 37 33 38 34 39 35 40 88 41 36 42 93 43 87 44 89 45
REMARK SMILES IDX 37 46 92 47 86 48 85 49 38 51 72 52 51 53 71 54 52 55 55 56
REMARK SMILES IDX 70 57 90 58 53 59 54 60 69 62 91 63 56 64 39 65 40 66 49 67
REMARK SMILES IDX 41 68 42 69 48 70 50 71 43 72 44 73 45 74 46 75 47 76 73 77
REMARK SMILES IDX 74 78 83 79 75 80 76 81 82 82 84 83 77 84 78 85 79 86 80 87
REMARK SMILES IDX 81 88 57 89 58 90 67 91 59 92 60 93 66 94 68 95 61 96 62 97
REMARK SMILES IDX 63 98 64 99 65 100
REMARK H PARENT 20 8 27 31 89 50 55 61
REMARK Flexibility Score: inf
ROOT
ATOM      1  C   UNL A   1      40.793  21.922  27.645  1.00  0.00     0.002 C 
ENDROOT
BRANCH   1   2
ATOM      2  C   UNL A   1      39.872  22.077  26.427  1.00  0.00     0.002 C 
BRANCH   2   3
ATOM      3  C   UNL A   1      38.814  23.181  26.535  1.00  0.00     0.021 C 
BRANCH   3   4
ATOM      4  C   UNL A   1      37.595  22.963  25.643  1.00  0.00     0.116 C 
BRANCH   4   5
ATOM      5  N   UNL A   1      36.419  22.609  26.420  1.00  0.00    -0.352 N 
ATOM      6  C   UNL A   1      35.096  22.886  26.401  1.00  0.00     0.251 C 
ATOM      7  O   UNL A   1      34.434  22.335  27.288  1.00  0.00    -0.270 OA
ATOM      8  H   UNL A   1      36.648  22.003  27.162  1.00  0.00     0.163 HD
BRANCH   6   9
ATOM      9  C   UNL A   1      34.406  23.774  25.416  1.00  0.00     0.067 C 
ATOM     10  C   UNL A   1      31.433  28.684  22.215  1.00  0.00     0.047 C 
ATOM     11  C   UNL A   1      32.120  27.744  23.178  1.00  0.00    -0.019 A 
ATOM     12  C   UNL A   1      32.251  28.068  24.553  1.00  0.00     0.025 A 
ATOM     13  C   UNL A   1      32.595  26.491  22.747  1.00  0.00     0.064 A 
ATOM     14  Br  UNL A   1      31.502  29.722  25.183  1.00  0.00    -0.050 Br
ATOM     15  C   UNL A   1      32.901  27.196  25.466  1.00  0.00    -0.026 A 
ATOM     16  C   UNL A   1      33.234  25.618  23.643  1.00  0.00     0.142 A 
ATOM     17  Br  UNL A   1      32.360  25.902  20.939  1.00  0.00    -0.046 Br
ATOM     18  C   UNL A   1      33.075  27.534  26.932  1.00  0.00     0.046 C 
ATOM     19  C   UNL A   1      33.407  25.964  24.988  1.00  0.00     0.022 A 
ATOM     20  O   UNL A   1      33.729  24.450  23.131  1.00  0.00    -0.474 OA
ATOM     21  C   UNL A   1      34.136  25.020  25.847  1.00  0.00     0.026 C 
ATOM     22  C   UNL A   1      33.973  23.354  24.046  1.00  0.00     0.314 C 
BRANCH  22  23
ATOM     23  C   UNL A   1      32.756  22.412  24.062  1.00  0.00     0.429 C 
ATOM     24  F   UNL A   1      32.020  22.560  22.935  1.00  0.00    -0.167 F 
ATOM     25  F   UNL A   1      33.116  21.108  24.118  1.00  0.00    -0.167 F 
ATOM     26  F   UNL A   1      31.943  22.641  25.118  1.00  0.00    -0.167 F 
ENDBRANCH  22  23
ENDBRANCH   6   9
ENDBRANCH   4   5
ENDBRANCH   3   4
ENDBRANCH   2   3
ENDBRANCH   1   2
BRANCH   1  27
ATOM     27  C   UNL A   1      42.295  22.011  27.358  1.00  0.00     0.021 C 
BRANCH  27  28
ATOM     28  C   UNL A   1      42.882  23.416  27.436  1.00  0.00     0.116 C 
BRANCH  28  29
ATOM     29  N   UNL A   1      42.563  24.211  26.263  1.00  0.00    -0.352 N 
ATOM     30  C   UNL A   1      41.962  25.442  26.189  1.00  0.00     0.251 C 
ATOM     31  H   UNL A   1      42.813  23.810  25.399  1.00  0.00     0.163 HD
ATOM     32  O   UNL A   1      41.606  25.889  25.103  1.00  0.00    -0.269 OA
BRANCH  30  33
ATOM     33  C   UNL A   1      41.727  26.216  27.426  1.00  0.00     0.039 A 
ATOM     34  C   UNL A   1      42.577  27.281  27.727  1.00  0.00     0.014 A 
ATOM     35  C   UNL A   1      40.666  25.894  28.279  1.00  0.00     0.014 A 
ATOM     36  C   UNL A   1      42.328  28.062  28.856  1.00  0.00     0.010 A 
ATOM     37  C   UNL A   1      40.381  26.712  29.370  1.00  0.00     0.010 A 
ATOM     38  C   UNL A   1      41.212  27.802  29.671  1.00  0.00    -0.014 A 
BRANCH  38  39
ATOM     39  C   UNL A   1      40.914  28.667  30.838  1.00  0.00     0.031 A 
ATOM     40  C   UNL A   1      41.743  28.567  32.088  1.00  0.00     0.074 A 
ATOM     41  C   UNL A   1      39.882  29.532  30.775  1.00  0.00     0.049 A 
ATOM     42  N   UNL A   1      41.657  29.265  33.191  1.00  0.00    -0.248 NA
ATOM     43  C   UNL A   1      42.795  27.538  32.111  1.00  0.00     0.031 C 
ATOM     44  C   UNL A   1      38.974  29.680  29.635  1.00  0.00     0.029 A 
ATOM     45  N   UNL A   1      39.428  30.457  31.682  1.00  0.00    -0.354 N 
ATOM     46  C   UNL A   1      42.642  28.765  34.033  1.00  0.00     0.074 A 
ATOM     47  C   UNL A   1      43.272  27.663  33.341  1.00  0.00     0.031 C 
ATOM     48  C   UNL A   1      38.101  30.667  29.894  1.00  0.00     0.029 A 
ATOM     49  C   UNL A   1      38.369  31.206  31.223  1.00  0.00     0.049 A 
ATOM     50  H   UNL A   1      39.822  30.572  32.577  1.00  0.00     0.167 HD
ATOM     51  C   UNL A   1      43.009  29.208  35.259  1.00  0.00     0.037 A 
ATOM     52  C   UNL A   1      37.703  32.224  31.803  1.00  0.00     0.037 A 
ATOM     53  C   UNL A   1      42.393  30.319  35.931  1.00  0.00     0.049 A 
ATOM     54  C   UNL A   1      38.128  32.697  33.165  1.00  0.00     0.074 A 
ATOM     55  C   UNL A   1      42.723  30.873  37.154  1.00  0.00     0.029 A 
ATOM     56  N   UNL A   1      41.324  31.050  35.434  1.00  0.00    -0.354 N 
ATOM     57  N   UNL A   1      39.104  32.255  33.920  1.00  0.00    -0.248 NA
ATOM     58  C   UNL A   1      37.368  33.809  33.755  1.00  0.00     0.031 C 
ATOM     59  C   UNL A   1      41.832  31.920  37.413  1.00  0.00     0.029 A 
ATOM     60  C   UNL A   1      40.971  32.041  36.334  1.00  0.00     0.049 A 
ATOM     61  H   UNL A   1      40.882  30.888  34.570  1.00  0.00     0.167 HD
ATOM     62  C   UNL A   1      39.092  33.047  35.062  1.00  0.00     0.074 A 
ATOM     63  C   UNL A   1      38.014  34.001  34.898  1.00  0.00     0.031 C 
ATOM     64  C   UNL A   1      39.903  32.991  36.146  1.00  0.00     0.037 A 
BRANCH  51  65
ATOM     65  C   UNL A   1      44.149  28.504  35.940  1.00  0.00     0.058 A 
ATOM     66  C   UNL A   1      45.477  28.914  35.746  1.00  0.00     0.135 A 
ATOM     67  C   UNL A   1      43.912  27.442  36.827  1.00  0.00     0.135 A 
ATOM     68  F   UNL A   1      45.759  29.915  34.897  1.00  0.00    -0.206 F 
ATOM     69  C   UNL A   1      46.534  28.282  36.390  1.00  0.00     0.059 A 
ATOM     70  C   UNL A   1      44.953  26.811  37.502  1.00  0.00     0.059 A 
ATOM     71  F   UNL A   1      42.660  27.010  37.047  1.00  0.00    -0.206 F 
ATOM     72  C   UNL A   1      46.263  27.230  37.266  1.00  0.00     0.060 A 
BRANCH  72  73
ATOM     73  S   UNL A   1      47.648  26.426  38.099  1.00  0.00     0.124 S 
ATOM     74  O   UNL A   1      47.114  25.086  38.322  1.00  0.00    -0.237 OA
ATOM     75  O   UNL A   1      48.711  26.526  37.104  1.00  0.00    -0.237 OA
ATOM     76  O   UNL A   1      47.838  27.233  39.300  1.00  0.00    -0.744 OA
ENDBRANCH  72  73
ENDBRANCH  51  65
BRANCH  52  77
ATOM     77  C   UNL A   1      36.604  32.899  31.065  1.00  0.00     0.058 A 
ATOM     78  C   UNL A   1      35.274  32.776  31.494  1.00  0.00     0.135 A 
ATOM     79  C   UNL A   1      36.859  33.708  29.948  1.00  0.00     0.135 A 
ATOM     80  F   UNL A   1      34.980  32.010  32.556  1.00  0.00    -0.206 F 
ATOM     81  C   UNL A   1      34.235  33.428  30.839  1.00  0.00     0.059 A 
ATOM     82  C   UNL A   1      35.838  34.385  29.288  1.00  0.00     0.059 A 
ATOM     83  F   UNL A   1      38.117  33.870  29.508  1.00  0.00    -0.206 F 
ATOM     84  C   UNL A   1      34.527  34.236  29.739  1.00  0.00     0.060 A 
BRANCH  84  85
ATOM     85  S   UNL A   1      33.177  35.128  28.937  1.00  0.00     0.124 S 
ATOM     86  O   UNL A   1      33.881  36.264  28.353  1.00  0.00    -0.237 OA
ATOM     87  O   UNL A   1      32.672  34.136  27.994  1.00  0.00    -0.237 OA
ATOM     88  O   UNL A   1      32.279  35.442  30.045  1.00  0.00    -0.744 OA
ENDBRANCH  84  85
ENDBRANCH  52  77
BRANCH  64  89
ATOM     89  C   UNL A   1      39.681  33.989  37.244  1.00  0.00     0.058 A 
ATOM     90  C   UNL A   1      38.875  33.687  38.351  1.00  0.00     0.135 A 
ATOM     91  C   UNL A   1      40.380  35.207  37.247  1.00  0.00     0.135 A 
ATOM     92  F   UNL A   1      38.182  32.538  38.389  1.00  0.00    -0.206 F 
ATOM     93  C   UNL A   1      38.780  34.554  39.434  1.00  0.00     0.059 A 
ATOM     94  C   UNL A   1      40.314  36.081  38.328  1.00  0.00     0.059 A 
ATOM     95  F   UNL A   1      41.169  35.537  36.212  1.00  0.00    -0.206 F 
ATOM     96  C   UNL A   1      39.513  35.744  39.419  1.00  0.00     0.060 A 
BRANCH  96  97
ATOM     97  S   UNL A   1      39.452  36.812  40.873  1.00  0.00     0.124 S 
ATOM     98  O   UNL A   1      38.624  36.027  41.781  1.00  0.00    -0.237 OA
ATOM     99  O   UNL A   1      40.862  36.924  41.236  1.00  0.00    -0.237 OA
ATOM    100  O   UNL A   1      38.842  38.039  40.368  1.00  0.00    -0.744 OA
ENDBRANCH  96  97
ENDBRANCH  64  89
ENDBRANCH  38  39
ENDBRANCH  30  33
ENDBRANCH  28  29
ENDBRANCH  27  28
ENDBRANCH   1  27
TORSDOF 17
ENDMDL
MODEL 2
REMARK VINA RESULT:     -11.9      1.474      2.661
REMARK SMILES Cc1c(Br)c(C)c2c(c1Br)O[C@H](C(F)(F)F)C(C(=O)NCCCCCCNC(=O)c1ccc(-c3c4nc(c(-c5c(F)cc(S(=O)(=O)[O-])cc5F)c5ccc([nH]5)c(-c5c(F)cc(S(=O)(=O)[O-])cc5F)c5nc(c(-c6c(F)cc(S(=O)(=O)[O-])cc6F)c6ccc3[nH]6)C=C5)C=C4)cc1)=C2
REMARK SMILES IDX 24 1 23 2 22 3 21 4 20 5 18 6 19 7 17 9 1 10 2 11 3 12 9 13
REMARK SMILES IDX 4 14 5 15 8 16 10 17 6 18 7 19 11 20 96 21 12 22 13 23 14 24
REMARK SMILES IDX 15 25 16 26 25 27 26 28 27 29 28 30 29 32 30 33 31 34 95 35
REMARK SMILES IDX 32 36 94 37 33 38 34 39 35 40 88 41 36 42 93 43 87 44 89 45
REMARK SMILES IDX 37 46 92 47 86 48 85 49 38 51 72 52 51 53 71 54 52 55 55 56
REMARK SMILES IDX 70 57 90 58 53 59 54 60 69 62 91 63 56 64 39 65 40 66 49 67
REMARK SMILES IDX 41 68 42 69 48 70 50 71 43 72 44 73 45 74 46 75 47 76 73 77
REMARK SMILES IDX 74 78 83 79 75 80 76 81 82 82 84 83 77 84 78 85 79 86 80 87
REMARK SMILES IDX 81 88 57 89 58 90 67 91 59 92 60 93 66 94 68 95 61 96 62 97
REMARK SMILES IDX 63 98 64 99 65 100
REMARK H PARENT 20 8 27 31 89 50 55 61
REMARK Flexibility Score: inf
ROOT
ATOM      1  C   UNL A   1      37.006  23.073  25.062  1.00  0.00     0.002 C 
ENDROOT
BRANCH   1   2
ATOM      2  C   UNL A   1      35.794  22.134  25.120  1.00  0.00     0.002 C 
BRANCH   2   3
ATOM      3  C   UNL A   1      34.695  22.535  26.110  1.00  0.00     0.021 C 
BRANCH   3   4
ATOM      4  C   UNL A   1      33.474  23.179  25.458  1.00  0.00     0.116 C 
BRANCH   4   5
ATOM      5  N   UNL A   1      33.684  23.410  24.039  1.00  0.00    -0.352 N 
ATOM      6  C   UNL A   1      33.404  24.379  23.139  1.00  0.00     0.251 C 
ATOM      7  O   UNL A   1      33.793  24.152  21.988  1.00  0.00    -0.270 OA
ATOM      8  H   UNL A   1      34.159  22.657  23.619  1.00  0.00     0.163 HD
BRANCH   6   9
ATOM      9  C   UNL A   1      32.687  25.659  23.431  1.00  0.00     0.067 C 
ATOM     10  C   UNL A   1      30.753  31.566  25.564  1.00  0.00     0.047 C 
ATOM     11  C   UNL A   1      31.431  30.254  25.247  1.00  0.00    -0.019 A 
ATOM     12  C   UNL A   1      32.577  29.827  25.968  1.00  0.00     0.025 A 
ATOM     13  C   UNL A   1      30.908  29.389  24.267  1.00  0.00     0.064 A 
ATOM     14  Br  UNL A   1      33.235  30.940  27.390  1.00  0.00    -0.050 Br
ATOM     15  C   UNL A   1      33.227  28.600  25.675  1.00  0.00    -0.026 A 
ATOM     16  C   UNL A   1      31.541  28.170  23.974  1.00  0.00     0.142 A 
ATOM     17  Br  UNL A   1      29.297  29.812  23.321  1.00  0.00    -0.046 Br
ATOM     18  C   UNL A   1      34.465  28.138  26.414  1.00  0.00     0.046 C 
ATOM     19  C   UNL A   1      32.699  27.776  24.652  1.00  0.00     0.022 A 
ATOM     20  O   UNL A   1      31.009  27.419  22.961  1.00  0.00    -0.474 OA
ATOM     21  C   UNL A   1      33.332  26.514  24.246  1.00  0.00     0.026 C 
ATOM     22  C   UNL A   1      31.322  26.006  22.925  1.00  0.00     0.314 C 
BRANCH  22  23
ATOM     23  C   UNL A   1      30.202  25.209  23.618  1.00  0.00     0.429 C 
ATOM     24  F   UNL A   1      29.047  25.917  23.630  1.00  0.00    -0.167 F 
ATOM     25  F   UNL A   1      29.932  24.043  22.984  1.00  0.00    -0.167 F 
ATOM     26  F   UNL A   1      30.508  24.900  24.898  1.00  0.00    -0.167 F 
ENDBRANCH  22  23
ENDBRANCH   6   9
ENDBRANCH   4   5
ENDBRANCH   3   4
ENDBRANCH   2   3
ENDBRANCH   1   2
BRANCH   1  27
ATOM     27  C   UNL A   1      38.084  22.834  26.123  1.00  0.00     0.021 C 
BRANCH  27  28
ATOM     28  C   UNL A   1      38.787  24.092  26.620  1.00  0.00     0.116 C 
BRANCH  28  29
ATOM     29  N   UNL A   1      40.139  24.206  26.102  1.00  0.00    -0.352 N 
ATOM     30  C   UNL A   1      41.094  25.151  26.379  1.00  0.00     0.251 C 
ATOM     31  H   UNL A   1      40.408  23.508  25.462  1.00  0.00     0.163 HD
ATOM     32  O   UNL A   1      42.125  25.199  25.713  1.00  0.00    -0.269 OA
BRANCH  30  33
ATOM     33  C   UNL A   1      40.866  26.125  27.467  1.00  0.00     0.039 A 
ATOM     34  C   UNL A   1      39.937  25.817  28.463  1.00  0.00     0.014 A 
ATOM     35  C   UNL A   1      41.572  27.332  27.506  1.00  0.00     0.014 A 
ATOM     36  C   UNL A   1      39.759  26.696  29.532  1.00  0.00     0.010 A 
ATOM     37  C   UNL A   1      41.439  28.177  28.606  1.00  0.00     0.010 A 
ATOM     38  C   UNL A   1      40.528  27.868  29.627  1.00  0.00    -0.014 A 
BRANCH  38  39
ATOM     39  C   UNL A   1      40.379  28.774  30.793  1.00  0.00     0.031 A 
ATOM     40  C   UNL A   1      41.279  28.627  31.987  1.00  0.00     0.074 A 
ATOM     41  C   UNL A   1      39.418  29.719  30.778  1.00  0.00     0.049 A 
ATOM     42  N   UNL A   1      41.323  29.347  33.078  1.00  0.00    -0.248 NA
ATOM     43  C   UNL A   1      42.244  27.515  31.964  1.00  0.00     0.031 C 
ATOM     44  C   UNL A   1      38.450  29.922  29.698  1.00  0.00     0.029 A 
ATOM     45  N   UNL A   1      39.101  30.692  31.692  1.00  0.00    -0.354 N 
ATOM     46  C   UNL A   1      42.319  28.783  33.865  1.00  0.00     0.074 A 
ATOM     47  C   UNL A   1      42.811  27.621  33.156  1.00  0.00     0.031 C 
ATOM     48  C   UNL A   1      37.679  30.981  29.991  1.00  0.00     0.029 A 
ATOM     49  C   UNL A   1      38.078  31.517  31.288  1.00  0.00     0.049 A 
ATOM     50  H   UNL A   1      39.562  30.790  32.557  1.00  0.00     0.167 HD
ATOM     51  C   UNL A   1      42.802  29.213  35.054  1.00  0.00     0.037 A 
ATOM     52  C   UNL A   1      37.536  32.596  31.888  1.00  0.00     0.037 A 
ATOM     53  C   UNL A   1      42.323  30.383  35.741  1.00  0.00     0.049 A 
ATOM     54  C   UNL A   1      38.088  33.055  33.208  1.00  0.00     0.074 A 
ATOM     55  C   UNL A   1      42.778  30.927  36.928  1.00  0.00     0.029 A 
ATOM     56  N   UNL A   1      41.285  31.190  35.299  1.00  0.00    -0.354 N 
ATOM     57  N   UNL A   1      39.074  32.547  33.908  1.00  0.00    -0.248 NA
ATOM     58  C   UNL A   1      37.461  34.235  33.823  1.00  0.00     0.031 C 
ATOM     59  C   UNL A   1      41.994  32.047  37.221  1.00  0.00     0.029 A 
ATOM     60  C   UNL A   1      41.075  32.221  36.198  1.00  0.00     0.049 A 
ATOM     61  H   UNL A   1      40.775  31.050  34.469  1.00  0.00     0.167 HD
ATOM     62  C   UNL A   1      39.202  33.356  35.031  1.00  0.00     0.074 A 
ATOM     63  C   UNL A   1      38.195  34.392  34.917  1.00  0.00     0.031 C 
ATOM     64  C   UNL A   1      40.076  33.251  36.060  1.00  0.00     0.037 A 
BRANCH  51  65
ATOM     65  C   UNL A   1      43.924  28.430  35.674  1.00  0.00     0.058 A 
ATOM     66  C   UNL A   1      43.671  27.387  36.578  1.00  0.00     0.135 A 
ATOM     67  C   UNL A   1      45.260  28.692  35.331  1.00  0.00     0.135 A 
ATOM     68  F   UNL A   1      42.412  27.106  36.952  1.00  0.00    -0.206 F 
ATOM     69  C   UNL A   1      44.703  26.644  37.139  1.00  0.00     0.059 A 
ATOM     70  C   UNL A   1      46.308  27.944  35.861  1.00  0.00     0.059 A 
ATOM     71  F   UNL A   1      45.557  29.680  34.472  1.00  0.00    -0.206 F 
ATOM     72  C   UNL A   1      46.020  26.930  36.775  1.00  0.00     0.060 A 
BRANCH  72  73
ATOM     73  S   UNL A   1      47.346  25.951  37.507  1.00  0.00     0.124 S 
ATOM     74  O   UNL A   1      48.214  25.729  36.354  1.00  0.00    -0.237 OA
ATOM     75  O   UNL A   1      47.871  26.850  38.530  1.00  0.00    -0.237 OA
ATOM     76  O   UNL A   1      46.657  24.766  38.010  1.00  0.00    -0.744 OA
ENDBRANCH  72  73
ENDBRANCH  51  65
BRANCH  52  77
ATOM     77  C   UNL A   1      36.448  33.346  31.209  1.00  0.00     0.058 A 
ATOM     78  C   UNL A   1      36.716  34.124  30.072  1.00  0.00     0.135 A 
ATOM     79  C   UNL A   1      35.119  33.271  31.651  1.00  0.00     0.135 A 
ATOM     80  F   UNL A   1      37.973  34.229  29.613  1.00  0.00    -0.206 F 
ATOM     81  C   UNL A   1      35.706  34.804  29.401  1.00  0.00     0.059 A 
ATOM     82  C   UNL A   1      34.089  33.928  30.985  1.00  0.00     0.059 A 
ATOM     83  F   UNL A   1      34.809  32.528  32.725  1.00  0.00    -0.206 F 
ATOM     84  C   UNL A   1      34.393  34.697  29.862  1.00  0.00     0.060 A 
BRANCH  84  85
ATOM     85  S   UNL A   1      33.082  35.533  28.943  1.00  0.00     0.124 S 
ATOM     86  O   UNL A   1      33.839  36.531  28.195  1.00  0.00    -0.237 OA
ATOM     87  O   UNL A   1      32.514  34.442  28.159  1.00  0.00    -0.237 OA
ATOM     88  O   UNL A   1      32.216  36.055  29.996  1.00  0.00    -0.744 OA
ENDBRANCH  84  85
ENDBRANCH  52  77
BRANCH  64  89
ATOM     89  C   UNL A   1      40.009  34.283  37.148  1.00  0.00     0.058 A 
ATOM     90  C   UNL A   1      40.648  35.524  37.015  1.00  0.00     0.135 A 
ATOM     91  C   UNL A   1      39.196  34.074  38.274  1.00  0.00     0.135 A 
ATOM     92  F   UNL A   1      41.441  35.766  35.960  1.00  0.00    -0.206 F 
ATOM     93  C   UNL A   1      40.473  36.531  37.957  1.00  0.00     0.059 A 
ATOM     94  C   UNL A   1      38.992  35.075  39.219  1.00  0.00     0.059 A 
ATOM     95  F   UNL A   1      38.559  32.905  38.441  1.00  0.00    -0.206 F 
ATOM     96  C   UNL A   1      39.633  36.302  39.050  1.00  0.00     0.060 A 
BRANCH  96  97
ATOM     97  S   UNL A   1      39.341  37.653  40.212  1.00  0.00     0.124 S 
ATOM     98  O   UNL A   1      38.236  38.358  39.573  1.00  0.00    -0.237 OA
ATOM     99  O   UNL A   1      39.013  36.940  41.443  1.00  0.00    -0.237 OA
ATOM    100  O   UNL A   1      40.615  38.367  40.229  1.00  0.00    -0.744 OA
ENDBRANCH  96  97
ENDBRANCH  64  89
ENDBRANCH  38  39
ENDBRANCH  30  33
ENDBRANCH  28  29
ENDBRANCH  27  28
ENDBRANCH   1  27
TORSDOF 17
ENDMDL
MODEL 3
REMARK VINA RESULT:     -11.7      6.565     12.059
REMARK SMILES Cc1c(Br)c(C)c2c(c1Br)O[C@H](C(F)(F)F)C(C(=O)NCCCCCCNC(=O)c1ccc(-c3c4nc(c(-c5c(F)cc(S(=O)(=O)[O-])cc5F)c5ccc([nH]5)c(-c5c(F)cc(S(=O)(=O)[O-])cc5F)c5nc(c(-c6c(F)cc(S(=O)(=O)[O-])cc6F)c6ccc3[nH]6)C=C5)C=C4)cc1)=C2
REMARK SMILES IDX 24 1 23 2 22 3 21 4 20 5 18 6 19 7 17 9 1 10 2 11 3 12 9 13
REMARK SMILES IDX 4 14 5 15 8 16 10 17 6 18 7 19 11 20 96 21 12 22 13 23 14 24
REMARK SMILES IDX 15 25 16 26 25 27 26 28 27 29 28 30 29 32 30 33 31 34 95 35
REMARK SMILES IDX 32 36 94 37 33 38 34 39 35 40 88 41 36 42 93 43 87 44 89 45
REMARK SMILES IDX 37 46 92 47 86 48 85 49 38 51 72 52 51 53 71 54 52 55 55 56
REMARK SMILES IDX 70 57 90 58 53 59 54 60 69 62 91 63 56 64 39 65 40 66 49 67
REMARK SMILES IDX 41 68 42 69 48 70 50 71 43 72 44 73 45 74 46 75 47 76 73 77
REMARK SMILES IDX 74 78 83 79 75 80 76 81 82 82 84 83 77 84 78 85 79 86 80 87
REMARK SMILES IDX 81 88 57 89 58 90 67 91 59 92 60 93 66 94 68 95 61 96 62 97
REMARK SMILES IDX 63 98 64 99 65 100
REMARK H PARENT 20 8 27 31 89 50 55 61
REMARK Flexibility Score: inf
ROOT
ATOM      1  C   UNL A   1      35.146  31.583  27.645  1.00  0.00     0.002 C 
ENDROOT
BRANCH   1   2
ATOM      2  C   UNL A   1      33.613  31.525  27.673  1.00  0.00     0.002 C 
BRANCH   2   3
ATOM      3  C   UNL A   1      32.994  30.205  27.200  1.00  0.00     0.021 C 
BRANCH   3   4
ATOM      4  C   UNL A   1      34.015  29.169  26.736  1.00  0.00     0.116 C 
BRANCH   4   5
ATOM      5  N   UNL A   1      34.034  29.045  25.289  1.00  0.00    -0.352 N 
ATOM      6  C   UNL A   1      33.781  28.086  24.371  1.00  0.00     0.251 C 
ATOM      7  O   UNL A   1      33.923  28.437  23.194  1.00  0.00    -0.270 OA
ATOM      8  H   UNL A   1      34.305  29.889  24.860  1.00  0.00     0.163 HD
BRANCH   6   9
ATOM      9  C   UNL A   1      33.354  26.684  24.671  1.00  0.00     0.067 C 
ATOM     10  C   UNL A   1      32.959  20.244  25.919  1.00  0.00     0.047 C 
ATOM     11  C   UNL A   1      33.339  21.673  25.606  1.00  0.00    -0.019 A 
ATOM     12  C   UNL A   1      34.655  22.009  25.194  1.00  0.00     0.025 A 
ATOM     13  C   UNL A   1      32.380  22.702  25.657  1.00  0.00     0.064 A 
ATOM     14  Br  UNL A   1      35.948  20.600  25.005  1.00  0.00    -0.050 Br
ATOM     15  C   UNL A   1      35.026  23.349  24.904  1.00  0.00    -0.026 A 
ATOM     16  C   UNL A   1      32.735  24.030  25.366  1.00  0.00     0.142 A 
ATOM     17  Br  UNL A   1      30.548  22.339  26.082  1.00  0.00    -0.046 Br
ATOM     18  C   UNL A   1      36.430  23.733  24.488  1.00  0.00     0.046 C 
ATOM     19  C   UNL A   1      34.046  24.365  25.009  1.00  0.00     0.022 A 
ATOM     20  O   UNL A   1      31.761  24.981  25.505  1.00  0.00    -0.474 OA
ATOM     21  C   UNL A   1      34.348  25.784  24.777  1.00  0.00     0.026 C 
ATOM     22  C   UNL A   1      31.932  26.237  24.806  1.00  0.00     0.314 C 
BRANCH  22  23
ATOM     23  C   UNL A   1      31.186  26.187  23.460  1.00  0.00     0.429 C 
ATOM     24  F   UNL A   1      30.577  27.369  23.206  1.00  0.00    -0.167 F 
ATOM     25  F   UNL A   1      32.019  25.951  22.419  1.00  0.00    -0.167 F 
ATOM     26  F   UNL A   1      30.239  25.222  23.433  1.00  0.00    -0.167 F 
ENDBRANCH  22  23
ENDBRANCH   6   9
ENDBRANCH   4   5
ENDBRANCH   3   4
ENDBRANCH   2   3
ENDBRANCH   1   2
BRANCH   1  27
ATOM     27  C   UNL A   1      35.772  32.861  28.212  1.00  0.00     0.021 C 
BRANCH  27  28
ATOM     28  C   UNL A   1      36.619  32.662  29.464  1.00  0.00     0.116 C 
BRANCH  28  29
ATOM     29  N   UNL A   1      36.136  31.564  30.284  1.00  0.00    -0.352 N 
ATOM     30  C   UNL A   1      36.689  30.324  30.480  1.00  0.00     0.251 C 
ATOM     31  H   UNL A   1      35.295  31.734  30.766  1.00  0.00     0.163 HD
ATOM     32  O   UNL A   1      36.052  29.452  31.066  1.00  0.00    -0.269 OA
BRANCH  30  33
ATOM     33  C   UNL A   1      38.043  30.036  29.964  1.00  0.00     0.039 A 
ATOM     34  C   UNL A   1      39.100  29.923  30.869  1.00  0.00     0.014 A 
ATOM     35  C   UNL A   1      38.265  29.871  28.592  1.00  0.00     0.014 A 
ATOM     36  C   UNL A   1      40.371  29.587  30.402  1.00  0.00     0.010 A 
ATOM     37  C   UNL A   1      39.519  29.474  28.136  1.00  0.00     0.010 A 
ATOM     38  C   UNL A   1      40.586  29.332  29.037  1.00  0.00    -0.014 A 
BRANCH  38  39
ATOM     39  C   UNL A   1      41.924  28.918  28.550  1.00  0.00     0.031 A 
ATOM     40  C   UNL A   1      43.052  29.910  28.493  1.00  0.00     0.074 A 
ATOM     41  C   UNL A   1      42.116  27.647  28.141  1.00  0.00     0.049 A 
ATOM     42  N   UNL A   1      44.295  29.724  28.133  1.00  0.00    -0.248 NA
ATOM     43  C   UNL A   1      42.739  31.298  28.872  1.00  0.00     0.031 C 
ATOM     44  C   UNL A   1      41.084  26.609  28.100  1.00  0.00     0.029 A 
ATOM     45  N   UNL A   1      43.245  27.009  27.693  1.00  0.00    -0.354 N 
ATOM     46  C   UNL A   1      44.912  30.963  28.247  1.00  0.00     0.074 A 
ATOM     47  C   UNL A   1      43.893  31.908  28.648  1.00  0.00     0.031 C 
ATOM     48  C   UNL A   1      41.636  25.455  27.694  1.00  0.00     0.029 A 
ATOM     49  C   UNL A   1      43.054  25.674  27.423  1.00  0.00     0.049 A 
ATOM     50  H   UNL A   1      44.110  27.463  27.575  1.00  0.00     0.167 HD
ATOM     51  C   UNL A   1      46.217  31.276  28.067  1.00  0.00     0.037 A 
ATOM     52  C   UNL A   1      43.927  24.729  27.021  1.00  0.00     0.037 A 
ATOM     53  C   UNL A   1      47.228  30.325  27.692  1.00  0.00     0.049 A 
ATOM     54  C   UNL A   1      45.371  25.101  26.826  1.00  0.00     0.074 A 
ATOM     55  C   UNL A   1      48.585  30.535  27.529  1.00  0.00     0.029 A 
ATOM     56  N   UNL A   1      46.993  28.985  27.426  1.00  0.00    -0.354 N 
ATOM     57  N   UNL A   1      45.950  26.264  27.001  1.00  0.00    -0.248 NA
ATOM     58  C   UNL A   1      46.282  24.036  26.384  1.00  0.00     0.031 C 
ATOM     59  C   UNL A   1      49.168  29.327  27.133  1.00  0.00     0.029 A 
ATOM     60  C   UNL A   1      48.179  28.357  27.085  1.00  0.00     0.049 A 
ATOM     61  H   UNL A   1      46.114  28.545  27.473  1.00  0.00     0.167 HD
ATOM     62  C   UNL A   1      47.296  26.068  26.715  1.00  0.00     0.074 A 
ATOM     63  C   UNL A   1      47.448  24.671  26.359  1.00  0.00     0.031 C 
ATOM     64  C   UNL A   1      48.313  26.962  26.747  1.00  0.00     0.037 A 
BRANCH  51  65
ATOM     65  C   UNL A   1      46.629  32.702  28.301  1.00  0.00     0.058 A 
ATOM     66  C   UNL A   1      47.108  33.125  29.551  1.00  0.00     0.135 A 
ATOM     67  C   UNL A   1      46.587  33.644  27.261  1.00  0.00     0.135 A 
ATOM     68  F   UNL A   1      47.154  32.267  30.584  1.00  0.00    -0.206 F 
ATOM     69  C   UNL A   1      47.511  34.437  29.769  1.00  0.00     0.059 A 
ATOM     70  C   UNL A   1      47.010  34.957  27.450  1.00  0.00     0.059 A 
ATOM     71  F   UNL A   1      46.136  33.291  26.047  1.00  0.00    -0.206 F 
ATOM     72  C   UNL A   1      47.458  35.347  28.712  1.00  0.00     0.060 A 
BRANCH  72  73
ATOM     73  S   UNL A   1      47.993  37.044  29.012  1.00  0.00     0.124 S 
ATOM     74  O   UNL A   1      48.595  36.929  30.337  1.00  0.00    -0.237 OA
ATOM     75  O   UNL A   1      48.924  37.278  27.912  1.00  0.00    -0.237 OA
ATOM     76  O   UNL A   1      46.751  37.809  28.951  1.00  0.00    -0.744 OA
ENDBRANCH  72  73
ENDBRANCH  51  65
BRANCH  52  77
ATOM     77  C   UNL A   1      43.464  23.330  26.835  1.00  0.00     0.058 A 
ATOM     78  C   UNL A   1      43.346  22.780  25.550  1.00  0.00     0.135 A 
ATOM     79  C   UNL A   1      43.170  22.503  27.929  1.00  0.00     0.135 A 
ATOM     80  F   UNL A   1      43.614  23.533  24.471  1.00  0.00    -0.206 F 
ATOM     81  C   UNL A   1      42.950  21.461  25.355  1.00  0.00     0.059 A 
ATOM     82  C   UNL A   1      42.789  21.176  27.761  1.00  0.00     0.059 A 
ATOM     83  F   UNL A   1      43.282  22.978  29.180  1.00  0.00    -0.206 F 
ATOM     84  C   UNL A   1      42.677  20.664  26.468  1.00  0.00     0.060 A 
BRANCH  84  85
ATOM     85  S   UNL A   1      42.225  18.936  26.204  1.00  0.00     0.124 S 
ATOM     86  O   UNL A   1      40.828  19.056  25.803  1.00  0.00    -0.237 OA
ATOM     87  O   UNL A   1      43.158  18.532  25.157  1.00  0.00    -0.237 OA
ATOM     88  O   UNL A   1      42.458  18.325  27.509  1.00  0.00    -0.744 OA
ENDBRANCH  84  85
ENDBRANCH  52  77
BRANCH  64  89
ATOM     89  C   UNL A   1      49.690  26.474  26.406  1.00  0.00     0.058 A 
ATOM     90  C   UNL A   1      50.182  26.541  25.095  1.00  0.00     0.135 A 
ATOM     91  C   UNL A   1      50.566  26.055  27.421  1.00  0.00     0.135 A 
ATOM     92  F   UNL A   1      49.380  26.929  24.091  1.00  0.00    -0.206 F 
ATOM     93  C   UNL A   1      51.503  26.221  24.801  1.00  0.00     0.059 A 
ATOM     94  C   UNL A   1      51.896  25.748  27.152  1.00  0.00     0.059 A 
ATOM     95  F   UNL A   1      50.142  25.982  28.692  1.00  0.00    -0.206 F 
ATOM     96  C   UNL A   1      52.356  25.837  25.839  1.00  0.00     0.060 A 
BRANCH  96  97
ATOM     97  S   UNL A   1      54.091  25.518  25.455  1.00  0.00     0.124 S 
ATOM     98  O   UNL A   1      54.009  24.236  24.764  1.00  0.00    -0.237 OA
ATOM     99  O   UNL A   1      54.443  26.666  24.624  1.00  0.00    -0.237 OA
ATOM    100  O   UNL A   1      54.729  25.484  26.768  1.00  0.00    -0.744 OA
ENDBRANCH  96  97
ENDBRANCH  64  89
ENDBRANCH  38  39
ENDBRANCH  30  33
ENDBRANCH  28  29
ENDBRANCH  27  28
ENDBRANCH   1  27
TORSDOF 17
ENDMDL
