MODEL 1
REMARK VINA RESULT:     -12.6      0.000      0.000
REMARK SMILES Cc1cc(C)c(NS(=O)(=O)c2cccc3cc(C)cnc23)c(C(=O)NCCCCCCNC(=O)c2ccc(-c3c4nc(c(-c5c(F)cc(S(=O)(=O)[O-])cc5F)c5ccc([nH]5)c(-c5c(F)cc(S(=O)(=O)[O-])cc5F)c5nc(c(-c6c(F)cc(S(=O)(=O)[O-])cc6F)c6ccc3[nH]6)C=C5)C=C4)cc2)c1
REMARK SMILES IDX 28 1 27 2 26 3 25 4 23 5 24 6 22 8 1 9 2 10 3 11 101 12 4 13
REMARK SMILES IDX 5 14 6 15 7 16 8 18 9 19 10 20 11 21 12 22 21 23 13 24 15 25
REMARK SMILES IDX 20 26 14 27 16 28 19 29 17 30 18 31 29 32 30 33 31 34 32 35
REMARK SMILES IDX 33 36 34 38 35 39 36 40 100 41 37 42 99 43 38 44 39 45 40 46
REMARK SMILES IDX 93 47 41 48 98 49 92 50 94 51 42 52 97 53 91 54 90 55 43 57
REMARK SMILES IDX 77 58 56 59 76 60 57 61 60 62 75 63 95 64 58 65 59 66 74 68
REMARK SMILES IDX 96 69 61 70 44 71 45 72 54 73 46 74 47 75 53 76 55 77 48 78
REMARK SMILES IDX 49 79 50 80 51 81 52 82 78 83 79 84 88 85 80 86 81 87 87 88
REMARK SMILES IDX 89 89 82 90 83 91 84 92 85 93 86 94 62 95 63 96 72 97 64 98
REMARK SMILES IDX 65 99 71 100 73 101 66 102 67 103 68 104 69 105 70 106
REMARK H PARENT 25 7 7 17 32 37 94 56 60 67
REMARK Flexibility Score: inf
ROOT
ATOM      1  C   UNL A   1      34.178  28.820  26.135  1.00  0.00     0.002 C 
ENDROOT
BRANCH   1   2
ATOM      2  C   UNL A   1      33.326  27.599  26.496  1.00  0.00     0.021 C 
BRANCH   2   3
ATOM      3  C   UNL A   1      31.968  27.998  27.081  1.00  0.00     0.116 C 
BRANCH   3   4
ATOM      4  N   UNL A   1      31.123  26.814  27.154  1.00  0.00    -0.352 N 
ATOM      5  C   UNL A   1      30.391  26.131  26.209  1.00  0.00     0.253 C 
ATOM      6  O   UNL A   1      29.636  25.240  26.598  1.00  0.00    -0.269 OA
ATOM      7  H   UNL A   1      31.064  26.426  28.057  1.00  0.00     0.163 HD
BRANCH   5   8
ATOM      8  C   UNL A   1      30.598  26.344  24.745  1.00  0.00     0.064 A 
ATOM      9  C   UNL A   1      29.565  28.970  22.235  1.00  0.00     0.044 C 
ATOM     10  C   UNL A   1      30.314  27.835  22.868  1.00  0.00    -0.050 A 
ATOM     11  C   UNL A   1      31.525  27.360  22.353  1.00  0.00     0.009 A 
ATOM     12  C   UNL A   1      29.851  27.306  24.067  1.00  0.00     0.019 A 
ATOM     13  C   UNL A   1      32.214  26.281  22.954  1.00  0.00    -0.026 A 
ATOM     14  C   UNL A   1      33.545  25.891  22.378  1.00  0.00     0.046 C 
ATOM     15  C   UNL A   1      31.651  25.663  24.083  1.00  0.00     0.065 A 
BRANCH  15  16
ATOM     16  N   UNL A   1      32.133  24.443  24.678  1.00  0.00    -0.278 N 
ATOM     17  H   UNL A   1      32.741  24.551  25.445  1.00  0.00     0.180 HD
BRANCH  16  18
ATOM     18  S   UNL A   1      31.790  22.861  24.229  1.00  0.00     0.264 S 
ATOM     19  O   UNL A   1      30.892  22.389  25.273  1.00  0.00    -0.201 OA
ATOM     20  O   UNL A   1      31.296  22.911  22.866  1.00  0.00    -0.201 OA
BRANCH  18  21
ATOM     21  C   UNL A   1      33.139  21.709  24.224  1.00  0.00     0.114 A 
ATOM     22  C   UNL A   1      32.744  20.349  24.244  1.00  0.00     0.024 A 
ATOM     23  C   UNL A   1      34.466  22.080  24.407  1.00  0.00     0.091 A 
ATOM     24  C   UNL A   1      33.644  19.352  24.584  1.00  0.00     0.002 A 
ATOM     25  C   UNL A   1      35.332  21.062  24.883  1.00  0.00     0.002 A 
ATOM     26  N   UNL A   1      34.933  23.332  24.214  1.00  0.00    -0.255 NA
ATOM     27  C   UNL A   1      34.926  19.718  24.955  1.00  0.00     0.010 A 
ATOM     28  C   UNL A   1      36.594  21.423  25.363  1.00  0.00     0.015 A 
ATOM     29  C   UNL A   1      36.182  23.634  24.647  1.00  0.00     0.115 A 
ATOM     30  C   UNL A   1      37.009  22.748  25.311  1.00  0.00    -0.032 A 
ATOM     31  C   UNL A   1      38.260  23.185  26.001  1.00  0.00     0.046 C 
ENDBRANCH  18  21
ENDBRANCH  16  18
ENDBRANCH  15  16
ENDBRANCH   5   8
ENDBRANCH   3   4
ENDBRANCH   2   3
ENDBRANCH   1   2
BRANCH   1  32
ATOM     32  C   UNL A   1      35.021  29.358  27.298  1.00  0.00     0.002 C 
BRANCH  32  33
ATOM     33  C   UNL A   1      34.565  30.714  27.843  1.00  0.00     0.021 C 
BRANCH  33  34
ATOM     34  C   UNL A   1      35.660  31.489  28.568  1.00  0.00     0.116 C 
BRANCH  34  35
ATOM     35  N   UNL A   1      35.540  31.348  30.011  1.00  0.00    -0.352 N 
ATOM     36  C   UNL A   1      36.395  30.736  30.889  1.00  0.00     0.251 C 
ATOM     37  H   UNL A   1      34.735  31.747  30.412  1.00  0.00     0.163 HD
ATOM     38  O   UNL A   1      36.015  30.461  32.028  1.00  0.00    -0.269 OA
BRANCH  36  39
ATOM     39  C   UNL A   1      37.766  30.405  30.460  1.00  0.00     0.039 A 
ATOM     40  C   UNL A   1      38.640  29.799  31.366  1.00  0.00     0.014 A 
ATOM     41  C   UNL A   1      38.189  30.702  29.160  1.00  0.00     0.014 A 
ATOM     42  C   UNL A   1      39.924  29.447  30.951  1.00  0.00     0.010 A 
ATOM     43  C   UNL A   1      39.441  30.280  28.727  1.00  0.00     0.010 A 
ATOM     44  C   UNL A   1      40.325  29.658  29.621  1.00  0.00    -0.014 A 
BRANCH  44  45
ATOM     45  C   UNL A   1      41.668  29.240  29.147  1.00  0.00     0.031 A 
ATOM     46  C   UNL A   1      42.788  30.242  29.072  1.00  0.00     0.074 A 
ATOM     47  C   UNL A   1      41.859  27.975  28.726  1.00  0.00     0.049 A 
ATOM     48  N   UNL A   1      44.010  30.084  28.635  1.00  0.00    -0.248 NA
ATOM     49  C   UNL A   1      42.485  31.610  29.523  1.00  0.00     0.031 C 
ATOM     50  C   UNL A   1      40.835  26.928  28.704  1.00  0.00     0.029 A 
ATOM     51  N   UNL A   1      42.975  27.355  28.226  1.00  0.00    -0.354 N 
ATOM     52  C   UNL A   1      44.617  31.329  28.746  1.00  0.00     0.074 A 
ATOM     53  C   UNL A   1      43.611  32.246  29.235  1.00  0.00     0.031 C 
ATOM     54  C   UNL A   1      41.378  25.790  28.246  1.00  0.00     0.029 A 
ATOM     55  C   UNL A   1      42.775  26.035  27.899  1.00  0.00     0.049 A 
ATOM     56  H   UNL A   1      43.840  27.812  28.113  1.00  0.00     0.167 HD
ATOM     57  C   UNL A   1      45.902  31.670  28.489  1.00  0.00     0.037 A 
ATOM     58  C   UNL A   1      43.619  25.127  27.372  1.00  0.00     0.037 A 
ATOM     59  C   UNL A   1      46.900  30.744  28.019  1.00  0.00     0.049 A 
ATOM     60  C   UNL A   1      45.038  25.531  27.082  1.00  0.00     0.074 A 
ATOM     61  C   UNL A   1      48.243  30.972  27.781  1.00  0.00     0.029 A 
ATOM     62  N   UNL A   1      46.660  29.412  27.706  1.00  0.00    -0.354 N 
ATOM     63  N   UNL A   1      45.615  26.696  27.257  1.00  0.00    -0.248 NA
ATOM     64  C   UNL A   1      45.923  24.497  26.530  1.00  0.00     0.031 C 
ATOM     65  C   UNL A   1      48.803  29.796  27.272  1.00  0.00     0.029 A 
ATOM     66  C   UNL A   1      47.824  28.816  27.250  1.00  0.00     0.049 A 
ATOM     67  H   UNL A   1      45.791  28.958  27.795  1.00  0.00     0.167 HD
ATOM     68  C   UNL A   1      46.938  26.529  26.862  1.00  0.00     0.074 A 
ATOM     69  C   UNL A   1      47.077  25.146  26.451  1.00  0.00     0.031 C 
ATOM     70  C   UNL A   1      47.947  27.436  26.844  1.00  0.00     0.037 A 
BRANCH  57  71
ATOM     71  C   UNL A   1      46.298  33.107  28.705  1.00  0.00     0.058 A 
ATOM     72  C   UNL A   1      46.712  33.581  29.961  1.00  0.00     0.135 A 
ATOM     73  C   UNL A   1      46.280  34.020  27.638  1.00  0.00     0.135 A 
ATOM     74  F   UNL A   1      46.737  32.757  31.021  1.00  0.00    -0.206 F 
ATOM     75  C   UNL A   1      47.052  34.915  30.161  1.00  0.00     0.059 A 
ATOM     76  C   UNL A   1      46.649  35.352  27.808  1.00  0.00     0.059 A 
ATOM     77  F   UNL A   1      45.894  33.624  26.415  1.00  0.00    -0.206 F 
ATOM     78  C   UNL A   1      47.016  35.793  29.078  1.00  0.00     0.060 A 
BRANCH  78  79
ATOM     79  S   UNL A   1      47.448  37.524  29.357  1.00  0.00     0.124 S 
ATOM     80  O   UNL A   1      46.151  38.093  29.714  1.00  0.00    -0.237 OA
ATOM     81  O   UNL A   1      48.419  37.431  30.442  1.00  0.00    -0.237 OA
ATOM     82  O   UNL A   1      47.988  37.952  28.071  1.00  0.00    -0.744 OA
ENDBRANCH  78  79
ENDBRANCH  57  71
BRANCH  58  83
ATOM     83  C   UNL A   1      43.144  23.741  27.114  1.00  0.00     0.058 A 
ATOM     84  C   UNL A   1      42.903  23.293  25.807  1.00  0.00     0.135 A 
ATOM     85  C   UNL A   1      42.950  22.829  28.163  1.00  0.00     0.135 A 
ATOM     86  F   UNL A   1      43.067  24.129  24.770  1.00  0.00    -0.206 F 
ATOM     87  C   UNL A   1      42.479  21.994  25.547  1.00  0.00     0.059 A 
ATOM     88  C   UNL A   1      42.552  21.516  27.928  1.00  0.00     0.059 A 
ATOM     89  F   UNL A   1      43.182  23.202  29.431  1.00  0.00    -0.206 F 
ATOM     90  C   UNL A   1      42.312  21.110  26.615  1.00  0.00     0.060 A 
BRANCH  90  91
ATOM     91  S   UNL A   1      41.822  19.409  26.262  1.00  0.00     0.124 S 
ATOM     92  O   UNL A   1      42.260  18.720  27.470  1.00  0.00    -0.237 OA
ATOM     93  O   UNL A   1      40.378  19.537  26.085  1.00  0.00    -0.237 OA
ATOM     94  O   UNL A   1      42.568  19.090  25.048  1.00  0.00    -0.744 OA
ENDBRANCH  90  91
ENDBRANCH  58  83
BRANCH  70  95
ATOM     95  C   UNL A   1      49.301  26.958  26.394  1.00  0.00     0.058 A 
ATOM     96  C   UNL A   1      50.177  26.290  27.263  1.00  0.00     0.135 A 
ATOM     97  C   UNL A   1      49.703  27.124  25.058  1.00  0.00     0.135 A 
ATOM     98  F   UNL A   1      49.844  26.110  28.552  1.00  0.00    -0.206 F 
ATOM     99  C   UNL A   1      51.415  25.824  26.831  1.00  0.00     0.059 A 
ATOM    100  C   UNL A   1      50.922  26.639  24.596  1.00  0.00     0.059 A 
ATOM    101  F   UNL A   1      48.899  27.747  24.182  1.00  0.00    -0.206 F 
ATOM    102  C   UNL A   1      51.777  26.002  25.494  1.00  0.00     0.060 A 
BRANCH 102 103
ATOM    103  S   UNL A   1      53.372  25.362  24.940  1.00  0.00     0.124 S 
ATOM    104  O   UNL A   1      54.274  26.435  25.342  1.00  0.00    -0.237 OA
ATOM    105  O   UNL A   1      53.488  24.119  25.695  1.00  0.00    -0.237 OA
ATOM    106  O   UNL A   1      53.191  25.199  23.500  1.00  0.00    -0.744 OA
ENDBRANCH 102 103
ENDBRANCH  70  95
ENDBRANCH  44  45
ENDBRANCH  36  39
ENDBRANCH  34  35
ENDBRANCH  33  34
ENDBRANCH  32  33
ENDBRANCH   1  32
TORSDOF 19
ENDMDL
MODEL 2
REMARK VINA RESULT:     -12.4      1.050      8.011
REMARK SMILES Cc1cc(C)c(NS(=O)(=O)c2cccc3cc(C)cnc23)c(C(=O)NCCCCCCNC(=O)c2ccc(-c3c4nc(c(-c5c(F)cc(S(=O)(=O)[O-])cc5F)c5ccc([nH]5)c(-c5c(F)cc(S(=O)(=O)[O-])cc5F)c5nc(c(-c6c(F)cc(S(=O)(=O)[O-])cc6F)c6ccc3[nH]6)C=C5)C=C4)cc2)c1
REMARK SMILES IDX 28 1 27 2 26 3 25 4 23 5 24 6 22 8 1 9 2 10 3 11 101 12 4 13
REMARK SMILES IDX 5 14 6 15 7 16 8 18 9 19 10 20 11 21 12 22 21 23 13 24 15 25
REMARK SMILES IDX 20 26 14 27 16 28 19 29 17 30 18 31 29 32 30 33 31 34 32 35
REMARK SMILES IDX 33 36 34 38 35 39 36 40 100 41 37 42 99 43 38 44 39 45 40 46
REMARK SMILES IDX 93 47 41 48 98 49 92 50 94 51 42 52 97 53 91 54 90 55 43 57
REMARK SMILES IDX 77 58 56 59 76 60 57 61 60 62 75 63 95 64 58 65 59 66 74 68
REMARK SMILES IDX 96 69 61 70 44 71 45 72 54 73 46 74 47 75 53 76 55 77 48 78
REMARK SMILES IDX 49 79 50 80 51 81 52 82 78 83 79 84 88 85 80 86 81 87 87 88
REMARK SMILES IDX 89 89 82 90 83 91 84 92 85 93 86 94 62 95 63 96 72 97 64 98
REMARK SMILES IDX 65 99 71 100 73 101 66 102 67 103 68 104 69 105 70 106
REMARK H PARENT 25 7 7 17 32 37 94 56 60 67
REMARK Flexibility Score: inf
ROOT
ATOM      1  C   UNL A   1      34.417  31.998  27.851  1.00  0.00     0.002 C 
ENDROOT
BRANCH   1   2
ATOM      2  C   UNL A   1      34.353  30.467  27.813  1.00  0.00     0.021 C 
BRANCH   2   3
ATOM      3  C   UNL A   1      33.349  29.959  26.775  1.00  0.00     0.116 C 
BRANCH   3   4
ATOM      4  N   UNL A   1      32.517  28.934  27.389  1.00  0.00    -0.352 N 
ATOM      5  C   UNL A   1      31.578  28.067  26.879  1.00  0.00     0.253 C 
ATOM      6  O   UNL A   1      30.910  27.406  27.675  1.00  0.00    -0.269 OA
ATOM      7  H   UNL A   1      32.654  28.844  28.360  1.00  0.00     0.163 HD
BRANCH   5   8
ATOM      8  C   UNL A   1      31.455  27.808  25.413  1.00  0.00     0.064 A 
ATOM      9  C   UNL A   1      30.285  29.790  22.419  1.00  0.00     0.044 C 
ATOM     10  C   UNL A   1      30.970  28.738  23.238  1.00  0.00    -0.050 A 
ATOM     11  C   UNL A   1      31.927  27.873  22.695  1.00  0.00     0.009 A 
ATOM     12  C   UNL A   1      30.732  28.686  24.607  1.00  0.00     0.019 A 
ATOM     13  C   UNL A   1      32.556  26.878  23.478  1.00  0.00    -0.026 A 
ATOM     14  C   UNL A   1      33.627  26.047  22.828  1.00  0.00     0.046 C 
ATOM     15  C   UNL A   1      32.191  26.746  24.828  1.00  0.00     0.065 A 
BRANCH  15  16
ATOM     16  N   UNL A   1      32.598  25.665  25.688  1.00  0.00    -0.278 N 
ATOM     17  H   UNL A   1      33.416  25.820  26.214  1.00  0.00     0.180 HD
BRANCH  16  18
ATOM     18  S   UNL A   1      31.855  24.174  25.907  1.00  0.00     0.264 S 
ATOM     19  O   UNL A   1      31.784  24.029  27.353  1.00  0.00    -0.201 OA
ATOM     20  O   UNL A   1      30.615  24.212  25.156  1.00  0.00    -0.201 OA
BRANCH  18  21
ATOM     21  C   UNL A   1      32.734  22.740  25.341  1.00  0.00     0.114 A 
ATOM     22  C   UNL A   1      31.937  21.575  25.233  1.00  0.00     0.024 A 
ATOM     23  C   UNL A   1      34.117  22.686  25.220  1.00  0.00     0.091 A 
ATOM     24  C   UNL A   1      32.520  20.321  25.142  1.00  0.00     0.002 A 
ATOM     25  C   UNL A   1      34.689  21.388  25.263  1.00  0.00     0.002 A 
ATOM     26  N   UNL A   1      34.911  23.774  25.126  1.00  0.00    -0.255 NA
ATOM     27  C   UNL A   1      33.899  20.227  25.210  1.00  0.00     0.010 A 
ATOM     28  C   UNL A   1      36.071  21.268  25.439  1.00  0.00     0.015 A 
ATOM     29  C   UNL A   1      36.251  23.614  25.252  1.00  0.00     0.115 A 
ATOM     30  C   UNL A   1      36.868  22.404  25.506  1.00  0.00    -0.032 A 
ATOM     31  C   UNL A   1      38.307  22.306  25.898  1.00  0.00     0.046 C 
ENDBRANCH  18  21
ENDBRANCH  16  18
ENDBRANCH  15  16
ENDBRANCH   5   8
ENDBRANCH   3   4
ENDBRANCH   2   3
ENDBRANCH   1   2
BRANCH   1  32
ATOM     32  C   UNL A   1      35.843  32.562  27.855  1.00  0.00     0.002 C 
BRANCH  32  33
ATOM     33  C   UNL A   1      36.150  33.511  29.016  1.00  0.00     0.021 C 
BRANCH  33  34
ATOM     34  C   UNL A   1      37.132  32.945  30.034  1.00  0.00     0.116 C 
BRANCH  34  35
ATOM     35  N   UNL A   1      36.533  31.864  30.802  1.00  0.00    -0.352 N 
ATOM     36  C   UNL A   1      36.880  30.540  30.837  1.00  0.00     0.251 C 
ATOM     37  H   UNL A   1      35.774  32.119  31.374  1.00  0.00     0.163 HD
ATOM     38  O   UNL A   1      36.104  29.712  31.318  1.00  0.00    -0.269 OA
BRANCH  36  39
ATOM     39  C   UNL A   1      38.183  30.113  30.294  1.00  0.00     0.039 A 
ATOM     40  C   UNL A   1      38.351  30.020  28.911  1.00  0.00     0.014 A 
ATOM     41  C   UNL A   1      39.237  29.797  31.158  1.00  0.00     0.014 A 
ATOM     42  C   UNL A   1      39.595  29.657  28.393  1.00  0.00     0.010 A 
ATOM     43  C   UNL A   1      40.495  29.511  30.639  1.00  0.00     0.010 A 
ATOM     44  C   UNL A   1      40.683  29.428  29.251  1.00  0.00    -0.014 A 
BRANCH  44  45
ATOM     45  C   UNL A   1      42.027  29.094  28.716  1.00  0.00     0.031 A 
ATOM     46  C   UNL A   1      42.330  27.694  28.257  1.00  0.00     0.074 A 
ATOM     47  C   UNL A   1      42.989  30.037  28.705  1.00  0.00     0.049 A 
ATOM     48  N   UNL A   1      43.455  27.196  27.813  1.00  0.00    -0.248 NA
ATOM     49  C   UNL A   1      41.231  26.718  28.333  1.00  0.00     0.031 C 
ATOM     50  C   UNL A   1      42.827  31.416  29.171  1.00  0.00     0.029 A 
ATOM     51  N   UNL A   1      44.296  29.979  28.294  1.00  0.00    -0.354 N 
ATOM     52  C   UNL A   1      43.204  25.851  27.569  1.00  0.00     0.074 A 
ATOM     53  C   UNL A   1      41.838  25.598  27.970  1.00  0.00     0.031 C 
ATOM     54  C   UNL A   1      43.980  32.080  28.993  1.00  0.00     0.029 A 
ATOM     55  C   UNL A   1      44.976  31.165  28.442  1.00  0.00     0.049 A 
ATOM     56  H   UNL A   1      44.710  29.164  27.927  1.00  0.00     0.167 HD
ATOM     57  C   UNL A   1      44.029  24.920  27.034  1.00  0.00     0.037 A 
ATOM     58  C   UNL A   1      46.257  31.479  28.171  1.00  0.00     0.037 A 
ATOM     59  C   UNL A   1      45.382  25.188  26.622  1.00  0.00     0.049 A 
ATOM     60  C   UNL A   1      47.159  30.425  27.589  1.00  0.00     0.074 A 
ATOM     61  C   UNL A   1      46.284  24.332  26.017  1.00  0.00     0.029 A 
ATOM     62  N   UNL A   1      46.033  26.405  26.779  1.00  0.00    -0.354 N 
ATOM     63  N   UNL A   1      46.886  29.175  27.301  1.00  0.00    -0.248 NA
ATOM     64  C   UNL A   1      48.540  30.825  27.291  1.00  0.00     0.031 C 
ATOM     65  C   UNL A   1      47.496  25.012  25.860  1.00  0.00     0.029 A 
ATOM     66  C   UNL A   1      47.333  26.312  26.311  1.00  0.00     0.049 A 
ATOM     67  H   UNL A   1      45.629  27.215  27.168  1.00  0.00     0.167 HD
ATOM     68  C   UNL A   1      48.054  28.645  26.760  1.00  0.00     0.074 A 
ATOM     69  C   UNL A   1      49.030  29.716  26.752  1.00  0.00     0.031 C 
ATOM     70  C   UNL A   1      48.294  27.389  26.309  1.00  0.00     0.037 A 
BRANCH  57  71
ATOM     71  C   UNL A   1      43.490  23.523  26.872  1.00  0.00     0.058 A 
ATOM     72  C   UNL A   1      43.335  22.656  27.967  1.00  0.00     0.135 A 
ATOM     73  C   UNL A   1      43.107  23.048  25.607  1.00  0.00     0.135 A 
ATOM     74  F   UNL A   1      43.697  23.050  29.198  1.00  0.00    -0.206 F 
ATOM     75  C   UNL A   1      42.860  21.359  27.808  1.00  0.00     0.059 A 
ATOM     76  C   UNL A   1      42.598  21.764  25.429  1.00  0.00     0.059 A 
ATOM     77  F   UNL A   1      43.232  23.832  24.524  1.00  0.00    -0.206 F 
ATOM     78  C   UNL A   1      42.496  20.921  26.534  1.00  0.00     0.060 A 
BRANCH  78  79
ATOM     79  S   UNL A   1      41.895  19.229  26.343  1.00  0.00     0.124 S 
ATOM     80  O   UNL A   1      42.824  18.702  25.347  1.00  0.00    -0.237 OA
ATOM     81  O   UNL A   1      42.041  18.693  27.692  1.00  0.00    -0.237 OA
ATOM     82  O   UNL A   1      40.520  19.406  25.887  1.00  0.00    -0.744 OA
ENDBRANCH  78  79
ENDBRANCH  57  71
BRANCH  58  83
ATOM     83  C   UNL A   1      46.748  32.860  28.423  1.00  0.00     0.058 A 
ATOM     84  C   UNL A   1      47.279  33.221  29.670  1.00  0.00     0.135 A 
ATOM     85  C   UNL A   1      46.725  33.838  27.416  1.00  0.00     0.135 A 
ATOM     86  F   UNL A   1      47.317  32.323  30.667  1.00  0.00    -0.206 F 
ATOM     87  C   UNL A   1      47.761  34.502  29.915  1.00  0.00     0.059 A 
ATOM     88  C   UNL A   1      47.225  35.119  27.627  1.00  0.00     0.059 A 
ATOM     89  F   UNL A   1      46.242  33.540  26.199  1.00  0.00    -0.206 F 
ATOM     90  C   UNL A   1      47.735  35.443  28.884  1.00  0.00     0.060 A 
BRANCH  90  91
ATOM     91  S   UNL A   1      48.421  37.084  29.193  1.00  0.00     0.124 S 
ATOM     92  O   UNL A   1      49.667  37.030  28.437  1.00  0.00    -0.237 OA
ATOM     93  O   UNL A   1      47.382  37.957  28.654  1.00  0.00    -0.237 OA
ATOM     94  O   UNL A   1      48.566  37.118  30.646  1.00  0.00    -0.744 OA
ENDBRANCH  90  91
ENDBRANCH  58  83
BRANCH  70  95
ATOM     95  C   UNL A   1      49.658  27.107  25.739  1.00  0.00     0.058 A 
ATOM     96  C   UNL A   1      49.953  27.323  24.385  1.00  0.00     0.135 A 
ATOM     97  C   UNL A   1      50.698  26.664  26.574  1.00  0.00     0.135 A 
ATOM     98  F   UNL A   1      48.994  27.739  23.541  1.00  0.00    -0.206 F 
ATOM     99  C   UNL A   1      51.225  27.088  23.872  1.00  0.00     0.059 A 
ATOM    100  C   UNL A   1      51.984  26.453  26.090  1.00  0.00     0.059 A 
ATOM    101  F   UNL A   1      50.472  26.452  27.881  1.00  0.00    -0.206 F 
ATOM    102  C   UNL A   1      52.235  26.656  24.734  1.00  0.00     0.060 A 
BRANCH 102 103
ATOM    103  S   UNL A   1      53.888  26.387  24.060  1.00  0.00     0.124 S 
ATOM    104  O   UNL A   1      54.369  25.289  24.890  1.00  0.00    -0.237 OA
ATOM    105  O   UNL A   1      53.607  26.055  22.667  1.00  0.00    -0.237 OA
ATOM    106  O   UNL A   1      54.553  27.671  24.270  1.00  0.00    -0.744 OA
ENDBRANCH 102 103
ENDBRANCH  70  95
ENDBRANCH  44  45
ENDBRANCH  36  39
ENDBRANCH  34  35
ENDBRANCH  33  34
ENDBRANCH  32  33
ENDBRANCH   1  32
TORSDOF 19
ENDMDL
MODEL 3
REMARK VINA RESULT:     -12.3      0.764      2.092
REMARK SMILES Cc1cc(C)c(NS(=O)(=O)c2cccc3cc(C)cnc23)c(C(=O)NCCCCCCNC(=O)c2ccc(-c3c4nc(c(-c5c(F)cc(S(=O)(=O)[O-])cc5F)c5ccc([nH]5)c(-c5c(F)cc(S(=O)(=O)[O-])cc5F)c5nc(c(-c6c(F)cc(S(=O)(=O)[O-])cc6F)c6ccc3[nH]6)C=C5)C=C4)cc2)c1
REMARK SMILES IDX 28 1 27 2 26 3 25 4 23 5 24 6 22 8 1 9 2 10 3 11 101 12 4 13
REMARK SMILES IDX 5 14 6 15 7 16 8 18 9 19 10 20 11 21 12 22 21 23 13 24 15 25
REMARK SMILES IDX 20 26 14 27 16 28 19 29 17 30 18 31 29 32 30 33 31 34 32 35
REMARK SMILES IDX 33 36 34 38 35 39 36 40 100 41 37 42 99 43 38 44 39 45 40 46
REMARK SMILES IDX 93 47 41 48 98 49 92 50 94 51 42 52 97 53 91 54 90 55 43 57
REMARK SMILES IDX 77 58 56 59 76 60 57 61 60 62 75 63 95 64 58 65 59 66 74 68
REMARK SMILES IDX 96 69 61 70 44 71 45 72 54 73 46 74 47 75 53 76 55 77 48 78
REMARK SMILES IDX 49 79 50 80 51 81 52 82 78 83 79 84 88 85 80 86 81 87 87 88
REMARK SMILES IDX 89 89 82 90 83 91 84 92 85 93 86 94 62 95 63 96 72 97 64 98
REMARK SMILES IDX 65 99 71 100 73 101 66 102 67 103 68 104 69 105 70 106
REMARK H PARENT 25 7 7 17 32 37 94 56 60 67
REMARK Flexibility Score: inf
ROOT
ATOM      1  C   UNL A   1      33.347  29.761  26.323  1.00  0.00     0.002 C 
ENDROOT
BRANCH   1   2
ATOM      2  C   UNL A   1      33.053  28.421  27.006  1.00  0.00     0.021 C 
BRANCH   2   3
ATOM      3  C   UNL A   1      31.566  28.253  27.327  1.00  0.00     0.116 C 
BRANCH   3   4
ATOM      4  N   UNL A   1      31.201  26.856  27.143  1.00  0.00    -0.352 N 
ATOM      5  C   UNL A   1      30.741  26.148  26.055  1.00  0.00     0.253 C 
ATOM      6  O   UNL A   1      30.363  24.991  26.237  1.00  0.00    -0.269 OA
ATOM      7  H   UNL A   1      31.304  26.310  27.956  1.00  0.00     0.163 HD
BRANCH   5   8
ATOM      8  C   UNL A   1      30.827  26.691  24.666  1.00  0.00     0.064 A 
ATOM      9  C   UNL A   1      28.870  29.200  22.631  1.00  0.00     0.044 C 
ATOM     10  C   UNL A   1      29.989  28.308  23.081  1.00  0.00    -0.050 A 
ATOM     11  C   UNL A   1      31.278  28.400  22.547  1.00  0.00     0.009 A 
ATOM     12  C   UNL A   1      29.771  27.434  24.139  1.00  0.00     0.019 A 
ATOM     13  C   UNL A   1      32.320  27.544  22.973  1.00  0.00    -0.026 A 
ATOM     14  C   UNL A   1      33.691  27.768  22.399  1.00  0.00     0.046 C 
ATOM     15  C   UNL A   1      32.040  26.566  23.941  1.00  0.00     0.065 A 
BRANCH  15  16
ATOM     16  N   UNL A   1      32.939  25.509  24.326  1.00  0.00    -0.278 N 
ATOM     17  H   UNL A   1      33.543  25.711  25.077  1.00  0.00     0.180 HD
BRANCH  16  18
ATOM     18  S   UNL A   1      33.089  23.976  23.655  1.00  0.00     0.264 S 
ATOM     19  O   UNL A   1      31.719  23.492  23.580  1.00  0.00    -0.201 OA
ATOM     20  O   UNL A   1      33.833  24.132  22.419  1.00  0.00    -0.201 OA
BRANCH  18  21
ATOM     21  C   UNL A   1      33.959  22.756  24.606  1.00  0.00     0.114 A 
ATOM     22  C   UNL A   1      35.108  23.248  25.270  1.00  0.00     0.024 A 
ATOM     23  C   UNL A   1      33.684  21.396  24.543  1.00  0.00     0.091 A 
ATOM     24  C   UNL A   1      36.071  22.380  25.760  1.00  0.00     0.002 A 
ATOM     25  C   UNL A   1      34.743  20.534  24.929  1.00  0.00     0.002 A 
ATOM     26  N   UNL A   1      32.520  20.879  24.093  1.00  0.00    -0.255 NA
ATOM     27  C   UNL A   1      35.910  21.023  25.542  1.00  0.00     0.010 A 
ATOM     28  C   UNL A   1      34.650  19.173  24.623  1.00  0.00     0.015 A 
ATOM     29  C   UNL A   1      32.449  19.547  23.854  1.00  0.00     0.115 A 
ATOM     30  C   UNL A   1      33.509  18.672  24.008  1.00  0.00    -0.032 A 
ATOM     31  C   UNL A   1      33.472  17.273  23.488  1.00  0.00     0.046 C 
ENDBRANCH  18  21
ENDBRANCH  16  18
ENDBRANCH  15  16
ENDBRANCH   5   8
ENDBRANCH   3   4
ENDBRANCH   2   3
ENDBRANCH   1   2
BRANCH   1  32
ATOM     32  C   UNL A   1      33.273  30.970  27.263  1.00  0.00     0.002 C 
BRANCH  32  33
ATOM     33  C   UNL A   1      34.631  31.489  27.743  1.00  0.00     0.021 C 
BRANCH  33  34
ATOM     34  C   UNL A   1      35.396  30.504  28.619  1.00  0.00     0.116 C 
BRANCH  34  35
ATOM     35  N   UNL A   1      35.526  30.998  29.982  1.00  0.00    -0.352 N 
ATOM     36  C   UNL A   1      36.554  30.815  30.868  1.00  0.00     0.251 C 
ATOM     37  H   UNL A   1      34.771  31.536  30.312  1.00  0.00     0.163 HD
ATOM     38  O   UNL A   1      36.387  31.060  32.064  1.00  0.00    -0.269 OA
BRANCH  36  39
ATOM     39  C   UNL A   1      37.856  30.322  30.382  1.00  0.00     0.039 A 
ATOM     40  C   UNL A   1      38.150  30.393  29.019  1.00  0.00     0.014 A 
ATOM     41  C   UNL A   1      38.783  29.781  31.279  1.00  0.00     0.014 A 
ATOM     42  C   UNL A   1      39.397  29.966  28.562  1.00  0.00     0.010 A 
ATOM     43  C   UNL A   1      40.052  29.429  30.833  1.00  0.00     0.010 A 
ATOM     44  C   UNL A   1      40.368  29.508  29.469  1.00  0.00    -0.014 A 
BRANCH  44  45
ATOM     45  C   UNL A   1      41.719  29.101  29.008  1.00  0.00     0.031 A 
ATOM     46  C   UNL A   1      42.830  30.113  28.940  1.00  0.00     0.074 A 
ATOM     47  C   UNL A   1      41.925  27.837  28.593  1.00  0.00     0.049 A 
ATOM     48  N   UNL A   1      44.057  29.965  28.514  1.00  0.00    -0.248 NA
ATOM     49  C   UNL A   1      42.511  31.480  29.382  1.00  0.00     0.031 C 
ATOM     50  C   UNL A   1      40.911  26.780  28.567  1.00  0.00     0.029 A 
ATOM     51  N   UNL A   1      43.052  27.225  28.106  1.00  0.00    -0.354 N 
ATOM     52  C   UNL A   1      44.652  31.216  28.625  1.00  0.00     0.074 A 
ATOM     53  C   UNL A   1      43.633  32.125  29.102  1.00  0.00     0.031 C 
ATOM     54  C   UNL A   1      41.469  25.645  28.117  1.00  0.00     0.029 A 
ATOM     55  C   UNL A   1      42.866  25.902  27.782  1.00  0.00     0.049 A 
ATOM     56  H   UNL A   1      43.913  27.690  27.999  1.00  0.00     0.167 HD
ATOM     57  C   UNL A   1      45.936  31.568  28.378  1.00  0.00     0.037 A 
ATOM     58  C   UNL A   1      43.723  25.000  27.265  1.00  0.00     0.037 A 
ATOM     59  C   UNL A   1      46.946  30.650  27.920  1.00  0.00     0.049 A 
ATOM     60  C   UNL A   1      45.141  25.416  26.986  1.00  0.00     0.074 A 
ATOM     61  C   UNL A   1      48.289  30.890  27.693  1.00  0.00     0.029 A 
ATOM     62  N   UNL A   1      46.722  29.314  27.610  1.00  0.00    -0.354 N 
ATOM     63  N   UNL A   1      45.705  26.587  27.162  1.00  0.00    -0.248 NA
ATOM     64  C   UNL A   1      46.040  24.389  26.446  1.00  0.00     0.031 C 
ATOM     65  C   UNL A   1      48.865  29.717  27.193  1.00  0.00     0.029 A 
ATOM     66  C   UNL A   1      47.895  28.727  27.166  1.00  0.00     0.049 A 
ATOM     67  H   UNL A   1      45.856  28.853  27.693  1.00  0.00     0.167 HD
ATOM     68  C   UNL A   1      47.033  26.431  26.779  1.00  0.00     0.074 A 
ATOM     69  C   UNL A   1      47.189  25.047  26.374  1.00  0.00     0.031 C 
ATOM     70  C   UNL A   1      48.034  27.347  26.767  1.00  0.00     0.037 A 
BRANCH  57  71
ATOM     71  C   UNL A   1      46.317  33.009  28.592  1.00  0.00     0.058 A 
ATOM     72  C   UNL A   1      46.235  33.959  27.560  1.00  0.00     0.135 A 
ATOM     73  C   UNL A   1      46.753  33.452  29.851  1.00  0.00     0.135 A 
ATOM     74  F   UNL A   1      45.837  33.591  26.331  1.00  0.00    -0.206 F 
ATOM     75  C   UNL A   1      46.612  35.283  27.756  1.00  0.00     0.059 A 
ATOM     76  C   UNL A   1      47.104  34.781  30.079  1.00  0.00     0.059 A 
ATOM     77  F   UNL A   1      46.850  32.590  30.875  1.00  0.00    -0.206 F 
ATOM     78  C   UNL A   1      47.047  35.684  29.019  1.00  0.00     0.060 A 
BRANCH  78  79
ATOM     79  S   UNL A   1      47.545  37.404  29.254  1.00  0.00     0.124 S 
ATOM     80  O   UNL A   1      48.308  37.654  28.034  1.00  0.00    -0.237 OA
ATOM     81  O   UNL A   1      46.260  38.090  29.349  1.00  0.00    -0.237 OA
ATOM     82  O   UNL A   1      48.326  37.367  30.486  1.00  0.00    -0.744 OA
ENDBRANCH  78  79
ENDBRANCH  57  71
BRANCH  58  83
ATOM     83  C   UNL A   1      43.263  23.609  27.008  1.00  0.00     0.058 A 
ATOM     84  C   UNL A   1      42.977  23.173  25.706  1.00  0.00     0.135 A 
ATOM     85  C   UNL A   1      43.130  22.679  28.052  1.00  0.00     0.135 A 
ATOM     86  F   UNL A   1      43.083  24.025  24.675  1.00  0.00    -0.206 F 
ATOM     87  C   UNL A   1      42.566  21.869  25.447  1.00  0.00     0.059 A 
ATOM     88  C   UNL A   1      42.747  21.363  27.816  1.00  0.00     0.059 A 
ATOM     89  F   UNL A   1      43.407  23.041  29.315  1.00  0.00    -0.206 F 
ATOM     90  C   UNL A   1      42.460  20.969  26.509  1.00  0.00     0.060 A 
BRANCH  90  91
ATOM     91  S   UNL A   1      41.987  19.264  26.154  1.00  0.00     0.124 S 
ATOM     92  O   UNL A   1      42.797  18.973  24.977  1.00  0.00    -0.237 OA
ATOM     93  O   UNL A   1      42.372  18.577  27.383  1.00  0.00    -0.237 OA
ATOM     94  O   UNL A   1      40.548  19.356  25.922  1.00  0.00    -0.744 OA
ENDBRANCH  90  91
ENDBRANCH  58  83
BRANCH  70  95
ATOM     95  C   UNL A   1      49.396  26.880  26.330  1.00  0.00     0.058 A 
ATOM     96  C   UNL A   1      49.850  27.050  25.013  1.00  0.00     0.135 A 
ATOM     97  C   UNL A   1      50.279  26.302  27.258  1.00  0.00     0.135 A 
ATOM     98  F   UNL A   1      49.043  27.590  24.084  1.00  0.00    -0.206 F 
ATOM     99  C   UNL A   1      51.121  26.641  24.624  1.00  0.00     0.059 A 
ATOM    100  C   UNL A   1      51.566  25.915  26.899  1.00  0.00     0.059 A 
ATOM    101  F   UNL A   1      49.899  26.126  28.533  1.00  0.00    -0.206 F 
ATOM    102  C   UNL A   1      51.973  26.078  25.576  1.00  0.00     0.060 A 
BRANCH 102 103
ATOM    103  S   UNL A   1      53.633  25.584  25.064  1.00  0.00     0.124 S 
ATOM    104  O   UNL A   1      53.517  25.628  23.612  1.00  0.00    -0.237 OA
ATOM    105  O   UNL A   1      54.466  26.620  25.667  1.00  0.00    -0.237 OA
ATOM    106  O   UNL A   1      53.785  24.252  25.643  1.00  0.00    -0.744 OA
ENDBRANCH 102 103
ENDBRANCH  70  95
ENDBRANCH  44  45
ENDBRANCH  36  39
ENDBRANCH  34  35
ENDBRANCH  33  34
ENDBRANCH  32  33
ENDBRANCH   1  32
TORSDOF 19
ENDMDL
