MODEL 1
REMARK VINA RESULT:     -11.1      0.000      0.000
REMARK SMILES C[C@H]1[C@@H](C(=O)NCCCCCCNC(=O)c2ccc(-c3c4nc(c(-c5c(F)cc(S(=O)(=O)[O-])cc5F)c5ccc([nH]5)c(-c5c(F)cc(S(=O)(=O)[O-])cc5F)c5nc(c(-c6c(F)cc(S(=O)(=O)[O-])cc6F)c6ccc3[nH]6)C=C5)C=C4)cc2)CCN1S(=O)(=O)Cc1cccc(C#N)c1
REMARK SMILES IDX 9 1 8 2 7 3 6 4 4 5 5 6 3 8 1 9 2 10 84 11 82 12 83 13 85 14
REMARK SMILES IDX 86 15 87 16 88 17 89 18 90 19 96 20 91 21 93 22 92 23 94 24
REMARK SMILES IDX 95 25 10 26 11 27 12 28 13 29 14 30 15 32 16 33 17 34 81 35
REMARK SMILES IDX 18 36 80 37 19 38 20 39 21 40 74 41 22 42 79 43 73 44 75 45
REMARK SMILES IDX 23 46 78 47 72 48 71 49 24 51 58 52 37 53 57 54 38 55 41 56
REMARK SMILES IDX 56 57 76 58 39 59 40 60 55 62 77 63 42 64 25 65 26 66 35 67
REMARK SMILES IDX 27 68 28 69 34 70 36 71 29 72 30 73 31 74 32 75 33 76 59 77
REMARK SMILES IDX 60 78 69 79 61 80 62 81 68 82 70 83 63 84 64 85 65 86 66 87
REMARK SMILES IDX 67 88 43 89 44 90 53 91 45 92 46 93 52 94 54 95 47 96 48 97
REMARK SMILES IDX 49 98 50 99 51 100
REMARK H PARENT 6 7 13 31 75 50 41 61
REMARK Flexibility Score: inf
ROOT
ATOM      1  C   UNL A   1      35.225  30.007  27.604  1.00  0.00     0.002 C 
ENDROOT
BRANCH   1   2
ATOM      2  C   UNL A   1      34.266  29.030  26.936  1.00  0.00     0.021 C 
BRANCH   2   3
ATOM      3  C   UNL A   1      32.840  28.992  27.515  1.00  0.00     0.116 C 
BRANCH   3   4
ATOM      4  N   UNL A   1      31.911  29.592  26.576  1.00  0.00    -0.356 N 
ATOM      5  C   UNL A   1      31.488  29.237  25.333  1.00  0.00     0.224 C 
ATOM      6  O   UNL A   1      30.838  30.102  24.734  1.00  0.00    -0.275 OA
ATOM      7  H   UNL A   1      31.504  30.426  26.905  1.00  0.00     0.163 HD
BRANCH   5   8
ATOM      8  C   UNL A   1      31.649  27.821  24.748  1.00  0.00     0.098 C 
ATOM      9  C   UNL A   1      33.737  28.572  23.374  1.00  0.00     0.026 C 
ATOM     10  C   UNL A   1      32.819  27.454  23.808  1.00  0.00     0.082 C 
ATOM     11  N   UNL A   1      32.248  26.995  22.519  1.00  0.00    -0.198 NA
ATOM     12  C   UNL A   1      30.404  27.399  23.940  1.00  0.00     0.032 C 
ATOM     13  C   UNL A   1      30.846  27.452  22.488  1.00  0.00     0.103 C 
BRANCH  11  14
ATOM     14  S   UNL A   1      32.608  25.475  21.907  1.00  0.00     0.218 S 
ATOM     15  O   UNL A   1      31.372  24.718  21.986  1.00  0.00    -0.212 OA
ATOM     16  O   UNL A   1      33.237  25.675  20.619  1.00  0.00    -0.212 OA
BRANCH  14  17
ATOM     17  C   UNL A   1      33.785  24.683  23.050  1.00  0.00     0.189 C 
BRANCH  17  18
ATOM     18  C   UNL A   1      33.226  23.547  23.873  1.00  0.00    -0.030 A 
ATOM     19  C   UNL A   1      33.702  22.237  23.739  1.00  0.00     0.005 A 
ATOM     20  C   UNL A   1      32.135  23.762  24.738  1.00  0.00     0.024 A 
ATOM     21  C   UNL A   1      33.150  21.191  24.488  1.00  0.00     0.002 A 
ATOM     22  C   UNL A   1      31.622  22.731  25.541  1.00  0.00     0.052 A 
ATOM     23  C   UNL A   1      32.128  21.439  25.405  1.00  0.00     0.019 A 
BRANCH  22  24
ATOM     24  C   UNL A   1      30.635  23.024  26.539  1.00  0.00     0.099 C 
ATOM     25  N   UNL A   1      29.828  23.327  27.321  1.00  0.00    -0.192 NA
ENDBRANCH  22  24
ENDBRANCH  17  18
ENDBRANCH  14  17
ENDBRANCH  11  14
ENDBRANCH   5   8
ENDBRANCH   3   4
ENDBRANCH   2   3
ENDBRANCH   1   2
BRANCH   1  26
ATOM     26  C   UNL A   1      34.529  31.148  28.342  1.00  0.00     0.002 C 
BRANCH  26  27
ATOM     27  C   UNL A   1      34.069  32.309  27.454  1.00  0.00     0.021 C 
BRANCH  27  28
ATOM     28  C   UNL A   1      32.734  32.931  27.858  1.00  0.00     0.116 C 
BRANCH  28  29
ATOM     29  N   UNL A   1      32.824  34.382  27.919  1.00  0.00    -0.352 N 
ATOM     30  C   UNL A   1      33.567  35.170  28.761  1.00  0.00     0.251 C 
ATOM     31  H   UNL A   1      32.274  34.867  27.263  1.00  0.00     0.163 HD
ATOM     32  O   UNL A   1      33.304  36.363  28.874  1.00  0.00    -0.269 OA
BRANCH  30  33
ATOM     33  C   UNL A   1      34.675  34.573  29.535  1.00  0.00     0.039 A 
ATOM     34  C   UNL A   1      34.407  34.024  30.790  1.00  0.00     0.014 A 
ATOM     35  C   UNL A   1      35.978  34.571  29.028  1.00  0.00     0.014 A 
ATOM     36  C   UNL A   1      35.439  33.426  31.515  1.00  0.00     0.010 A 
ATOM     37  C   UNL A   1      36.988  33.904  29.714  1.00  0.00     0.010 A 
ATOM     38  C   UNL A   1      36.731  33.332  30.969  1.00  0.00    -0.014 A 
BRANCH  38  39
ATOM     39  C   UNL A   1      37.822  32.639  31.700  1.00  0.00     0.031 A 
ATOM     40  C   UNL A   1      38.285  33.154  33.036  1.00  0.00     0.074 A 
ATOM     41  C   UNL A   1      38.427  31.574  31.137  1.00  0.00     0.049 A 
ATOM     42  N   UNL A   1      39.243  32.706  33.807  1.00  0.00    -0.248 NA
ATOM     43  C   UNL A   1      37.596  34.341  33.569  1.00  0.00     0.031 C 
ATOM     44  C   UNL A   1      38.094  31.010  29.827  1.00  0.00     0.029 A 
ATOM     45  N   UNL A   1      39.448  30.778  31.590  1.00  0.00    -0.354 N 
ATOM     46  C   UNL A   1      39.274  33.555  34.907  1.00  0.00     0.074 A 
ATOM     47  C   UNL A   1      38.282  34.581  34.676  1.00  0.00     0.031 C 
ATOM     48  C   UNL A   1      38.874  29.943  29.596  1.00  0.00     0.029 A 
ATOM     49  C   UNL A   1      39.795  29.774  30.716  1.00  0.00     0.049 A 
ATOM     50  H   UNL A   1      39.891  30.911  32.459  1.00  0.00     0.167 HD
ATOM     51  C   UNL A   1      40.044  33.472  36.019  1.00  0.00     0.037 A 
ATOM     52  C   UNL A   1      40.753  28.831  30.801  1.00  0.00     0.037 A 
ATOM     53  C   UNL A   1      41.026  32.441  36.240  1.00  0.00     0.049 A 
ATOM     54  C   UNL A   1      41.618  28.779  32.031  1.00  0.00     0.074 A 
ATOM     55  C   UNL A   1      41.823  32.240  37.352  1.00  0.00     0.029 A 
ATOM     56  N   UNL A   1      41.351  31.445  35.330  1.00  0.00    -0.354 N 
ATOM     57  N   UNL A   1      41.588  29.549  33.094  1.00  0.00    -0.248 NA
ATOM     58  C   UNL A   1      42.644  27.730  32.078  1.00  0.00     0.031 C 
ATOM     59  C   UNL A   1      42.677  31.164  37.088  1.00  0.00     0.029 A 
ATOM     60  C   UNL A   1      42.363  30.648  35.841  1.00  0.00     0.049 A 
ATOM     61  H   UNL A   1      40.927  31.324  34.450  1.00  0.00     0.167 HD
ATOM     62  C   UNL A   1      42.571  29.059  33.947  1.00  0.00     0.074 A 
ATOM     63  C   UNL A   1      43.165  27.917  33.283  1.00  0.00     0.031 C 
ATOM     64  C   UNL A   1      42.946  29.512  35.169  1.00  0.00     0.037 A 
BRANCH  51  65
ATOM     65  C   UNL A   1      39.862  34.528  37.077  1.00  0.00     0.058 A 
ATOM     66  C   UNL A   1      38.925  34.385  38.114  1.00  0.00     0.135 A 
ATOM     67  C   UNL A   1      40.659  35.685  37.076  1.00  0.00     0.135 A 
ATOM     68  F   UNL A   1      38.125  33.308  38.160  1.00  0.00    -0.206 F 
ATOM     69  C   UNL A   1      38.763  35.362  39.091  1.00  0.00     0.059 A 
ATOM     70  C   UNL A   1      40.538  36.659  38.063  1.00  0.00     0.059 A 
ATOM     71  F   UNL A   1      41.571  35.877  36.111  1.00  0.00    -0.206 F 
ATOM     72  C   UNL A   1      39.576  36.496  39.058  1.00  0.00     0.060 A 
BRANCH  72  73
ATOM     73  S   UNL A   1      39.355  37.750  40.336  1.00  0.00     0.124 S 
ATOM     74  O   UNL A   1      39.272  36.928  41.540  1.00  0.00    -0.237 OA
ATOM     75  O   UNL A   1      40.567  38.550  40.199  1.00  0.00    -0.237 OA
ATOM     76  O   UNL A   1      38.117  38.419  39.949  1.00  0.00    -0.744 OA
ENDBRANCH  72  73
ENDBRANCH  51  65
BRANCH  52  77
ATOM     77  C   UNL A   1      40.935  27.853  29.693  1.00  0.00     0.058 A 
ATOM     78  C   UNL A   1      42.028  27.944  28.818  1.00  0.00     0.135 A 
ATOM     79  C   UNL A   1      40.027  26.801  29.493  1.00  0.00     0.135 A 
ATOM     80  F   UNL A   1      42.922  28.936  28.962  1.00  0.00    -0.206 F 
ATOM     81  C   UNL A   1      42.206  27.040  27.776  1.00  0.00     0.059 A 
ATOM     82  C   UNL A   1      40.200  25.867  28.479  1.00  0.00     0.059 A 
ATOM     83  F   UNL A   1      38.972  26.659  30.310  1.00  0.00    -0.206 F 
ATOM     84  C   UNL A   1      41.288  26.000  27.618  1.00  0.00     0.060 A 
BRANCH  84  85
ATOM     85  S   UNL A   1      41.555  24.804  26.292  1.00  0.00     0.124 S 
ATOM     86  O   UNL A   1      42.869  24.272  26.634  1.00  0.00    -0.237 OA
ATOM     87  O   UNL A   1      40.429  23.893  26.474  1.00  0.00    -0.237 OA
ATOM     88  O   UNL A   1      41.500  25.623  25.084  1.00  0.00    -0.744 OA
ENDBRANCH  84  85
ENDBRANCH  52  77
BRANCH  64  89
ATOM     89  C   UNL A   1      44.030  28.754  35.889  1.00  0.00     0.058 A 
ATOM     90  C   UNL A   1      45.384  29.110  35.776  1.00  0.00     0.135 A 
ATOM     91  C   UNL A   1      43.703  27.689  36.745  1.00  0.00     0.135 A 
ATOM     92  F   UNL A   1      45.754  30.115  34.967  1.00  0.00    -0.206 F 
ATOM     93  C   UNL A   1      46.376  28.420  36.466  1.00  0.00     0.059 A 
ATOM     94  C   UNL A   1      44.675  27.009  37.473  1.00  0.00     0.059 A 
ATOM     95  F   UNL A   1      42.423  27.313  36.899  1.00  0.00    -0.206 F 
ATOM     96  C   UNL A   1      46.011  27.375  37.317  1.00  0.00     0.060 A 
BRANCH  96  97
ATOM     97  S   UNL A   1      47.307  26.515  38.233  1.00  0.00     0.124 S 
ATOM     98  O   UNL A   1      46.591  26.097  39.433  1.00  0.00    -0.237 OA
ATOM     99  O   UNL A   1      47.680  25.446  37.312  1.00  0.00    -0.237 OA
ATOM    100  O   UNL A   1      48.322  27.544  38.434  1.00  0.00    -0.744 OA
ENDBRANCH  96  97
ENDBRANCH  64  89
ENDBRANCH  38  39
ENDBRANCH  30  33
ENDBRANCH  28  29
ENDBRANCH  27  28
ENDBRANCH  26  27
ENDBRANCH   1  26
TORSDOF 20
ENDMDL
MODEL 2
REMARK VINA RESULT:     -11.0      0.402      8.144
REMARK SMILES C[C@H]1[C@@H](C(=O)NCCCCCCNC(=O)c2ccc(-c3c4nc(c(-c5c(F)cc(S(=O)(=O)[O-])cc5F)c5ccc([nH]5)c(-c5c(F)cc(S(=O)(=O)[O-])cc5F)c5nc(c(-c6c(F)cc(S(=O)(=O)[O-])cc6F)c6ccc3[nH]6)C=C5)C=C4)cc2)CCN1S(=O)(=O)Cc1cccc(C#N)c1
REMARK SMILES IDX 9 1 8 2 7 3 6 4 4 5 5 6 3 8 1 9 2 10 84 11 82 12 83 13 85 14
REMARK SMILES IDX 86 15 87 16 88 17 89 18 90 19 96 20 91 21 93 22 92 23 94 24
REMARK SMILES IDX 95 25 10 26 11 27 12 28 13 29 14 30 15 32 16 33 17 34 81 35
REMARK SMILES IDX 18 36 80 37 19 38 20 39 21 40 74 41 22 42 79 43 73 44 75 45
REMARK SMILES IDX 23 46 78 47 72 48 71 49 24 51 58 52 37 53 57 54 38 55 41 56
REMARK SMILES IDX 56 57 76 58 39 59 40 60 55 62 77 63 42 64 25 65 26 66 35 67
REMARK SMILES IDX 27 68 28 69 34 70 36 71 29 72 30 73 31 74 32 75 33 76 59 77
REMARK SMILES IDX 60 78 69 79 61 80 62 81 68 82 70 83 63 84 64 85 65 86 66 87
REMARK SMILES IDX 67 88 43 89 44 90 53 91 45 92 46 93 52 94 54 95 47 96 48 97
REMARK SMILES IDX 49 98 50 99 51 100
REMARK H PARENT 6 7 13 31 75 50 41 61
REMARK Flexibility Score: inf
ROOT
ATOM      1  C   UNL A   1      35.353  30.019  27.610  1.00  0.00     0.002 C 
ENDROOT
BRANCH   1   2
ATOM      2  C   UNL A   1      34.402  29.030  26.949  1.00  0.00     0.021 C 
BRANCH   2   3
ATOM      3  C   UNL A   1      32.987  28.960  27.551  1.00  0.00     0.116 C 
BRANCH   3   4
ATOM      4  N   UNL A   1      32.035  29.575  26.644  1.00  0.00    -0.356 N 
ATOM      5  C   UNL A   1      31.577  29.236  25.409  1.00  0.00     0.224 C 
ATOM      6  O   UNL A   1      30.915  30.111  24.839  1.00  0.00    -0.275 OA
ATOM      7  H   UNL A   1      31.640  30.407  26.994  1.00  0.00     0.163 HD
BRANCH   5   8
ATOM      8  C   UNL A   1      31.716  27.826  24.804  1.00  0.00     0.098 C 
ATOM      9  C   UNL A   1      33.807  28.569  23.429  1.00  0.00     0.026 C 
ATOM     10  C   UNL A   1      32.876  27.457  23.852  1.00  0.00     0.082 C 
ATOM     11  N   UNL A   1      32.292  27.024  22.560  1.00  0.00    -0.198 NA
ATOM     12  C   UNL A   1      30.461  27.433  23.996  1.00  0.00     0.032 C 
ATOM     13  C   UNL A   1      30.896  27.501  22.543  1.00  0.00     0.103 C 
BRANCH  11  14
ATOM     14  S   UNL A   1      32.628  25.509  21.925  1.00  0.00     0.218 S 
ATOM     15  O   UNL A   1      31.368  24.790  21.939  1.00  0.00    -0.212 OA
ATOM     16  O   UNL A   1      33.312  25.719  20.666  1.00  0.00    -0.212 OA
BRANCH  14  17
ATOM     17  C   UNL A   1      33.736  24.654  23.091  1.00  0.00     0.189 C 
BRANCH  17  18
ATOM     18  C   UNL A   1      33.116  23.507  23.854  1.00  0.00    -0.030 A 
ATOM     19  C   UNL A   1      33.493  22.179  23.622  1.00  0.00     0.005 A 
ATOM     20  C   UNL A   1      32.062  23.740  24.760  1.00  0.00     0.024 A 
ATOM     21  C   UNL A   1      32.885  21.127  24.317  1.00  0.00     0.002 A 
ATOM     22  C   UNL A   1      31.494  22.696  25.507  1.00  0.00     0.052 A 
ATOM     23  C   UNL A   1      31.903  21.384  25.275  1.00  0.00     0.019 A 
BRANCH  22  24
ATOM     24  C   UNL A   1      30.554  22.991  26.549  1.00  0.00     0.099 C 
ATOM     25  N   UNL A   1      29.798  23.298  27.378  1.00  0.00    -0.192 NA
ENDBRANCH  22  24
ENDBRANCH  17  18
ENDBRANCH  14  17
ENDBRANCH  11  14
ENDBRANCH   5   8
ENDBRANCH   3   4
ENDBRANCH   2   3
ENDBRANCH   1   2
BRANCH   1  26
ATOM     26  C   UNL A   1      34.650  31.128  28.388  1.00  0.00     0.002 C 
BRANCH  26  27
ATOM     27  C   UNL A   1      34.257  32.354  27.555  1.00  0.00     0.021 C 
BRANCH  27  28
ATOM     28  C   UNL A   1      32.850  32.883  27.824  1.00  0.00     0.116 C 
BRANCH  28  29
ATOM     29  N   UNL A   1      32.847  34.332  27.955  1.00  0.00    -0.352 N 
ATOM     30  C   UNL A   1      33.508  35.122  28.861  1.00  0.00     0.251 C 
ATOM     31  H   UNL A   1      32.291  34.814  27.301  1.00  0.00     0.163 HD
ATOM     32  O   UNL A   1      33.166  36.291  29.018  1.00  0.00    -0.269 OA
BRANCH  30  33
ATOM     33  C   UNL A   1      34.623  34.558  29.648  1.00  0.00     0.039 A 
ATOM     34  C   UNL A   1      34.345  33.936  30.867  1.00  0.00     0.014 A 
ATOM     35  C   UNL A   1      35.941  34.656  29.191  1.00  0.00     0.014 A 
ATOM     36  C   UNL A   1      35.386  33.368  31.603  1.00  0.00     0.010 A 
ATOM     37  C   UNL A   1      36.964  34.019  29.885  1.00  0.00     0.010 A 
ATOM     38  C   UNL A   1      36.700  33.376  31.102  1.00  0.00    -0.014 A 
BRANCH  38  39
ATOM     39  C   UNL A   1      37.805  32.716  31.843  1.00  0.00     0.031 A 
ATOM     40  C   UNL A   1      38.491  31.509  31.264  1.00  0.00     0.074 A 
ATOM     41  C   UNL A   1      38.157  33.179  33.059  1.00  0.00     0.049 A 
ATOM     42  N   UNL A   1      39.450  30.779  31.775  1.00  0.00    -0.248 NA
ATOM     43  C   UNL A   1      38.027  31.047  29.945  1.00  0.00     0.031 C 
ATOM     44  C   UNL A   1      37.535  34.315  33.742  1.00  0.00     0.029 A 
ATOM     45  N   UNL A   1      39.119  32.750  33.939  1.00  0.00    -0.354 N 
ATOM     46  C   UNL A   1      39.697  29.773  30.848  1.00  0.00     0.074 A 
ATOM     47  C   UNL A   1      38.748  29.949  29.772  1.00  0.00     0.031 C 
ATOM     48  C   UNL A   1      38.151  34.512  34.919  1.00  0.00     0.029 A 
ATOM     49  C   UNL A   1      39.177  33.489  35.097  1.00  0.00     0.049 A 
ATOM     50  H   UNL A   1      39.713  31.986  33.758  1.00  0.00     0.167 HD
ATOM     51  C   UNL A   1      40.645  28.806  30.881  1.00  0.00     0.037 A 
ATOM     52  C   UNL A   1      39.959  33.352  36.185  1.00  0.00     0.037 A 
ATOM     53  C   UNL A   1      41.590  28.645  31.958  1.00  0.00     0.049 A 
ATOM     54  C   UNL A   1      40.982  32.250  36.214  1.00  0.00     0.074 A 
ATOM     55  C   UNL A   1      42.620  27.728  32.066  1.00  0.00     0.029 A 
ATOM     56  N   UNL A   1      41.613  29.409  33.116  1.00  0.00    -0.354 N 
ATOM     57  N   UNL A   1      41.250  31.348  35.298  1.00  0.00    -0.248 NA
ATOM     58  C   UNL A   1      41.814  32.146  37.419  1.00  0.00     0.031 C 
ATOM     59  C   UNL A   1      43.223  27.894  33.316  1.00  0.00     0.029 A 
ATOM     60  C   UNL A   1      42.617  28.962  33.959  1.00  0.00     0.049 A 
ATOM     61  H   UNL A   1      41.004  30.158  33.309  1.00  0.00     0.167 HD
ATOM     62  C   UNL A   1      42.300  30.590  35.805  1.00  0.00     0.074 A 
ATOM     63  C   UNL A   1      42.628  31.149  37.100  1.00  0.00     0.031 C 
ATOM     64  C   UNL A   1      42.935  29.528  35.248  1.00  0.00     0.037 A 
BRANCH  51  65
ATOM     65  C   UNL A   1      40.705  27.843  29.725  1.00  0.00     0.058 A 
ATOM     66  C   UNL A   1      41.716  27.914  28.752  1.00  0.00     0.135 A 
ATOM     67  C   UNL A   1      39.758  26.812  29.605  1.00  0.00     0.135 A 
ATOM     68  F   UNL A   1      42.641  28.886  28.805  1.00  0.00    -0.206 F 
ATOM     69  C   UNL A   1      41.768  27.020  27.687  1.00  0.00     0.059 A 
ATOM     70  C   UNL A   1      39.811  25.886  28.567  1.00  0.00     0.059 A 
ATOM     71  F   UNL A   1      38.769  26.694  30.504  1.00  0.00    -0.206 F 
ATOM     72  C   UNL A   1      40.811  26.008  27.605  1.00  0.00     0.060 A 
BRANCH  72  73
ATOM     73  S   UNL A   1      40.897  24.854  26.220  1.00  0.00     0.124 S 
ATOM     74  O   UNL A   1      41.271  25.742  25.123  1.00  0.00    -0.237 OA
ATOM     75  O   UNL A   1      41.929  23.920  26.657  1.00  0.00    -0.237 OA
ATOM     76  O   UNL A   1      39.547  24.305  26.147  1.00  0.00    -0.744 OA
ENDBRANCH  72  73
ENDBRANCH  51  65
BRANCH  52  77
ATOM     77  C   UNL A   1      39.811  34.291  37.331  1.00  0.00     0.058 A 
ATOM     78  C   UNL A   1      39.069  33.937  38.468  1.00  0.00     0.135 A 
ATOM     79  C   UNL A   1      40.417  35.558  37.318  1.00  0.00     0.135 A 
ATOM     80  F   UNL A   1      38.463  32.740  38.528  1.00  0.00    -0.206 F 
ATOM     81  C   UNL A   1      38.919  34.808  39.542  1.00  0.00     0.059 A 
ATOM     82  C   UNL A   1      40.308  36.433  38.392  1.00  0.00     0.059 A 
ATOM     83  F   UNL A   1      41.151  35.941  36.262  1.00  0.00    -0.206 F 
ATOM     84  C   UNL A   1      39.547  36.053  39.497  1.00  0.00     0.060 A 
BRANCH  84  85
ATOM     85  S   UNL A   1      39.386  37.157  40.917  1.00  0.00     0.124 S 
ATOM     86  O   UNL A   1      38.658  38.279  40.338  1.00  0.00    -0.237 OA
ATOM     87  O   UNL A   1      38.641  36.329  41.861  1.00  0.00    -0.237 OA
ATOM     88  O   UNL A   1      40.771  37.429  41.291  1.00  0.00    -0.744 OA
ENDBRANCH  84  85
ENDBRANCH  52  77
BRANCH  64  89
ATOM     89  C   UNL A   1      44.074  28.916  36.020  1.00  0.00     0.058 A 
ATOM     90  C   UNL A   1      43.889  27.803  36.856  1.00  0.00     0.135 A 
ATOM     91  C   UNL A   1      45.378  29.420  35.878  1.00  0.00     0.135 A 
ATOM     92  F   UNL A   1      42.663  27.286  37.034  1.00  0.00    -0.206 F 
ATOM     93  C   UNL A   1      44.953  27.229  37.544  1.00  0.00     0.059 A 
ATOM     94  C   UNL A   1      46.462  28.838  36.529  1.00  0.00     0.059 A 
ATOM     95  F   UNL A   1      45.613  30.476  35.084  1.00  0.00    -0.206 F 
ATOM     96  C   UNL A   1      46.236  27.749  37.370  1.00  0.00     0.060 A 
BRANCH  96  97
ATOM     97  S   UNL A   1      47.610  26.968  38.241  1.00  0.00     0.124 S 
ATOM     98  O   UNL A   1      47.574  25.615  37.698  1.00  0.00    -0.237 OA
ATOM     99  O   UNL A   1      48.745  27.787  37.828  1.00  0.00    -0.237 OA
ATOM    100  O   UNL A   1      47.236  27.090  39.647  1.00  0.00    -0.744 OA
ENDBRANCH  96  97
ENDBRANCH  64  89
ENDBRANCH  38  39
ENDBRANCH  30  33
ENDBRANCH  28  29
ENDBRANCH  27  28
ENDBRANCH  26  27
ENDBRANCH   1  26
TORSDOF 20
ENDMDL
MODEL 3
REMARK VINA RESULT:     -10.9      1.556      2.437
REMARK SMILES C[C@H]1[C@@H](C(=O)NCCCCCCNC(=O)c2ccc(-c3c4nc(c(-c5c(F)cc(S(=O)(=O)[O-])cc5F)c5ccc([nH]5)c(-c5c(F)cc(S(=O)(=O)[O-])cc5F)c5nc(c(-c6c(F)cc(S(=O)(=O)[O-])cc6F)c6ccc3[nH]6)C=C5)C=C4)cc2)CCN1S(=O)(=O)Cc1cccc(C#N)c1
REMARK SMILES IDX 9 1 8 2 7 3 6 4 4 5 5 6 3 8 1 9 2 10 84 11 82 12 83 13 85 14
REMARK SMILES IDX 86 15 87 16 88 17 89 18 90 19 96 20 91 21 93 22 92 23 94 24
REMARK SMILES IDX 95 25 10 26 11 27 12 28 13 29 14 30 15 32 16 33 17 34 81 35
REMARK SMILES IDX 18 36 80 37 19 38 20 39 21 40 74 41 22 42 79 43 73 44 75 45
REMARK SMILES IDX 23 46 78 47 72 48 71 49 24 51 58 52 37 53 57 54 38 55 41 56
REMARK SMILES IDX 56 57 76 58 39 59 40 60 55 62 77 63 42 64 25 65 26 66 35 67
REMARK SMILES IDX 27 68 28 69 34 70 36 71 29 72 30 73 31 74 32 75 33 76 59 77
REMARK SMILES IDX 60 78 69 79 61 80 62 81 68 82 70 83 63 84 64 85 65 86 66 87
REMARK SMILES IDX 67 88 43 89 44 90 53 91 45 92 46 93 52 94 54 95 47 96 48 97
REMARK SMILES IDX 49 98 50 99 51 100
REMARK H PARENT 6 7 13 31 75 50 41 61
REMARK Flexibility Score: inf
ROOT
ATOM      1  C   UNL A   1      31.894  30.308  26.017  1.00  0.00     0.002 C 
ENDROOT
BRANCH   1   2
ATOM      2  C   UNL A   1      32.200  29.182  26.996  1.00  0.00     0.021 C 
BRANCH   2   3
ATOM      3  C   UNL A   1      33.473  28.369  26.701  1.00  0.00     0.116 C 
BRANCH   3   4
ATOM      4  N   UNL A   1      33.855  28.540  25.311  1.00  0.00    -0.356 N 
ATOM      5  C   UNL A   1      33.735  27.750  24.210  1.00  0.00     0.224 C 
ATOM      6  O   UNL A   1      34.364  28.136  23.219  1.00  0.00    -0.275 OA
ATOM      7  H   UNL A   1      34.290  29.405  25.128  1.00  0.00     0.163 HD
BRANCH   5   8
ATOM      8  C   UNL A   1      32.772  26.551  24.121  1.00  0.00     0.098 C 
ATOM      9  C   UNL A   1      34.499  25.012  25.331  1.00  0.00     0.026 C 
ATOM     10  C   UNL A   1      33.118  25.178  24.741  1.00  0.00     0.082 C 
ATOM     11  N   UNL A   1      33.115  24.169  23.655  1.00  0.00    -0.198 NA
ATOM     12  C   UNL A   1      32.441  26.201  22.655  1.00  0.00     0.032 C 
ATOM     13  C   UNL A   1      33.196  24.912  22.383  1.00  0.00     0.103 C 
BRANCH  11  14
ATOM     14  S   UNL A   1      32.120  22.820  23.732  1.00  0.00     0.218 S 
ATOM     15  O   UNL A   1      30.780  23.334  23.951  1.00  0.00    -0.212 OA
ATOM     16  O   UNL A   1      32.392  22.025  22.554  1.00  0.00    -0.212 OA
BRANCH  14  17
ATOM     17  C   UNL A   1      32.576  21.883  25.226  1.00  0.00     0.189 C 
BRANCH  17  18
ATOM     18  C   UNL A   1      33.704  20.893  25.052  1.00  0.00    -0.030 A 
ATOM     19  C   UNL A   1      35.044  21.270  25.200  1.00  0.00     0.005 A 
ATOM     20  C   UNL A   1      33.437  19.573  24.637  1.00  0.00     0.024 A 
ATOM     21  C   UNL A   1      36.077  20.346  25.004  1.00  0.00     0.002 A 
ATOM     22  C   UNL A   1      34.464  18.625  24.504  1.00  0.00     0.052 A 
ATOM     23  C   UNL A   1      35.789  19.019  24.679  1.00  0.00     0.019 A 
BRANCH  22  24
ATOM     24  C   UNL A   1      34.141  17.249  24.259  1.00  0.00     0.099 C 
ATOM     25  N   UNL A   1      33.874  16.149  23.991  1.00  0.00    -0.192 NA
ENDBRANCH  22  24
ENDBRANCH  17  18
ENDBRANCH  14  17
ENDBRANCH  11  14
ENDBRANCH   5   8
ENDBRANCH   3   4
ENDBRANCH   2   3
ENDBRANCH   1   2
BRANCH   1  26
ATOM     26  C   UNL A   1      31.089  31.454  26.624  1.00  0.00     0.002 C 
BRANCH  26  27
ATOM     27  C   UNL A   1      31.730  32.839  26.488  1.00  0.00     0.021 C 
BRANCH  27  28
ATOM     28  C   UNL A   1      32.707  33.202  27.605  1.00  0.00     0.116 C 
BRANCH  28  29
ATOM     29  N   UNL A   1      32.628  34.616  27.936  1.00  0.00    -0.352 N 
ATOM     30  C   UNL A   1      33.225  35.301  28.964  1.00  0.00     0.251 C 
ATOM     31  H   UNL A   1      32.065  35.160  27.339  1.00  0.00     0.163 HD
ATOM     32  O   UNL A   1      32.822  36.419  29.271  1.00  0.00    -0.269 OA
BRANCH  30  33
ATOM     33  C   UNL A   1      34.347  34.684  29.700  1.00  0.00     0.039 A 
ATOM     34  C   UNL A   1      34.122  34.184  30.985  1.00  0.00     0.014 A 
ATOM     35  C   UNL A   1      35.621  34.611  29.129  1.00  0.00     0.014 A 
ATOM     36  C   UNL A   1      35.165  33.567  31.676  1.00  0.00     0.010 A 
ATOM     37  C   UNL A   1      36.637  33.925  29.786  1.00  0.00     0.010 A 
ATOM     38  C   UNL A   1      36.423  33.403  31.070  1.00  0.00    -0.014 A 
BRANCH  38  39
ATOM     39  C   UNL A   1      37.522  32.688  31.769  1.00  0.00     0.031 A 
ATOM     40  C   UNL A   1      38.034  33.194  33.090  1.00  0.00     0.074 A 
ATOM     41  C   UNL A   1      38.087  31.612  31.188  1.00  0.00     0.049 A 
ATOM     42  N   UNL A   1      39.006  32.726  33.832  1.00  0.00    -0.248 NA
ATOM     43  C   UNL A   1      37.385  34.394  33.643  1.00  0.00     0.031 C 
ATOM     44  C   UNL A   1      37.704  31.055  29.889  1.00  0.00     0.029 A 
ATOM     45  N   UNL A   1      39.106  30.795  31.610  1.00  0.00    -0.354 N 
ATOM     46  C   UNL A   1      39.087  33.575  34.930  1.00  0.00     0.074 A 
ATOM     47  C   UNL A   1      38.109  34.621  34.728  1.00  0.00     0.031 C 
ATOM     48  C   UNL A   1      38.456  29.972  29.635  1.00  0.00     0.029 A 
ATOM     49  C   UNL A   1      39.407  29.785  30.727  1.00  0.00     0.049 A 
ATOM     50  H   UNL A   1      39.578  30.920  32.465  1.00  0.00     0.167 HD
ATOM     51  C   UNL A   1      39.888  33.477  36.018  1.00  0.00     0.037 A 
ATOM     52  C   UNL A   1      40.348  28.824  30.783  1.00  0.00     0.037 A 
ATOM     53  C   UNL A   1      40.855  32.426  36.211  1.00  0.00     0.049 A 
ATOM     54  C   UNL A   1      41.249  28.754  31.986  1.00  0.00     0.074 A 
ATOM     55  C   UNL A   1      41.682  32.209  37.298  1.00  0.00     0.029 A 
ATOM     56  N   UNL A   1      41.134  31.424  35.291  1.00  0.00    -0.354 N 
ATOM     57  N   UNL A   1      41.266  29.524  33.050  1.00  0.00    -0.248 NA
ATOM     58  C   UNL A   1      42.254  27.685  32.003  1.00  0.00     0.031 C 
ATOM     59  C   UNL A   1      42.506  31.117  37.009  1.00  0.00     0.029 A 
ATOM     60  C   UNL A   1      42.144  30.607  35.772  1.00  0.00     0.049 A 
ATOM     61  H   UNL A   1      40.681  31.312  34.425  1.00  0.00     0.167 HD
ATOM     62  C   UNL A   1      42.264  29.014  33.873  1.00  0.00     0.074 A 
ATOM     63  C   UNL A   1      42.815  27.861  33.192  1.00  0.00     0.031 C 
ATOM     64  C   UNL A   1      42.685  29.460  35.084  1.00  0.00     0.037 A 
BRANCH  51  65
ATOM     65  C   UNL A   1      39.759  34.536  37.081  1.00  0.00     0.058 A 
ATOM     66  C   UNL A   1      39.017  34.321  38.255  1.00  0.00     0.135 A 
ATOM     67  C   UNL A   1      40.414  35.771  36.942  1.00  0.00     0.135 A 
ATOM     68  F   UNL A   1      38.358  33.167  38.439  1.00  0.00    -0.206 F 
ATOM     69  C   UNL A   1      38.904  35.302  39.235  1.00  0.00     0.059 A 
ATOM     70  C   UNL A   1      40.342  36.753  37.926  1.00  0.00     0.059 A 
ATOM     71  F   UNL A   1      41.137  36.033  35.843  1.00  0.00    -0.206 F 
ATOM     72  C   UNL A   1      39.571  36.515  39.062  1.00  0.00     0.060 A 
BRANCH  72  73
ATOM     73  S   UNL A   1      39.417  37.773  40.347  1.00  0.00     0.124 S 
ATOM     74  O   UNL A   1      38.505  38.723  39.716  1.00  0.00    -0.237 OA
ATOM     75  O   UNL A   1      38.866  37.012  41.463  1.00  0.00    -0.237 OA
ATOM     76  O   UNL A   1      40.786  38.247  40.528  1.00  0.00    -0.744 OA
ENDBRANCH  72  73
ENDBRANCH  51  65
BRANCH  52  77
ATOM     77  C   UNL A   1      40.477  27.842  29.671  1.00  0.00     0.058 A 
ATOM     78  C   UNL A   1      39.579  26.772  29.541  1.00  0.00     0.135 A 
ATOM     79  C   UNL A   1      41.492  27.961  28.708  1.00  0.00     0.135 A 
ATOM     80  F   UNL A   1      38.595  26.609  30.439  1.00  0.00    -0.206 F 
ATOM     81  C   UNL A   1      39.693  25.845  28.509  1.00  0.00     0.059 A 
ATOM     82  C   UNL A   1      41.607  27.066  27.650  1.00  0.00     0.059 A 
ATOM     83  F   UNL A   1      42.368  28.976  28.776  1.00  0.00    -0.206 F 
ATOM     84  C   UNL A   1      40.708  26.004  27.565  1.00  0.00     0.060 A 
BRANCH  84  85
ATOM     85  S   UNL A   1      40.816  24.824  26.203  1.00  0.00     0.124 S 
ATOM     86  O   UNL A   1      41.809  23.883  26.707  1.00  0.00    -0.237 OA
ATOM     87  O   UNL A   1      39.446  24.328  26.122  1.00  0.00    -0.237 OA
ATOM     88  O   UNL A   1      41.243  25.649  25.076  1.00  0.00    -0.744 OA
ENDBRANCH  84  85
ENDBRANCH  52  77
BRANCH  64  89
ATOM     89  C   UNL A   1      43.775  28.680  35.771  1.00  0.00     0.058 A 
ATOM     90  C   UNL A   1      43.490  27.602  36.624  1.00  0.00     0.135 A 
ATOM     91  C   UNL A   1      45.125  28.984  35.528  1.00  0.00     0.135 A 
ATOM     92  F   UNL A   1      42.217  27.272  36.896  1.00  0.00    -0.206 F 
ATOM     93  C   UNL A   1      44.504  26.871  37.233  1.00  0.00     0.059 A 
ATOM     94  C   UNL A   1      46.155  28.243  36.099  1.00  0.00     0.059 A 
ATOM     95  F   UNL A   1      45.455  29.999  34.713  1.00  0.00    -0.206 F 
ATOM     96  C   UNL A   1      45.834  27.195  36.960  1.00  0.00     0.060 A 
BRANCH  96  97
ATOM     97  S   UNL A   1      47.138  26.213  37.729  1.00  0.00     0.124 S 
ATOM     98  O   UNL A   1      46.931  26.503  39.143  1.00  0.00    -0.237 OA
ATOM     99  O   UNL A   1      46.798  24.859  37.303  1.00  0.00    -0.237 OA
ATOM    100  O   UNL A   1      48.362  26.757  37.149  1.00  0.00    -0.744 OA
ENDBRANCH  96  97
ENDBRANCH  64  89
ENDBRANCH  38  39
ENDBRANCH  30  33
ENDBRANCH  28  29
ENDBRANCH  27  28
ENDBRANCH  26  27
ENDBRANCH   1  26
TORSDOF 20
ENDMDL
