MODEL 1
REMARK VINA RESULT:     -10.4      0.000      0.000
REMARK SMILES O=C(Cc1cccn(C(F)F)c1=O)NCCCCCCNC(=O)c1ccc(-c2c3nc(c(-c4c(F)cc(S(=O)(=O)[O-])cc4F)c4ccc([nH]4)c(-c4c(F)cc(S(=O)(=O)[O-])cc4F)c4nc(c(-c5c(F)cc(S(=O)(=O)[O-])cc5F)c5ccc2[nH]5)C=C4)C=C3)cc1
REMARK SMILES IDX 18 1 17 2 16 3 15 4 14 5 1 6 2 7 3 9 4 10 5 11 12 12 6 13
REMARK SMILES IDX 8 14 13 15 7 16 9 17 10 18 11 19 19 20 20 21 21 22 22 23
REMARK SMILES IDX 23 25 24 26 25 27 89 28 26 29 88 30 27 31 28 32 29 33 82 34
REMARK SMILES IDX 30 35 87 36 81 37 83 38 31 39 86 40 80 41 79 42 32 44 66 45
REMARK SMILES IDX 45 46 65 47 46 48 49 49 64 50 84 51 47 52 48 53 63 55 85 56
REMARK SMILES IDX 50 57 33 58 34 59 43 60 35 61 36 62 42 63 44 64 37 65 38 66
REMARK SMILES IDX 39 67 40 68 41 69 67 70 68 71 77 72 69 73 70 74 76 75 78 76
REMARK SMILES IDX 71 77 72 78 73 79 74 80 75 81 51 82 52 83 61 84 53 85 54 86
REMARK SMILES IDX 60 87 62 88 55 89 56 90 57 91 58 92 59 93
REMARK H PARENT 14 8 21 24 83 43 49 54
REMARK Flexibility Score: inf
ROOT
ATOM      1  C   UNL A   1      43.675  23.054  28.292  1.00  0.00     0.002 C 
ENDROOT
BRANCH   1   2
ATOM      2  C   UNL A   1      43.978  24.520  28.612  1.00  0.00     0.002 C 
BRANCH   2   3
ATOM      3  C   UNL A   1      45.257  25.091  27.981  1.00  0.00     0.021 C 
BRANCH   3   4
ATOM      4  C   UNL A   1      45.071  25.719  26.603  1.00  0.00     0.116 C 
BRANCH   4   5
ATOM      5  N   UNL A   1      44.818  24.714  25.592  1.00  0.00    -0.356 N 
ATOM      6  O   UNL A   1      47.022  24.189  25.160  1.00  0.00    -0.275 OA
ATOM      7  C   UNL A   1      45.824  23.966  25.019  1.00  0.00     0.224 C 
ATOM      8  H   UNL A   1      43.890  24.561  25.301  1.00  0.00     0.163 HD
BRANCH   7   9
ATOM      9  C   UNL A   1      45.313  22.856  24.106  1.00  0.00     0.141 C 
BRANCH   9  10
ATOM     10  C   UNL A   1      45.127  21.476  24.679  1.00  0.00     0.027 A 
ATOM     11  C   UNL A   1      46.167  20.618  24.707  1.00  0.00     0.011 A 
ATOM     12  C   UNL A   1      43.799  20.980  25.188  1.00  0.00     0.258 A 
ATOM     13  C   UNL A   1      46.030  19.264  25.173  1.00  0.00     0.019 A 
ATOM     14  N   UNL A   1      43.732  19.644  25.543  1.00  0.00    -0.258 N 
ATOM     15  O   UNL A   1      42.820  21.716  25.245  1.00  0.00    -0.269 OA
ATOM     16  C   UNL A   1      44.832  18.812  25.551  1.00  0.00     0.095 A 
BRANCH  14  17
ATOM     17  C   UNL A   1      42.445  19.122  25.939  1.00  0.00     0.451 C 
ATOM     18  F   UNL A   1      42.514  17.763  25.994  1.00  0.00    -0.185 F 
ATOM     19  F   UNL A   1      42.159  19.536  27.203  1.00  0.00    -0.185 F 
ENDBRANCH  14  17
ENDBRANCH   9  10
ENDBRANCH   7   9
ENDBRANCH   4   5
ENDBRANCH   3   4
ENDBRANCH   2   3
ENDBRANCH   1   2
BRANCH   1  20
ATOM     20  C   UNL A   1      42.283  22.571  28.695  1.00  0.00     0.021 C 
BRANCH  20  21
ATOM     21  C   UNL A   1      41.129  23.241  27.960  1.00  0.00     0.116 C 
BRANCH  21  22
ATOM     22  N   UNL A   1      41.498  23.759  26.649  1.00  0.00    -0.352 N 
ATOM     23  C   UNL A   1      41.422  25.057  26.189  1.00  0.00     0.251 C 
ATOM     24  H   UNL A   1      41.848  23.097  26.010  1.00  0.00     0.163 HD
ATOM     25  O   UNL A   1      41.672  25.322  25.018  1.00  0.00    -0.269 OA
BRANCH  23  26
ATOM     26  C   UNL A   1      40.987  26.118  27.124  1.00  0.00     0.039 A 
ATOM     27  C   UNL A   1      41.646  27.348  27.139  1.00  0.00     0.014 A 
ATOM     28  C   UNL A   1      39.991  25.838  28.062  1.00  0.00     0.014 A 
ATOM     29  C   UNL A   1      41.458  28.209  28.212  1.00  0.00     0.010 A 
ATOM     30  C   UNL A   1      39.734  26.753  29.087  1.00  0.00     0.010 A 
ATOM     31  C   UNL A   1      40.513  27.916  29.211  1.00  0.00    -0.014 A 
BRANCH  31  32
ATOM     32  C   UNL A   1      40.392  28.814  30.391  1.00  0.00     0.031 A 
ATOM     33  C   UNL A   1      41.358  28.702  31.547  1.00  0.00     0.074 A 
ATOM     34  C   UNL A   1      39.455  29.782  30.392  1.00  0.00     0.049 A 
ATOM     35  N   UNL A   1      41.405  29.402  32.653  1.00  0.00    -0.248 NA
ATOM     36  C   UNL A   1      42.405  27.673  31.452  1.00  0.00     0.031 C 
ATOM     37  C   UNL A   1      38.480  30.010  29.323  1.00  0.00     0.029 A 
ATOM     38  N   UNL A   1      39.181  30.769  31.305  1.00  0.00    -0.354 N 
ATOM     39  C   UNL A   1      42.468  28.890  33.388  1.00  0.00     0.074 A 
ATOM     40  C   UNL A   1      43.020  27.796  32.621  1.00  0.00     0.031 C 
ATOM     41  C   UNL A   1      37.752  31.098  29.615  1.00  0.00     0.029 A 
ATOM     42  C   UNL A   1      38.155  31.603  30.923  1.00  0.00     0.049 A 
ATOM     43  H   UNL A   1      39.671  30.870  32.152  1.00  0.00     0.167 HD
ATOM     44  C   UNL A   1      42.952  29.304  34.585  1.00  0.00     0.037 A 
ATOM     45  C   UNL A   1      37.587  32.644  31.560  1.00  0.00     0.037 A 
ATOM     46  C   UNL A   1      42.414  30.411  35.334  1.00  0.00     0.049 A 
ATOM     47  C   UNL A   1      38.101  33.042  32.914  1.00  0.00     0.074 A 
ATOM     48  C   UNL A   1      42.843  30.917  36.550  1.00  0.00     0.029 A 
ATOM     49  N   UNL A   1      41.331  31.187  34.942  1.00  0.00    -0.354 N 
ATOM     50  N   UNL A   1      39.104  32.542  33.594  1.00  0.00    -0.248 NA
ATOM     51  C   UNL A   1      37.397  34.138  33.593  1.00  0.00     0.031 C 
ATOM     52  C   UNL A   1      41.993  31.964  36.915  1.00  0.00     0.029 A 
ATOM     53  C   UNL A   1      41.064  32.148  35.903  1.00  0.00     0.049 A 
ATOM     54  H   UNL A   1      40.828  31.070  34.104  1.00  0.00     0.167 HD
ATOM     55  C   UNL A   1      39.161  33.271  34.776  1.00  0.00     0.074 A 
ATOM     56  C   UNL A   1      38.105  34.260  34.709  1.00  0.00     0.031 C 
ATOM     57  C   UNL A   1      40.008  33.127  35.826  1.00  0.00     0.037 A 
BRANCH  44  58
ATOM     58  C   UNL A   1      44.122  28.558  35.173  1.00  0.00     0.058 A 
ATOM     59  C   UNL A   1      45.447  28.939  34.910  1.00  0.00     0.135 A 
ATOM     60  C   UNL A   1      43.914  27.492  36.064  1.00  0.00     0.135 A 
ATOM     61  F   UNL A   1      45.707  29.940  34.054  1.00  0.00    -0.206 F 
ATOM     62  C   UNL A   1      46.524  28.277  35.494  1.00  0.00     0.059 A 
ATOM     63  C   UNL A   1      44.974  26.835  36.681  1.00  0.00     0.059 A 
ATOM     64  F   UNL A   1      42.667  27.087  36.353  1.00  0.00    -0.206 F 
ATOM     65  C   UNL A   1      46.277  27.229  36.382  1.00  0.00     0.060 A 
BRANCH  65  66
ATOM     66  S   UNL A   1      47.687  26.395  37.140  1.00  0.00     0.124 S 
ATOM     67  O   UNL A   1      47.381  24.995  36.864  1.00  0.00    -0.237 OA
ATOM     68  O   UNL A   1      48.814  26.955  36.400  1.00  0.00    -0.237 OA
ATOM     69  O   UNL A   1      47.604  26.788  38.543  1.00  0.00    -0.744 OA
ENDBRANCH  65  66
ENDBRANCH  44  58
BRANCH  45  70
ATOM     70  C   UNL A   1      36.460  33.372  30.918  1.00  0.00     0.058 A 
ATOM     71  C   UNL A   1      35.152  33.257  31.410  1.00  0.00     0.135 A 
ATOM     72  C   UNL A   1      36.674  34.223  29.821  1.00  0.00     0.135 A 
ATOM     73  F   UNL A   1      34.895  32.449  32.450  1.00  0.00    -0.206 F 
ATOM     74  C   UNL A   1      34.094  33.954  30.835  1.00  0.00     0.059 A 
ATOM     75  C   UNL A   1      35.638  34.953  29.249  1.00  0.00     0.059 A 
ATOM     76  F   UNL A   1      37.909  34.378  29.321  1.00  0.00    -0.206 F 
ATOM     77  C   UNL A   1      34.350  34.806  29.758  1.00  0.00     0.060 A 
BRANCH  77  78
ATOM     78  S   UNL A   1      32.979  35.750  29.061  1.00  0.00     0.124 S 
ATOM     79  O   UNL A   1      32.366  34.767  28.175  1.00  0.00    -0.237 OA
ATOM     80  O   UNL A   1      32.213  36.101  30.253  1.00  0.00    -0.237 OA
ATOM     81  O   UNL A   1      33.643  36.869  28.398  1.00  0.00    -0.744 OA
ENDBRANCH  77  78
ENDBRANCH  45  70
BRANCH  57  82
ATOM     82  C   UNL A   1      39.839  34.067  36.987  1.00  0.00     0.058 A 
ATOM     83  C   UNL A   1      40.547  35.277  37.062  1.00  0.00     0.135 A 
ATOM     84  C   UNL A   1      38.912  33.787  38.005  1.00  0.00     0.135 A 
ATOM     85  F   UNL A   1      41.450  35.590  36.120  1.00  0.00    -0.206 F 
ATOM     86  C   UNL A   1      40.357  36.166  38.114  1.00  0.00     0.059 A 
ATOM     87  C   UNL A   1      38.685  34.675  39.051  1.00  0.00     0.059 A 
ATOM     88  F   UNL A   1      38.202  32.648  37.978  1.00  0.00    -0.206 F 
ATOM     89  C   UNL A   1      39.418  35.859  39.101  1.00  0.00     0.060 A 
BRANCH  89  90
ATOM     90  S   UNL A   1      39.156  37.044  40.437  1.00  0.00     0.124 S 
ATOM     91  O   UNL A   1      38.273  38.017  39.802  1.00  0.00    -0.237 OA
ATOM     92  O   UNL A   1      38.546  36.215  41.472  1.00  0.00    -0.237 OA
ATOM     93  O   UNL A   1      40.503  37.523  40.738  1.00  0.00    -0.744 OA
ENDBRANCH  89  90
ENDBRANCH  57  82
ENDBRANCH  31  32
ENDBRANCH  23  26
ENDBRANCH  21  22
ENDBRANCH  20  21
ENDBRANCH   1  20
TORSDOF 18
ENDMDL
MODEL 2
REMARK VINA RESULT:     -10.4      4.925     10.318
REMARK SMILES O=C(Cc1cccn(C(F)F)c1=O)NCCCCCCNC(=O)c1ccc(-c2c3nc(c(-c4c(F)cc(S(=O)(=O)[O-])cc4F)c4ccc([nH]4)c(-c4c(F)cc(S(=O)(=O)[O-])cc4F)c4nc(c(-c5c(F)cc(S(=O)(=O)[O-])cc5F)c5ccc2[nH]5)C=C4)C=C3)cc1
REMARK SMILES IDX 18 1 17 2 16 3 15 4 14 5 1 6 2 7 3 9 4 10 5 11 12 12 6 13
REMARK SMILES IDX 8 14 13 15 7 16 9 17 10 18 11 19 19 20 20 21 21 22 22 23
REMARK SMILES IDX 23 25 24 26 25 27 89 28 26 29 88 30 27 31 28 32 29 33 82 34
REMARK SMILES IDX 30 35 87 36 81 37 83 38 31 39 86 40 80 41 79 42 32 44 66 45
REMARK SMILES IDX 45 46 65 47 46 48 49 49 64 50 84 51 47 52 48 53 63 55 85 56
REMARK SMILES IDX 50 57 33 58 34 59 43 60 35 61 36 62 42 63 44 64 37 65 38 66
REMARK SMILES IDX 39 67 40 68 41 69 67 70 68 71 77 72 69 73 70 74 76 75 78 76
REMARK SMILES IDX 71 77 72 78 73 79 74 80 75 81 51 82 52 83 61 84 53 85 54 86
REMARK SMILES IDX 60 87 62 88 55 89 56 90 57 91 58 92 59 93
REMARK H PARENT 14 8 21 24 83 43 49 54
REMARK Flexibility Score: inf
ROOT
ATOM      1  C   UNL A   1      34.884  23.422  26.180  1.00  0.00     0.002 C 
ENDROOT
BRANCH   1   2
ATOM      2  C   UNL A   1      33.747  24.034  25.356  1.00  0.00     0.002 C 
BRANCH   2   3
ATOM      3  C   UNL A   1      34.178  24.880  24.148  1.00  0.00     0.021 C 
BRANCH   3   4
ATOM      4  C   UNL A   1      33.437  24.574  22.850  1.00  0.00     0.116 C 
BRANCH   4   5
ATOM      5  N   UNL A   1      33.268  23.150  22.658  1.00  0.00    -0.356 N 
ATOM      6  O   UNL A   1      31.029  23.056  23.209  1.00  0.00    -0.275 OA
ATOM      7  C   UNL A   1      32.044  22.525  22.768  1.00  0.00     0.224 C 
ATOM      8  H   UNL A   1      34.059  22.605  22.442  1.00  0.00     0.163 HD
BRANCH   7   9
ATOM      9  C   UNL A   1      32.072  21.055  22.361  1.00  0.00     0.141 C 
BRANCH   9  10
ATOM     10  C   UNL A   1      32.373  20.018  23.412  1.00  0.00     0.027 A 
ATOM     11  C   UNL A   1      32.537  20.397  24.695  1.00  0.00     0.011 A 
ATOM     12  C   UNL A   1      32.552  18.559  23.085  1.00  0.00     0.258 A 
ATOM     13  C   UNL A   1      32.901  19.463  25.728  1.00  0.00     0.019 A 
ATOM     14  N   UNL A   1      32.978  17.742  24.117  1.00  0.00    -0.258 N 
ATOM     15  O   UNL A   1      32.367  18.129  21.951  1.00  0.00    -0.269 OA
ATOM     16  C   UNL A   1      33.129  18.185  25.413  1.00  0.00     0.095 A 
BRANCH  14  17
ATOM     17  C   UNL A   1      33.252  16.359  23.804  1.00  0.00     0.451 C 
ATOM     18  F   UNL A   1      34.285  16.299  22.918  1.00  0.00    -0.185 F 
ATOM     19  F   UNL A   1      33.678  15.717  24.924  1.00  0.00    -0.185 F 
ENDBRANCH  14  17
ENDBRANCH   9  10
ENDBRANCH   7   9
ENDBRANCH   4   5
ENDBRANCH   3   4
ENDBRANCH   2   3
ENDBRANCH   1   2
BRANCH   1  20
ATOM     20  C   UNL A   1      36.036  22.832  25.367  1.00  0.00     0.021 C 
BRANCH  20  21
ATOM     21  C   UNL A   1      37.314  23.660  25.361  1.00  0.00     0.116 C 
BRANCH  21  22
ATOM     22  N   UNL A   1      38.518  22.871  25.586  1.00  0.00    -0.352 N 
ATOM     23  C   UNL A   1      39.659  23.226  26.275  1.00  0.00     0.251 C 
ATOM     24  H   UNL A   1      38.517  21.967  25.196  1.00  0.00     0.163 HD
ATOM     25  O   UNL A   1      40.639  22.489  26.288  1.00  0.00    -0.269 OA
BRANCH  23  26
ATOM     26  C   UNL A   1      39.695  24.538  26.959  1.00  0.00     0.039 A 
ATOM     27  C   UNL A   1      40.413  25.596  26.399  1.00  0.00     0.014 A 
ATOM     28  C   UNL A   1      39.104  24.672  28.217  1.00  0.00     0.014 A 
ATOM     29  C   UNL A   1      40.713  26.704  27.181  1.00  0.00     0.010 A 
ATOM     30  C   UNL A   1      39.327  25.833  28.963  1.00  0.00     0.010 A 
ATOM     31  C   UNL A   1      40.190  26.830  28.479  1.00  0.00    -0.014 A 
BRANCH  31  32
ATOM     32  C   UNL A   1      40.596  27.987  29.323  1.00  0.00     0.031 A 
ATOM     33  C   UNL A   1      39.675  29.169  29.506  1.00  0.00     0.074 A 
ATOM     34  C   UNL A   1      41.769  27.943  29.986  1.00  0.00     0.049 A 
ATOM     35  N   UNL A   1      39.862  30.261  30.206  1.00  0.00    -0.248 NA
ATOM     36  C   UNL A   1      38.377  29.124  28.814  1.00  0.00     0.031 C 
ATOM     37  C   UNL A   1      42.735  26.844  29.913  1.00  0.00     0.029 A 
ATOM     38  N   UNL A   1      42.339  28.825  30.867  1.00  0.00    -0.354 N 
ATOM     39  C   UNL A   1      38.721  31.034  30.026  1.00  0.00     0.074 A 
ATOM     40  C   UNL A   1      37.859  30.305  29.123  1.00  0.00     0.031 C 
ATOM     41  C   UNL A   1      43.749  27.092  30.755  1.00  0.00     0.029 A 
ATOM     42  C   UNL A   1      43.546  28.399  31.371  1.00  0.00     0.049 A 
ATOM     43  H   UNL A   1      41.924  29.683  31.116  1.00  0.00     0.167 HD
ATOM     44  C   UNL A   1      38.411  32.234  30.578  1.00  0.00     0.037 A 
ATOM     45  C   UNL A   1      44.405  28.997  32.218  1.00  0.00     0.037 A 
ATOM     46  C   UNL A   1      39.263  32.943  31.497  1.00  0.00     0.049 A 
ATOM     47  C   UNL A   1      44.067  30.355  32.764  1.00  0.00     0.074 A 
ATOM     48  C   UNL A   1      39.032  34.158  32.121  1.00  0.00     0.029 A 
ATOM     49  N   UNL A   1      40.508  32.507  31.929  1.00  0.00    -0.354 N 
ATOM     50  N   UNL A   1      42.985  31.072  32.578  1.00  0.00    -0.248 NA
ATOM     51  C   UNL A   1      45.072  30.992  33.625  1.00  0.00     0.031 C 
ATOM     52  C   UNL A   1      40.155  34.478  32.889  1.00  0.00     0.029 A 
ATOM     53  C   UNL A   1      41.066  33.439  32.789  1.00  0.00     0.049 A 
ATOM     54  H   UNL A   1      40.932  31.659  31.663  1.00  0.00     0.167 HD
ATOM     55  C   UNL A   1      43.173  32.239  33.310  1.00  0.00     0.074 A 
ATOM     56  C   UNL A   1      44.463  32.122  33.959  1.00  0.00     0.031 C 
ATOM     57  C   UNL A   1      42.353  33.312  33.427  1.00  0.00     0.037 A 
BRANCH  44  58
ATOM     58  C   UNL A   1      37.097  32.868  30.202  1.00  0.00     0.058 A 
ATOM     59  C   UNL A   1      35.943  32.692  30.982  1.00  0.00     0.135 A 
ATOM     60  C   UNL A   1      37.007  33.715  29.086  1.00  0.00     0.135 A 
ATOM     61  F   UNL A   1      35.966  31.881  32.052  1.00  0.00    -0.206 F 
ATOM     62  C   UNL A   1      34.743  33.320  30.659  1.00  0.00     0.059 A 
ATOM     63  C   UNL A   1      35.825  34.375  28.760  1.00  0.00     0.059 A 
ATOM     64  F   UNL A   1      38.079  33.920  28.305  1.00  0.00    -0.206 F 
ATOM     65  C   UNL A   1      34.695  34.163  29.548  1.00  0.00     0.060 A 
BRANCH  65  66
ATOM     66  S   UNL A   1      33.133  34.979  29.154  1.00  0.00     0.124 S 
ATOM     67  O   UNL A   1      32.472  34.985  30.455  1.00  0.00    -0.237 OA
ATOM     68  O   UNL A   1      33.578  36.279  28.664  1.00  0.00    -0.237 OA
ATOM     69  O   UNL A   1      32.533  34.104  28.151  1.00  0.00    -0.744 OA
ENDBRANCH  65  66
ENDBRANCH  44  58
BRANCH  45  70
ATOM     70  C   UNL A   1      45.672  28.311  32.588  1.00  0.00     0.058 A 
ATOM     71  C   UNL A   1      45.733  27.457  33.697  1.00  0.00     0.135 A 
ATOM     72  C   UNL A   1      46.837  28.472  31.820  1.00  0.00     0.135 A 
ATOM     73  F   UNL A   1      44.649  27.278  34.468  1.00  0.00    -0.206 F 
ATOM     74  C   UNL A   1      46.905  26.789  34.037  1.00  0.00     0.059 A 
ATOM     75  C   UNL A   1      48.012  27.791  32.122  1.00  0.00     0.059 A 
ATOM     76  F   UNL A   1      46.827  29.269  30.740  1.00  0.00    -0.206 F 
ATOM     77  C   UNL A   1      48.038  26.957  33.238  1.00  0.00     0.060 A 
BRANCH  77  78
ATOM     78  S   UNL A   1      49.534  26.038  33.657  1.00  0.00     0.124 S 
ATOM     79  O   UNL A   1      50.503  26.618  32.734  1.00  0.00    -0.237 OA
ATOM     80  O   UNL A   1      49.712  26.372  35.066  1.00  0.00    -0.237 OA
ATOM     81  O   UNL A   1      49.162  24.652  33.390  1.00  0.00    -0.744 OA
ENDBRANCH  77  78
ENDBRANCH  45  70
BRANCH  57  82
ATOM     82  C   UNL A   1      42.817  34.448  34.297  1.00  0.00     0.058 A 
ATOM     83  C   UNL A   1      42.566  34.465  35.678  1.00  0.00     0.135 A 
ATOM     84  C   UNL A   1      43.576  35.500  33.756  1.00  0.00     0.135 A 
ATOM     85  F   UNL A   1      41.839  33.489  36.244  1.00  0.00    -0.206 F 
ATOM     86  C   UNL A   1      43.034  35.493  36.489  1.00  0.00     0.059 A 
ATOM     87  C   UNL A   1      44.078  36.523  34.553  1.00  0.00     0.059 A 
ATOM     88  F   UNL A   1      43.852  35.527  32.443  1.00  0.00    -0.206 F 
ATOM     89  C   UNL A   1      43.795  36.515  35.918  1.00  0.00     0.060 A 
BRANCH  89  90
ATOM     90  S   UNL A   1      44.427  37.820  36.993  1.00  0.00     0.124 S 
ATOM     91  O   UNL A   1      44.333  38.989  36.125  1.00  0.00    -0.237 OA
ATOM     92  O   UNL A   1      43.489  37.783  38.110  1.00  0.00    -0.237 OA
ATOM     93  O   UNL A   1      45.784  37.378  37.304  1.00  0.00    -0.744 OA
ENDBRANCH  89  90
ENDBRANCH  57  82
ENDBRANCH  31  32
ENDBRANCH  23  26
ENDBRANCH  21  22
ENDBRANCH  20  21
ENDBRANCH   1  20
TORSDOF 18
ENDMDL
MODEL 3
REMARK VINA RESULT:     -10.2      0.546      8.377
REMARK SMILES O=C(Cc1cccn(C(F)F)c1=O)NCCCCCCNC(=O)c1ccc(-c2c3nc(c(-c4c(F)cc(S(=O)(=O)[O-])cc4F)c4ccc([nH]4)c(-c4c(F)cc(S(=O)(=O)[O-])cc4F)c4nc(c(-c5c(F)cc(S(=O)(=O)[O-])cc5F)c5ccc2[nH]5)C=C4)C=C3)cc1
REMARK SMILES IDX 18 1 17 2 16 3 15 4 14 5 1 6 2 7 3 9 4 10 5 11 12 12 6 13
REMARK SMILES IDX 8 14 13 15 7 16 9 17 10 18 11 19 19 20 20 21 21 22 22 23
REMARK SMILES IDX 23 25 24 26 25 27 89 28 26 29 88 30 27 31 28 32 29 33 82 34
REMARK SMILES IDX 30 35 87 36 81 37 83 38 31 39 86 40 80 41 79 42 32 44 66 45
REMARK SMILES IDX 45 46 65 47 46 48 49 49 64 50 84 51 47 52 48 53 63 55 85 56
REMARK SMILES IDX 50 57 33 58 34 59 43 60 35 61 36 62 42 63 44 64 37 65 38 66
REMARK SMILES IDX 39 67 40 68 41 69 67 70 68 71 77 72 69 73 70 74 76 75 78 76
REMARK SMILES IDX 71 77 72 78 73 79 74 80 75 81 51 82 52 83 61 84 53 85 54 86
REMARK SMILES IDX 60 87 62 88 55 89 56 90 57 91 58 92 59 93
REMARK H PARENT 14 8 21 24 83 43 49 54
REMARK Flexibility Score: inf
ROOT
ATOM      1  C   UNL A   1      43.083  22.703  28.350  1.00  0.00     0.002 C 
ENDROOT
BRANCH   1   2
ATOM      2  C   UNL A   1      43.455  24.108  28.834  1.00  0.00     0.002 C 
BRANCH   2   3
ATOM      3  C   UNL A   1      44.855  24.602  28.441  1.00  0.00     0.021 C 
BRANCH   3   4
ATOM      4  C   UNL A   1      44.932  25.314  27.093  1.00  0.00     0.116 C 
BRANCH   4   5
ATOM      5  N   UNL A   1      44.901  24.373  25.994  1.00  0.00    -0.356 N 
ATOM      6  O   UNL A   1      47.159  23.902  25.963  1.00  0.00    -0.275 OA
ATOM      7  C   UNL A   1      46.015  23.675  25.581  1.00  0.00     0.224 C 
ATOM      8  H   UNL A   1      44.050  24.227  25.521  1.00  0.00     0.163 HD
BRANCH   7   9
ATOM      9  C   UNL A   1      45.715  22.619  24.521  1.00  0.00     0.141 C 
BRANCH   9  10
ATOM     10  C   UNL A   1      45.348  21.228  24.968  1.00  0.00     0.027 A 
ATOM     11  C   UNL A   1      46.296  20.271  25.018  1.00  0.00     0.011 A 
ATOM     12  C   UNL A   1      43.938  20.835  25.322  1.00  0.00     0.258 A 
ATOM     13  C   UNL A   1      45.991  18.908  25.365  1.00  0.00     0.019 A 
ATOM     14  N   UNL A   1      43.714  19.491  25.566  1.00  0.00    -0.258 N 
ATOM     15  O   UNL A   1      43.031  21.659  25.352  1.00  0.00    -0.269 OA
ATOM     16  C   UNL A   1      44.725  18.555  25.604  1.00  0.00     0.095 A 
BRANCH  14  17
ATOM     17  C   UNL A   1      42.352  19.075  25.809  1.00  0.00     0.451 C 
ATOM     18  F   UNL A   1      42.286  17.716  25.753  1.00  0.00    -0.185 F 
ATOM     19  F   UNL A   1      41.994  19.418  27.075  1.00  0.00    -0.185 F 
ENDBRANCH  14  17
ENDBRANCH   9  10
ENDBRANCH   7   9
ENDBRANCH   4   5
ENDBRANCH   3   4
ENDBRANCH   2   3
ENDBRANCH   1   2
BRANCH   1  20
ATOM     20  C   UNL A   1      41.591  22.378  28.371  1.00  0.00     0.021 C 
BRANCH  20  21
ATOM     21  C   UNL A   1      40.714  23.309  27.542  1.00  0.00     0.116 C 
BRANCH  21  22
ATOM     22  N   UNL A   1      41.387  23.843  26.364  1.00  0.00    -0.352 N 
ATOM     23  C   UNL A   1      41.601  25.161  26.025  1.00  0.00     0.251 C 
ATOM     24  H   UNL A   1      41.733  23.175  25.730  1.00  0.00     0.163 HD
ATOM     25  O   UNL A   1      42.092  25.458  24.940  1.00  0.00    -0.269 OA
BRANCH  23  26
ATOM     26  C   UNL A   1      41.183  26.217  26.974  1.00  0.00     0.039 A 
ATOM     27  C   UNL A   1      41.905  27.408  27.056  1.00  0.00     0.014 A 
ATOM     28  C   UNL A   1      40.133  25.964  27.860  1.00  0.00     0.014 A 
ATOM     29  C   UNL A   1      41.717  28.246  28.147  1.00  0.00     0.010 A 
ATOM     30  C   UNL A   1      39.881  26.861  28.903  1.00  0.00     0.010 A 
ATOM     31  C   UNL A   1      40.715  27.975  29.096  1.00  0.00    -0.014 A 
BRANCH  31  32
ATOM     32  C   UNL A   1      40.592  28.843  30.299  1.00  0.00     0.031 A 
ATOM     33  C   UNL A   1      39.531  29.915  30.370  1.00  0.00     0.074 A 
ATOM     34  C   UNL A   1      41.391  28.619  31.361  1.00  0.00     0.049 A 
ATOM     35  N   UNL A   1      39.276  30.761  31.337  1.00  0.00    -0.248 NA
ATOM     36  C   UNL A   1      38.642  30.061  29.206  1.00  0.00     0.031 C 
ATOM     37  C   UNL A   1      42.437  27.595  31.425  1.00  0.00     0.029 A 
ATOM     38  N   UNL A   1      41.436  29.215  32.595  1.00  0.00    -0.354 N 
ATOM     39  C   UNL A   1      38.216  31.544  30.895  1.00  0.00     0.074 A 
ATOM     40  C   UNL A   1      37.896  31.099  29.557  1.00  0.00     0.031 C 
ATOM     41  C   UNL A   1      42.982  27.599  32.650  1.00  0.00     0.029 A 
ATOM     42  C   UNL A   1      42.379  28.672  33.435  1.00  0.00     0.049 A 
ATOM     43  H   UNL A   1      40.849  29.962  32.855  1.00  0.00     0.167 HD
ATOM     44  C   UNL A   1      37.557  32.531  31.551  1.00  0.00     0.037 A 
ATOM     45  C   UNL A   1      42.737  29.008  34.689  1.00  0.00     0.037 A 
ATOM     46  C   UNL A   1      37.865  32.953  32.894  1.00  0.00     0.049 A 
ATOM     47  C   UNL A   1      42.035  30.149  35.369  1.00  0.00     0.074 A 
ATOM     48  C   UNL A   1      37.246  33.935  33.649  1.00  0.00     0.029 A 
ATOM     49  N   UNL A   1      38.873  32.421  33.685  1.00  0.00    -0.354 N 
ATOM     50  N   UNL A   1      41.038  30.880  34.932  1.00  0.00    -0.248 NA
ATOM     51  C   UNL A   1      42.514  30.518  36.707  1.00  0.00     0.031 C 
ATOM     52  C   UNL A   1      37.910  34.030  34.876  1.00  0.00     0.029 A 
ATOM     53  C   UNL A   1      38.910  33.071  34.908  1.00  0.00     0.049 A 
ATOM     54  H   UNL A   1      39.474  31.689  33.416  1.00  0.00     0.167 HD
ATOM     55  C   UNL A   1      40.761  31.788  35.947  1.00  0.00     0.074 A 
ATOM     56  C   UNL A   1      41.681  31.500  37.028  1.00  0.00     0.031 C 
ATOM     57  C   UNL A   1      39.833  32.776  35.976  1.00  0.00     0.037 A 
BRANCH  44  58
ATOM     58  C   UNL A   1      36.438  33.236  30.830  1.00  0.00     0.058 A 
ATOM     59  C   UNL A   1      35.091  32.987  31.135  1.00  0.00     0.135 A 
ATOM     60  C   UNL A   1      36.717  34.221  29.868  1.00  0.00     0.135 A 
ATOM     61  F   UNL A   1      34.764  32.045  32.035  1.00  0.00    -0.206 F 
ATOM     62  C   UNL A   1      34.061  33.676  30.501  1.00  0.00     0.059 A 
ATOM     63  C   UNL A   1      35.704  34.943  29.242  1.00  0.00     0.059 A 
ATOM     64  F   UNL A   1      37.988  34.502  29.537  1.00  0.00    -0.206 F 
ATOM     65  C   UNL A   1      34.378  34.656  29.558  1.00  0.00     0.060 A 
BRANCH  65  66
ATOM     66  S   UNL A   1      33.028  35.548  28.758  1.00  0.00     0.124 S 
ATOM     67  O   UNL A   1      32.303  36.075  29.910  1.00  0.00    -0.237 OA
ATOM     68  O   UNL A   1      33.742  36.534  27.954  1.00  0.00    -0.237 OA
ATOM     69  O   UNL A   1      32.332  34.511  28.003  1.00  0.00    -0.744 OA
ENDBRANCH  65  66
ENDBRANCH  44  58
BRANCH  45  70
ATOM     70  C   UNL A   1      43.823  28.255  35.372  1.00  0.00     0.058 A 
ATOM     71  C   UNL A   1      43.533  27.159  36.196  1.00  0.00     0.135 A 
ATOM     72  C   UNL A   1      45.173  28.597  35.188  1.00  0.00     0.135 A 
ATOM     73  F   UNL A   1      42.258  26.798  36.411  1.00  0.00    -0.206 F 
ATOM     74  C   UNL A   1      44.542  26.430  36.819  1.00  0.00     0.059 A 
ATOM     75  C   UNL A   1      46.199  27.865  35.775  1.00  0.00     0.059 A 
ATOM     76  F   UNL A   1      45.503  29.630  34.398  1.00  0.00    -0.206 F 
ATOM     77  C   UNL A   1      45.873  26.787  36.595  1.00  0.00     0.060 A 
BRANCH  77  78
ATOM     78  S   UNL A   1      47.172  25.796  37.361  1.00  0.00     0.124 S 
ATOM     79  O   UNL A   1      48.229  26.785  37.541  1.00  0.00    -0.237 OA
ATOM     80  O   UNL A   1      46.520  25.328  38.580  1.00  0.00    -0.237 OA
ATOM     81  O   UNL A   1      47.439  24.763  36.365  1.00  0.00    -0.744 OA
ENDBRANCH  77  78
ENDBRANCH  45  70
BRANCH  57  82
ATOM     82  C   UNL A   1      39.754  33.617  37.221  1.00  0.00     0.058 A 
ATOM     83  C   UNL A   1      40.482  34.811  37.347  1.00  0.00     0.135 A 
ATOM     84  C   UNL A   1      38.894  33.260  38.272  1.00  0.00     0.135 A 
ATOM     85  F   UNL A   1      41.324  35.195  36.375  1.00  0.00    -0.206 F 
ATOM     86  C   UNL A   1      40.374  35.611  38.479  1.00  0.00     0.059 A 
ATOM     87  C   UNL A   1      38.749  34.060  39.401  1.00  0.00     0.059 A 
ATOM     88  F   UNL A   1      38.168  32.133  38.199  1.00  0.00    -0.206 F 
ATOM     89  C   UNL A   1      39.500  35.230  39.499  1.00  0.00     0.060 A 
BRANCH  89  90
ATOM     90  S   UNL A   1      39.344  36.301  40.943  1.00  0.00     0.124 S 
ATOM     91  O   UNL A   1      40.656  36.152  41.565  1.00  0.00    -0.237 OA
ATOM     92  O   UNL A   1      39.074  37.601  40.338  1.00  0.00    -0.237 OA
ATOM     93  O   UNL A   1      38.229  35.716  41.684  1.00  0.00    -0.744 OA
ENDBRANCH  89  90
ENDBRANCH  57  82
ENDBRANCH  31  32
ENDBRANCH  23  26
ENDBRANCH  21  22
ENDBRANCH  20  21
ENDBRANCH   1  20
TORSDOF 18
ENDMDL
