MODEL 1
REMARK VINA RESULT:     -11.0      0.000      0.000
REMARK SMILES Cc1cc(N2CCCC[C@@H]2C)cc(C(=O)NCCCCCCNC(=O)c2ccc(-c3c4nc(c(-c5c(F)cc(S(=O)(=O)[O-])cc5F)c5ccc([nH]5)c(-c5c(F)cc(S(=O)(=O)[O-])cc5F)c5nc(c(-c6c(F)cc(S(=O)(=O)[O-])cc6F)c6ccc3[nH]6)C=C5)C=C4)cc2)c1N
REMARK SMILES IDX 20 1 19 2 18 3 17 4 16 5 14 6 15 7 13 9 1 10 2 11 3 12 92 13
REMARK SMILES IDX 4 14 12 15 93 16 5 19 6 20 10 21 7 22 9 23 11 24 8 25 21 26
REMARK SMILES IDX 22 27 23 28 24 29 25 31 26 32 27 33 91 34 28 35 90 36 29 37
REMARK SMILES IDX 30 38 31 39 84 40 32 41 89 42 83 43 85 44 33 45 88 46 82 47
REMARK SMILES IDX 81 48 34 50 68 51 47 52 67 53 48 54 51 55 66 56 86 57 49 58
REMARK SMILES IDX 50 59 65 61 87 62 52 63 35 64 36 65 45 66 37 67 38 68 44 69
REMARK SMILES IDX 46 70 39 71 40 72 41 73 42 74 43 75 69 76 70 77 79 78 71 79
REMARK SMILES IDX 72 80 78 81 80 82 73 83 74 84 75 85 76 86 77 87 53 88 54 89
REMARK SMILES IDX 63 90 55 91 56 92 62 93 64 94 57 95 58 96 59 97 60 98 61 99
REMARK H PARENT 16 8 93 17 93 18 23 30 85 49 51 60
REMARK Flexibility Score: inf
ROOT
ATOM      1  C   UNL A   1      33.301  25.851  25.839  1.00  0.00     0.002 C 
ENDROOT
BRANCH   1   2
ATOM      2  C   UNL A   1      32.082  24.967  25.544  1.00  0.00     0.002 C 
BRANCH   2   3
ATOM      3  C   UNL A   1      31.135  25.526  24.473  1.00  0.00     0.021 C 
BRANCH   3   4
ATOM      4  C   UNL A   1      30.666  24.455  23.483  1.00  0.00     0.116 C 
BRANCH   4   5
ATOM      5  N   UNL A   1      31.573  24.417  22.353  1.00  0.00    -0.352 N 
ATOM      6  C   UNL A   1      32.722  23.722  22.077  1.00  0.00     0.253 C 
ATOM      7  O   UNL A   1      33.315  24.065  21.047  1.00  0.00    -0.269 OA
ATOM      8  H   UNL A   1      31.306  25.023  21.625  1.00  0.00     0.163 HD
BRANCH   6   9
ATOM      9  C   UNL A   1      33.244  22.571  22.893  1.00  0.00     0.065 A 
ATOM     10  C   UNL A   1      32.312  18.931  23.664  1.00  0.00     0.046 C 
ATOM     11  C   UNL A   1      32.993  20.272  23.680  1.00  0.00    -0.025 A 
ATOM     12  C   UNL A   1      34.067  20.476  24.563  1.00  0.00     0.031 A 
ATOM     13  C   UNL A   1      32.562  21.326  22.845  1.00  0.00     0.047 A 
ATOM     14  C   UNL A   1      34.765  21.680  24.593  1.00  0.00     0.038 A 
ATOM     15  C   UNL A   1      34.388  22.679  23.692  1.00  0.00     0.042 A 
BRANCH  13  16
ATOM     16  N   UNL A   1      31.380  21.170  22.109  1.00  0.00    -0.398 N 
ATOM     17  H   UNL A   1      31.032  21.917  21.570  1.00  0.00     0.156 HD
ATOM     18  H   UNL A   1      30.895  20.312  22.131  1.00  0.00     0.156 HD
ENDBRANCH  13  16
BRANCH  14  19
ATOM     19  N   UNL A   1      35.739  21.918  25.538  1.00  0.00    -0.369 N 
ATOM     20  C   UNL A   1      35.585  23.105  26.386  1.00  0.00     0.117 C 
ATOM     21  C   UNL A   1      36.997  21.169  25.671  1.00  0.00     0.079 C 
ATOM     22  C   UNL A   1      36.736  24.078  26.136  1.00  0.00     0.021 C 
ATOM     23  C   UNL A   1      38.166  22.136  25.401  1.00  0.00     0.025 C 
ATOM     24  C   UNL A   1      37.109  19.947  24.764  1.00  0.00     0.031 C 
ATOM     25  C   UNL A   1      38.086  23.382  26.287  1.00  0.00     0.004 C 
ENDBRANCH  14  19
ENDBRANCH   6   9
ENDBRANCH   4   5
ENDBRANCH   3   4
ENDBRANCH   2   3
ENDBRANCH   1   2
BRANCH   1  26
ATOM     26  C   UNL A   1      32.961  27.254  26.348  1.00  0.00     0.021 C 
BRANCH  26  27
ATOM     27  C   UNL A   1      34.175  28.162  26.512  1.00  0.00     0.116 C 
BRANCH  27  28
ATOM     28  N   UNL A   1      33.792  29.472  27.014  1.00  0.00    -0.352 N 
ATOM     29  C   UNL A   1      34.459  30.293  27.887  1.00  0.00     0.251 C 
ATOM     30  H   UNL A   1      32.932  29.819  26.679  1.00  0.00     0.163 HD
ATOM     31  O   UNL A   1      33.878  31.238  28.409  1.00  0.00    -0.269 OA
BRANCH  29  32
ATOM     32  C   UNL A   1      35.878  30.025  28.198  1.00  0.00     0.039 A 
ATOM     33  C   UNL A   1      36.225  29.605  29.483  1.00  0.00     0.014 A 
ATOM     34  C   UNL A   1      36.864  30.202  27.222  1.00  0.00     0.014 A 
ATOM     35  C   UNL A   1      37.560  29.314  29.776  1.00  0.00     0.010 A 
ATOM     36  C   UNL A   1      38.180  29.843  27.494  1.00  0.00     0.010 A 
ATOM     37  C   UNL A   1      38.543  29.404  28.776  1.00  0.00    -0.014 A 
BRANCH  37  38
ATOM     38  C   UNL A   1      39.957  29.047  29.053  1.00  0.00     0.031 A 
ATOM     39  C   UNL A   1      40.895  30.076  29.624  1.00  0.00     0.074 A 
ATOM     40  C   UNL A   1      40.409  27.818  28.734  1.00  0.00     0.049 A 
ATOM     41  N   UNL A   1      42.177  29.979  29.869  1.00  0.00    -0.248 NA
ATOM     42  C   UNL A   1      40.325  31.397  29.938  1.00  0.00     0.031 C 
ATOM     43  C   UNL A   1      39.604  26.752  28.131  1.00  0.00     0.029 A 
ATOM     44  N   UNL A   1      41.655  27.259  28.860  1.00  0.00    -0.354 N 
ATOM     45  C   UNL A   1      42.567  31.223  30.350  1.00  0.00     0.074 A 
ATOM     46  C   UNL A   1      41.400  32.076  30.314  1.00  0.00     0.031 C 
ATOM     47  C   UNL A   1      40.372  25.665  27.958  1.00  0.00     0.029 A 
ATOM     48  C   UNL A   1      41.730  25.965  28.399  1.00  0.00     0.049 A 
ATOM     49  H   UNL A   1      42.424  27.740  29.244  1.00  0.00     0.167 HD
ATOM     50  C   UNL A   1      43.783  31.612  30.801  1.00  0.00     0.037 A 
ATOM     51  C   UNL A   1      42.778  25.121  28.332  1.00  0.00     0.037 A 
ATOM     52  C   UNL A   1      44.933  30.748  30.859  1.00  0.00     0.049 A 
ATOM     53  C   UNL A   1      44.119  25.578  28.840  1.00  0.00     0.074 A 
ATOM     54  C   UNL A   1      46.194  31.027  31.356  1.00  0.00     0.029 A 
ATOM     55  N   UNL A   1      44.963  29.436  30.407  1.00  0.00    -0.354 N 
ATOM     56  N   UNL A   1      44.455  26.739  29.351  1.00  0.00    -0.248 NA
ATOM     57  C   UNL A   1      45.223  24.611  28.768  1.00  0.00     0.031 C 
ATOM     58  C   UNL A   1      47.000  29.901  31.160  1.00  0.00     0.029 A 
ATOM     59  C   UNL A   1      46.227  28.900  30.594  1.00  0.00     0.049 A 
ATOM     60  H   UNL A   1      44.200  28.957  30.013  1.00  0.00     0.167 HD
ATOM     61  C   UNL A   1      45.798  26.629  29.692  1.00  0.00     0.074 A 
ATOM     62  C   UNL A   1      46.211  25.287  29.339  1.00  0.00     0.031 C 
ATOM     63  C   UNL A   1      46.617  27.556  30.248  1.00  0.00     0.037 A 
BRANCH  50  64
ATOM     64  C   UNL A   1      43.938  33.032  31.277  1.00  0.00     0.058 A 
ATOM     65  C   UNL A   1      44.207  34.082  30.385  1.00  0.00     0.135 A 
ATOM     66  C   UNL A   1      43.757  33.353  32.631  1.00  0.00     0.135 A 
ATOM     67  F   UNL A   1      44.406  33.830  29.081  1.00  0.00    -0.206 F 
ATOM     68  C   UNL A   1      44.310  35.399  30.822  1.00  0.00     0.059 A 
ATOM     69  C   UNL A   1      43.826  34.667  33.086  1.00  0.00     0.059 A 
ATOM     70  F   UNL A   1      43.500  32.387  33.527  1.00  0.00    -0.206 F 
ATOM     71  C   UNL A   1      44.114  35.682  32.175  1.00  0.00     0.060 A 
BRANCH  71  72
ATOM     72  S   UNL A   1      44.225  37.400  32.719  1.00  0.00     0.124 S 
ATOM     73  O   UNL A   1      45.606  37.468  33.187  1.00  0.00    -0.237 OA
ATOM     74  O   UNL A   1      43.934  38.135  31.492  1.00  0.00    -0.237 OA
ATOM     75  O   UNL A   1      43.205  37.493  33.760  1.00  0.00    -0.744 OA
ENDBRANCH  71  72
ENDBRANCH  50  64
BRANCH  51  76
ATOM     76  C   UNL A   1      42.600  23.754  27.772  1.00  0.00     0.058 A 
ATOM     77  C   UNL A   1      42.599  23.533  26.387  1.00  0.00     0.135 A 
ATOM     78  C   UNL A   1      42.425  22.641  28.610  1.00  0.00     0.135 A 
ATOM     79  F   UNL A   1      42.759  24.565  25.544  1.00  0.00    -0.206 F 
ATOM     80  C   UNL A   1      42.402  22.266  25.849  1.00  0.00     0.059 A 
ATOM     81  C   UNL A   1      42.254  21.359  28.097  1.00  0.00     0.059 A 
ATOM     82  F   UNL A   1      42.438  22.793  29.943  1.00  0.00    -0.206 F 
ATOM     83  C   UNL A   1      42.229  21.184  26.714  1.00  0.00     0.060 A 
BRANCH  83  84
ATOM     84  S   UNL A   1      42.002  19.538  26.007  1.00  0.00     0.124 S 
ATOM     85  O   UNL A   1      40.577  19.546  25.698  1.00  0.00    -0.237 OA
ATOM     86  O   UNL A   1      42.906  19.567  24.863  1.00  0.00    -0.237 OA
ATOM     87  O   UNL A   1      42.407  18.650  27.093  1.00  0.00    -0.744 OA
ENDBRANCH  83  84
ENDBRANCH  51  76
BRANCH  63  88
ATOM     88  C   UNL A   1      48.031  27.142  30.550  1.00  0.00     0.058 A 
ATOM     89  C   UNL A   1      49.080  27.382  29.651  1.00  0.00     0.135 A 
ATOM     90  C   UNL A   1      48.346  26.546  31.782  1.00  0.00     0.135 A 
ATOM     91  F   UNL A   1      48.832  27.943  28.456  1.00  0.00    -0.206 F 
ATOM     92  C   UNL A   1      50.391  27.023  29.951  1.00  0.00     0.059 A 
ATOM     93  C   UNL A   1      49.652  26.207  32.116  1.00  0.00     0.059 A 
ATOM     94  F   UNL A   1      47.381  26.305  32.683  1.00  0.00    -0.206 F 
ATOM     95  C   UNL A   1      50.667  26.439  31.189  1.00  0.00     0.060 A 
BRANCH  95  96
ATOM     96  S   UNL A   1      52.377  26.014  31.581  1.00  0.00     0.124 S 
ATOM     97  O   UNL A   1      52.222  24.683  32.159  1.00  0.00    -0.237 OA
ATOM     98  O   UNL A   1      53.020  26.065  30.272  1.00  0.00    -0.237 OA
ATOM     99  O   UNL A   1      52.783  27.061  32.514  1.00  0.00    -0.744 OA
ENDBRANCH  95  96
ENDBRANCH  63  88
ENDBRANCH  37  38
ENDBRANCH  29  32
ENDBRANCH  27  28
ENDBRANCH  26  27
ENDBRANCH   1  26
TORSDOF 18
ENDMDL
MODEL 2
REMARK VINA RESULT:     -10.9      4.761     10.342
REMARK SMILES Cc1cc(N2CCCC[C@@H]2C)cc(C(=O)NCCCCCCNC(=O)c2ccc(-c3c4nc(c(-c5c(F)cc(S(=O)(=O)[O-])cc5F)c5ccc([nH]5)c(-c5c(F)cc(S(=O)(=O)[O-])cc5F)c5nc(c(-c6c(F)cc(S(=O)(=O)[O-])cc6F)c6ccc3[nH]6)C=C5)C=C4)cc2)c1N
REMARK SMILES IDX 20 1 19 2 18 3 17 4 16 5 14 6 15 7 13 9 1 10 2 11 3 12 92 13
REMARK SMILES IDX 4 14 12 15 93 16 5 19 6 20 10 21 7 22 9 23 11 24 8 25 21 26
REMARK SMILES IDX 22 27 23 28 24 29 25 31 26 32 27 33 91 34 28 35 90 36 29 37
REMARK SMILES IDX 30 38 31 39 84 40 32 41 89 42 83 43 85 44 33 45 88 46 82 47
REMARK SMILES IDX 81 48 34 50 68 51 47 52 67 53 48 54 51 55 66 56 86 57 49 58
REMARK SMILES IDX 50 59 65 61 87 62 52 63 35 64 36 65 45 66 37 67 38 68 44 69
REMARK SMILES IDX 46 70 39 71 40 72 41 73 42 74 43 75 69 76 70 77 79 78 71 79
REMARK SMILES IDX 72 80 78 81 80 82 73 83 74 84 75 85 76 86 77 87 53 88 54 89
REMARK SMILES IDX 63 90 55 91 56 92 62 93 64 94 57 95 58 96 59 97 60 98 61 99
REMARK H PARENT 16 8 93 17 93 18 23 30 85 49 51 60
REMARK Flexibility Score: inf
ROOT
ATOM      1  C   UNL A   1      40.365  21.895  26.385  1.00  0.00     0.002 C 
ENDROOT
BRANCH   1   2
ATOM      2  C   UNL A   1      38.859  22.113  26.193  1.00  0.00     0.002 C 
BRANCH   2   3
ATOM      3  C   UNL A   1      38.411  23.579  26.294  1.00  0.00     0.021 C 
BRANCH   3   4
ATOM      4  C   UNL A   1      36.932  23.769  25.939  1.00  0.00     0.116 C 
BRANCH   4   5
ATOM      5  N   UNL A   1      36.137  22.802  26.669  1.00  0.00    -0.352 N 
ATOM      6  C   UNL A   1      34.806  22.470  26.673  1.00  0.00     0.253 C 
ATOM      7  O   UNL A   1      34.460  21.675  27.554  1.00  0.00    -0.269 OA
ATOM      8  H   UNL A   1      36.668  22.265  27.301  1.00  0.00     0.163 HD
BRANCH   6   9
ATOM      9  C   UNL A   1      33.801  22.957  25.666  1.00  0.00     0.065 A 
ATOM     10  C   UNL A   1      32.016  21.668  22.524  1.00  0.00     0.046 C 
ATOM     11  C   UNL A   1      32.503  22.558  23.635  1.00  0.00    -0.025 A 
ATOM     12  C   UNL A   1      32.091  23.901  23.655  1.00  0.00     0.031 A 
ATOM     13  C   UNL A   1      33.376  22.077  24.635  1.00  0.00     0.047 A 
ATOM     14  C   UNL A   1      32.473  24.763  24.680  1.00  0.00     0.038 A 
ATOM     15  C   UNL A   1      33.257  24.245  25.714  1.00  0.00     0.042 A 
BRANCH  13  16
ATOM     16  N   UNL A   1      33.924  20.794  24.499  1.00  0.00    -0.398 N 
ATOM     17  H   UNL A   1      34.839  20.683  24.154  1.00  0.00     0.156 HD
ATOM     18  H   UNL A   1      33.393  20.003  24.748  1.00  0.00     0.156 HD
ENDBRANCH  13  16
BRANCH  14  19
ATOM     19  N   UNL A   1      32.165  26.105  24.637  1.00  0.00    -0.369 N 
ATOM     20  C   UNL A   1      33.163  27.011  24.058  1.00  0.00     0.117 C 
ATOM     21  C   UNL A   1      30.987  26.729  25.256  1.00  0.00     0.079 C 
ATOM     22  C   UNL A   1      33.658  27.990  25.120  1.00  0.00     0.021 C 
ATOM     23  C   UNL A   1      31.472  27.705  26.344  1.00  0.00     0.025 C 
ATOM     24  C   UNL A   1      29.982  25.745  25.846  1.00  0.00     0.031 C 
ATOM     25  C   UNL A   1      32.490  28.707  25.793  1.00  0.00     0.004 C 
ENDBRANCH  14  19
ENDBRANCH   6   9
ENDBRANCH   4   5
ENDBRANCH   3   4
ENDBRANCH   2   3
ENDBRANCH   1   2
BRANCH   1  26
ATOM     26  C   UNL A   1      40.868  22.142  27.810  1.00  0.00     0.021 C 
BRANCH  26  27
ATOM     27  C   UNL A   1      42.091  23.051  27.884  1.00  0.00     0.116 C 
BRANCH  27  28
ATOM     28  N   UNL A   1      42.318  23.735  26.621  1.00  0.00    -0.352 N 
ATOM     29  C   UNL A   1      42.063  25.041  26.287  1.00  0.00     0.251 C 
ATOM     30  H   UNL A   1      42.710  23.184  25.904  1.00  0.00     0.163 HD
ATOM     31  O   UNL A   1      42.066  25.387  25.110  1.00  0.00    -0.269 OA
BRANCH  29  32
ATOM     32  C   UNL A   1      41.781  26.023  27.354  1.00  0.00     0.039 A 
ATOM     33  C   UNL A   1      40.649  25.853  28.153  1.00  0.00     0.014 A 
ATOM     34  C   UNL A   1      42.629  27.119  27.553  1.00  0.00     0.014 A 
ATOM     35  C   UNL A   1      40.394  26.756  29.187  1.00  0.00     0.010 A 
ATOM     36  C   UNL A   1      42.412  27.974  28.627  1.00  0.00     0.010 A 
ATOM     37  C   UNL A   1      41.288  27.807  29.450  1.00  0.00    -0.014 A 
BRANCH  37  38
ATOM     38  C   UNL A   1      41.062  28.745  30.578  1.00  0.00     0.031 A 
ATOM     39  C   UNL A   1      41.884  28.625  31.834  1.00  0.00     0.074 A 
ATOM     40  C   UNL A   1      40.078  29.662  30.495  1.00  0.00     0.049 A 
ATOM     41  N   UNL A   1      41.788  29.302  32.950  1.00  0.00    -0.248 NA
ATOM     42  C   UNL A   1      42.934  27.593  31.848  1.00  0.00     0.031 C 
ATOM     43  C   UNL A   1      39.185  29.841  29.347  1.00  0.00     0.029 A 
ATOM     44  N   UNL A   1      39.654  30.608  31.393  1.00  0.00    -0.354 N 
ATOM     45  C   UNL A   1      42.751  28.770  33.800  1.00  0.00     0.074 A 
ATOM     46  C   UNL A   1      43.386  27.681  33.091  1.00  0.00     0.031 C 
ATOM     47  C   UNL A   1      38.334  30.848  29.603  1.00  0.00     0.029 A 
ATOM     48  C   UNL A   1      38.592  31.359  30.946  1.00  0.00     0.049 A 
ATOM     49  H   UNL A   1      40.071  30.738  32.276  1.00  0.00     0.167 HD
ATOM     50  C   UNL A   1      43.090  29.169  35.048  1.00  0.00     0.037 A 
ATOM     51  C   UNL A   1      37.899  32.342  31.553  1.00  0.00     0.037 A 
ATOM     52  C   UNL A   1      42.473  30.273  35.735  1.00  0.00     0.049 A 
ATOM     53  C   UNL A   1      38.296  32.766  32.941  1.00  0.00     0.074 A 
ATOM     54  C   UNL A   1      42.786  30.796  36.977  1.00  0.00     0.029 A 
ATOM     55  N   UNL A   1      41.417  31.025  35.239  1.00  0.00    -0.354 N 
ATOM     56  N   UNL A   1      39.253  32.294  33.705  1.00  0.00    -0.248 NA
ATOM     57  C   UNL A   1      37.527  33.860  33.549  1.00  0.00     0.031 C 
ATOM     58  C   UNL A   1      41.888  31.832  37.254  1.00  0.00     0.029 A 
ATOM     59  C   UNL A   1      41.053  31.993  36.160  1.00  0.00     0.049 A 
ATOM     60  H   UNL A   1      40.991  30.891  34.362  1.00  0.00     0.167 HD
ATOM     61  C   UNL A   1      39.220  33.055  34.869  1.00  0.00     0.074 A 
ATOM     62  C   UNL A   1      38.157  34.024  34.704  1.00  0.00     0.031 C 
ATOM     63  C   UNL A   1      40.000  32.960  35.974  1.00  0.00     0.037 A 
BRANCH  50  64
ATOM     64  C   UNL A   1      44.185  28.416  35.756  1.00  0.00     0.058 A 
ATOM     65  C   UNL A   1      45.535  28.777  35.621  1.00  0.00     0.135 A 
ATOM     66  C   UNL A   1      43.875  27.357  36.625  1.00  0.00     0.135 A 
ATOM     67  F   UNL A   1      45.889  29.771  34.791  1.00  0.00    -0.206 F 
ATOM     68  C   UNL A   1      46.540  28.105  36.307  1.00  0.00     0.059 A 
ATOM     69  C   UNL A   1      44.863  26.689  37.344  1.00  0.00     0.059 A 
ATOM     70  F   UNL A   1      42.601  26.968  36.790  1.00  0.00    -0.206 F 
ATOM     71  C   UNL A   1      46.194  27.064  37.170  1.00  0.00     0.060 A 
BRANCH  71  72
ATOM     72  S   UNL A   1      47.510  26.221  38.073  1.00  0.00     0.124 S 
ATOM     73  O   UNL A   1      46.896  26.044  39.385  1.00  0.00    -0.237 OA
ATOM     74  O   UNL A   1      47.693  25.003  37.290  1.00  0.00    -0.237 OA
ATOM     75  O   UNL A   1      48.619  27.168  38.023  1.00  0.00    -0.744 OA
ENDBRANCH  71  72
ENDBRANCH  50  64
BRANCH  51  76
ATOM     76  C   UNL A   1      36.766  33.002  30.849  1.00  0.00     0.058 A 
ATOM     77  C   UNL A   1      36.984  34.078  29.976  1.00  0.00     0.135 A 
ATOM     78  C   UNL A   1      35.442  32.574  31.039  1.00  0.00     0.135 A 
ATOM     79  F   UNL A   1      38.231  34.527  29.765  1.00  0.00    -0.206 F 
ATOM     80  C   UNL A   1      35.932  34.725  29.337  1.00  0.00     0.059 A 
ATOM     81  C   UNL A   1      34.376  33.186  30.389  1.00  0.00     0.059 A 
ATOM     82  F   UNL A   1      35.180  31.536  31.848  1.00  0.00    -0.206 F 
ATOM     83  C   UNL A   1      34.629  34.271  29.551  1.00  0.00     0.060 A 
BRANCH  83  84
ATOM     84  S   UNL A   1      33.272  35.099  28.695  1.00  0.00     0.124 S 
ATOM     85  O   UNL A   1      32.505  35.636  29.814  1.00  0.00    -0.237 OA
ATOM     86  O   UNL A   1      33.977  36.077  27.874  1.00  0.00    -0.237 OA
ATOM     87  O   UNL A   1      32.633  34.015  27.955  1.00  0.00    -0.744 OA
ENDBRANCH  83  84
ENDBRANCH  51  76
BRANCH  63  88
ATOM     88  C   UNL A   1      39.764  33.955  37.078  1.00  0.00     0.058 A 
ATOM     89  C   UNL A   1      38.893  33.686  38.143  1.00  0.00     0.135 A 
ATOM     90  C   UNL A   1      40.466  35.171  37.095  1.00  0.00     0.135 A 
ATOM     91  F   UNL A   1      38.193  32.540  38.171  1.00  0.00    -0.206 F 
ATOM     92  C   UNL A   1      38.704  34.599  39.175  1.00  0.00     0.059 A 
ATOM     93  C   UNL A   1      40.317  36.085  38.131  1.00  0.00     0.059 A 
ATOM     94  F   UNL A   1      41.321  35.473  36.105  1.00  0.00    -0.206 F 
ATOM     95  C   UNL A   1      39.424  35.796  39.162  1.00  0.00     0.060 A 
BRANCH  95  96
ATOM     96  S   UNL A   1      39.198  36.954  40.527  1.00  0.00     0.124 S 
ATOM     97  O   UNL A   1      38.609  36.094  41.548  1.00  0.00    -0.237 OA
ATOM     98  O   UNL A   1      40.563  37.402  40.787  1.00  0.00    -0.237 OA
ATOM     99  O   UNL A   1      38.307  37.968  39.970  1.00  0.00    -0.744 OA
ENDBRANCH  95  96
ENDBRANCH  63  88
ENDBRANCH  37  38
ENDBRANCH  29  32
ENDBRANCH  27  28
ENDBRANCH  26  27
ENDBRANCH   1  26
TORSDOF 18
ENDMDL
MODEL 3
REMARK VINA RESULT:     -10.7      3.354      8.287
REMARK SMILES Cc1cc(N2CCCC[C@@H]2C)cc(C(=O)NCCCCCCNC(=O)c2ccc(-c3c4nc(c(-c5c(F)cc(S(=O)(=O)[O-])cc5F)c5ccc([nH]5)c(-c5c(F)cc(S(=O)(=O)[O-])cc5F)c5nc(c(-c6c(F)cc(S(=O)(=O)[O-])cc6F)c6ccc3[nH]6)C=C5)C=C4)cc2)c1N
REMARK SMILES IDX 20 1 19 2 18 3 17 4 16 5 14 6 15 7 13 9 1 10 2 11 3 12 92 13
REMARK SMILES IDX 4 14 12 15 93 16 5 19 6 20 10 21 7 22 9 23 11 24 8 25 21 26
REMARK SMILES IDX 22 27 23 28 24 29 25 31 26 32 27 33 91 34 28 35 90 36 29 37
REMARK SMILES IDX 30 38 31 39 84 40 32 41 89 42 83 43 85 44 33 45 88 46 82 47
REMARK SMILES IDX 81 48 34 50 68 51 47 52 67 53 48 54 51 55 66 56 86 57 49 58
REMARK SMILES IDX 50 59 65 61 87 62 52 63 35 64 36 65 45 66 37 67 38 68 44 69
REMARK SMILES IDX 46 70 39 71 40 72 41 73 42 74 43 75 69 76 70 77 79 78 71 79
REMARK SMILES IDX 72 80 78 81 80 82 73 83 74 84 75 85 76 86 77 87 53 88 54 89
REMARK SMILES IDX 63 90 55 91 56 92 62 93 64 94 57 95 58 96 59 97 60 98 61 99
REMARK H PARENT 16 8 93 17 93 18 23 30 85 49 51 60
REMARK Flexibility Score: inf
ROOT
ATOM      1  C   UNL A   1      37.206  20.454  25.104  1.00  0.00     0.002 C 
ENDROOT
BRANCH   1   2
ATOM      2  C   UNL A   1      37.296  21.890  24.571  1.00  0.00     0.002 C 
BRANCH   2   3
ATOM      3  C   UNL A   1      37.730  22.930  25.615  1.00  0.00     0.021 C 
BRANCH   3   4
ATOM      4  C   UNL A   1      36.571  23.817  26.080  1.00  0.00     0.116 C 
BRANCH   4   5
ATOM      5  N   UNL A   1      35.630  23.017  26.840  1.00  0.00    -0.352 N 
ATOM      6  C   UNL A   1      34.290  22.753  26.722  1.00  0.00     0.253 C 
ATOM      7  O   UNL A   1      33.788  22.125  27.661  1.00  0.00    -0.269 OA
ATOM      8  H   UNL A   1      36.045  22.563  27.608  1.00  0.00     0.163 HD
BRANCH   6   9
ATOM      9  C   UNL A   1      33.447  23.121  25.531  1.00  0.00     0.065 A 
ATOM     10  C   UNL A   1      31.962  21.433  22.423  1.00  0.00     0.046 C 
ATOM     11  C   UNL A   1      32.375  22.465  23.436  1.00  0.00    -0.025 A 
ATOM     12  C   UNL A   1      32.059  23.813  23.197  1.00  0.00     0.031 A 
ATOM     13  C   UNL A   1      33.087  22.108  24.602  1.00  0.00     0.047 A 
ATOM     14  C   UNL A   1      32.375  24.808  24.117  1.00  0.00     0.038 A 
ATOM     15  C   UNL A   1      32.993  24.426  25.311  1.00  0.00     0.042 A 
BRANCH  13  16
ATOM     16  N   UNL A   1      33.557  20.795  24.736  1.00  0.00    -0.398 N 
ATOM     17  H   UNL A   1      34.503  20.629  24.955  1.00  0.00     0.156 HD
ATOM     18  H   UNL A   1      32.940  20.036  24.612  1.00  0.00     0.156 HD
ENDBRANCH  13  16
BRANCH  14  19
ATOM     19  N   UNL A   1      32.169  26.140  23.829  1.00  0.00    -0.369 N 
ATOM     20  C   UNL A   1      33.239  26.854  23.124  1.00  0.00     0.117 C 
ATOM     21  C   UNL A   1      31.034  26.946  24.297  1.00  0.00     0.079 C 
ATOM     22  C   UNL A   1      33.793  27.969  24.008  1.00  0.00     0.021 C 
ATOM     23  C   UNL A   1      31.577  28.064  25.207  1.00  0.00     0.025 C 
ATOM     24  C   UNL A   1      29.951  26.158  25.028  1.00  0.00     0.031 C 
ATOM     25  C   UNL A   1      32.673  28.877  24.513  1.00  0.00     0.004 C 
ENDBRANCH  14  19
ENDBRANCH   6   9
ENDBRANCH   4   5
ENDBRANCH   3   4
ENDBRANCH   2   3
ENDBRANCH   1   2
BRANCH   1  26
ATOM     26  C   UNL A   1      38.493  19.639  24.956  1.00  0.00     0.021 C 
BRANCH  26  27
ATOM     27  C   UNL A   1      39.605  20.062  25.910  1.00  0.00     0.116 C 
BRANCH  27  28
ATOM     28  N   UNL A   1      40.636  19.041  26.006  1.00  0.00    -0.352 N 
ATOM     29  C   UNL A   1      41.999  19.190  26.049  1.00  0.00     0.251 C 
ATOM     30  H   UNL A   1      40.310  18.112  26.048  1.00  0.00     0.163 HD
ATOM     31  O   UNL A   1      42.729  18.223  25.864  1.00  0.00    -0.269 OA
BRANCH  29  32
ATOM     32  C   UNL A   1      42.578  20.524  26.311  1.00  0.00     0.039 A 
ATOM     33  C   UNL A   1      43.097  21.262  25.246  1.00  0.00     0.014 A 
ATOM     34  C   UNL A   1      42.618  21.036  27.613  1.00  0.00     0.014 A 
ATOM     35  C   UNL A   1      43.613  22.539  25.480  1.00  0.00     0.010 A 
ATOM     36  C   UNL A   1      43.065  22.335  27.831  1.00  0.00     0.010 A 
ATOM     37  C   UNL A   1      43.575  23.096  26.769  1.00  0.00    -0.014 A 
BRANCH  37  38
ATOM     38  C   UNL A   1      44.069  24.472  27.027  1.00  0.00     0.031 A 
ATOM     39  C   UNL A   1      43.108  25.552  27.447  1.00  0.00     0.074 A 
ATOM     40  C   UNL A   1      45.370  24.761  26.824  1.00  0.00     0.049 A 
ATOM     41  N   UNL A   1      43.334  26.824  27.649  1.00  0.00    -0.248 NA
ATOM     42  C   UNL A   1      41.703  25.156  27.639  1.00  0.00     0.031 C 
ATOM     43  C   UNL A   1      46.387  23.808  26.371  1.00  0.00     0.029 A 
ATOM     44  N   UNL A   1      46.059  25.939  26.960  1.00  0.00    -0.354 N 
ATOM     45  C   UNL A   1      42.103  27.381  27.978  1.00  0.00     0.074 A 
ATOM     46  C   UNL A   1      41.124  26.320  27.898  1.00  0.00     0.031 C 
ATOM     47  C   UNL A   1      47.571  24.435  26.286  1.00  0.00     0.029 A 
ATOM     48  C   UNL A   1      47.393  25.840  26.638  1.00  0.00     0.049 A 
ATOM     49  H   UNL A   1      45.639  26.778  27.259  1.00  0.00     0.167 HD
ATOM     50  C   UNL A   1      41.820  28.656  28.336  1.00  0.00     0.037 A 
ATOM     51  C   UNL A   1      48.360  26.777  26.620  1.00  0.00     0.037 A 
ATOM     52  C   UNL A   1      42.807  29.699  28.441  1.00  0.00     0.049 A 
ATOM     53  C   UNL A   1      48.019  28.187  27.022  1.00  0.00     0.074 A 
ATOM     54  C   UNL A   1      42.633  31.008  28.855  1.00  0.00     0.029 A 
ATOM     55  N   UNL A   1      44.151  29.553  28.132  1.00  0.00    -0.354 N 
ATOM     56  N   UNL A   1      46.861  28.681  27.392  1.00  0.00    -0.248 NA
ATOM     57  C   UNL A   1      49.114  29.166  27.011  1.00  0.00     0.031 C 
ATOM     58  C   UNL A   1      43.861  31.667  28.749  1.00  0.00     0.029 A 
ATOM     59  C   UNL A   1      44.814  30.755  28.324  1.00  0.00     0.049 A 
ATOM     60  H   UNL A   1      44.572  28.720  27.822  1.00  0.00     0.167 HD
ATOM     61  C   UNL A   1      47.096  30.019  27.689  1.00  0.00     0.074 A 
ATOM     62  C   UNL A   1      48.507  30.254  27.466  1.00  0.00     0.031 C 
ATOM     63  C   UNL A   1      46.223  30.968  28.110  1.00  0.00     0.037 A 
BRANCH  50  64
ATOM     64  C   UNL A   1      40.389  28.998  28.650  1.00  0.00     0.058 A 
ATOM     65  C   UNL A   1      39.914  29.042  29.971  1.00  0.00     0.135 A 
ATOM     66  C   UNL A   1      39.496  29.343  27.623  1.00  0.00     0.135 A 
ATOM     67  F   UNL A   1      40.720  28.707  30.991  1.00  0.00    -0.206 F 
ATOM     68  C   UNL A   1      38.602  29.398  30.261  1.00  0.00     0.059 A 
ATOM     69  C   UNL A   1      38.186  29.730  27.892  1.00  0.00     0.059 A 
ATOM     70  F   UNL A   1      39.896  29.315  26.341  1.00  0.00    -0.206 F 
ATOM     71  C   UNL A   1      37.745  29.744  29.214  1.00  0.00     0.060 A 
BRANCH  71  72
ATOM     72  S   UNL A   1      36.052  30.229  29.612  1.00  0.00     0.124 S 
ATOM     73  O   UNL A   1      35.896  29.670  30.951  1.00  0.00    -0.237 OA
ATOM     74  O   UNL A   1      36.120  31.685  29.537  1.00  0.00    -0.237 OA
ATOM     75  O   UNL A   1      35.260  29.585  28.568  1.00  0.00    -0.744 OA
ENDBRANCH  71  72
ENDBRANCH  50  64
BRANCH  51  76
ATOM     76  C   UNL A   1      49.746  26.414  26.218  1.00  0.00     0.058 A 
ATOM     77  C   UNL A   1      50.619  25.785  27.118  1.00  0.00     0.135 A 
ATOM     78  C   UNL A   1      50.227  26.692  24.929  1.00  0.00     0.135 A 
ATOM     79  F   UNL A   1      50.207  25.502  28.363  1.00  0.00    -0.206 F 
ATOM     80  C   UNL A   1      51.927  25.469  26.766  1.00  0.00     0.059 A 
ATOM     81  C   UNL A   1      51.522  26.360  24.544  1.00  0.00     0.059 A 
ATOM     82  F   UNL A   1      49.427  27.275  24.022  1.00  0.00    -0.206 F 
ATOM     83  C   UNL A   1      52.370  25.762  25.476  1.00  0.00     0.060 A 
BRANCH  83  84
ATOM     84  S   UNL A   1      54.061  25.322  25.019  1.00  0.00     0.124 S 
ATOM     85  O   UNL A   1      54.823  25.917  26.111  1.00  0.00    -0.237 OA
ATOM     86  O   UNL A   1      54.004  23.865  24.997  1.00  0.00    -0.237 OA
ATOM     87  O   UNL A   1      54.229  25.954  23.714  1.00  0.00    -0.744 OA
ENDBRANCH  83  84
ENDBRANCH  51  76
BRANCH  63  88
ATOM     88  C   UNL A   1      46.772  32.338  28.398  1.00  0.00     0.058 A 
ATOM     89  C   UNL A   1      46.815  33.339  27.417  1.00  0.00     0.135 A 
ATOM     90  C   UNL A   1      47.210  32.667  29.691  1.00  0.00     0.135 A 
ATOM     91  F   UNL A   1      46.414  33.075  26.163  1.00  0.00    -0.206 F 
ATOM     92  C   UNL A   1      47.295  34.614  27.700  1.00  0.00     0.059 A 
ATOM     93  C   UNL A   1      47.666  33.943  30.005  1.00  0.00     0.059 A 
ATOM     94  F   UNL A   1      47.180  31.749  30.670  1.00  0.00    -0.206 F 
ATOM     95  C   UNL A   1      47.716  34.907  28.999  1.00  0.00     0.060 A 
BRANCH  95  96
ATOM     96  S   UNL A   1      48.302  36.575  29.362  1.00  0.00     0.124 S 
ATOM     97  O   UNL A   1      49.506  36.300  30.138  1.00  0.00    -0.237 OA
ATOM     98  O   UNL A   1      48.519  37.127  28.029  1.00  0.00    -0.237 OA
ATOM     99  O   UNL A   1      47.196  37.169  30.108  1.00  0.00    -0.744 OA
ENDBRANCH  95  96
ENDBRANCH  63  88
ENDBRANCH  37  38
ENDBRANCH  29  32
ENDBRANCH  27  28
ENDBRANCH  26  27
ENDBRANCH   1  26
TORSDOF 18
ENDMDL
