MODEL 1
REMARK VINA RESULT:     -13.1      0.000      0.000
REMARK SMILES O=C(NCCCCCCNC(=O)[C@@H]1CC2(CCN(C(=O)C3(c4ccccc4F)CC3)CC2)C[NH2+]1)c1ccc(-c2c3nc(c(-c4c(F)cc(S(=O)(=O)[O-])cc4F)c4ccc([nH]4)c(-c4c(F)cc(S(=O)(=O)[O-])cc4F)c4nc(c(-c5c(F)cc(S(=O)(=O)[O-])cc5F)c5ccc2[nH]5)C=C4)C=C3)cc1
REMARK SMILES IDX 6 1 5 2 4 3 3 4 1 5 2 6 35 8 36 9 100 10 37 11 99 12 38 13
REMARK SMILES IDX 39 14 40 15 93 16 41 17 98 18 92 19 94 20 42 21 97 22 91 23
REMARK SMILES IDX 90 24 43 26 77 27 56 28 76 29 57 30 60 31 75 32 95 33 58 34
REMARK SMILES IDX 59 35 74 37 96 38 61 39 44 40 45 41 54 42 46 43 47 44 53 45
REMARK SMILES IDX 55 46 48 47 49 48 50 49 51 50 52 51 78 52 79 53 88 54 80 55
REMARK SMILES IDX 81 56 87 57 89 58 82 59 83 60 84 61 85 62 86 63 62 64 63 65
REMARK SMILES IDX 72 66 64 67 65 68 71 69 73 70 66 71 67 72 68 73 69 74 70 75
REMARK SMILES IDX 7 76 8 77 9 78 10 79 11 80 12 82 13 83 14 84 34 85 15 86
REMARK SMILES IDX 33 87 16 90 32 91 17 92 31 93 18 94 19 95 20 96 21 97 29 98
REMARK SMILES IDX 30 99 22 100 23 101 27 102 24 103 26 104 28 105 25 106
REMARK H PARENT 3 7 94 25 60 36 10 81 34 88 34 89
REMARK Flexibility Score: inf
ROOT
ATOM      1  C   UNL A   1      34.526  29.434  27.359  1.00  0.00     0.002 C 
ENDROOT
BRANCH   1   2
ATOM      2  C   UNL A   1      34.538  30.912  27.761  1.00  0.00     0.021 C 
BRANCH   2   3
ATOM      3  C   UNL A   1      35.706  31.348  28.634  1.00  0.00     0.116 C 
BRANCH   3   4
ATOM      4  N   UNL A   1      35.609  30.856  29.998  1.00  0.00    -0.352 N 
ATOM      5  O   UNL A   1      36.166  29.670  31.826  1.00  0.00    -0.269 OA
ATOM      6  C   UNL A   1      36.496  30.098  30.728  1.00  0.00     0.251 C 
ATOM      7  H   UNL A   1      34.782  31.103  30.473  1.00  0.00     0.163 HD
BRANCH   6   8
ATOM      8  C   UNL A   1      37.837  29.790  30.181  1.00  0.00     0.039 A 
ATOM      9  C   UNL A   1      38.089  29.885  28.812  1.00  0.00     0.014 A 
ATOM     10  C   UNL A   1      38.867  29.428  31.056  1.00  0.00     0.014 A 
ATOM     11  C   UNL A   1      39.318  29.486  28.305  1.00  0.00     0.010 A 
ATOM     12  C   UNL A   1      40.136  29.117  30.553  1.00  0.00     0.010 A 
ATOM     13  C   UNL A   1      40.366  29.123  29.171  1.00  0.00    -0.014 A 
BRANCH  13  14
ATOM     14  C   UNL A   1      41.704  28.850  28.585  1.00  0.00     0.031 A 
ATOM     15  C   UNL A   1      42.782  29.897  28.560  1.00  0.00     0.074 A 
ATOM     16  C   UNL A   1      41.956  27.601  28.142  1.00  0.00     0.049 A 
ATOM     17  N   UNL A   1      44.022  29.785  28.157  1.00  0.00    -0.248 NA
ATOM     18  C   UNL A   1      42.430  31.244  29.040  1.00  0.00     0.031 C 
ATOM     19  C   UNL A   1      40.974  26.511  28.107  1.00  0.00     0.029 A 
ATOM     20  N   UNL A   1      43.109  27.018  27.685  1.00  0.00    -0.354 N 
ATOM     21  C   UNL A   1      44.596  31.039  28.326  1.00  0.00     0.074 A 
ATOM     22  C   UNL A   1      43.562  31.909  28.843  1.00  0.00     0.031 C 
ATOM     23  C   UNL A   1      41.585  25.377  27.739  1.00  0.00     0.029 A 
ATOM     24  C   UNL A   1      42.982  25.669  27.443  1.00  0.00     0.049 A 
ATOM     25  H   UNL A   1      43.946  27.515  27.545  1.00  0.00     0.167 HD
ATOM     26  C   UNL A   1      45.873  31.420  28.079  1.00  0.00     0.037 A 
ATOM     27  C   UNL A   1      43.888  24.764  27.026  1.00  0.00     0.037 A 
ATOM     28  C   UNL A   1      46.900  30.535  27.587  1.00  0.00     0.049 A 
ATOM     29  C   UNL A   1      45.292  25.221  26.755  1.00  0.00     0.074 A 
ATOM     30  C   UNL A   1      48.229  30.823  27.322  1.00  0.00     0.029 A 
ATOM     31  N   UNL A   1      46.720  29.190  27.296  1.00  0.00    -0.354 N 
ATOM     32  N   UNL A   1      45.814  26.413  26.919  1.00  0.00    -0.248 NA
ATOM     33  C   UNL A   1      46.225  24.218  26.229  1.00  0.00     0.031 C 
ATOM     34  C   UNL A   1      48.842  29.664  26.837  1.00  0.00     0.029 A 
ATOM     35  C   UNL A   1      47.908  28.640  26.840  1.00  0.00     0.049 A 
ATOM     36  H   UNL A   1      45.873  28.698  27.400  1.00  0.00     0.167 HD
ATOM     37  C   UNL A   1      47.137  26.304  26.515  1.00  0.00     0.074 A 
ATOM     38  C   UNL A   1      47.345  24.922  26.131  1.00  0.00     0.031 C 
ATOM     39  C   UNL A   1      48.091  27.264  26.452  1.00  0.00     0.037 A 
BRANCH  26  40
ATOM     40  C   UNL A   1      46.254  32.853  28.334  1.00  0.00     0.058 A 
ATOM     41  C   UNL A   1      46.652  33.266  29.617  1.00  0.00     0.135 A 
ATOM     42  C   UNL A   1      46.118  33.838  27.344  1.00  0.00     0.135 A 
ATOM     43  F   UNL A   1      46.803  32.366  30.601  1.00  0.00    -0.206 F 
ATOM     44  C   UNL A   1      46.870  34.608  29.916  1.00  0.00     0.059 A 
ATOM     45  C   UNL A   1      46.352  35.184  27.615  1.00  0.00     0.059 A 
ATOM     46  F   UNL A   1      45.757  33.495  26.097  1.00  0.00    -0.206 F 
ATOM     47  C   UNL A   1      46.708  35.562  28.910  1.00  0.00     0.060 A 
BRANCH  47  48
ATOM     48  S   UNL A   1      46.975  37.300  29.319  1.00  0.00     0.124 S 
ATOM     49  O   UNL A   1      47.666  37.787  28.131  1.00  0.00    -0.237 OA
ATOM     50  O   UNL A   1      45.610  37.784  29.505  1.00  0.00    -0.237 OA
ATOM     51  O   UNL A   1      47.780  37.244  30.536  1.00  0.00    -0.744 OA
ENDBRANCH  47  48
ENDBRANCH  26  40
BRANCH  27  52
ATOM     52  C   UNL A   1      43.488  23.345  26.842  1.00  0.00     0.058 A 
ATOM     53  C   UNL A   1      43.262  22.815  25.561  1.00  0.00     0.135 A 
ATOM     54  C   UNL A   1      43.300  22.496  27.942  1.00  0.00     0.135 A 
ATOM     55  F   UNL A   1      43.418  23.587  24.475  1.00  0.00    -0.206 F 
ATOM     56  C   UNL A   1      42.841  21.503  25.380  1.00  0.00     0.059 A 
ATOM     57  C   UNL A   1      42.907  21.170  27.785  1.00  0.00     0.059 A 
ATOM     58  F   UNL A   1      43.514  22.955  29.186  1.00  0.00    -0.206 F 
ATOM     59  C   UNL A   1      42.666  20.688  26.498  1.00  0.00     0.060 A 
BRANCH  59  60
ATOM     60  S   UNL A   1      42.134  18.982  26.242  1.00  0.00     0.124 S 
ATOM     61  O   UNL A   1      40.775  19.173  25.747  1.00  0.00    -0.237 OA
ATOM     62  O   UNL A   1      43.106  18.501  25.266  1.00  0.00    -0.237 OA
ATOM     63  O   UNL A   1      42.242  18.393  27.572  1.00  0.00    -0.744 OA
ENDBRANCH  59  60
ENDBRANCH  27  52
BRANCH  39  64
ATOM     64  C   UNL A   1      49.444  26.849  25.950  1.00  0.00     0.058 A 
ATOM     65  C   UNL A   1      50.360  26.212  26.802  1.00  0.00     0.135 A 
ATOM     66  C   UNL A   1      49.844  27.112  24.631  1.00  0.00     0.135 A 
ATOM     67  F   UNL A   1      50.027  25.941  28.073  1.00  0.00    -0.206 F 
ATOM     68  C   UNL A   1      51.629  25.854  26.362  1.00  0.00     0.059 A 
ATOM     69  C   UNL A   1      51.100  26.739  24.164  1.00  0.00     0.059 A 
ATOM     70  F   UNL A   1      48.998  27.707  23.774  1.00  0.00    -0.206 F 
ATOM     71  C   UNL A   1      51.990  26.121  25.041  1.00  0.00     0.060 A 
BRANCH  71  72
ATOM     72  S   UNL A   1      53.625  25.606  24.473  1.00  0.00     0.124 S 
ATOM     73  O   UNL A   1      53.669  24.216  24.912  1.00  0.00    -0.237 OA
ATOM     74  O   UNL A   1      53.533  25.814  23.031  1.00  0.00    -0.237 OA
ATOM     75  O   UNL A   1      54.527  26.515  25.174  1.00  0.00    -0.744 OA
ENDBRANCH  71  72
ENDBRANCH  39  64
ENDBRANCH  13  14
ENDBRANCH   6   8
ENDBRANCH   3   4
ENDBRANCH   2   3
ENDBRANCH   1   2
BRANCH   1  76
ATOM     76  C   UNL A   1      33.176  28.702  27.439  1.00  0.00     0.002 C 
BRANCH  76  77
ATOM     77  C   UNL A   1      31.963  29.401  26.817  1.00  0.00     0.021 C 
BRANCH  77  78
ATOM     78  C   UNL A   1      32.136  29.819  25.366  1.00  0.00     0.116 C 
BRANCH  78  79
ATOM     79  N   UNL A   1      30.962  30.360  24.712  1.00  0.00    -0.351 N 
ATOM     80  C   UNL A   1      30.225  29.834  23.681  1.00  0.00     0.278 C 
ATOM     81  H   UNL A   1      30.649  31.228  25.057  1.00  0.00     0.163 HD
ATOM     82  O   UNL A   1      29.008  30.063  23.711  1.00  0.00    -0.268 OA
BRANCH  80  83
ATOM     83  C   UNL A   1      30.823  29.048  22.477  1.00  0.00     0.273 C 
ATOM     84  C   UNL A   1      30.558  27.539  22.398  1.00  0.00     0.088 C 
ATOM     85  N   UNL A   1      32.267  29.214  22.299  1.00  0.00    -0.336 N 
ATOM     86  C   UNL A   1      31.849  26.871  22.905  1.00  0.00     0.029 C 
ATOM     87  C   UNL A   1      32.918  27.924  22.516  1.00  0.00     0.268 C 
ATOM     88  H   UNL A   1      32.619  29.896  22.971  1.00  0.00     0.346 HD
ATOM     89  H   UNL A   1      32.463  29.548  21.355  1.00  0.00     0.346 HD
ATOM     90  C   UNL A   1      32.229  25.526  22.218  1.00  0.00     0.034 C 
ATOM     91  C   UNL A   1      31.712  26.649  24.434  1.00  0.00     0.034 C 
ATOM     92  C   UNL A   1      31.467  24.292  22.727  1.00  0.00     0.120 C 
ATOM     93  C   UNL A   1      30.920  25.396  24.793  1.00  0.00     0.120 C 
ATOM     94  N   UNL A   1      31.540  24.242  24.176  1.00  0.00    -0.342 N 
ATOM     95  C   UNL A   1      32.453  23.539  24.971  1.00  0.00     0.233 C 
ATOM     96  O   UNL A   1      32.826  24.031  26.039  1.00  0.00    -0.274 OA
BRANCH  95  97
ATOM     97  C   UNL A   1      32.940  22.136  24.654  1.00  0.00     0.077 C 
ATOM     98  C   UNL A   1      32.227  20.806  24.881  1.00  0.00     0.023 C 
ATOM     99  C   UNL A   1      32.121  21.450  23.546  1.00  0.00     0.023 C 
BRANCH  97 100
ATOM    100  C   UNL A   1      34.480  22.043  24.533  1.00  0.00     0.003 A 
ATOM    101  C   UNL A   1      35.242  21.266  25.425  1.00  0.00     0.008 A 
ATOM    102  C   UNL A   1      35.191  22.744  23.540  1.00  0.00     0.127 A 
ATOM    103  C   UNL A   1      36.637  21.188  25.317  1.00  0.00     0.001 A 
ATOM    104  C   UNL A   1      36.578  22.675  23.427  1.00  0.00     0.039 A 
ATOM    105  F   UNL A   1      34.525  23.502  22.656  1.00  0.00    -0.207 F 
ATOM    106  C   UNL A   1      37.305  21.894  24.320  1.00  0.00     0.003 A 
ENDBRANCH  97 100
ENDBRANCH  95  97
ENDBRANCH  80  83
ENDBRANCH  78  79
ENDBRANCH  77  78
ENDBRANCH  76  77
ENDBRANCH   1  76
TORSDOF 18
ENDMDL
MODEL 2
REMARK VINA RESULT:     -13.1      0.572      1.515
REMARK SMILES O=C(NCCCCCCNC(=O)[C@@H]1CC2(CCN(C(=O)C3(c4ccccc4F)CC3)CC2)C[NH2+]1)c1ccc(-c2c3nc(c(-c4c(F)cc(S(=O)(=O)[O-])cc4F)c4ccc([nH]4)c(-c4c(F)cc(S(=O)(=O)[O-])cc4F)c4nc(c(-c5c(F)cc(S(=O)(=O)[O-])cc5F)c5ccc2[nH]5)C=C4)C=C3)cc1
REMARK SMILES IDX 6 1 5 2 4 3 3 4 1 5 2 6 35 8 36 9 100 10 37 11 99 12 38 13
REMARK SMILES IDX 39 14 40 15 93 16 41 17 98 18 92 19 94 20 42 21 97 22 91 23
REMARK SMILES IDX 90 24 43 26 77 27 56 28 76 29 57 30 60 31 75 32 95 33 58 34
REMARK SMILES IDX 59 35 74 37 96 38 61 39 44 40 45 41 54 42 46 43 47 44 53 45
REMARK SMILES IDX 55 46 48 47 49 48 50 49 51 50 52 51 78 52 79 53 88 54 80 55
REMARK SMILES IDX 81 56 87 57 89 58 82 59 83 60 84 61 85 62 86 63 62 64 63 65
REMARK SMILES IDX 72 66 64 67 65 68 71 69 73 70 66 71 67 72 68 73 69 74 70 75
REMARK SMILES IDX 7 76 8 77 9 78 10 79 11 80 12 82 13 83 14 84 34 85 15 86
REMARK SMILES IDX 33 87 16 90 32 91 17 92 31 93 18 94 19 95 20 96 21 97 29 98
REMARK SMILES IDX 30 99 22 100 23 101 27 102 24 103 26 104 28 105 25 106
REMARK H PARENT 3 7 94 25 60 36 10 81 34 88 34 89
REMARK Flexibility Score: inf
ROOT
ATOM      1  C   UNL A   1      34.359  29.449  27.251  1.00  0.00     0.002 C 
ENDROOT
BRANCH   1   2
ATOM      2  C   UNL A   1      34.458  30.920  27.666  1.00  0.00     0.021 C 
BRANCH   2   3
ATOM      3  C   UNL A   1      35.687  31.294  28.482  1.00  0.00     0.116 C 
BRANCH   3   4
ATOM      4  N   UNL A   1      35.589  30.887  29.873  1.00  0.00    -0.352 N 
ATOM      5  O   UNL A   1      36.156  29.830  31.776  1.00  0.00    -0.269 OA
ATOM      6  C   UNL A   1      36.486  30.196  30.656  1.00  0.00     0.251 C 
ATOM      7  H   UNL A   1      34.753  31.145  30.326  1.00  0.00     0.163 HD
BRANCH   6   8
ATOM      8  C   UNL A   1      37.838  29.883  30.138  1.00  0.00     0.039 A 
ATOM      9  C   UNL A   1      38.124  29.990  28.776  1.00  0.00     0.014 A 
ATOM     10  C   UNL A   1      38.844  29.506  31.035  1.00  0.00     0.014 A 
ATOM     11  C   UNL A   1      39.362  29.586  28.296  1.00  0.00     0.010 A 
ATOM     12  C   UNL A   1      40.123  29.190  30.560  1.00  0.00     0.010 A 
ATOM     13  C   UNL A   1      40.386  29.208  29.183  1.00  0.00    -0.014 A 
BRANCH  13  14
ATOM     14  C   UNL A   1      41.736  28.930  28.628  1.00  0.00     0.031 A 
ATOM     15  C   UNL A   1      42.822  29.969  28.641  1.00  0.00     0.074 A 
ATOM     16  C   UNL A   1      41.989  27.684  28.177  1.00  0.00     0.049 A 
ATOM     17  N   UNL A   1      44.071  29.851  28.267  1.00  0.00    -0.248 NA
ATOM     18  C   UNL A   1      42.468  31.314  29.126  1.00  0.00     0.031 C 
ATOM     19  C   UNL A   1      41.000  26.603  28.107  1.00  0.00     0.029 A 
ATOM     20  N   UNL A   1      43.148  27.097  27.743  1.00  0.00    -0.354 N 
ATOM     21  C   UNL A   1      44.650  31.100  28.463  1.00  0.00     0.074 A 
ATOM     22  C   UNL A   1      43.610  31.972  28.965  1.00  0.00     0.031 C 
ATOM     23  C   UNL A   1      41.612  25.468  27.741  1.00  0.00     0.029 A 
ATOM     24  C   UNL A   1      43.018  25.752  27.483  1.00  0.00     0.049 A 
ATOM     25  H   UNL A   1      43.993  27.589  27.629  1.00  0.00     0.167 HD
ATOM     26  C   UNL A   1      45.935  31.473  28.252  1.00  0.00     0.037 A 
ATOM     27  C   UNL A   1      43.927  24.845  27.079  1.00  0.00     0.037 A 
ATOM     28  C   UNL A   1      46.967  30.585  27.776  1.00  0.00     0.049 A 
ATOM     29  C   UNL A   1      45.340  25.293  26.847  1.00  0.00     0.074 A 
ATOM     30  C   UNL A   1      48.305  30.866  27.546  1.00  0.00     0.029 A 
ATOM     31  N   UNL A   1      46.785  29.245  27.466  1.00  0.00    -0.354 N 
ATOM     32  N   UNL A   1      45.867  26.480  27.037  1.00  0.00    -0.248 NA
ATOM     33  C   UNL A   1      46.279  24.288  26.333  1.00  0.00     0.031 C 
ATOM     34  C   UNL A   1      48.921  29.708  27.064  1.00  0.00     0.029 A 
ATOM     35  C   UNL A   1      47.979  28.691  27.033  1.00  0.00     0.049 A 
ATOM     36  H   UNL A   1      45.932  28.759  27.544  1.00  0.00     0.167 HD
ATOM     37  C   UNL A   1      47.199  26.364  26.664  1.00  0.00     0.074 A 
ATOM     38  C   UNL A   1      47.406  24.984  26.271  1.00  0.00     0.031 C 
ATOM     39  C   UNL A   1      48.162  27.318  26.636  1.00  0.00     0.037 A 
BRANCH  26  40
ATOM     40  C   UNL A   1      46.321  32.900  28.532  1.00  0.00     0.058 A 
ATOM     41  C   UNL A   1      46.318  33.855  27.501  1.00  0.00     0.135 A 
ATOM     42  C   UNL A   1      46.801  33.298  29.790  1.00  0.00     0.135 A 
ATOM     43  F   UNL A   1      45.865  33.531  26.280  1.00  0.00    -0.206 F 
ATOM     44  C   UNL A   1      46.808  35.143  27.699  1.00  0.00     0.059 A 
ATOM     45  C   UNL A   1      47.275  34.588  30.017  1.00  0.00     0.059 A 
ATOM     46  F   UNL A   1      46.809  32.430  30.814  1.00  0.00    -0.206 F 
ATOM     47  C   UNL A   1      47.293  35.498  28.959  1.00  0.00     0.060 A 
BRANCH  47  48
ATOM     48  S   UNL A   1      47.942  37.167  29.194  1.00  0.00     0.124 S 
ATOM     49  O   UNL A   1      46.720  37.944  29.362  1.00  0.00    -0.237 OA
ATOM     50  O   UNL A   1      48.766  37.009  30.390  1.00  0.00    -0.237 OA
ATOM     51  O   UNL A   1      48.685  37.419  27.963  1.00  0.00    -0.744 OA
ENDBRANCH  47  48
ENDBRANCH  26  40
BRANCH  27  52
ATOM     52  C   UNL A   1      43.521  23.430  26.869  1.00  0.00     0.058 A 
ATOM     53  C   UNL A   1      43.339  22.911  25.578  1.00  0.00     0.135 A 
ATOM     54  C   UNL A   1      43.283  22.576  27.956  1.00  0.00     0.135 A 
ATOM     55  F   UNL A   1      43.543  23.689  24.504  1.00  0.00    -0.206 F 
ATOM     56  C   UNL A   1      42.913  21.605  25.372  1.00  0.00     0.059 A 
ATOM     57  C   UNL A   1      42.884  21.255  27.775  1.00  0.00     0.059 A 
ATOM     58  F   UNL A   1      43.454  23.025  29.210  1.00  0.00    -0.206 F 
ATOM     59  C   UNL A   1      42.687  20.784  26.476  1.00  0.00     0.060 A 
BRANCH  59  60
ATOM     60  S   UNL A   1      42.150  19.085  26.188  1.00  0.00     0.124 S 
ATOM     61  O   UNL A   1      42.427  18.469  27.481  1.00  0.00    -0.237 OA
ATOM     62  O   UNL A   1      40.740  19.260  25.856  1.00  0.00    -0.237 OA
ATOM     63  O   UNL A   1      43.001  18.646  25.087  1.00  0.00    -0.744 OA
ENDBRANCH  59  60
ENDBRANCH  27  52
BRANCH  39  64
ATOM     64  C   UNL A   1      49.523  26.897  26.162  1.00  0.00     0.058 A 
ATOM     65  C   UNL A   1      49.916  27.109  24.832  1.00  0.00     0.135 A 
ATOM     66  C   UNL A   1      50.428  26.255  27.022  1.00  0.00     0.135 A 
ATOM     67  F   UNL A   1      49.086  27.716  23.969  1.00  0.00    -0.206 F 
ATOM     68  C   UNL A   1      51.158  26.693  24.368  1.00  0.00     0.059 A 
ATOM     69  C   UNL A   1      51.686  25.854  26.585  1.00  0.00     0.059 A 
ATOM     70  F   UNL A   1      50.103  26.043  28.307  1.00  0.00    -0.206 F 
ATOM     71  C   UNL A   1      52.037  26.067  25.253  1.00  0.00     0.060 A 
BRANCH  71  72
ATOM     72  S   UNL A   1      53.666  25.576  24.647  1.00  0.00     0.124 S 
ATOM     73  O   UNL A   1      53.655  24.138  24.895  1.00  0.00    -0.237 OA
ATOM     74  O   UNL A   1      53.612  25.979  23.246  1.00  0.00    -0.237 OA
ATOM     75  O   UNL A   1      54.583  26.350  25.479  1.00  0.00    -0.744 OA
ENDBRANCH  71  72
ENDBRANCH  39  64
ENDBRANCH  13  14
ENDBRANCH   6   8
ENDBRANCH   3   4
ENDBRANCH   2   3
ENDBRANCH   1   2
BRANCH   1  76
ATOM     76  C   UNL A   1      32.970  28.795  27.333  1.00  0.00     0.002 C 
BRANCH  76  77
ATOM     77  C   UNL A   1      31.790  29.582  26.755  1.00  0.00     0.021 C 
BRANCH  77  78
ATOM     78  C   UNL A   1      31.989  30.086  25.333  1.00  0.00     0.116 C 
BRANCH  78  79
ATOM     79  N   UNL A   1      30.786  30.448  24.611  1.00  0.00    -0.351 N 
ATOM     80  C   UNL A   1      30.154  29.780  23.592  1.00  0.00     0.278 C 
ATOM     81  H   UNL A   1      30.364  31.293  24.889  1.00  0.00     0.163 HD
ATOM     82  O   UNL A   1      28.919  29.868  23.570  1.00  0.00    -0.268 OA
BRANCH  80  83
ATOM     83  C   UNL A   1      30.882  28.996  22.461  1.00  0.00     0.273 C 
ATOM     84  C   UNL A   1      30.679  27.477  22.388  1.00  0.00     0.088 C 
ATOM     85  N   UNL A   1      32.329  29.213  22.405  1.00  0.00    -0.336 N 
ATOM     86  C   UNL A   1      31.944  26.866  23.019  1.00  0.00     0.029 C 
ATOM     87  C   UNL A   1      33.004  27.952  22.704  1.00  0.00     0.268 C 
ATOM     88  H   UNL A   1      32.598  29.918  23.092  1.00  0.00     0.346 HD
ATOM     89  H   UNL A   1      32.596  29.538  21.476  1.00  0.00     0.346 HD
ATOM     90  C   UNL A   1      32.430  25.525  22.394  1.00  0.00     0.034 C 
ATOM     91  C   UNL A   1      31.681  26.665  24.534  1.00  0.00     0.034 C 
ATOM     92  C   UNL A   1      31.671  24.272  22.858  1.00  0.00     0.120 C 
ATOM     93  C   UNL A   1      30.906  25.388  24.847  1.00  0.00     0.120 C 
ATOM     94  N   UNL A   1      31.618  24.249  24.309  1.00  0.00    -0.342 N 
ATOM     95  C   UNL A   1      32.482  23.593  25.194  1.00  0.00     0.233 C 
ATOM     96  O   UNL A   1      32.742  24.116  26.281  1.00  0.00    -0.274 OA
BRANCH  95  97
ATOM     97  C   UNL A   1      33.044  22.204  24.948  1.00  0.00     0.077 C 
ATOM     98  C   UNL A   1      32.428  20.851  25.295  1.00  0.00     0.023 C 
ATOM     99  C   UNL A   1      32.224  21.395  23.927  1.00  0.00     0.023 C 
BRANCH  97 100
ATOM    100  C   UNL A   1      34.581  22.198  24.762  1.00  0.00     0.003 A 
ATOM    101  C   UNL A   1      35.181  22.666  23.579  1.00  0.00     0.008 A 
ATOM    102  C   UNL A   1      35.446  21.708  25.759  1.00  0.00     0.127 A 
ATOM    103  C   UNL A   1      36.572  22.653  23.411  1.00  0.00     0.001 A 
ATOM    104  C   UNL A   1      36.831  21.688  25.600  1.00  0.00     0.039 A 
ATOM    105  F   UNL A   1      34.940  21.249  26.913  1.00  0.00    -0.207 F 
ATOM    106  C   UNL A   1      37.397  22.163  24.421  1.00  0.00     0.003 A 
ENDBRANCH  97 100
ENDBRANCH  95  97
ENDBRANCH  80  83
ENDBRANCH  78  79
ENDBRANCH  77  78
ENDBRANCH  76  77
ENDBRANCH   1  76
TORSDOF 18
ENDMDL
MODEL 3
REMARK VINA RESULT:     -13.1      1.194      2.162
REMARK SMILES O=C(NCCCCCCNC(=O)[C@@H]1CC2(CCN(C(=O)C3(c4ccccc4F)CC3)CC2)C[NH2+]1)c1ccc(-c2c3nc(c(-c4c(F)cc(S(=O)(=O)[O-])cc4F)c4ccc([nH]4)c(-c4c(F)cc(S(=O)(=O)[O-])cc4F)c4nc(c(-c5c(F)cc(S(=O)(=O)[O-])cc5F)c5ccc2[nH]5)C=C4)C=C3)cc1
REMARK SMILES IDX 6 1 5 2 4 3 3 4 1 5 2 6 35 8 36 9 100 10 37 11 99 12 38 13
REMARK SMILES IDX 39 14 40 15 93 16 41 17 98 18 92 19 94 20 42 21 97 22 91 23
REMARK SMILES IDX 90 24 43 26 77 27 56 28 76 29 57 30 60 31 75 32 95 33 58 34
REMARK SMILES IDX 59 35 74 37 96 38 61 39 44 40 45 41 54 42 46 43 47 44 53 45
REMARK SMILES IDX 55 46 48 47 49 48 50 49 51 50 52 51 78 52 79 53 88 54 80 55
REMARK SMILES IDX 81 56 87 57 89 58 82 59 83 60 84 61 85 62 86 63 62 64 63 65
REMARK SMILES IDX 72 66 64 67 65 68 71 69 73 70 66 71 67 72 68 73 69 74 70 75
REMARK SMILES IDX 7 76 8 77 9 78 10 79 11 80 12 82 13 83 14 84 34 85 15 86
REMARK SMILES IDX 33 87 16 90 32 91 17 92 31 93 18 94 19 95 20 96 21 97 29 98
REMARK SMILES IDX 30 99 22 100 23 101 27 102 24 103 26 104 28 105 25 106
REMARK H PARENT 3 7 94 25 60 36 10 81 34 88 34 89
REMARK Flexibility Score: inf
ROOT
ATOM      1  C   UNL A   1      34.576  29.336  27.444  1.00  0.00     0.002 C 
ENDROOT
BRANCH   1   2
ATOM      2  C   UNL A   1      34.679  30.852  27.632  1.00  0.00     0.021 C 
BRANCH   2   3
ATOM      3  C   UNL A   1      35.782  31.326  28.568  1.00  0.00     0.116 C 
BRANCH   3   4
ATOM      4  N   UNL A   1      35.670  30.768  29.905  1.00  0.00    -0.352 N 
ATOM      5  O   UNL A   1      36.207  29.491  31.677  1.00  0.00    -0.269 OA
ATOM      6  C   UNL A   1      36.548  29.972  30.606  1.00  0.00     0.251 C 
ATOM      7  H   UNL A   1      34.839  30.992  30.384  1.00  0.00     0.163 HD
BRANCH   6   8
ATOM      8  C   UNL A   1      37.895  29.690  30.057  1.00  0.00     0.039 A 
ATOM      9  C   UNL A   1      38.966  29.405  30.905  1.00  0.00     0.014 A 
ATOM     10  C   UNL A   1      38.081  29.682  28.670  1.00  0.00     0.014 A 
ATOM     11  C   UNL A   1      40.242  29.254  30.379  1.00  0.00     0.010 A 
ATOM     12  C   UNL A   1      39.352  29.435  28.136  1.00  0.00     0.010 A 
ATOM     13  C   UNL A   1      40.447  29.239  28.988  1.00  0.00    -0.014 A 
BRANCH  13  14
ATOM     14  C   UNL A   1      41.807  28.924  28.477  1.00  0.00     0.031 A 
ATOM     15  C   UNL A   1      42.916  29.938  28.515  1.00  0.00     0.074 A 
ATOM     16  C   UNL A   1      42.044  27.668  28.046  1.00  0.00     0.049 A 
ATOM     17  N   UNL A   1      44.173  29.787  28.181  1.00  0.00    -0.248 NA
ATOM     18  C   UNL A   1      42.580  31.295  28.977  1.00  0.00     0.031 C 
ATOM     19  C   UNL A   1      41.032  26.610  27.954  1.00  0.00     0.029 A 
ATOM     20  N   UNL A   1      43.202  27.050  27.652  1.00  0.00    -0.354 N 
ATOM     21  C   UNL A   1      44.776  31.023  28.384  1.00  0.00     0.074 A 
ATOM     22  C   UNL A   1      43.742  31.924  28.845  1.00  0.00     0.031 C 
ATOM     23  C   UNL A   1      41.627  25.458  27.618  1.00  0.00     0.029 A 
ATOM     24  C   UNL A   1      43.047  25.706  27.400  1.00  0.00     0.049 A 
ATOM     25  H   UNL A   1      44.061  27.521  27.561  1.00  0.00     0.167 HD
ATOM     26  C   UNL A   1      46.075  31.364  28.209  1.00  0.00     0.037 A 
ATOM     27  C   UNL A   1      43.946  24.774  27.033  1.00  0.00     0.037 A 
ATOM     28  C   UNL A   1      47.100  30.448  27.774  1.00  0.00     0.049 A 
ATOM     29  C   UNL A   1      45.376  25.187  26.841  1.00  0.00     0.074 A 
ATOM     30  C   UNL A   1      48.450  30.694  27.583  1.00  0.00     0.029 A 
ATOM     31  N   UNL A   1      46.895  29.109  27.470  1.00  0.00    -0.354 N 
ATOM     32  N   UNL A   1      45.925  26.362  27.037  1.00  0.00    -0.248 NA
ATOM     33  C   UNL A   1      46.306  24.155  26.366  1.00  0.00     0.031 C 
ATOM     34  C   UNL A   1      49.053  29.517  27.131  1.00  0.00     0.029 A 
ATOM     35  C   UNL A   1      48.089  28.522  27.079  1.00  0.00     0.049 A 
ATOM     36  H   UNL A   1      46.029  28.644  27.525  1.00  0.00     0.167 HD
ATOM     37  C   UNL A   1      47.265  26.212  26.706  1.00  0.00     0.074 A 
ATOM     38  C   UNL A   1      47.450  24.824  26.332  1.00  0.00     0.031 C 
ATOM     39  C   UNL A   1      48.250  27.142  26.700  1.00  0.00     0.037 A 
BRANCH  26  40
ATOM     40  C   UNL A   1      46.486  32.784  28.489  1.00  0.00     0.058 A 
ATOM     41  C   UNL A   1      46.426  33.756  27.476  1.00  0.00     0.135 A 
ATOM     42  C   UNL A   1      47.045  33.158  29.721  1.00  0.00     0.135 A 
ATOM     43  F   UNL A   1      45.897  33.455  26.280  1.00  0.00    -0.206 F 
ATOM     44  C   UNL A   1      46.934  35.038  27.665  1.00  0.00     0.059 A 
ATOM     45  C   UNL A   1      47.539  34.441  29.940  1.00  0.00     0.059 A 
ATOM     46  F   UNL A   1      47.111  32.273  30.729  1.00  0.00    -0.206 F 
ATOM     47  C   UNL A   1      47.498  35.369  28.898  1.00  0.00     0.060 A 
BRANCH  47  48
ATOM     48  S   UNL A   1      48.170  37.031  29.120  1.00  0.00     0.124 S 
ATOM     49  O   UNL A   1      48.314  37.485  27.742  1.00  0.00    -0.237 OA
ATOM     50  O   UNL A   1      47.121  37.683  29.899  1.00  0.00    -0.237 OA
ATOM     51  O   UNL A   1      49.419  36.799  29.840  1.00  0.00    -0.744 OA
ENDBRANCH  47  48
ENDBRANCH  26  40
BRANCH  27  52
ATOM     52  C   UNL A   1      43.513  23.368  26.823  1.00  0.00     0.058 A 
ATOM     53  C   UNL A   1      43.195  22.537  27.909  1.00  0.00     0.135 A 
ATOM     54  C   UNL A   1      43.432  22.818  25.535  1.00  0.00     0.135 A 
ATOM     55  F   UNL A   1      43.267  23.009  29.163  1.00  0.00    -0.206 F 
ATOM     56  C   UNL A   1      42.837  21.206  27.728  1.00  0.00     0.059 A 
ATOM     57  C   UNL A   1      43.047  21.498  25.326  1.00  0.00     0.059 A 
ATOM     58  F   UNL A   1      43.717  23.577  24.465  1.00  0.00    -0.206 F 
ATOM     59  C   UNL A   1      42.766  20.695  26.432  1.00  0.00     0.060 A 
BRANCH  59  60
ATOM     60  S   UNL A   1      42.283  18.969  26.216  1.00  0.00     0.124 S 
ATOM     61  O   UNL A   1      43.189  18.545  25.153  1.00  0.00    -0.237 OA
ATOM     62  O   UNL A   1      42.544  18.409  27.537  1.00  0.00    -0.237 OA
ATOM     63  O   UNL A   1      40.875  19.059  25.844  1.00  0.00    -0.744 OA
ENDBRANCH  59  60
ENDBRANCH  27  52
BRANCH  39  64
ATOM     64  C   UNL A   1      49.616  26.685  26.272  1.00  0.00     0.058 A 
ATOM     65  C   UNL A   1      50.462  26.019  27.172  1.00  0.00     0.135 A 
ATOM     66  C   UNL A   1      50.097  26.937  24.978  1.00  0.00     0.135 A 
ATOM     67  F   UNL A   1      50.049  25.756  28.422  1.00  0.00    -0.206 F 
ATOM     68  C   UNL A   1      51.741  25.621  26.803  1.00  0.00     0.059 A 
ATOM     69  C   UNL A   1      51.365  26.526  24.581  1.00  0.00     0.059 A 
ATOM     70  F   UNL A   1      49.319  27.560  24.078  1.00  0.00    -0.206 F 
ATOM     71  C   UNL A   1      52.184  25.878  25.505  1.00  0.00     0.060 A 
BRANCH  71  72
ATOM     72  S   UNL A   1      53.831  25.314  25.028  1.00  0.00     0.124 S 
ATOM     73  O   UNL A   1      54.671  25.970  26.023  1.00  0.00    -0.237 OA
ATOM     74  O   UNL A   1      53.712  23.864  25.154  1.00  0.00    -0.237 OA
ATOM     75  O   UNL A   1      53.975  25.806  23.661  1.00  0.00    -0.744 OA
ENDBRANCH  71  72
ENDBRANCH  39  64
ENDBRANCH  13  14
ENDBRANCH   6   8
ENDBRANCH   3   4
ENDBRANCH   2   3
ENDBRANCH   1   2
BRANCH   1  76
ATOM     76  C   UNL A   1      33.376  28.815  26.636  1.00  0.00     0.002 C 
BRANCH  76  77
ATOM     77  C   UNL A   1      33.175  29.391  25.231  1.00  0.00     0.021 C 
BRANCH  77  78
ATOM     78  C   UNL A   1      31.730  29.692  24.862  1.00  0.00     0.116 C 
BRANCH  78  79
ATOM     79  N   UNL A   1      31.280  29.187  23.581  1.00  0.00    -0.351 N 
ATOM     80  C   UNL A   1      30.214  28.369  23.298  1.00  0.00     0.278 C 
ATOM     81  H   UNL A   1      31.815  29.469  22.804  1.00  0.00     0.163 HD
ATOM     82  O   UNL A   1      29.641  28.578  22.221  1.00  0.00    -0.268 OA
BRANCH  80  83
ATOM     83  C   UNL A   1      29.742  27.189  24.197  1.00  0.00     0.273 C 
ATOM     84  C   UNL A   1      30.741  26.600  25.201  1.00  0.00     0.088 C 
ATOM     85  N   UNL A   1      29.187  26.050  23.463  1.00  0.00    -0.336 N 
ATOM     86  C   UNL A   1      31.264  25.309  24.544  1.00  0.00     0.029 C 
ATOM     87  C   UNL A   1      30.055  24.892  23.670  1.00  0.00     0.268 C 
ATOM     88  H   UNL A   1      29.141  26.272  22.468  1.00  0.00     0.346 HD
ATOM     89  H   UNL A   1      28.247  25.844  23.800  1.00  0.00     0.346 HD
ATOM     90  C   UNL A   1      31.579  24.135  25.519  1.00  0.00     0.034 C 
ATOM     91  C   UNL A   1      32.537  25.660  23.730  1.00  0.00     0.034 C 
ATOM     92  C   UNL A   1      32.927  24.233  26.249  1.00  0.00     0.120 C 
ATOM     93  C   UNL A   1      33.797  25.738  24.587  1.00  0.00     0.120 C 
ATOM     94  N   UNL A   1      33.983  24.484  25.285  1.00  0.00    -0.342 N 
ATOM     95  C   UNL A   1      34.819  23.551  24.658  1.00  0.00     0.233 C 
ATOM     96  O   UNL A   1      35.177  23.750  23.495  1.00  0.00    -0.274 OA
BRANCH  95  97
ATOM     97  C   UNL A   1      35.413  22.346  25.364  1.00  0.00     0.077 C 
ATOM     98  C   UNL A   1      34.692  21.230  26.117  1.00  0.00     0.023 C 
ATOM     99  C   UNL A   1      35.049  21.011  24.690  1.00  0.00     0.023 C 
BRANCH  97 100
ATOM    100  C   UNL A   1      36.899  22.543  25.750  1.00  0.00     0.003 A 
ATOM    101  C   UNL A   1      37.365  23.758  26.285  1.00  0.00     0.008 A 
ATOM    102  C   UNL A   1      37.855  21.525  25.566  1.00  0.00     0.127 A 
ATOM    103  C   UNL A   1      38.713  23.935  26.627  1.00  0.00     0.001 A 
ATOM    104  C   UNL A   1      39.197  21.694  25.901  1.00  0.00     0.039 A 
ATOM    105  F   UNL A   1      37.477  20.340  25.062  1.00  0.00    -0.207 F 
ATOM    106  C   UNL A   1      39.629  22.904  26.434  1.00  0.00     0.003 A 
ENDBRANCH  97 100
ENDBRANCH  95  97
ENDBRANCH  80  83
ENDBRANCH  78  79
ENDBRANCH  77  78
ENDBRANCH  76  77
ENDBRANCH   1  76
TORSDOF 18
ENDMDL
