MODEL 1
REMARK VINA RESULT:     -10.7      0.000      0.000
REMARK SMILES CC(C)C[C@H](NC(=O)c1cc(Cl)nnc1Cl)C(=O)NCCCCCCNC(=O)c1ccc(-c2c3nc(c(-c4c(F)cc(S(=O)(=O)[O-])cc4F)c4ccc([nH]4)c(-c4c(F)cc(S(=O)(=O)[O-])cc4F)c4nc(c(-c5c(F)cc(S(=O)(=O)[O-])cc5F)c5ccc2[nH]5)C=C4)C=C3)cc1
REMARK SMILES IDX 23 1 22 2 21 3 20 4 19 5 17 6 18 7 5 9 4 10 2 11 1 12 3 13
REMARK SMILES IDX 6 14 7 15 8 17 9 18 10 19 15 20 11 21 14 22 16 23 12 24
REMARK SMILES IDX 13 25 24 26 25 27 26 28 27 29 28 31 29 32 30 33 94 34 31 35
REMARK SMILES IDX 93 36 32 37 33 38 34 39 87 40 35 41 92 42 86 43 88 44 36 45
REMARK SMILES IDX 91 46 85 47 84 48 37 50 71 51 50 52 70 53 51 54 54 55 69 56
REMARK SMILES IDX 89 57 52 58 53 59 68 61 90 62 55 63 38 64 39 65 48 66 40 67
REMARK SMILES IDX 41 68 47 69 49 70 42 71 43 72 44 73 45 74 46 75 72 76 73 77
REMARK SMILES IDX 82 78 74 79 75 80 81 81 83 82 76 83 77 84 78 85 79 86 80 87
REMARK SMILES IDX 56 88 57 89 66 90 58 91 59 92 65 93 67 94 60 95 61 96 62 97
REMARK SMILES IDX 63 98 64 99
REMARK H PARENT 19 8 6 16 26 30 88 49 54 60
REMARK Flexibility Score: inf
ROOT
ATOM      1  C   UNL A   1      35.379  32.637  28.792  1.00  0.00     0.002 C 
ENDROOT
BRANCH   1   2
ATOM      2  C   UNL A   1      35.539  31.657  27.626  1.00  0.00     0.002 C 
BRANCH   2   3
ATOM      3  C   UNL A   1      34.947  30.262  27.855  1.00  0.00     0.021 C 
BRANCH   3   4
ATOM      4  C   UNL A   1      33.747  29.931  26.976  1.00  0.00     0.116 C 
BRANCH   4   5
ATOM      5  N   UNL A   1      32.713  29.239  27.721  1.00  0.00    -0.354 N 
ATOM      6  C   UNL A   1      31.785  28.336  27.289  1.00  0.00     0.242 C 
ATOM      7  O   UNL A   1      31.014  27.854  28.120  1.00  0.00    -0.273 OA
ATOM      8  H   UNL A   1      32.675  29.451  28.682  1.00  0.00     0.163 HD
BRANCH   6   9
ATOM      9  C   UNL A   1      31.704  27.945  25.797  1.00  0.00     0.171 C 
BRANCH   9  10
ATOM     10  C   UNL A   1      31.201  29.083  24.890  1.00  0.00     0.038 C 
BRANCH  10  11
ATOM     11  C   UNL A   1      31.895  29.272  23.525  1.00  0.00    -0.015 C 
ATOM     12  C   UNL A   1      33.294  28.659  23.464  1.00  0.00     0.007 C 
ATOM     13  C   UNL A   1      31.020  28.654  22.429  1.00  0.00     0.007 C 
ENDBRANCH  10  11
ENDBRANCH   9  10
BRANCH   9  14
ATOM     14  N   UNL A   1      30.912  26.695  25.748  1.00  0.00    -0.340 N 
ATOM     15  C   UNL A   1      31.046  25.517  25.073  1.00  0.00     0.255 C 
ATOM     16  H   UNL A   1      30.118  26.719  26.329  1.00  0.00     0.164 HD
ATOM     17  O   UNL A   1      30.222  24.621  25.217  1.00  0.00    -0.269 OA
BRANCH  15  18
ATOM     18  C   UNL A   1      32.106  25.327  24.094  1.00  0.00     0.082 A 
ATOM     19  C   UNL A   1      31.776  25.413  22.740  1.00  0.00     0.060 A 
ATOM     20  C   UNL A   1      33.398  25.016  24.465  1.00  0.00     0.164 A 
ATOM     21  C   UNL A   1      32.794  25.237  21.832  1.00  0.00     0.152 A 
ATOM     22  N   UNL A   1      34.370  24.859  23.545  1.00  0.00    -0.136 NA
ATOM     23  Cl  UNL A   1      33.923  24.824  26.085  1.00  0.00    -0.059 Cl
ATOM     24  Cl  UNL A   1      32.529  25.365  20.149  1.00  0.00    -0.060 Cl
ATOM     25  N   UNL A   1      34.064  24.981  22.208  1.00  0.00    -0.137 NA
ENDBRANCH  15  18
ENDBRANCH   9  14
ENDBRANCH   6   9
ENDBRANCH   4   5
ENDBRANCH   3   4
ENDBRANCH   2   3
ENDBRANCH   1   2
BRANCH   1  26
ATOM     26  C   UNL A   1      36.624  33.460  29.132  1.00  0.00     0.021 C 
BRANCH  26  27
ATOM     27  C   UNL A   1      37.280  33.114  30.466  1.00  0.00     0.116 C 
BRANCH  27  28
ATOM     28  N   UNL A   1      36.565  32.066  31.172  1.00  0.00    -0.352 N 
ATOM     29  C   UNL A   1      36.875  30.732  31.254  1.00  0.00     0.251 C 
ATOM     30  H   UNL A   1      35.754  32.349  31.654  1.00  0.00     0.163 HD
ATOM     31  O   UNL A   1      36.087  29.938  31.759  1.00  0.00    -0.269 OA
BRANCH  29  32
ATOM     32  C   UNL A   1      38.162  30.263  30.708  1.00  0.00     0.039 A 
ATOM     33  C   UNL A   1      38.293  30.099  29.327  1.00  0.00     0.014 A 
ATOM     34  C   UNL A   1      39.241  30.008  31.562  1.00  0.00     0.014 A 
ATOM     35  C   UNL A   1      39.525  29.718  28.793  1.00  0.00     0.010 A 
ATOM     36  C   UNL A   1      40.479  29.670  31.025  1.00  0.00     0.010 A 
ATOM     37  C   UNL A   1      40.628  29.516  29.638  1.00  0.00    -0.014 A 
BRANCH  37  38
ATOM     38  C   UNL A   1      41.940  29.101  29.087  1.00  0.00     0.031 A 
ATOM     39  C   UNL A   1      43.035  30.120  28.937  1.00  0.00     0.074 A 
ATOM     40  C   UNL A   1      42.128  27.831  28.682  1.00  0.00     0.049 A 
ATOM     41  N   UNL A   1      44.232  29.973  28.435  1.00  0.00    -0.248 NA
ATOM     42  C   UNL A   1      42.737  31.488  29.395  1.00  0.00     0.031 C 
ATOM     43  C   UNL A   1      41.124  26.766  28.741  1.00  0.00     0.029 A 
ATOM     44  N   UNL A   1      43.225  27.222  28.125  1.00  0.00    -0.354 N 
ATOM     45  C   UNL A   1      44.829  31.225  28.511  1.00  0.00     0.074 A 
ATOM     46  C   UNL A   1      43.848  32.131  29.067  1.00  0.00     0.031 C 
ATOM     47  C   UNL A   1      41.653  25.635  28.243  1.00  0.00     0.029 A 
ATOM     48  C   UNL A   1      43.023  25.900  27.811  1.00  0.00     0.049 A 
ATOM     49  H   UNL A   1      44.076  27.690  27.965  1.00  0.00     0.167 HD
ATOM     50  C   UNL A   1      46.089  31.581  28.170  1.00  0.00     0.037 A 
ATOM     51  C   UNL A   1      43.849  25.004  27.235  1.00  0.00     0.037 A 
ATOM     52  C   UNL A   1      47.071  30.668  27.649  1.00  0.00     0.049 A 
ATOM     53  C   UNL A   1      45.247  25.425  26.867  1.00  0.00     0.074 A 
ATOM     54  C   UNL A   1      48.395  30.918  27.337  1.00  0.00     0.029 A 
ATOM     55  N   UNL A   1      46.836  29.331  27.364  1.00  0.00    -0.354 N 
ATOM     56  N   UNL A   1      45.817  26.598  27.009  1.00  0.00    -0.248 NA
ATOM     57  C   UNL A   1      46.117  24.401  26.269  1.00  0.00     0.031 C 
ATOM     58  C   UNL A   1      48.955  29.740  26.833  1.00  0.00     0.029 A 
ATOM     59  C   UNL A   1      47.988  28.748  26.862  1.00  0.00     0.049 A 
ATOM     60  H   UNL A   1      45.979  28.866  27.498  1.00  0.00     0.167 HD
ATOM     61  C   UNL A   1      47.115  26.449  26.535  1.00  0.00     0.074 A 
ATOM     62  C   UNL A   1      47.252  25.070  26.114  1.00  0.00     0.031 C 
ATOM     63  C   UNL A   1      48.105  27.371  26.456  1.00  0.00     0.037 A 
BRANCH  50  64
ATOM     64  C   UNL A   1      46.492  33.012  28.370  1.00  0.00     0.058 A 
ATOM     65  C   UNL A   1      46.342  33.960  27.347  1.00  0.00     0.135 A 
ATOM     66  C   UNL A   1      46.964  33.455  29.615  1.00  0.00     0.135 A 
ATOM     67  F   UNL A   1      45.912  33.583  26.132  1.00  0.00    -0.206 F 
ATOM     68  C   UNL A   1      46.651  35.301  27.549  1.00  0.00     0.059 A 
ATOM     69  C   UNL A   1      47.261  34.795  29.846  1.00  0.00     0.059 A 
ATOM     70  F   UNL A   1      47.133  32.585  30.623  1.00  0.00    -0.206 F 
ATOM     71  C   UNL A   1      47.105  35.710  28.805  1.00  0.00     0.060 A 
BRANCH  71  72
ATOM     72  S   UNL A   1      47.461  37.461  29.061  1.00  0.00     0.124 S 
ATOM     73  O   UNL A   1      46.117  38.027  29.110  1.00  0.00    -0.237 OA
ATOM     74  O   UNL A   1      48.190  37.448  30.325  1.00  0.00    -0.237 OA
ATOM     75  O   UNL A   1      48.251  37.822  27.888  1.00  0.00    -0.744 OA
ENDBRANCH  71  72
ENDBRANCH  50  64
BRANCH  51  76
ATOM     76  C   UNL A   1      43.383  23.617  26.982  1.00  0.00     0.058 A 
ATOM     77  C   UNL A   1      43.043  23.194  25.689  1.00  0.00     0.135 A 
ATOM     78  C   UNL A   1      43.272  22.686  28.025  1.00  0.00     0.135 A 
ATOM     79  F   UNL A   1      43.127  24.051  24.660  1.00  0.00    -0.206 F 
ATOM     80  C   UNL A   1      42.593  21.902  25.440  1.00  0.00     0.059 A 
ATOM     81  C   UNL A   1      42.842  21.382  27.799  1.00  0.00     0.059 A 
ATOM     82  F   UNL A   1      43.601  23.037  29.278  1.00  0.00    -0.206 F 
ATOM     83  C   UNL A   1      42.496  21.002  26.503  1.00  0.00     0.060 A 
BRANCH  83  84
ATOM     84  S   UNL A   1      41.954  19.313  26.162  1.00  0.00     0.124 S 
ATOM     85  O   UNL A   1      42.736  18.989  24.975  1.00  0.00    -0.237 OA
ATOM     86  O   UNL A   1      42.331  18.616  27.387  1.00  0.00    -0.237 OA
ATOM     87  O   UNL A   1      40.516  19.460  25.952  1.00  0.00    -0.744 OA
ENDBRANCH  83  84
ENDBRANCH  51  76
BRANCH  63  88
ATOM     88  C   UNL A   1      49.429  26.925  25.907  1.00  0.00     0.058 A 
ATOM     89  C   UNL A   1      49.771  27.140  24.563  1.00  0.00     0.135 A 
ATOM     90  C   UNL A   1      50.396  26.358  26.752  1.00  0.00     0.135 A 
ATOM     91  F   UNL A   1      48.879  27.674  23.717  1.00  0.00    -0.206 F 
ATOM     92  C   UNL A   1      51.028  26.799  24.074  1.00  0.00     0.059 A 
ATOM     93  C   UNL A   1      51.665  26.029  26.288  1.00  0.00     0.059 A 
ATOM     94  F   UNL A   1      50.118  26.142  28.048  1.00  0.00    -0.206 F 
ATOM     95  C   UNL A   1      51.970  26.248  24.945  1.00  0.00     0.060 A 
BRANCH  95  96
ATOM     96  S   UNL A   1      53.615  25.864  24.310  1.00  0.00     0.124 S 
ATOM     97  O   UNL A   1      53.400  25.949  22.869  1.00  0.00    -0.237 OA
ATOM     98  O   UNL A   1      54.431  26.925  24.892  1.00  0.00    -0.237 OA
ATOM     99  O   UNL A   1      53.877  24.525  24.828  1.00  0.00    -0.744 OA
ENDBRANCH  95  96
ENDBRANCH  63  88
ENDBRANCH  37  38
ENDBRANCH  29  32
ENDBRANCH  27  28
ENDBRANCH  26  27
ENDBRANCH   1  26
TORSDOF 20
ENDMDL
MODEL 2
REMARK VINA RESULT:     -10.7      3.301      4.767
REMARK SMILES CC(C)C[C@H](NC(=O)c1cc(Cl)nnc1Cl)C(=O)NCCCCCCNC(=O)c1ccc(-c2c3nc(c(-c4c(F)cc(S(=O)(=O)[O-])cc4F)c4ccc([nH]4)c(-c4c(F)cc(S(=O)(=O)[O-])cc4F)c4nc(c(-c5c(F)cc(S(=O)(=O)[O-])cc5F)c5ccc2[nH]5)C=C4)C=C3)cc1
REMARK SMILES IDX 23 1 22 2 21 3 20 4 19 5 17 6 18 7 5 9 4 10 2 11 1 12 3 13
REMARK SMILES IDX 6 14 7 15 8 17 9 18 10 19 15 20 11 21 14 22 16 23 12 24
REMARK SMILES IDX 13 25 24 26 25 27 26 28 27 29 28 31 29 32 30 33 94 34 31 35
REMARK SMILES IDX 93 36 32 37 33 38 34 39 87 40 35 41 92 42 86 43 88 44 36 45
REMARK SMILES IDX 91 46 85 47 84 48 37 50 71 51 50 52 70 53 51 54 54 55 69 56
REMARK SMILES IDX 89 57 52 58 53 59 68 61 90 62 55 63 38 64 39 65 48 66 40 67
REMARK SMILES IDX 41 68 47 69 49 70 42 71 43 72 44 73 45 74 46 75 72 76 73 77
REMARK SMILES IDX 82 78 74 79 75 80 81 81 83 82 76 83 77 84 78 85 79 86 80 87
REMARK SMILES IDX 56 88 57 89 66 90 58 91 59 92 65 93 67 94 60 95 61 96 62 97
REMARK SMILES IDX 63 98 64 99
REMARK H PARENT 19 8 6 16 26 30 88 49 54 60
REMARK Flexibility Score: inf
ROOT
ATOM      1  C   UNL A   1      33.637  28.470  24.091  1.00  0.00     0.002 C 
ENDROOT
BRANCH   1   2
ATOM      2  C   UNL A   1      33.703  27.530  22.884  1.00  0.00     0.002 C 
BRANCH   2   3
ATOM      3  C   UNL A   1      32.369  27.288  22.168  1.00  0.00     0.021 C 
BRANCH   3   4
ATOM      4  C   UNL A   1      31.812  25.878  22.327  1.00  0.00     0.116 C 
BRANCH   4   5
ATOM      5  N   UNL A   1      32.377  24.966  21.350  1.00  0.00    -0.354 N 
ATOM      6  C   UNL A   1      33.187  23.884  21.536  1.00  0.00     0.242 C 
ATOM      7  O   UNL A   1      33.524  23.235  20.544  1.00  0.00    -0.273 OA
ATOM      8  H   UNL A   1      32.140  25.157  20.413  1.00  0.00     0.163 HD
BRANCH   6   9
ATOM      9  C   UNL A   1      33.670  23.497  22.950  1.00  0.00     0.171 C 
BRANCH   9  10
ATOM     10  C   UNL A   1      35.188  23.661  23.147  1.00  0.00     0.038 C 
BRANCH  10  11
ATOM     11  C   UNL A   1      35.762  23.401  24.556  1.00  0.00    -0.015 C 
ATOM     12  C   UNL A   1      37.289  23.426  24.604  1.00  0.00     0.007 C 
ATOM     13  C   UNL A   1      35.204  24.449  25.524  1.00  0.00     0.007 C 
ENDBRANCH  10  11
ENDBRANCH   9  10
BRANCH   9  14
ATOM     14  N   UNL A   1      33.139  22.139  23.203  1.00  0.00    -0.340 N 
ATOM     15  C   UNL A   1      32.356  21.596  24.180  1.00  0.00     0.255 C 
ATOM     16  H   UNL A   1      33.407  21.486  22.517  1.00  0.00     0.164 HD
ATOM     17  O   UNL A   1      32.058  20.408  24.150  1.00  0.00    -0.269 OA
BRANCH  15  18
ATOM     18  C   UNL A   1      31.937  22.382  25.332  1.00  0.00     0.082 A 
ATOM     19  C   UNL A   1      30.982  23.381  25.135  1.00  0.00     0.060 A 
ATOM     20  C   UNL A   1      32.492  22.203  26.582  1.00  0.00     0.164 A 
ATOM     21  C   UNL A   1      30.594  24.107  26.238  1.00  0.00     0.152 A 
ATOM     22  N   UNL A   1      32.080  22.930  27.640  1.00  0.00    -0.136 NA
ATOM     23  Cl  UNL A   1      33.712  21.055  26.946  1.00  0.00    -0.059 Cl
ATOM     24  Cl  UNL A   1      29.400  25.324  26.138  1.00  0.00    -0.060 Cl
ATOM     25  N   UNL A   1      31.109  23.889  27.466  1.00  0.00    -0.137 NA
ENDBRANCH  15  18
ENDBRANCH   9  14
ENDBRANCH   6   9
ENDBRANCH   4   5
ENDBRANCH   3   4
ENDBRANCH   2   3
ENDBRANCH   1   2
BRANCH   1  26
ATOM     26  C   UNL A   1      33.221  27.816  25.411  1.00  0.00     0.021 C 
BRANCH  26  27
ATOM     27  C   UNL A   1      34.079  28.192  26.615  1.00  0.00     0.116 C 
BRANCH  27  28
ATOM     28  N   UNL A   1      33.788  29.530  27.099  1.00  0.00    -0.352 N 
ATOM     29  C   UNL A   1      34.577  30.345  27.871  1.00  0.00     0.251 C 
ATOM     30  H   UNL A   1      32.914  29.900  26.839  1.00  0.00     0.163 HD
ATOM     31  O   UNL A   1      34.130  31.389  28.334  1.00  0.00    -0.269 OA
BRANCH  29  32
ATOM     32  C   UNL A   1      35.966  29.935  28.155  1.00  0.00     0.039 A 
ATOM     33  C   UNL A   1      36.934  30.087  27.160  1.00  0.00     0.014 A 
ATOM     34  C   UNL A   1      36.307  29.423  29.412  1.00  0.00     0.014 A 
ATOM     35  C   UNL A   1      38.262  29.764  27.440  1.00  0.00     0.010 A 
ATOM     36  C   UNL A   1      37.639  29.141  29.701  1.00  0.00     0.010 A 
ATOM     37  C   UNL A   1      38.624  29.303  28.715  1.00  0.00    -0.014 A 
BRANCH  37  38
ATOM     38  C   UNL A   1      40.029  28.946  29.024  1.00  0.00     0.031 A 
ATOM     39  C   UNL A   1      40.934  29.971  29.648  1.00  0.00     0.074 A 
ATOM     40  C   UNL A   1      40.499  27.726  28.701  1.00  0.00     0.049 A 
ATOM     41  N   UNL A   1      42.201  29.875  29.951  1.00  0.00    -0.248 NA
ATOM     42  C   UNL A   1      40.338  31.282  29.956  1.00  0.00     0.031 C 
ATOM     43  C   UNL A   1      39.724  26.664  28.054  1.00  0.00     0.029 A 
ATOM     44  N   UNL A   1      41.747  27.177  28.859  1.00  0.00    -0.354 N 
ATOM     45  C   UNL A   1      42.557  31.109  30.479  1.00  0.00     0.074 A 
ATOM     46  C   UNL A   1      41.384  31.953  30.416  1.00  0.00     0.031 C 
ATOM     47  C   UNL A   1      40.514  25.592  27.873  1.00  0.00     0.029 A 
ATOM     48  C   UNL A   1      41.853  25.896  28.370  1.00  0.00     0.049 A 
ATOM     49  H   UNL A   1      42.495  27.656  29.281  1.00  0.00     0.167 HD
ATOM     50  C   UNL A   1      43.748  31.495  30.991  1.00  0.00     0.037 A 
ATOM     51  C   UNL A   1      42.913  25.065  28.326  1.00  0.00     0.037 A 
ATOM     52  C   UNL A   1      44.902  30.640  31.082  1.00  0.00     0.049 A 
ATOM     53  C   UNL A   1      44.226  25.518  28.905  1.00  0.00     0.074 A 
ATOM     54  C   UNL A   1      46.133  30.918  31.647  1.00  0.00     0.029 A 
ATOM     55  N   UNL A   1      44.965  29.343  30.596  1.00  0.00    -0.354 N 
ATOM     56  N   UNL A   1      44.527  26.667  29.462  1.00  0.00    -0.248 NA
ATOM     57  C   UNL A   1      45.343  24.562  28.858  1.00  0.00     0.031 C 
ATOM     58  C   UNL A   1      46.954  29.799  31.475  1.00  0.00     0.029 A 
ATOM     59  C   UNL A   1      46.222  28.813  30.833  1.00  0.00     0.049 A 
ATOM     60  H   UNL A   1      44.227  28.869  30.150  1.00  0.00     0.167 HD
ATOM     61  C   UNL A   1      45.859  26.565  29.847  1.00  0.00     0.074 A 
ATOM     62  C   UNL A   1      46.304  25.239  29.471  1.00  0.00     0.031 C 
ATOM     63  C   UNL A   1      46.643  27.487  30.457  1.00  0.00     0.037 A 
BRANCH  50  64
ATOM     64  C   UNL A   1      43.865  32.895  31.518  1.00  0.00     0.058 A 
ATOM     65  C   UNL A   1      44.139  33.973  30.664  1.00  0.00     0.135 A 
ATOM     66  C   UNL A   1      43.629  33.171  32.874  1.00  0.00     0.135 A 
ATOM     67  F   UNL A   1      44.390  33.759  29.363  1.00  0.00    -0.206 F 
ATOM     68  C   UNL A   1      44.181  35.280  31.137  1.00  0.00     0.059 A 
ATOM     69  C   UNL A   1      43.647  34.473  33.366  1.00  0.00     0.059 A 
ATOM     70  F   UNL A   1      43.371  32.172  33.732  1.00  0.00    -0.206 F 
ATOM     71  C   UNL A   1      43.928  35.520  32.489  1.00  0.00     0.060 A 
BRANCH  71  72
ATOM     72  S   UNL A   1      43.946  37.228  33.076  1.00  0.00     0.124 S 
ATOM     73  O   UNL A   1      45.233  37.286  33.761  1.00  0.00    -0.237 OA
ATOM     74  O   UNL A   1      43.855  37.985  31.832  1.00  0.00    -0.237 OA
ATOM     75  O   UNL A   1      42.772  37.302  33.940  1.00  0.00    -0.744 OA
ENDBRANCH  71  72
ENDBRANCH  50  64
BRANCH  51  76
ATOM     76  C   UNL A   1      42.775  23.715  27.723  1.00  0.00     0.058 A 
ATOM     77  C   UNL A   1      42.957  23.517  26.347  1.00  0.00     0.135 A 
ATOM     78  C   UNL A   1      42.462  22.596  28.509  1.00  0.00     0.135 A 
ATOM     79  F   UNL A   1      43.251  24.558  25.553  1.00  0.00    -0.206 F 
ATOM     80  C   UNL A   1      42.819  22.260  25.767  1.00  0.00     0.059 A 
ATOM     81  C   UNL A   1      42.337  21.326  27.956  1.00  0.00     0.059 A 
ATOM     82  F   UNL A   1      42.295  22.731  29.834  1.00  0.00    -0.206 F 
ATOM     83  C   UNL A   1      42.508  21.170  26.581  1.00  0.00     0.060 A 
BRANCH  83  84
ATOM     84  S   UNL A   1      42.375  19.534  25.826  1.00  0.00     0.124 S 
ATOM     85  O   UNL A   1      40.970  19.504  25.438  1.00  0.00    -0.237 OA
ATOM     86  O   UNL A   1      43.338  19.621  24.733  1.00  0.00    -0.237 OA
ATOM     87  O   UNL A   1      42.752  18.634  26.911  1.00  0.00    -0.744 OA
ENDBRANCH  83  84
ENDBRANCH  51  76
BRANCH  63  88
ATOM     88  C   UNL A   1      48.059  27.099  30.771  1.00  0.00     0.058 A 
ATOM     89  C   UNL A   1      49.123  27.494  29.948  1.00  0.00     0.135 A 
ATOM     90  C   UNL A   1      48.360  26.400  31.951  1.00  0.00     0.135 A 
ATOM     91  F   UNL A   1      48.884  28.158  28.808  1.00  0.00    -0.206 F 
ATOM     92  C   UNL A   1      50.441  27.202  30.281  1.00  0.00     0.059 A 
ATOM     93  C   UNL A   1      49.673  26.116  32.313  1.00  0.00     0.059 A 
ATOM     94  F   UNL A   1      47.376  26.009  32.776  1.00  0.00    -0.206 F 
ATOM     95  C   UNL A   1      50.707  26.516  31.468  1.00  0.00     0.060 A 
BRANCH  95  96
ATOM     96  S   UNL A   1      52.426  26.195  31.916  1.00  0.00     0.124 S 
ATOM     97  O   UNL A   1      53.019  25.909  30.614  1.00  0.00    -0.237 OA
ATOM     98  O   UNL A   1      52.829  27.455  32.533  1.00  0.00    -0.237 OA
ATOM     99  O   UNL A   1      52.333  25.059  32.829  1.00  0.00    -0.744 OA
ENDBRANCH  95  96
ENDBRANCH  63  88
ENDBRANCH  37  38
ENDBRANCH  29  32
ENDBRANCH  27  28
ENDBRANCH  26  27
ENDBRANCH   1  26
TORSDOF 20
ENDMDL
MODEL 3
REMARK VINA RESULT:     -10.7      6.598     11.997
REMARK SMILES CC(C)C[C@H](NC(=O)c1cc(Cl)nnc1Cl)C(=O)NCCCCCCNC(=O)c1ccc(-c2c3nc(c(-c4c(F)cc(S(=O)(=O)[O-])cc4F)c4ccc([nH]4)c(-c4c(F)cc(S(=O)(=O)[O-])cc4F)c4nc(c(-c5c(F)cc(S(=O)(=O)[O-])cc5F)c5ccc2[nH]5)C=C4)C=C3)cc1
REMARK SMILES IDX 23 1 22 2 21 3 20 4 19 5 17 6 18 7 5 9 4 10 2 11 1 12 3 13
REMARK SMILES IDX 6 14 7 15 8 17 9 18 10 19 15 20 11 21 14 22 16 23 12 24
REMARK SMILES IDX 13 25 24 26 25 27 26 28 27 29 28 31 29 32 30 33 94 34 31 35
REMARK SMILES IDX 93 36 32 37 33 38 34 39 87 40 35 41 92 42 86 43 88 44 36 45
REMARK SMILES IDX 91 46 85 47 84 48 37 50 71 51 50 52 70 53 51 54 54 55 69 56
REMARK SMILES IDX 89 57 52 58 53 59 68 61 90 62 55 63 38 64 39 65 48 66 40 67
REMARK SMILES IDX 41 68 47 69 49 70 42 71 43 72 44 73 45 74 46 75 72 76 73 77
REMARK SMILES IDX 82 78 74 79 75 80 81 81 83 82 76 83 77 84 78 85 79 86 80 87
REMARK SMILES IDX 56 88 57 89 66 90 58 91 59 92 65 93 67 94 60 95 61 96 62 97
REMARK SMILES IDX 63 98 64 99
REMARK H PARENT 19 8 6 16 26 30 88 49 54 60
REMARK Flexibility Score: inf
ROOT
ATOM      1  C   UNL A   1      36.013  23.332  26.170  1.00  0.00     0.002 C 
ENDROOT
BRANCH   1   2
ATOM      2  C   UNL A   1      35.511  21.885  26.163  1.00  0.00     0.002 C 
BRANCH   2   3
ATOM      3  C   UNL A   1      34.438  21.558  27.207  1.00  0.00     0.021 C 
BRANCH   3   4
ATOM      4  C   UNL A   1      33.028  21.421  26.644  1.00  0.00     0.116 C 
BRANCH   4   5
ATOM      5  N   UNL A   1      32.130  22.414  27.203  1.00  0.00    -0.354 N 
ATOM      6  C   UNL A   1      31.308  23.299  26.568  1.00  0.00     0.242 C 
ATOM      7  O   UNL A   1      30.607  24.039  27.261  1.00  0.00    -0.273 OA
ATOM      8  H   UNL A   1      32.110  22.454  28.186  1.00  0.00     0.163 HD
BRANCH   6   9
ATOM      9  C   UNL A   1      31.273  23.373  25.026  1.00  0.00     0.171 C 
BRANCH   9  10
ATOM     10  C   UNL A   1      32.646  23.663  24.394  1.00  0.00     0.038 C 
BRANCH  10  11
ATOM     11  C   UNL A   1      33.215  22.623  23.406  1.00  0.00    -0.015 C 
ATOM     12  C   UNL A   1      32.137  21.789  22.714  1.00  0.00     0.007 C 
ATOM     13  C   UNL A   1      34.058  23.344  22.349  1.00  0.00     0.007 C 
ENDBRANCH  10  11
ENDBRANCH   9  10
BRANCH   9  14
ATOM     14  N   UNL A   1      30.201  24.338  24.691  1.00  0.00    -0.340 N 
ATOM     15  C   UNL A   1      30.190  25.667  24.379  1.00  0.00     0.255 C 
ATOM     16  H   UNL A   1      29.304  23.935  24.692  1.00  0.00     0.164 HD
ATOM     17  O   UNL A   1      29.133  26.240  24.140  1.00  0.00    -0.269 OA
BRANCH  15  18
ATOM     18  C   UNL A   1      31.410  26.460  24.418  1.00  0.00     0.082 A 
ATOM     19  C   UNL A   1      31.806  27.001  25.643  1.00  0.00     0.060 A 
ATOM     20  C   UNL A   1      32.144  26.729  23.281  1.00  0.00     0.164 A 
ATOM     21  C   UNL A   1      32.965  27.741  25.658  1.00  0.00     0.152 A 
ATOM     22  N   UNL A   1      33.280  27.453  23.339  1.00  0.00    -0.136 NA
ATOM     23  Cl  UNL A   1      31.738  26.177  21.710  1.00  0.00    -0.059 Cl
ATOM     24  Cl  UNL A   1      33.581  28.416  27.101  1.00  0.00    -0.060 Cl
ATOM     25  N   UNL A   1      33.701  27.957  24.548  1.00  0.00    -0.137 NA
ENDBRANCH  15  18
ENDBRANCH   9  14
ENDBRANCH   6   9
ENDBRANCH   4   5
ENDBRANCH   3   4
ENDBRANCH   2   3
ENDBRANCH   1   2
BRANCH   1  26
ATOM     26  C   UNL A   1      37.410  23.545  25.579  1.00  0.00     0.021 C 
BRANCH  26  27
ATOM     27  C   UNL A   1      38.379  24.308  26.477  1.00  0.00     0.116 C 
BRANCH  27  28
ATOM     28  N   UNL A   1      39.765  24.076  26.110  1.00  0.00    -0.352 N 
ATOM     29  C   UNL A   1      40.877  24.776  26.504  1.00  0.00     0.251 C 
ATOM     30  H   UNL A   1      39.926  23.319  25.501  1.00  0.00     0.163 HD
ATOM     31  O   UNL A   1      41.967  24.558  25.985  1.00  0.00    -0.269 OA
BRANCH  29  32
ATOM     32  C   UNL A   1      40.739  25.809  27.548  1.00  0.00     0.039 A 
ATOM     33  C   UNL A   1      39.739  25.668  28.513  1.00  0.00     0.014 A 
ATOM     34  C   UNL A   1      41.613  26.901  27.580  1.00  0.00     0.014 A 
ATOM     35  C   UNL A   1      39.641  26.605  29.542  1.00  0.00     0.010 A 
ATOM     36  C   UNL A   1      41.540  27.810  28.631  1.00  0.00     0.010 A 
ATOM     37  C   UNL A   1      40.549  27.673  29.615  1.00  0.00    -0.014 A 
BRANCH  37  38
ATOM     38  C   UNL A   1      40.451  28.681  30.697  1.00  0.00     0.031 A 
ATOM     39  C   UNL A   1      41.328  28.553  31.910  1.00  0.00     0.074 A 
ATOM     40  C   UNL A   1      39.548  29.676  30.608  1.00  0.00     0.049 A 
ATOM     41  N   UNL A   1      41.363  29.298  32.983  1.00  0.00    -0.248 NA
ATOM     42  C   UNL A   1      42.278  27.428  31.927  1.00  0.00     0.031 C 
ATOM     43  C   UNL A   1      38.615  29.877  29.496  1.00  0.00     0.029 A 
ATOM     44  N   UNL A   1      39.254  30.698  31.475  1.00  0.00    -0.354 N 
ATOM     45  C   UNL A   1      42.330  28.732  33.803  1.00  0.00     0.074 A 
ATOM     46  C   UNL A   1      42.830  27.556  33.125  1.00  0.00     0.031 C 
ATOM     47  C   UNL A   1      37.856  30.956  29.749  1.00  0.00     0.029 A 
ATOM     48  C   UNL A   1      38.232  31.510  31.047  1.00  0.00     0.049 A 
ATOM     49  H   UNL A   1      39.730  30.835  32.325  1.00  0.00     0.167 HD
ATOM     50  C   UNL A   1      42.778  29.169  35.003  1.00  0.00     0.037 A 
ATOM     51  C   UNL A   1      37.661  32.579  31.637  1.00  0.00     0.037 A 
ATOM     52  C   UNL A   1      42.302  30.358  35.657  1.00  0.00     0.049 A 
ATOM     53  C   UNL A   1      38.180  33.045  32.971  1.00  0.00     0.074 A 
ATOM     54  C   UNL A   1      42.742  30.920  36.842  1.00  0.00     0.029 A 
ATOM     55  N   UNL A   1      41.281  31.167  35.182  1.00  0.00    -0.354 N 
ATOM     56  N   UNL A   1      39.143  32.537  33.703  1.00  0.00    -0.248 NA
ATOM     57  C   UNL A   1      37.541  34.233  33.558  1.00  0.00     0.031 C 
ATOM     58  C   UNL A   1      41.964  32.053  37.102  1.00  0.00     0.029 A 
ATOM     59  C   UNL A   1      41.064  32.215  36.061  1.00  0.00     0.049 A 
ATOM     60  H   UNL A   1      40.784  31.019  34.346  1.00  0.00     0.167 HD
ATOM     61  C   UNL A   1      39.238  33.352  34.824  1.00  0.00     0.074 A 
ATOM     62  C   UNL A   1      38.244  34.394  34.671  1.00  0.00     0.031 C 
ATOM     63  C   UNL A   1      40.073  33.247  35.887  1.00  0.00     0.037 A 
BRANCH  50  64
ATOM     64  C   UNL A   1      43.855  28.374  35.681  1.00  0.00     0.058 A 
ATOM     65  C   UNL A   1      45.213  28.647  35.456  1.00  0.00     0.135 A 
ATOM     66  C   UNL A   1      43.529  27.382  36.618  1.00  0.00     0.135 A 
ATOM     67  F   UNL A   1      45.577  29.574  34.555  1.00  0.00    -0.206 F 
ATOM     68  C   UNL A   1      46.213  27.958  36.133  1.00  0.00     0.059 A 
ATOM     69  C   UNL A   1      44.512  26.693  37.323  1.00  0.00     0.059 A 
ATOM     70  F   UNL A   1      42.244  27.079  36.863  1.00  0.00    -0.206 F 
ATOM     71  C   UNL A   1      45.852  26.987  37.070  1.00  0.00     0.060 A 
BRANCH  71  72
ATOM     72  S   UNL A   1      47.164  26.133  37.970  1.00  0.00     0.124 S 
ATOM     73  O   UNL A   1      46.649  26.168  39.336  1.00  0.00    -0.237 OA
ATOM     74  O   UNL A   1      47.176  24.822  37.331  1.00  0.00    -0.237 OA
ATOM     75  O   UNL A   1      48.340  26.960  37.722  1.00  0.00    -0.744 OA
ENDBRANCH  71  72
ENDBRANCH  50  64
BRANCH  51  76
ATOM     76  C   UNL A   1      36.542  33.290  30.967  1.00  0.00     0.058 A 
ATOM     77  C   UNL A   1      35.220  33.132  31.406  1.00  0.00     0.135 A 
ATOM     78  C   UNL A   1      36.773  34.144  29.878  1.00  0.00     0.135 A 
ATOM     79  F   UNL A   1      34.950  32.320  32.440  1.00  0.00    -0.206 F 
ATOM     80  C   UNL A   1      34.162  33.782  30.780  1.00  0.00     0.059 A 
ATOM     81  C   UNL A   1      35.734  34.821  29.247  1.00  0.00     0.059 A 
ATOM     82  F   UNL A   1      38.023  34.342  29.431  1.00  0.00    -0.206 F 
ATOM     83  C   UNL A   1      34.430  34.626  29.700  1.00  0.00     0.060 A 
BRANCH  83  84
ATOM     84  S   UNL A   1      33.054  35.500  28.922  1.00  0.00     0.124 S 
ATOM     85  O   UNL A   1      32.419  34.431  28.162  1.00  0.00    -0.237 OA
ATOM     86  O   UNL A   1      32.311  35.993  30.078  1.00  0.00    -0.237 OA
ATOM     87  O   UNL A   1      33.720  36.531  28.130  1.00  0.00    -0.744 OA
ENDBRANCH  83  84
ENDBRANCH  51  76
BRANCH  63  88
ATOM     88  C   UNL A   1      39.965  34.287  36.963  1.00  0.00     0.058 A 
ATOM     89  C   UNL A   1      40.635  35.516  36.860  1.00  0.00     0.135 A 
ATOM     90  C   UNL A   1      39.116  34.088  38.063  1.00  0.00     0.135 A 
ATOM     91  F   UNL A   1      41.461  35.750  35.830  1.00  0.00    -0.206 F 
ATOM     92  C   UNL A   1      40.471  36.510  37.818  1.00  0.00     0.059 A 
ATOM     93  C   UNL A   1      38.923  35.078  39.022  1.00  0.00     0.059 A 
ATOM     94  F   UNL A   1      38.447  32.933  38.201  1.00  0.00    -0.206 F 
ATOM     95  C   UNL A   1      39.610  36.284  38.893  1.00  0.00     0.060 A 
BRANCH  95  96
ATOM     96  S   UNL A   1      39.363  37.606  40.097  1.00  0.00     0.124 S 
ATOM     97  O   UNL A   1      40.644  38.302  40.035  1.00  0.00    -0.237 OA
ATOM     98  O   UNL A   1      38.222  38.327  39.542  1.00  0.00    -0.237 OA
ATOM     99  O   UNL A   1      39.098  36.888  41.341  1.00  0.00    -0.744 OA
ENDBRANCH  95  96
ENDBRANCH  63  88
ENDBRANCH  37  38
ENDBRANCH  29  32
ENDBRANCH  27  28
ENDBRANCH  26  27
ENDBRANCH   1  26
TORSDOF 20
ENDMDL
