MODEL 1
REMARK VINA RESULT:     -10.8      0.000      0.000
REMARK SMILES CCC[C@H](C)NC(=O)C[NH+]1CC(n2cc(C(=O)NCCCCCCNC(=O)c3ccc(-c4c5nc(c(-c6c(F)cc(S(=O)(=O)[O-])cc6F)c6ccc([nH]6)c(-c6c(F)cc(S(=O)(=O)[O-])cc6F)c6nc(c(-c7c(F)cc(S(=O)(=O)[O-])cc7F)c7ccc4[nH]7)C=C6)C=C5)cc3)nn2)C1
REMARK SMILES IDX 20 1 19 2 18 3 16 4 17 5 15 7 13 8 14 9 95 10 94 11 12 12
REMARK SMILES IDX 10 13 11 14 96 15 9 17 7 18 6 19 8 21 4 22 5 23 3 24 2 25
REMARK SMILES IDX 1 26 21 27 22 28 23 29 24 30 25 31 26 32 27 34 28 35 29 36
REMARK SMILES IDX 93 37 30 38 92 39 31 40 32 41 33 42 86 43 34 44 91 45 85 46
REMARK SMILES IDX 87 47 35 48 90 49 84 50 83 51 36 53 70 54 49 55 69 56 50 57
REMARK SMILES IDX 53 58 68 59 88 60 51 61 52 62 67 64 89 65 54 66 37 67 38 68
REMARK SMILES IDX 47 69 39 70 40 71 46 72 48 73 41 74 42 75 43 76 44 77 45 78
REMARK SMILES IDX 71 79 72 80 81 81 73 82 74 83 80 84 82 85 75 86 76 87 77 88
REMARK SMILES IDX 78 89 79 90 55 91 56 92 65 93 57 94 58 95 64 96 66 97 59 98
REMARK SMILES IDX 60 99 61 100 62 101 63 102
REMARK H PARENT 18 6 10 16 6 20 25 33 87 52 53 63
REMARK Flexibility Score: inf
ROOT
ATOM      1  C   UNL A   1      37.753  23.682  25.528  1.00  0.00     0.021 C 
ENDROOT
BRANCH   1   2
ATOM      2  C   UNL A   1      36.533  23.060  26.204  1.00  0.00     0.116 C 
BRANCH   2   3
ATOM      3  N   UNL A   1      36.451  21.636  25.949  1.00  0.00    -0.351 N 
ATOM      4  C   UNL A   1      35.489  20.908  25.283  1.00  0.00     0.273 C 
ATOM      5  O   UNL A   1      35.748  19.733  25.025  1.00  0.00    -0.267 OA
ATOM      6  H   UNL A   1      37.199  21.106  26.306  1.00  0.00     0.163 HD
BRANCH   4   7
ATOM      7  C   UNL A   1      34.243  21.541  24.863  1.00  0.00     0.170 A 
ATOM      8  N   UNL A   1      32.648  22.624  23.858  1.00  0.00    -0.237 N 
ATOM      9  C   UNL A   1      34.006  22.488  23.884  1.00  0.00     0.145 A 
ATOM     10  N   UNL A   1      32.071  21.861  24.802  1.00  0.00    -0.066 NA
ATOM     11  N   UNL A   1      33.038  21.228  25.454  1.00  0.00    -0.125 NA
BRANCH   8  12
ATOM     12  C   UNL A   1      31.948  23.320  22.815  1.00  0.00     0.218 C 
ATOM     13  N   UNL A   1      30.956  25.185  22.623  1.00  0.00    -0.323 N 
ATOM     14  C   UNL A   1      32.375  24.781  22.578  1.00  0.00     0.296 C 
ATOM     15  C   UNL A   1      30.649  23.946  23.377  1.00  0.00     0.296 C 
ATOM     16  H   UNL A   1      30.494  25.445  21.752  1.00  0.00     0.348 HD
BRANCH  13  17
ATOM     17  C   UNL A   1      30.666  26.357  23.475  1.00  0.00     0.363 C 
BRANCH  17  18
ATOM     18  C   UNL A   1      30.741  27.718  22.774  1.00  0.00     0.275 C 
ATOM     19  N   UNL A   1      31.817  28.542  22.997  1.00  0.00    -0.349 N 
ATOM     20  H   UNL A   1      31.738  29.443  22.608  1.00  0.00     0.163 HD
ATOM     21  O   UNL A   1      29.836  28.134  22.049  1.00  0.00    -0.268 OA
BRANCH  19  22
ATOM     22  C   UNL A   1      33.061  28.287  23.722  1.00  0.00     0.079 C 
ATOM     23  C   UNL A   1      34.234  28.906  22.946  1.00  0.00     0.031 C 
BRANCH  22  24
ATOM     24  C   UNL A   1      33.075  28.862  25.153  1.00  0.00     0.024 C 
BRANCH  24  25
ATOM     25  C   UNL A   1      31.745  29.101  25.865  1.00  0.00    -0.001 C 
ATOM     26  C   UNL A   1      31.673  28.611  27.298  1.00  0.00     0.004 C 
ENDBRANCH  24  25
ENDBRANCH  22  24
ENDBRANCH  19  22
ENDBRANCH  17  18
ENDBRANCH  13  17
ENDBRANCH   8  12
ENDBRANCH   4   7
ENDBRANCH   2   3
ENDBRANCH   1   2
BRANCH   1  27
ATOM     27  C   UNL A   1      38.785  24.251  26.509  1.00  0.00     0.002 C 
BRANCH  27  28
ATOM     28  C   UNL A   1      39.592  23.212  27.305  1.00  0.00     0.002 C 
BRANCH  28  29
ATOM     29  C   UNL A   1      39.991  21.940  26.541  1.00  0.00     0.021 C 
BRANCH  29  30
ATOM     30  C   UNL A   1      41.040  21.104  27.259  1.00  0.00     0.116 C 
BRANCH  30  31
ATOM     31  N   UNL A   1      42.164  20.783  26.384  1.00  0.00    -0.352 N 
ATOM     32  C   UNL A   1      43.061  21.647  25.787  1.00  0.00     0.251 C 
ATOM     33  H   UNL A   1      42.300  19.826  26.193  1.00  0.00     0.163 HD
ATOM     34  O   UNL A   1      43.711  21.305  24.817  1.00  0.00    -0.269 OA
BRANCH  32  35
ATOM     35  C   UNL A   1      43.207  22.997  26.358  1.00  0.00     0.039 A 
ATOM     36  C   UNL A   1      42.748  24.120  25.663  1.00  0.00     0.014 A 
ATOM     37  C   UNL A   1      43.769  23.114  27.627  1.00  0.00     0.014 A 
ATOM     38  C   UNL A   1      42.777  25.359  26.298  1.00  0.00     0.010 A 
ATOM     39  C   UNL A   1      43.684  24.311  28.294  1.00  0.00     0.010 A 
ATOM     40  C   UNL A   1      43.222  25.446  27.627  1.00  0.00    -0.014 A 
BRANCH  40  41
ATOM     41  C   UNL A   1      43.050  26.688  28.384  1.00  0.00     0.031 A 
ATOM     42  C   UNL A   1      44.159  27.670  28.199  1.00  0.00     0.074 A 
ATOM     43  C   UNL A   1      41.878  27.023  28.969  1.00  0.00     0.049 A 
ATOM     44  N   UNL A   1      44.993  28.113  29.083  1.00  0.00    -0.248 NA
ATOM     45  C   UNL A   1      44.480  28.102  26.825  1.00  0.00     0.031 C 
ATOM     46  C   UNL A   1      40.619  26.266  28.923  1.00  0.00     0.029 A 
ATOM     47  N   UNL A   1      41.508  28.172  29.605  1.00  0.00    -0.354 N 
ATOM     48  C   UNL A   1      45.764  29.075  28.428  1.00  0.00     0.074 A 
ATOM     49  C   UNL A   1      45.560  28.861  27.022  1.00  0.00     0.031 C 
ATOM     50  C   UNL A   1      39.590  27.074  29.256  1.00  0.00     0.029 A 
ATOM     51  C   UNL A   1      40.130  28.339  29.718  1.00  0.00     0.049 A 
ATOM     52  H   UNL A   1      42.157  28.824  29.954  1.00  0.00     0.167 HD
ATOM     53  C   UNL A   1      46.258  30.153  29.101  1.00  0.00     0.037 A 
ATOM     54  C   UNL A   1      39.463  29.441  30.141  1.00  0.00     0.037 A 
ATOM     55  C   UNL A   1      46.153  29.949  30.523  1.00  0.00     0.049 A 
ATOM     56  C   UNL A   1      40.416  30.250  30.933  1.00  0.00     0.074 A 
ATOM     57  C   UNL A   1      46.734  29.127  31.463  1.00  0.00     0.029 A 
ATOM     58  N   UNL A   1      45.011  30.464  31.080  1.00  0.00    -0.354 N 
ATOM     59  N   UNL A   1      40.940  29.850  32.061  1.00  0.00    -0.248 NA
ATOM     60  C   UNL A   1      41.094  31.372  30.298  1.00  0.00     0.031 C 
ATOM     61  C   UNL A   1      45.754  28.956  32.484  1.00  0.00     0.029 A 
ATOM     62  C   UNL A   1      44.630  29.717  32.159  1.00  0.00     0.049 A 
ATOM     63  H   UNL A   1      44.533  31.259  30.750  1.00  0.00     0.167 HD
ATOM     64  C   UNL A   1      42.226  30.361  32.047  1.00  0.00     0.074 A 
ATOM     65  C   UNL A   1      42.201  31.418  31.044  1.00  0.00     0.031 C 
ATOM     66  C   UNL A   1      43.255  29.669  32.617  1.00  0.00     0.037 A 
BRANCH  53  67
ATOM     67  C   UNL A   1      46.354  31.567  28.539  1.00  0.00     0.058 A 
ATOM     68  C   UNL A   1      45.178  32.185  28.051  1.00  0.00     0.135 A 
ATOM     69  C   UNL A   1      47.562  32.191  28.155  1.00  0.00     0.135 A 
ATOM     70  F   UNL A   1      43.969  31.689  28.357  1.00  0.00    -0.206 F 
ATOM     71  C   UNL A   1      45.207  33.268  27.169  1.00  0.00     0.059 A 
ATOM     72  C   UNL A   1      47.609  33.301  27.317  1.00  0.00     0.059 A 
ATOM     73  F   UNL A   1      48.762  31.704  28.485  1.00  0.00    -0.206 F 
ATOM     74  C   UNL A   1      46.432  33.804  26.790  1.00  0.00     0.060 A 
BRANCH  74  75
ATOM     75  S   UNL A   1      46.487  35.122  25.564  1.00  0.00     0.124 S 
ATOM     76  O   UNL A   1      45.678  34.553  24.493  1.00  0.00    -0.237 OA
ATOM     77  O   UNL A   1      45.894  36.238  26.294  1.00  0.00    -0.237 OA
ATOM     78  O   UNL A   1      47.913  35.252  25.280  1.00  0.00    -0.744 OA
ENDBRANCH  74  75
ENDBRANCH  53  67
BRANCH  54  79
ATOM     79  C   UNL A   1      38.137  29.948  29.703  1.00  0.00     0.058 A 
ATOM     80  C   UNL A   1      37.190  30.430  30.623  1.00  0.00     0.135 A 
ATOM     81  C   UNL A   1      37.879  30.223  28.344  1.00  0.00     0.135 A 
ATOM     82  F   UNL A   1      37.367  30.231  31.938  1.00  0.00    -0.206 F 
ATOM     83  C   UNL A   1      36.076  31.179  30.225  1.00  0.00     0.059 A 
ATOM     84  C   UNL A   1      36.772  30.959  27.924  1.00  0.00     0.059 A 
ATOM     85  F   UNL A   1      38.750  29.857  27.390  1.00  0.00    -0.206 F 
ATOM     86  C   UNL A   1      35.886  31.454  28.871  1.00  0.00     0.060 A 
BRANCH  86  87
ATOM     87  S   UNL A   1      34.542  32.557  28.366  1.00  0.00     0.124 S 
ATOM     88  O   UNL A   1      34.076  33.071  29.649  1.00  0.00    -0.237 OA
ATOM     89  O   UNL A   1      35.234  33.513  27.508  1.00  0.00    -0.237 OA
ATOM     90  O   UNL A   1      33.614  31.664  27.678  1.00  0.00    -0.744 OA
ENDBRANCH  86  87
ENDBRANCH  54  79
BRANCH  66  91
ATOM     91  C   UNL A   1      42.921  28.671  33.688  1.00  0.00     0.058 A 
ATOM     92  C   UNL A   1      42.785  27.287  33.493  1.00  0.00     0.135 A 
ATOM     93  C   UNL A   1      42.843  29.147  35.005  1.00  0.00     0.135 A 
ATOM     94  F   UNL A   1      42.932  26.740  32.279  1.00  0.00    -0.206 F 
ATOM     95  C   UNL A   1      42.546  26.419  34.562  1.00  0.00     0.059 A 
ATOM     96  C   UNL A   1      42.640  28.300  36.086  1.00  0.00     0.059 A 
ATOM     97  F   UNL A   1      43.017  30.456  35.258  1.00  0.00    -0.206 F 
ATOM     98  C   UNL A   1      42.478  26.937  35.857  1.00  0.00     0.060 A 
BRANCH  98  99
ATOM     99  S   UNL A   1      42.242  25.811  37.247  1.00  0.00     0.124 S 
ATOM    100  O   UNL A   1      42.917  24.604  36.782  1.00  0.00    -0.237 OA
ATOM    101  O   UNL A   1      42.892  26.520  38.345  1.00  0.00    -0.237 OA
ATOM    102  O   UNL A   1      40.788  25.708  37.360  1.00  0.00    -0.744 OA
ENDBRANCH  98  99
ENDBRANCH  66  91
ENDBRANCH  40  41
ENDBRANCH  32  35
ENDBRANCH  30  31
ENDBRANCH  29  30
ENDBRANCH  28  29
ENDBRANCH  27  28
ENDBRANCH   1  27
TORSDOF 22
ENDMDL
MODEL 2
REMARK VINA RESULT:      -9.5      6.189     12.638
REMARK SMILES CCC[C@H](C)NC(=O)C[NH+]1CC(n2cc(C(=O)NCCCCCCNC(=O)c3ccc(-c4c5nc(c(-c6c(F)cc(S(=O)(=O)[O-])cc6F)c6ccc([nH]6)c(-c6c(F)cc(S(=O)(=O)[O-])cc6F)c6nc(c(-c7c(F)cc(S(=O)(=O)[O-])cc7F)c7ccc4[nH]7)C=C6)C=C5)cc3)nn2)C1
REMARK SMILES IDX 20 1 19 2 18 3 16 4 17 5 15 7 13 8 14 9 95 10 94 11 12 12
REMARK SMILES IDX 10 13 11 14 96 15 9 17 7 18 6 19 8 21 4 22 5 23 3 24 2 25
REMARK SMILES IDX 1 26 21 27 22 28 23 29 24 30 25 31 26 32 27 34 28 35 29 36
REMARK SMILES IDX 93 37 30 38 92 39 31 40 32 41 33 42 86 43 34 44 91 45 85 46
REMARK SMILES IDX 87 47 35 48 90 49 84 50 83 51 36 53 70 54 49 55 69 56 50 57
REMARK SMILES IDX 53 58 68 59 88 60 51 61 52 62 67 64 89 65 54 66 37 67 38 68
REMARK SMILES IDX 47 69 39 70 40 71 46 72 48 73 41 74 42 75 43 76 44 77 45 78
REMARK SMILES IDX 71 79 72 80 81 81 73 82 74 83 80 84 82 85 75 86 76 87 77 88
REMARK SMILES IDX 78 89 79 90 55 91 56 92 65 93 57 94 58 95 64 96 66 97 59 98
REMARK SMILES IDX 60 99 61 100 62 101 63 102
REMARK H PARENT 18 6 10 16 6 20 25 33 87 52 53 63
REMARK Flexibility Score: inf
ROOT
ATOM      1  C   UNL A   1      36.256  34.227  34.165  1.00  0.00     0.021 C 
ENDROOT
BRANCH   1   2
ATOM      2  C   UNL A   1      36.681  33.890  35.593  1.00  0.00     0.116 C 
BRANCH   2   3
ATOM      3  N   UNL A   1      37.497  32.693  35.637  1.00  0.00    -0.351 N 
ATOM      4  C   UNL A   1      37.920  31.947  36.715  1.00  0.00     0.273 C 
ATOM      5  O   UNL A   1      38.438  30.856  36.479  1.00  0.00    -0.267 OA
ATOM      6  H   UNL A   1      37.795  32.361  34.759  1.00  0.00     0.163 HD
BRANCH   4   7
ATOM      7  C   UNL A   1      37.702  32.427  38.076  1.00  0.00     0.170 A 
ATOM      8  N   UNL A   1      37.246  32.685  40.187  1.00  0.00    -0.237 N 
ATOM      9  C   UNL A   1      37.033  31.841  39.135  1.00  0.00     0.145 A 
ATOM     10  N   UNL A   1      37.948  33.764  39.800  1.00  0.00    -0.066 NA
ATOM     11  N   UNL A   1      38.194  33.641  38.502  1.00  0.00    -0.125 NA
BRANCH   8  12
ATOM     12  C   UNL A   1      36.944  32.338  41.547  1.00  0.00     0.218 C 
ATOM     13  N   UNL A   1      35.366  32.733  42.908  1.00  0.00    -0.323 N 
ATOM     14  C   UNL A   1      35.533  31.774  41.798  1.00  0.00     0.296 C 
ATOM     15  C   UNL A   1      36.421  33.582  42.305  1.00  0.00     0.296 C 
ATOM     16  H   UNL A   1      35.400  32.383  43.865  1.00  0.00     0.348 HD
BRANCH  13  17
ATOM     17  C   UNL A   1      34.087  33.473  42.908  1.00  0.00     0.363 C 
BRANCH  17  18
ATOM     18  C   UNL A   1      33.108  33.101  44.027  1.00  0.00     0.275 C 
ATOM     19  N   UNL A   1      31.833  33.610  44.016  1.00  0.00    -0.349 N 
ATOM     20  H   UNL A   1      31.303  33.424  44.825  1.00  0.00     0.163 HD
ATOM     21  O   UNL A   1      33.441  32.397  44.982  1.00  0.00    -0.268 OA
BRANCH  19  22
ATOM     22  C   UNL A   1      31.140  34.385  42.988  1.00  0.00     0.079 C 
ATOM     23  C   UNL A   1      30.914  33.499  41.753  1.00  0.00     0.031 C 
BRANCH  22  24
ATOM     24  C   UNL A   1      29.772  34.936  43.441  1.00  0.00     0.024 C 
BRANCH  24  25
ATOM     25  C   UNL A   1      29.729  35.972  44.563  1.00  0.00    -0.001 C 
ATOM     26  C   UNL A   1      28.516  36.880  44.569  1.00  0.00     0.004 C 
ENDBRANCH  24  25
ENDBRANCH  22  24
ENDBRANCH  19  22
ENDBRANCH  17  18
ENDBRANCH  13  17
ENDBRANCH   8  12
ENDBRANCH   4   7
ENDBRANCH   2   3
ENDBRANCH   1   2
BRANCH   1  27
ATOM     27  C   UNL A   1      34.837  34.799  34.057  1.00  0.00     0.002 C 
BRANCH  27  28
ATOM     28  C   UNL A   1      34.668  35.985  33.093  1.00  0.00     0.002 C 
BRANCH  28  29
ATOM     29  C   UNL A   1      33.296  36.111  32.415  1.00  0.00     0.021 C 
BRANCH  29  30
ATOM     30  C   UNL A   1      33.373  36.593  30.974  1.00  0.00     0.116 C 
BRANCH  30  31
ATOM     31  N   UNL A   1      32.697  35.674  30.062  1.00  0.00    -0.352 N 
ATOM     32  C   UNL A   1      33.252  34.694  29.263  1.00  0.00     0.251 C 
ATOM     33  H   UNL A   1      31.717  35.765  30.011  1.00  0.00     0.163 HD
ATOM     34  O   UNL A   1      32.649  34.251  28.304  1.00  0.00    -0.269 OA
BRANCH  32  35
ATOM     35  C   UNL A   1      34.598  34.203  29.604  1.00  0.00     0.039 A 
ATOM     36  C   UNL A   1      34.782  33.282  30.638  1.00  0.00     0.014 A 
ATOM     37  C   UNL A   1      35.671  34.646  28.833  1.00  0.00     0.014 A 
ATOM     38  C   UNL A   1      36.049  32.737  30.833  1.00  0.00     0.010 A 
ATOM     39  C   UNL A   1      36.887  34.019  28.948  1.00  0.00     0.010 A 
ATOM     40  C   UNL A   1      37.095  33.089  29.967  1.00  0.00    -0.014 A 
BRANCH  40  41
ATOM     41  C   UNL A   1      38.367  32.365  30.011  1.00  0.00     0.031 A 
ATOM     42  C   UNL A   1      38.266  30.934  29.594  1.00  0.00     0.074 A 
ATOM     43  C   UNL A   1      39.556  32.996  30.145  1.00  0.00     0.049 A 
ATOM     44  N   UNL A   1      38.486  29.876  30.303  1.00  0.00    -0.248 NA
ATOM     45  C   UNL A   1      37.704  30.639  28.262  1.00  0.00     0.031 C 
ATOM     46  C   UNL A   1      39.782  34.446  30.229  1.00  0.00     0.029 A 
ATOM     47  N   UNL A   1      40.826  32.502  30.091  1.00  0.00    -0.354 N 
ATOM     48  C   UNL A   1      38.346  28.797  29.428  1.00  0.00     0.074 A 
ATOM     49  C   UNL A   1      37.656  29.305  28.275  1.00  0.00     0.031 C 
ATOM     50  C   UNL A   1      41.073  34.721  29.952  1.00  0.00     0.029 A 
ATOM     51  C   UNL A   1      41.801  33.470  29.859  1.00  0.00     0.049 A 
ATOM     52  H   UNL A   1      41.035  31.548  30.207  1.00  0.00     0.167 HD
ATOM     53  C   UNL A   1      39.080  27.660  29.597  1.00  0.00     0.037 A 
ATOM     54  C   UNL A   1      43.114  33.271  29.589  1.00  0.00     0.037 A 
ATOM     55  C   UNL A   1      39.686  27.642  30.903  1.00  0.00     0.049 A 
ATOM     56  C   UNL A   1      43.459  31.914  30.070  1.00  0.00     0.074 A 
ATOM     57  C   UNL A   1      39.256  27.529  32.206  1.00  0.00     0.029 A 
ATOM     58  N   UNL A   1      40.961  28.147  30.936  1.00  0.00    -0.354 N 
ATOM     59  N   UNL A   1      43.426  31.564  31.328  1.00  0.00    -0.248 NA
ATOM     60  C   UNL A   1      43.489  30.810  29.120  1.00  0.00     0.031 C 
ATOM     61  C   UNL A   1      40.208  28.243  32.991  1.00  0.00     0.029 A 
ATOM     62  C   UNL A   1      41.212  28.725  32.149  1.00  0.00     0.049 A 
ATOM     63  H   UNL A   1      41.603  28.100  30.192  1.00  0.00     0.167 HD
ATOM     64  C   UNL A   1      42.995  30.249  31.312  1.00  0.00     0.074 A 
ATOM     65  C   UNL A   1      43.222  29.795  29.945  1.00  0.00     0.031 C 
ATOM     66  C   UNL A   1      42.209  29.763  32.316  1.00  0.00     0.037 A 
BRANCH  53  67
ATOM     67  C   UNL A   1      39.677  26.829  28.468  1.00  0.00     0.058 A 
ATOM     68  C   UNL A   1      39.507  25.424  28.497  1.00  0.00     0.135 A 
ATOM     69  C   UNL A   1      40.667  27.293  27.573  1.00  0.00     0.135 A 
ATOM     70  F   UNL A   1      38.589  24.864  29.301  1.00  0.00    -0.206 F 
ATOM     71  C   UNL A   1      40.325  24.551  27.777  1.00  0.00     0.059 A 
ATOM     72  C   UNL A   1      41.459  26.442  26.809  1.00  0.00     0.059 A 
ATOM     73  F   UNL A   1      40.991  28.585  27.464  1.00  0.00    -0.206 F 
ATOM     74  C   UNL A   1      41.316  25.072  26.952  1.00  0.00     0.060 A 
BRANCH  74  75
ATOM     75  S   UNL A   1      42.452  23.956  26.109  1.00  0.00     0.124 S 
ATOM     76  O   UNL A   1      42.822  24.748  24.943  1.00  0.00    -0.237 OA
ATOM     77  O   UNL A   1      43.492  23.770  27.115  1.00  0.00    -0.237 OA
ATOM     78  O   UNL A   1      41.627  22.782  25.842  1.00  0.00    -0.744 OA
ENDBRANCH  74  75
ENDBRANCH  53  67
BRANCH  54  79
ATOM     79  C   UNL A   1      44.018  34.080  28.731  1.00  0.00     0.058 A 
ATOM     80  C   UNL A   1      44.959  34.968  29.280  1.00  0.00     0.135 A 
ATOM     81  C   UNL A   1      44.162  33.794  27.357  1.00  0.00     0.135 A 
ATOM     82  F   UNL A   1      44.909  35.281  30.584  1.00  0.00    -0.206 F 
ATOM     83  C   UNL A   1      46.007  35.507  28.524  1.00  0.00     0.059 A 
ATOM     84  C   UNL A   1      45.192  34.325  26.582  1.00  0.00     0.059 A 
ATOM     85  F   UNL A   1      43.350  32.913  26.749  1.00  0.00    -0.206 F 
ATOM     86  C   UNL A   1      46.126  35.163  27.177  1.00  0.00     0.060 A 
BRANCH  86  87
ATOM     87  S   UNL A   1      47.568  35.724  26.238  1.00  0.00     0.124 S 
ATOM     88  O   UNL A   1      47.134  37.037  25.776  1.00  0.00    -0.237 OA
ATOM     89  O   UNL A   1      48.618  35.717  27.251  1.00  0.00    -0.237 OA
ATOM     90  O   UNL A   1      47.706  34.711  25.195  1.00  0.00    -0.744 OA
ENDBRANCH  86  87
ENDBRANCH  54  79
BRANCH  66  91
ATOM     91  C   UNL A   1      42.266  30.455  33.648  1.00  0.00     0.058 A 
ATOM     92  C   UNL A   1      41.365  31.436  34.092  1.00  0.00     0.135 A 
ATOM     93  C   UNL A   1      43.233  30.008  34.561  1.00  0.00     0.135 A 
ATOM     94  F   UNL A   1      40.357  31.854  33.313  1.00  0.00    -0.206 F 
ATOM     95  C   UNL A   1      41.446  31.974  35.379  1.00  0.00     0.059 A 
ATOM     96  C   UNL A   1      43.312  30.504  35.855  1.00  0.00     0.059 A 
ATOM     97  F   UNL A   1      44.090  29.034  34.209  1.00  0.00    -0.206 F 
ATOM     98  C   UNL A   1      42.424  31.498  36.254  1.00  0.00     0.060 A 
BRANCH  98  99
ATOM     99  S   UNL A   1      42.487  32.140  37.941  1.00  0.00     0.124 S 
ATOM    100  O   UNL A   1      43.364  31.179  38.602  1.00  0.00    -0.237 OA
ATOM    101  O   UNL A   1      43.039  33.478  37.751  1.00  0.00    -0.237 OA
ATOM    102  O   UNL A   1      41.091  32.108  38.370  1.00  0.00    -0.744 OA
ENDBRANCH  98  99
ENDBRANCH  66  91
ENDBRANCH  40  41
ENDBRANCH  32  35
ENDBRANCH  30  31
ENDBRANCH  29  30
ENDBRANCH  28  29
ENDBRANCH  27  28
ENDBRANCH   1  27
TORSDOF 22
ENDMDL
MODEL 3
REMARK VINA RESULT:      -9.5      4.852      9.565
REMARK SMILES CCC[C@H](C)NC(=O)C[NH+]1CC(n2cc(C(=O)NCCCCCCNC(=O)c3ccc(-c4c5nc(c(-c6c(F)cc(S(=O)(=O)[O-])cc6F)c6ccc([nH]6)c(-c6c(F)cc(S(=O)(=O)[O-])cc6F)c6nc(c(-c7c(F)cc(S(=O)(=O)[O-])cc7F)c7ccc4[nH]7)C=C6)C=C5)cc3)nn2)C1
REMARK SMILES IDX 20 1 19 2 18 3 16 4 17 5 15 7 13 8 14 9 95 10 94 11 12 12
REMARK SMILES IDX 10 13 11 14 96 15 9 17 7 18 6 19 8 21 4 22 5 23 3 24 2 25
REMARK SMILES IDX 1 26 21 27 22 28 23 29 24 30 25 31 26 32 27 34 28 35 29 36
REMARK SMILES IDX 93 37 30 38 92 39 31 40 32 41 33 42 86 43 34 44 91 45 85 46
REMARK SMILES IDX 87 47 35 48 90 49 84 50 83 51 36 53 70 54 49 55 69 56 50 57
REMARK SMILES IDX 53 58 68 59 88 60 51 61 52 62 67 64 89 65 54 66 37 67 38 68
REMARK SMILES IDX 47 69 39 70 40 71 46 72 48 73 41 74 42 75 43 76 44 77 45 78
REMARK SMILES IDX 71 79 72 80 81 81 73 82 74 83 80 84 82 85 75 86 76 87 77 88
REMARK SMILES IDX 78 89 79 90 55 91 56 92 65 93 57 94 58 95 64 96 66 97 59 98
REMARK SMILES IDX 60 99 61 100 62 101 63 102
REMARK H PARENT 18 6 10 16 6 20 25 33 87 52 53 63
REMARK Flexibility Score: inf
ROOT
ATOM      1  C   UNL A   1      40.739  28.204  33.196  1.00  0.00     0.021 C 
ENDROOT
BRANCH   1   2
ATOM      2  C   UNL A   1      39.769  29.384  33.165  1.00  0.00     0.116 C 
BRANCH   2   3
ATOM      3  N   UNL A   1      40.449  30.624  32.849  1.00  0.00    -0.351 N 
ATOM      4  C   UNL A   1      40.025  31.927  32.988  1.00  0.00     0.273 C 
ATOM      5  O   UNL A   1      40.867  32.813  32.836  1.00  0.00    -0.267 OA
ATOM      6  H   UNL A   1      41.355  30.518  32.479  1.00  0.00     0.163 HD
BRANCH   4   7
ATOM      7  C   UNL A   1      38.644  32.220  33.353  1.00  0.00     0.170 A 
ATOM      8  N   UNL A   1      36.505  32.607  33.425  1.00  0.00    -0.237 N 
ATOM      9  C   UNL A   1      37.562  32.562  32.562  1.00  0.00     0.145 A 
ATOM     10  N   UNL A   1      36.906  32.372  34.687  1.00  0.00    -0.066 NA
ATOM     11  N   UNL A   1      38.218  32.179  34.663  1.00  0.00    -0.125 NA
BRANCH   8  12
ATOM     12  C   UNL A   1      35.138  32.677  32.990  1.00  0.00     0.218 C 
ATOM     13  N   UNL A   1      34.042  33.822  31.581  1.00  0.00    -0.323 N 
ATOM     14  C   UNL A   1      34.915  32.636  31.467  1.00  0.00     0.296 C 
ATOM     15  C   UNL A   1      34.699  34.156  32.867  1.00  0.00     0.296 C 
ATOM     16  H   UNL A   1      33.035  33.698  31.476  1.00  0.00     0.348 HD
BRANCH  13  17
ATOM     17  C   UNL A   1      34.313  34.895  30.602  1.00  0.00     0.363 C 
BRANCH  17  18
ATOM     18  C   UNL A   1      33.126  35.302  29.722  1.00  0.00     0.275 C 
ATOM     19  N   UNL A   1      33.033  34.825  28.438  1.00  0.00    -0.349 N 
ATOM     20  H   UNL A   1      32.312  35.222  27.898  1.00  0.00     0.163 HD
ATOM     21  O   UNL A   1      32.267  36.097  30.107  1.00  0.00    -0.268 OA
BRANCH  19  22
ATOM     22  C   UNL A   1      33.838  33.818  27.749  1.00  0.00     0.079 C 
ATOM     23  C   UNL A   1      35.326  34.083  28.028  1.00  0.00     0.031 C 
BRANCH  22  24
ATOM     24  C   UNL A   1      33.520  32.370  28.175  1.00  0.00     0.024 C 
BRANCH  24  25
ATOM     25  C   UNL A   1      34.367  31.232  27.607  1.00  0.00    -0.001 C 
ATOM     26  C   UNL A   1      33.591  30.069  27.021  1.00  0.00     0.004 C 
ENDBRANCH  24  25
ENDBRANCH  22  24
ENDBRANCH  19  22
ENDBRANCH  17  18
ENDBRANCH  13  17
ENDBRANCH   8  12
ENDBRANCH   4   7
ENDBRANCH   2   3
ENDBRANCH   1   2
BRANCH   1  27
ATOM     27  C   UNL A   1      41.488  28.049  34.526  1.00  0.00     0.002 C 
BRANCH  27  28
ATOM     28  C   UNL A   1      41.974  26.628  34.856  1.00  0.00     0.002 C 
BRANCH  28  29
ATOM     29  C   UNL A   1      42.120  26.296  36.348  1.00  0.00     0.021 C 
BRANCH  29  30
ATOM     30  C   UNL A   1      42.263  24.807  36.627  1.00  0.00     0.116 C 
BRANCH  30  31
ATOM     31  N   UNL A   1      43.460  24.520  37.413  1.00  0.00    -0.352 N 
ATOM     32  C   UNL A   1      44.719  24.174  36.964  1.00  0.00     0.251 C 
ATOM     33  H   UNL A   1      43.356  24.582  38.391  1.00  0.00     0.163 HD
ATOM     34  O   UNL A   1      45.516  23.620  37.698  1.00  0.00    -0.269 OA
BRANCH  32  35
ATOM     35  C   UNL A   1      45.069  24.491  35.569  1.00  0.00     0.039 A 
ATOM     36  C   UNL A   1      44.905  23.541  34.557  1.00  0.00     0.014 A 
ATOM     37  C   UNL A   1      45.519  25.778  35.283  1.00  0.00     0.014 A 
ATOM     38  C   UNL A   1      45.113  23.927  33.235  1.00  0.00     0.010 A 
ATOM     39  C   UNL A   1      45.603  26.188  33.976  1.00  0.00     0.010 A 
ATOM     40  C   UNL A   1      45.437  25.262  32.946  1.00  0.00    -0.014 A 
BRANCH  40  41
ATOM     41  C   UNL A   1      45.437  25.739  31.562  1.00  0.00     0.031 A 
ATOM     42  C   UNL A   1      46.523  26.719  31.258  1.00  0.00     0.074 A 
ATOM     43  C   UNL A   1      44.708  25.146  30.590  1.00  0.00     0.049 A 
ATOM     44  N   UNL A   1      46.408  27.959  30.908  1.00  0.00    -0.248 NA
ATOM     45  C   UNL A   1      47.916  26.314  31.523  1.00  0.00     0.031 C 
ATOM     46  C   UNL A   1      43.856  23.956  30.727  1.00  0.00     0.029 A 
ATOM     47  N   UNL A   1      44.675  25.379  29.247  1.00  0.00    -0.354 N 
ATOM     48  C   UNL A   1      47.707  28.403  30.654  1.00  0.00     0.074 A 
ATOM     49  C   UNL A   1      48.584  27.439  31.258  1.00  0.00     0.031 C 
ATOM     50  C   UNL A   1      43.619  23.424  29.510  1.00  0.00     0.029 A 
ATOM     51  C   UNL A   1      44.135  24.332  28.503  1.00  0.00     0.049 A 
ATOM     52  H   UNL A   1      45.002  26.213  28.840  1.00  0.00     0.167 HD
ATOM     53  C   UNL A   1      47.948  29.355  29.708  1.00  0.00     0.037 A 
ATOM     54  C   UNL A   1      44.123  24.197  27.154  1.00  0.00     0.037 A 
ATOM     55  C   UNL A   1      46.721  30.003  29.324  1.00  0.00     0.049 A 
ATOM     56  C   UNL A   1      44.315  25.548  26.579  1.00  0.00     0.074 A 
ATOM     57  C   UNL A   1      45.808  30.851  29.910  1.00  0.00     0.029 A 
ATOM     58  N   UNL A   1      46.116  29.451  28.224  1.00  0.00    -0.354 N 
ATOM     59  N   UNL A   1      43.456  26.522  26.722  1.00  0.00    -0.248 NA
ATOM     60  C   UNL A   1      45.644  25.953  26.144  1.00  0.00     0.031 C 
ATOM     61  C   UNL A   1      44.559  30.567  29.285  1.00  0.00     0.029 A 
ATOM     62  C   UNL A   1      44.759  29.593  28.305  1.00  0.00     0.049 A 
ATOM     63  H   UNL A   1      46.591  29.012  27.482  1.00  0.00     0.167 HD
ATOM     64  C   UNL A   1      44.236  27.660  26.823  1.00  0.00     0.074 A 
ATOM     65  C   UNL A   1      45.536  27.276  26.289  1.00  0.00     0.031 C 
ATOM     66  C   UNL A   1      43.848  28.700  27.618  1.00  0.00     0.037 A 
BRANCH  53  67
ATOM     67  C   UNL A   1      49.145  29.370  28.766  1.00  0.00     0.058 A 
ATOM     68  C   UNL A   1      49.763  30.609  28.473  1.00  0.00     0.135 A 
ATOM     69  C   UNL A   1      49.489  28.310  27.898  1.00  0.00     0.135 A 
ATOM     70  F   UNL A   1      49.522  31.689  29.233  1.00  0.00    -0.206 F 
ATOM     71  C   UNL A   1      50.570  30.802  27.349  1.00  0.00     0.059 A 
ATOM     72  C   UNL A   1      50.331  28.470  26.801  1.00  0.00     0.059 A 
ATOM     73  F   UNL A   1      48.953  27.090  28.001  1.00  0.00    -0.206 F 
ATOM     74  C   UNL A   1      50.829  29.727  26.506  1.00  0.00     0.060 A 
BRANCH  74  75
ATOM     75  S   UNL A   1      51.770  29.989  24.992  1.00  0.00     0.124 S 
ATOM     76  O   UNL A   1      53.085  29.495  25.381  1.00  0.00    -0.237 OA
ATOM     77  O   UNL A   1      51.033  29.172  24.034  1.00  0.00    -0.237 OA
ATOM     78  O   UNL A   1      51.671  31.431  24.785  1.00  0.00    -0.744 OA
ENDBRANCH  74  75
ENDBRANCH  53  67
BRANCH  54  79
ATOM     79  C   UNL A   1      44.199  22.954  26.345  1.00  0.00     0.058 A 
ATOM     80  C   UNL A   1      45.431  22.383  25.983  1.00  0.00     0.135 A 
ATOM     81  C   UNL A   1      43.058  22.151  26.140  1.00  0.00     0.135 A 
ATOM     82  F   UNL A   1      46.571  23.069  26.162  1.00  0.00    -0.206 F 
ATOM     83  C   UNL A   1      45.533  21.076  25.489  1.00  0.00     0.059 A 
ATOM     84  C   UNL A   1      43.134  20.851  25.642  1.00  0.00     0.059 A 
ATOM     85  F   UNL A   1      41.840  22.580  26.506  1.00  0.00    -0.206 F 
ATOM     86  C   UNL A   1      44.377  20.311  25.340  1.00  0.00     0.060 A 
BRANCH  86  87
ATOM     87  S   UNL A   1      44.516  18.571  24.860  1.00  0.00     0.124 S 
ATOM     88  O   UNL A   1      43.219  18.042  25.267  1.00  0.00    -0.237 OA
ATOM     89  O   UNL A   1      44.744  18.665  23.422  1.00  0.00    -0.237 OA
ATOM     90  O   UNL A   1      45.655  18.096  25.639  1.00  0.00    -0.744 OA
ENDBRANCH  86  87
ENDBRANCH  54  79
BRANCH  66  91
ATOM     91  C   UNL A   1      42.385  28.835  27.932  1.00  0.00     0.058 A 
ATOM     92  C   UNL A   1      41.808  28.667  29.201  1.00  0.00     0.135 A 
ATOM     93  C   UNL A   1      41.545  29.266  26.894  1.00  0.00     0.135 A 
ATOM     94  F   UNL A   1      42.557  28.342  30.264  1.00  0.00    -0.206 F 
ATOM     95  C   UNL A   1      40.446  28.886  29.418  1.00  0.00     0.059 A 
ATOM     96  C   UNL A   1      40.195  29.522  27.094  1.00  0.00     0.059 A 
ATOM     97  F   UNL A   1      42.052  29.493  25.670  1.00  0.00    -0.206 F 
ATOM     98  C   UNL A   1      39.648  29.317  28.356  1.00  0.00     0.060 A 
BRANCH  98  99
ATOM     99  S   UNL A   1      37.902  29.669  28.651  1.00  0.00     0.124 S 
ATOM    100  O   UNL A   1      37.589  28.769  29.756  1.00  0.00    -0.237 OA
ATOM    101  O   UNL A   1      37.916  31.093  28.975  1.00  0.00    -0.237 OA
ATOM    102  O   UNL A   1      37.267  29.337  27.378  1.00  0.00    -0.744 OA
ENDBRANCH  98  99
ENDBRANCH  66  91
ENDBRANCH  40  41
ENDBRANCH  32  35
ENDBRANCH  30  31
ENDBRANCH  29  30
ENDBRANCH  28  29
ENDBRANCH  27  28
ENDBRANCH   1  27
TORSDOF 22
ENDMDL
