MODEL 1
REMARK VINA RESULT:     -10.4      0.000      0.000
REMARK SMILES [NH3+][C@@H](CC(=O)NCCCCCCNC(=O)c1ccc(-c2c3nc(c(-c4c(F)cc(S(=O)(=O)[O-])cc4F)c4ccc([nH]4)c(-c4c(F)cc(S(=O)(=O)[O-])cc4F)c4nc(c(-c5c(F)cc(S(=O)(=O)[O-])cc5F)c5ccc2[nH]5)C=C4)C=C3)cc1)Cc1ccc(F)cc1
REMARK SMILES IDX 9 1 8 2 7 3 6 4 4 5 5 6 3 8 2 9 1 10 82 14 83 15 84 16 89 17
REMARK SMILES IDX 85 18 88 19 86 20 87 21 10 22 11 23 12 24 13 25 14 26 15 28
REMARK SMILES IDX 16 29 17 30 81 31 18 32 80 33 19 34 20 35 21 36 74 37 22 38
REMARK SMILES IDX 79 39 73 40 75 41 23 42 78 43 72 44 71 45 24 47 58 48 37 49
REMARK SMILES IDX 57 50 38 51 41 52 56 53 76 54 39 55 40 56 55 58 77 59 42 60
REMARK SMILES IDX 25 61 26 62 35 63 27 64 28 65 34 66 36 67 29 68 30 69 31 70
REMARK SMILES IDX 32 71 33 72 59 73 60 74 69 75 61 76 62 77 68 78 70 79 63 80
REMARK SMILES IDX 64 81 65 82 66 83 67 84 43 85 44 86 53 87 45 88 46 89 52 90
REMARK SMILES IDX 54 91 47 92 48 93 49 94 50 95 51 96
REMARK H PARENT 6 7 1 11 1 12 1 13 13 27 75 46 41 57
REMARK Flexibility Score: inf
ROOT
ATOM      1  C   UNL A   1      31.129  29.206  24.377  1.00  0.00     0.002 C 
ENDROOT
BRANCH   1   2
ATOM      2  C   UNL A   1      30.734  28.748  22.969  1.00  0.00     0.021 C 
BRANCH   2   3
ATOM      3  C   UNL A   1      30.699  27.229  22.797  1.00  0.00     0.116 C 
BRANCH   3   4
ATOM      4  N   UNL A   1      31.585  26.817  21.726  1.00  0.00    -0.356 N 
ATOM      5  C   UNL A   1      32.642  25.962  21.756  1.00  0.00     0.225 C 
ATOM      6  O   UNL A   1      33.329  25.844  20.740  1.00  0.00    -0.275 OA
ATOM      7  H   UNL A   1      31.394  27.217  20.847  1.00  0.00     0.163 HD
BRANCH   5   8
ATOM      8  C   UNL A   1      32.957  25.161  23.006  1.00  0.00     0.165 C 
BRANCH   8   9
ATOM      9  C   UNL A   1      33.593  23.771  22.803  1.00  0.00     0.194 C 
BRANCH   9  10
ATOM     10  N   UNL A   1      32.966  23.022  21.706  1.00  0.00    -0.354 N 
ATOM     11  H   UNL A   1      32.808  22.058  21.998  1.00  0.00     0.344 HD
ATOM     12  H   UNL A   1      33.581  23.035  20.892  1.00  0.00     0.344 HD
ATOM     13  H   UNL A   1      32.074  23.455  21.465  1.00  0.00     0.344 HD
ENDBRANCH   9  10
BRANCH   9  14
ATOM     14  C   UNL A   1      33.728  22.951  24.114  1.00  0.00     0.101 C 
BRANCH  14  15
ATOM     15  C   UNL A   1      35.156  22.735  24.571  1.00  0.00    -0.042 A 
ATOM     16  C   UNL A   1      35.928  23.833  24.989  1.00  0.00     0.007 A 
ATOM     17  C   UNL A   1      35.708  21.447  24.635  1.00  0.00     0.007 A 
ATOM     18  C   UNL A   1      37.220  23.647  25.478  1.00  0.00     0.039 A 
ATOM     19  C   UNL A   1      37.006  21.264  25.118  1.00  0.00     0.039 A 
ATOM     20  C   UNL A   1      37.746  22.363  25.539  1.00  0.00     0.123 A 
ATOM     21  F   UNL A   1      38.986  22.181  26.012  1.00  0.00    -0.207 F 
ENDBRANCH  14  15
ENDBRANCH   9  14
ENDBRANCH   8   9
ENDBRANCH   5   8
ENDBRANCH   3   4
ENDBRANCH   2   3
ENDBRANCH   1   2
BRANCH   1  22
ATOM     22  C   UNL A   1      32.548  28.820  24.808  1.00  0.00     0.002 C 
BRANCH  22  23
ATOM     23  C   UNL A   1      32.627  27.873  26.008  1.00  0.00     0.021 C 
BRANCH  23  24
ATOM     24  C   UNL A   1      33.623  28.293  27.086  1.00  0.00     0.116 C 
BRANCH  24  25
ATOM     25  N   UNL A   1      33.502  29.706  27.413  1.00  0.00    -0.352 N 
ATOM     26  C   UNL A   1      34.389  30.523  28.065  1.00  0.00     0.251 C 
ATOM     27  H   UNL A   1      32.664  30.135  27.126  1.00  0.00     0.163 HD
ATOM     28  O   UNL A   1      34.024  31.630  28.462  1.00  0.00    -0.269 OA
BRANCH  26  29
ATOM     29  C   UNL A   1      35.775  30.070  28.299  1.00  0.00     0.039 A 
ATOM     30  C   UNL A   1      36.697  30.126  27.251  1.00  0.00     0.014 A 
ATOM     31  C   UNL A   1      36.163  29.581  29.551  1.00  0.00     0.014 A 
ATOM     32  C   UNL A   1      38.022  29.745  27.474  1.00  0.00     0.010 A 
ATOM     33  C   UNL A   1      37.498  29.270  29.791  1.00  0.00     0.010 A 
ATOM     34  C   UNL A   1      38.442  29.344  28.754  1.00  0.00    -0.014 A 
BRANCH  34  35
ATOM     35  C   UNL A   1      39.860  28.998  29.027  1.00  0.00     0.031 A 
ATOM     36  C   UNL A   1      40.790  30.029  29.610  1.00  0.00     0.074 A 
ATOM     37  C   UNL A   1      40.324  27.776  28.696  1.00  0.00     0.049 A 
ATOM     38  N   UNL A   1      42.073  29.939  29.855  1.00  0.00    -0.248 NA
ATOM     39  C   UNL A   1      40.209  31.340  29.938  1.00  0.00     0.031 C 
ATOM     40  C   UNL A   1      39.531  26.708  28.085  1.00  0.00     0.029 A 
ATOM     41  N   UNL A   1      41.577  27.230  28.816  1.00  0.00    -0.354 N 
ATOM     42  C   UNL A   1      42.452  31.180  30.355  1.00  0.00     0.074 A 
ATOM     43  C   UNL A   1      41.277  32.023  30.326  1.00  0.00     0.031 C 
ATOM     44  C   UNL A   1      40.309  25.629  27.904  1.00  0.00     0.029 A 
ATOM     45  C   UNL A   1      41.665  25.939  28.347  1.00  0.00     0.049 A 
ATOM     46  H   UNL A   1      42.341  27.715  29.202  1.00  0.00     0.167 HD
ATOM     47  C   UNL A   1      43.662  31.572  30.818  1.00  0.00     0.037 A 
ATOM     48  C   UNL A   1      42.720  25.104  28.274  1.00  0.00     0.037 A 
ATOM     49  C   UNL A   1      44.822  30.720  30.863  1.00  0.00     0.049 A 
ATOM     50  C   UNL A   1      44.057  25.569  28.784  1.00  0.00     0.074 A 
ATOM     51  C   UNL A   1      46.081  31.007  31.360  1.00  0.00     0.029 A 
ATOM     52  N   UNL A   1      44.866  29.415  30.394  1.00  0.00    -0.354 N 
ATOM     53  N   UNL A   1      44.383  26.726  29.308  1.00  0.00    -0.248 NA
ATOM     54  C   UNL A   1      45.170  24.613  28.699  1.00  0.00     0.031 C 
ATOM     55  C   UNL A   1      46.900  29.893  31.149  1.00  0.00     0.029 A 
ATOM     56  C   UNL A   1      46.137  28.892  30.571  1.00  0.00     0.049 A 
ATOM     57  H   UNL A   1      44.107  28.933  29.995  1.00  0.00     0.167 HD
ATOM     58  C   UNL A   1      45.729  26.627  29.644  1.00  0.00     0.074 A 
ATOM     59  C   UNL A   1      46.153  25.292  29.274  1.00  0.00     0.031 C 
ATOM     60  C   UNL A   1      46.540  27.556  30.207  1.00  0.00     0.037 A 
BRANCH  47  61
ATOM     61  C   UNL A   1      43.794  32.984  31.324  1.00  0.00     0.058 A 
ATOM     62  C   UNL A   1      44.174  34.038  30.477  1.00  0.00     0.135 A 
ATOM     63  C   UNL A   1      43.494  33.296  32.661  1.00  0.00     0.135 A 
ATOM     64  F   UNL A   1      44.488  33.794  29.194  1.00  0.00    -0.206 F 
ATOM     65  C   UNL A   1      44.278  35.345  30.941  1.00  0.00     0.059 A 
ATOM     66  C   UNL A   1      43.561  34.602  33.139  1.00  0.00     0.059 A 
ATOM     67  F   UNL A   1      43.126  32.329  33.514  1.00  0.00    -0.206 F 
ATOM     68  C   UNL A   1      43.967  35.618  32.274  1.00  0.00     0.060 A 
BRANCH  68  69
ATOM     69  S   UNL A   1      44.093  37.322  32.855  1.00  0.00     0.124 S 
ATOM     70  O   UNL A   1      45.432  37.334  33.434  1.00  0.00    -0.237 OA
ATOM     71  O   UNL A   1      43.929  38.084  31.622  1.00  0.00    -0.237 OA
ATOM     72  O   UNL A   1      42.996  37.438  33.810  1.00  0.00    -0.744 OA
ENDBRANCH  68  69
ENDBRANCH  47  61
BRANCH  48  73
ATOM     73  C   UNL A   1      42.551  23.737  27.712  1.00  0.00     0.058 A 
ATOM     74  C   UNL A   1      42.365  22.628  28.551  1.00  0.00     0.135 A 
ATOM     75  C   UNL A   1      42.574  23.510  26.326  1.00  0.00     0.135 A 
ATOM     76  F   UNL A   1      42.341  22.792  29.883  1.00  0.00    -0.206 F 
ATOM     77  C   UNL A   1      42.229  21.341  28.041  1.00  0.00     0.059 A 
ATOM     78  C   UNL A   1      42.413  22.235  25.792  1.00  0.00     0.059 A 
ATOM     79  F   UNL A   1      42.731  24.538  25.478  1.00  0.00    -0.206 F 
ATOM     80  C   UNL A   1      42.254  21.155  26.658  1.00  0.00     0.060 A 
BRANCH  80  81
ATOM     81  S   UNL A   1      42.042  19.485  26.004  1.00  0.00     0.124 S 
ATOM     82  O   UNL A   1      40.597  19.425  25.816  1.00  0.00    -0.237 OA
ATOM     83  O   UNL A   1      42.845  19.529  24.787  1.00  0.00    -0.237 OA
ATOM     84  O   UNL A   1      42.577  18.639  27.067  1.00  0.00    -0.744 OA
ENDBRANCH  80  81
ENDBRANCH  48  73
BRANCH  60  85
ATOM     85  C   UNL A   1      47.960  27.151  30.500  1.00  0.00     0.058 A 
ATOM     86  C   UNL A   1      49.020  27.511  29.653  1.00  0.00     0.135 A 
ATOM     87  C   UNL A   1      48.268  26.441  31.671  1.00  0.00     0.135 A 
ATOM     88  F   UNL A   1      48.780  28.185  28.517  1.00  0.00    -0.206 F 
ATOM     89  C   UNL A   1      50.334  27.158  29.945  1.00  0.00     0.059 A 
ATOM     90  C   UNL A   1      49.577  26.103  31.998  1.00  0.00     0.059 A 
ATOM     91  F   UNL A   1      47.292  26.081  32.520  1.00  0.00    -0.206 F 
ATOM     92  C   UNL A   1      50.603  26.457  31.123  1.00  0.00     0.060 A 
BRANCH  92  93
ATOM     93  S   UNL A   1      52.315  26.037  31.508  1.00  0.00     0.124 S 
ATOM     94  O   UNL A   1      52.711  27.158  32.353  1.00  0.00    -0.237 OA
ATOM     95  O   UNL A   1      52.176  24.752  32.184  1.00  0.00    -0.237 OA
ATOM     96  O   UNL A   1      52.955  25.982  30.196  1.00  0.00    -0.744 OA
ENDBRANCH  92  93
ENDBRANCH  60  85
ENDBRANCH  34  35
ENDBRANCH  26  29
ENDBRANCH  24  25
ENDBRANCH  23  24
ENDBRANCH  22  23
ENDBRANCH   1  22
TORSDOF 20
ENDMDL
MODEL 2
REMARK VINA RESULT:     -10.0      2.682      3.257
REMARK SMILES [NH3+][C@@H](CC(=O)NCCCCCCNC(=O)c1ccc(-c2c3nc(c(-c4c(F)cc(S(=O)(=O)[O-])cc4F)c4ccc([nH]4)c(-c4c(F)cc(S(=O)(=O)[O-])cc4F)c4nc(c(-c5c(F)cc(S(=O)(=O)[O-])cc5F)c5ccc2[nH]5)C=C4)C=C3)cc1)Cc1ccc(F)cc1
REMARK SMILES IDX 9 1 8 2 7 3 6 4 4 5 5 6 3 8 2 9 1 10 82 14 83 15 84 16 89 17
REMARK SMILES IDX 85 18 88 19 86 20 87 21 10 22 11 23 12 24 13 25 14 26 15 28
REMARK SMILES IDX 16 29 17 30 81 31 18 32 80 33 19 34 20 35 21 36 74 37 22 38
REMARK SMILES IDX 79 39 73 40 75 41 23 42 78 43 72 44 71 45 24 47 58 48 37 49
REMARK SMILES IDX 57 50 38 51 41 52 56 53 76 54 39 55 40 56 55 58 77 59 42 60
REMARK SMILES IDX 25 61 26 62 35 63 27 64 28 65 34 66 36 67 29 68 30 69 31 70
REMARK SMILES IDX 32 71 33 72 59 73 60 74 69 75 61 76 62 77 68 78 70 79 63 80
REMARK SMILES IDX 64 81 65 82 66 83 67 84 43 85 44 86 53 87 45 88 46 89 52 90
REMARK SMILES IDX 54 91 47 92 48 93 49 94 50 95 51 96
REMARK H PARENT 6 7 1 11 1 12 1 13 13 27 75 46 41 57
REMARK Flexibility Score: inf
ROOT
ATOM      1  C   UNL A   1      30.938  29.224  24.092  1.00  0.00     0.002 C 
ENDROOT
BRANCH   1   2
ATOM      2  C   UNL A   1      31.571  28.530  22.881  1.00  0.00     0.021 C 
BRANCH   2   3
ATOM      3  C   UNL A   1      30.872  27.231  22.474  1.00  0.00     0.116 C 
BRANCH   3   4
ATOM      4  N   UNL A   1      31.547  26.623  21.345  1.00  0.00    -0.356 N 
ATOM      5  C   UNL A   1      32.702  25.907  21.309  1.00  0.00     0.225 C 
ATOM      6  O   UNL A   1      33.153  25.576  20.210  1.00  0.00    -0.275 OA
ATOM      7  H   UNL A   1      31.103  26.747  20.475  1.00  0.00     0.163 HD
BRANCH   5   8
ATOM      8  C   UNL A   1      33.411  25.511  22.591  1.00  0.00     0.165 C 
BRANCH   8   9
ATOM      9  C   UNL A   1      33.648  24.006  22.823  1.00  0.00     0.194 C 
BRANCH   9  10
ATOM     10  N   UNL A   1      32.691  23.168  22.089  1.00  0.00    -0.354 N 
ATOM     11  H   UNL A   1      32.439  23.627  21.214  1.00  0.00     0.344 HD
ATOM     12  H   UNL A   1      31.853  23.033  22.656  1.00  0.00     0.344 HD
ATOM     13  H   UNL A   1      33.116  22.263  21.888  1.00  0.00     0.344 HD
ENDBRANCH   9  10
BRANCH   9  14
ATOM     14  C   UNL A   1      33.786  23.621  24.320  1.00  0.00     0.101 C 
BRANCH  14  15
ATOM     15  C   UNL A   1      35.183  23.205  24.732  1.00  0.00    -0.042 A 
ATOM     16  C   UNL A   1      35.778  22.078  24.138  1.00  0.00     0.007 A 
ATOM     17  C   UNL A   1      35.918  23.956  25.662  1.00  0.00     0.007 A 
ATOM     18  C   UNL A   1      37.088  21.719  24.452  1.00  0.00     0.039 A 
ATOM     19  C   UNL A   1      37.227  23.589  25.982  1.00  0.00     0.039 A 
ATOM     20  C   UNL A   1      37.800  22.479  25.371  1.00  0.00     0.123 A 
ATOM     21  F   UNL A   1      39.060  22.138  25.672  1.00  0.00    -0.207 F 
ENDBRANCH  14  15
ENDBRANCH   9  14
ENDBRANCH   8   9
ENDBRANCH   5   8
ENDBRANCH   3   4
ENDBRANCH   2   3
ENDBRANCH   1   2
BRANCH   1  22
ATOM     22  C   UNL A   1      31.546  28.843  25.446  1.00  0.00     0.002 C 
BRANCH  22  23
ATOM     23  C   UNL A   1      32.820  27.997  25.371  1.00  0.00     0.021 C 
BRANCH  23  24
ATOM     24  C   UNL A   1      34.044  28.632  26.024  1.00  0.00     0.116 C 
BRANCH  24  25
ATOM     25  N   UNL A   1      33.805  30.021  26.386  1.00  0.00    -0.352 N 
ATOM     26  C   UNL A   1      34.421  30.785  27.342  1.00  0.00     0.251 C 
ATOM     27  H   UNL A   1      33.099  30.475  25.871  1.00  0.00     0.163 HD
ATOM     28  O   UNL A   1      33.932  31.867  27.671  1.00  0.00    -0.269 OA
BRANCH  26  29
ATOM     29  C   UNL A   1      35.663  30.306  27.984  1.00  0.00     0.039 A 
ATOM     30  C   UNL A   1      36.882  30.477  27.323  1.00  0.00     0.014 A 
ATOM     31  C   UNL A   1      35.622  29.679  29.233  1.00  0.00     0.014 A 
ATOM     32  C   UNL A   1      38.066  30.071  27.941  1.00  0.00     0.010 A 
ATOM     33  C   UNL A   1      36.808  29.340  29.879  1.00  0.00     0.010 A 
ATOM     34  C   UNL A   1      38.043  29.528  29.238  1.00  0.00    -0.014 A 
BRANCH  34  35
ATOM     35  C   UNL A   1      39.297  29.150  29.938  1.00  0.00     0.031 A 
ATOM     36  C   UNL A   1      39.735  29.906  31.164  1.00  0.00     0.074 A 
ATOM     37  C   UNL A   1      40.071  28.167  29.436  1.00  0.00     0.049 A 
ATOM     38  N   UNL A   1      40.828  29.771  31.871  1.00  0.00    -0.248 NA
ATOM     39  C   UNL A   1      38.839  30.969  31.645  1.00  0.00     0.031 C 
ATOM     40  C   UNL A   1      39.776  27.392  28.229  1.00  0.00     0.029 A 
ATOM     41  N   UNL A   1      41.269  27.657  29.870  1.00  0.00    -0.354 N 
ATOM     42  C   UNL A   1      40.755  30.735  32.871  1.00  0.00     0.074 A 
ATOM     43  C   UNL A   1      39.539  31.484  32.646  1.00  0.00     0.031 C 
ATOM     44  C   UNL A   1      40.753  26.492  28.032  1.00  0.00     0.029 A 
ATOM     45  C   UNL A   1      41.764  26.652  29.073  1.00  0.00     0.049 A 
ATOM     46  H   UNL A   1      41.731  27.981  30.677  1.00  0.00     0.167 HD
ATOM     47  C   UNL A   1      41.611  30.958  33.895  1.00  0.00     0.037 A 
ATOM     48  C   UNL A   1      42.908  25.945  29.164  1.00  0.00     0.037 A 
ATOM     49  C   UNL A   1      42.810  30.192  34.125  1.00  0.00     0.049 A 
ATOM     50  C   UNL A   1      43.849  26.221  30.306  1.00  0.00     0.074 A 
ATOM     51  C   UNL A   1      43.718  30.307  35.163  1.00  0.00     0.029 A 
ATOM     52  N   UNL A   1      43.269  29.172  33.304  1.00  0.00    -0.354 N 
ATOM     53  N   UNL A   1      43.734  27.096  31.275  1.00  0.00    -0.248 NA
ATOM     54  C   UNL A   1      45.072  25.409  30.370  1.00  0.00     0.031 C 
ATOM     55  C   UNL A   1      44.750  29.388  34.945  1.00  0.00     0.029 A 
ATOM     56  C   UNL A   1      44.457  28.663  33.802  1.00  0.00     0.049 A 
ATOM     57  H   UNL A   1      42.816  28.856  32.489  1.00  0.00     0.167 HD
ATOM     58  C   UNL A   1      44.854  26.919  32.082  1.00  0.00     0.074 A 
ATOM     59  C   UNL A   1      45.626  25.845  31.493  1.00  0.00     0.031 C 
ATOM     60  C   UNL A   1      45.209  27.585  33.209  1.00  0.00     0.037 A 
BRANCH  47  61
ATOM     61  C   UNL A   1      41.280  32.068  34.856  1.00  0.00     0.058 A 
ATOM     62  C   UNL A   1      41.787  33.366  34.685  1.00  0.00     0.135 A 
ATOM     63  C   UNL A   1      40.408  31.844  35.936  1.00  0.00     0.135 A 
ATOM     64  F   UNL A   1      42.637  33.633  33.679  1.00  0.00    -0.206 F 
ATOM     65  C   UNL A   1      41.465  34.396  35.563  1.00  0.00     0.059 A 
ATOM     66  C   UNL A   1      40.049  32.867  36.808  1.00  0.00     0.059 A 
ATOM     67  F   UNL A   1      39.894  30.624  36.148  1.00  0.00    -0.206 F 
ATOM     68  C   UNL A   1      40.592  34.137  36.621  1.00  0.00     0.060 A 
BRANCH  68  69
ATOM     69  S   UNL A   1      40.175  35.490  37.741  1.00  0.00     0.124 S 
ATOM     70  O   UNL A   1      39.861  36.560  36.801  1.00  0.00    -0.237 OA
ATOM     71  O   UNL A   1      39.042  34.943  38.480  1.00  0.00    -0.237 OA
ATOM     72  O   UNL A   1      41.395  35.676  38.519  1.00  0.00    -0.744 OA
ENDBRANCH  68  69
ENDBRANCH  47  61
BRANCH  48  73
ATOM     73  C   UNL A   1      43.219  24.895  28.156  1.00  0.00     0.058 A 
ATOM     74  C   UNL A   1      42.876  23.554  28.380  1.00  0.00     0.135 A 
ATOM     75  C   UNL A   1      43.865  25.211  26.950  1.00  0.00     0.135 A 
ATOM     76  F   UNL A   1      42.262  23.200  29.519  1.00  0.00    -0.206 F 
ATOM     77  C   UNL A   1      43.181  22.558  27.457  1.00  0.00     0.059 A 
ATOM     78  C   UNL A   1      44.156  24.237  25.999  1.00  0.00     0.059 A 
ATOM     79  F   UNL A   1      44.199  26.482  26.677  1.00  0.00    -0.206 F 
ATOM     80  C   UNL A   1      43.821  22.911  26.268  1.00  0.00     0.060 A 
BRANCH  80  81
ATOM     81  S   UNL A   1      44.182  21.617  25.061  1.00  0.00     0.124 S 
ATOM     82  O   UNL A   1      44.065  22.347  23.804  1.00  0.00    -0.237 OA
ATOM     83  O   UNL A   1      45.530  21.211  25.442  1.00  0.00    -0.237 OA
ATOM     84  O   UNL A   1      43.142  20.624  25.314  1.00  0.00    -0.744 OA
ENDBRANCH  80  81
ENDBRANCH  48  73
BRANCH  60  85
ATOM     85  C   UNL A   1      46.469  27.146  33.906  1.00  0.00     0.058 A 
ATOM     86  C   UNL A   1      47.705  27.759  33.653  1.00  0.00     0.135 A 
ATOM     87  C   UNL A   1      46.425  26.134  34.878  1.00  0.00     0.135 A 
ATOM     88  F   UNL A   1      47.804  28.727  32.728  1.00  0.00    -0.206 F 
ATOM     89  C   UNL A   1      48.860  27.368  34.323  1.00  0.00     0.059 A 
ATOM     90  C   UNL A   1      47.560  25.746  35.582  1.00  0.00     0.059 A 
ATOM     91  F   UNL A   1      45.265  25.522  35.166  1.00  0.00    -0.206 F 
ATOM     92  C   UNL A   1      48.777  26.362  35.289  1.00  0.00     0.060 A 
BRANCH  92  93
ATOM     93  S   UNL A   1      50.275  25.888  36.175  1.00  0.00     0.124 S 
ATOM     94  O   UNL A   1      50.776  24.798  35.345  1.00  0.00    -0.237 OA
ATOM     95  O   UNL A   1      51.058  27.120  36.145  1.00  0.00    -0.237 OA
ATOM     96  O   UNL A   1      49.783  25.498  37.493  1.00  0.00    -0.744 OA
ENDBRANCH  92  93
ENDBRANCH  60  85
ENDBRANCH  34  35
ENDBRANCH  26  29
ENDBRANCH  24  25
ENDBRANCH  23  24
ENDBRANCH  22  23
ENDBRANCH   1  22
TORSDOF 20
ENDMDL
MODEL 3
REMARK VINA RESULT:     -10.0      3.959      8.273
REMARK SMILES [NH3+][C@@H](CC(=O)NCCCCCCNC(=O)c1ccc(-c2c3nc(c(-c4c(F)cc(S(=O)(=O)[O-])cc4F)c4ccc([nH]4)c(-c4c(F)cc(S(=O)(=O)[O-])cc4F)c4nc(c(-c5c(F)cc(S(=O)(=O)[O-])cc5F)c5ccc2[nH]5)C=C4)C=C3)cc1)Cc1ccc(F)cc1
REMARK SMILES IDX 9 1 8 2 7 3 6 4 4 5 5 6 3 8 2 9 1 10 82 14 83 15 84 16 89 17
REMARK SMILES IDX 85 18 88 19 86 20 87 21 10 22 11 23 12 24 13 25 14 26 15 28
REMARK SMILES IDX 16 29 17 30 81 31 18 32 80 33 19 34 20 35 21 36 74 37 22 38
REMARK SMILES IDX 79 39 73 40 75 41 23 42 78 43 72 44 71 45 24 47 58 48 37 49
REMARK SMILES IDX 57 50 38 51 41 52 56 53 76 54 39 55 40 56 55 58 77 59 42 60
REMARK SMILES IDX 25 61 26 62 35 63 27 64 28 65 34 66 36 67 29 68 30 69 31 70
REMARK SMILES IDX 32 71 33 72 59 73 60 74 69 75 61 76 62 77 68 78 70 79 63 80
REMARK SMILES IDX 64 81 65 82 66 83 67 84 43 85 44 86 53 87 45 88 46 89 52 90
REMARK SMILES IDX 54 91 47 92 48 93 49 94 50 95 51 96
REMARK H PARENT 6 7 1 11 1 12 1 13 13 27 75 46 41 57
REMARK Flexibility Score: inf
ROOT
ATOM      1  C   UNL A   1      37.700  22.141  25.262  1.00  0.00     0.002 C 
ENDROOT
BRANCH   1   2
ATOM      2  C   UNL A   1      36.917  23.338  24.711  1.00  0.00     0.021 C 
BRANCH   2   3
ATOM      3  C   UNL A   1      35.997  24.004  25.736  1.00  0.00     0.116 C 
BRANCH   3   4
ATOM      4  N   UNL A   1      35.502  23.027  26.686  1.00  0.00    -0.356 N 
ATOM      5  C   UNL A   1      34.224  22.751  27.059  1.00  0.00     0.225 C 
ATOM      6  O   UNL A   1      34.041  21.947  27.975  1.00  0.00    -0.275 OA
ATOM      7  H   UNL A   1      36.194  22.483  27.126  1.00  0.00     0.163 HD
BRANCH   5   8
ATOM      8  C   UNL A   1      33.051  23.407  26.355  1.00  0.00     0.165 C 
BRANCH   8   9
ATOM      9  C   UNL A   1      32.306  22.562  25.302  1.00  0.00     0.194 C 
BRANCH   9  10
ATOM     10  N   UNL A   1      31.467  21.522  25.911  1.00  0.00    -0.354 N 
ATOM     11  H   UNL A   1      31.065  21.874  26.780  1.00  0.00     0.344 HD
ATOM     12  H   UNL A   1      32.036  20.698  26.108  1.00  0.00     0.344 HD
ATOM     13  H   UNL A   1      30.716  21.270  25.268  1.00  0.00     0.344 HD
ENDBRANCH   9  10
BRANCH   9  14
ATOM     14  C   UNL A   1      33.222  22.033  24.167  1.00  0.00     0.101 C 
BRANCH  14  15
ATOM     15  C   UNL A   1      33.214  20.526  24.008  1.00  0.00    -0.042 A 
ATOM     16  C   UNL A   1      32.309  19.924  23.117  1.00  0.00     0.007 A 
ATOM     17  C   UNL A   1      34.131  19.721  24.698  1.00  0.00     0.007 A 
ATOM     18  C   UNL A   1      32.332  18.547  22.904  1.00  0.00     0.039 A 
ATOM     19  C   UNL A   1      34.147  18.340  24.491  1.00  0.00     0.039 A 
ATOM     20  C   UNL A   1      33.252  17.768  23.593  1.00  0.00     0.123 A 
ATOM     21  F   UNL A   1      33.279  16.444  23.389  1.00  0.00    -0.207 F 
ENDBRANCH  14  15
ENDBRANCH   9  14
ENDBRANCH   8   9
ENDBRANCH   5   8
ENDBRANCH   3   4
ENDBRANCH   2   3
ENDBRANCH   1   2
BRANCH   1  22
ATOM     22  C   UNL A   1      37.445  20.814  24.541  1.00  0.00     0.002 C 
BRANCH  22  23
ATOM     23  C   UNL A   1      38.378  19.668  24.940  1.00  0.00     0.021 C 
BRANCH  23  24
ATOM     24  C   UNL A   1      39.391  20.022  26.026  1.00  0.00     0.116 C 
BRANCH  24  25
ATOM     25  N   UNL A   1      40.535  19.123  26.012  1.00  0.00    -0.352 N 
ATOM     26  C   UNL A   1      41.872  19.423  26.012  1.00  0.00     0.251 C 
ATOM     27  H   UNL A   1      40.317  18.163  26.000  1.00  0.00     0.163 HD
ATOM     28  O   UNL A   1      42.698  18.544  25.761  1.00  0.00    -0.269 OA
BRANCH  26  29
ATOM     29  C   UNL A   1      42.320  20.801  26.300  1.00  0.00     0.039 A 
ATOM     30  C   UNL A   1      42.458  21.209  27.629  1.00  0.00     0.014 A 
ATOM     31  C   UNL A   1      42.595  21.694  25.259  1.00  0.00     0.014 A 
ATOM     32  C   UNL A   1      42.926  22.494  27.913  1.00  0.00     0.010 A 
ATOM     33  C   UNL A   1      43.128  22.947  25.542  1.00  0.00     0.010 A 
ATOM     34  C   UNL A   1      43.295  23.364  26.872  1.00  0.00    -0.014 A 
BRANCH  34  35
ATOM     35  C   UNL A   1      43.857  24.709  27.155  1.00  0.00     0.031 A 
ATOM     36  C   UNL A   1      42.954  25.824  27.613  1.00  0.00     0.074 A 
ATOM     37  C   UNL A   1      45.167  24.943  26.942  1.00  0.00     0.049 A 
ATOM     38  N   UNL A   1      43.243  27.079  27.843  1.00  0.00    -0.248 NA
ATOM     39  C   UNL A   1      41.535  25.490  27.815  1.00  0.00     0.031 C 
ATOM     40  C   UNL A   1      46.134  23.956  26.457  1.00  0.00     0.029 A 
ATOM     41  N   UNL A   1      45.912  26.086  27.096  1.00  0.00    -0.354 N 
ATOM     42  C   UNL A   1      42.045  27.684  28.207  1.00  0.00     0.074 A 
ATOM     43  C   UNL A   1      41.016  26.672  28.113  1.00  0.00     0.031 C 
ATOM     44  C   UNL A   1      47.346  24.529  26.374  1.00  0.00     0.029 A 
ATOM     45  C   UNL A   1      47.237  25.933  26.760  1.00  0.00     0.049 A 
ATOM     46  H   UNL A   1      45.533  26.935  27.417  1.00  0.00     0.167 HD
ATOM     47  C   UNL A   1      41.828  28.959  28.607  1.00  0.00     0.037 A 
ATOM     48  C   UNL A   1      48.247  26.824  26.754  1.00  0.00     0.037 A 
ATOM     49  C   UNL A   1      42.863  29.955  28.719  1.00  0.00     0.049 A 
ATOM     50  C   UNL A   1      47.977  28.239  27.191  1.00  0.00     0.074 A 
ATOM     51  C   UNL A   1      42.754  31.262  29.163  1.00  0.00     0.029 A 
ATOM     52  N   UNL A   1      44.194  29.757  28.385  1.00  0.00    -0.354 N 
ATOM     53  N   UNL A   1      46.850  28.777  27.588  1.00  0.00    -0.248 NA
ATOM     54  C   UNL A   1      49.117  29.166  27.184  1.00  0.00     0.031 C 
ATOM     55  C   UNL A   1      44.010  31.868  29.052  1.00  0.00     0.029 A 
ATOM     56  C   UNL A   1      44.913  30.923  28.593  1.00  0.00     0.049 A 
ATOM     57  H   UNL A   1      44.573  28.912  28.050  1.00  0.00     0.167 HD
ATOM     58  C   UNL A   1      47.150  30.097  27.909  1.00  0.00     0.074 A 
ATOM     59  C   UNL A   1      48.569  30.271  27.670  1.00  0.00     0.031 C 
ATOM     60  C   UNL A   1      46.328  31.076  28.361  1.00  0.00     0.037 A 
BRANCH  47  61
ATOM     61  C   UNL A   1      40.419  29.351  28.964  1.00  0.00     0.058 A 
ATOM     62  C   UNL A   1      40.019  29.526  30.299  1.00  0.00     0.135 A 
ATOM     63  C   UNL A   1      39.469  29.600  27.960  1.00  0.00     0.135 A 
ATOM     64  F   UNL A   1      40.882  29.287  31.301  1.00  0.00    -0.206 F 
ATOM     65  C   UNL A   1      38.722  29.907  30.627  1.00  0.00     0.059 A 
ATOM     66  C   UNL A   1      38.175  30.011  28.264  1.00  0.00     0.059 A 
ATOM     67  F   UNL A   1      39.796  29.448  26.667  1.00  0.00    -0.206 F 
ATOM     68  C   UNL A   1      37.807  30.150  29.602  1.00  0.00     0.060 A 
BRANCH  68  69
ATOM     69  S   UNL A   1      36.133  30.657  30.047  1.00  0.00     0.124 S 
ATOM     70  O   UNL A   1      35.953  29.977  31.325  1.00  0.00    -0.237 OA
ATOM     71  O   UNL A   1      36.255  32.109  30.112  1.00  0.00    -0.237 OA
ATOM     72  O   UNL A   1      35.319  30.149  28.946  1.00  0.00    -0.744 OA
ENDBRANCH  68  69
ENDBRANCH  47  61
BRANCH  48  73
ATOM     73  C   UNL A   1      49.612  26.402  26.337  1.00  0.00     0.058 A 
ATOM     74  C   UNL A   1      50.053  26.580  25.018  1.00  0.00     0.135 A 
ATOM     75  C   UNL A   1      50.503  25.812  27.249  1.00  0.00     0.135 A 
ATOM     76  F   UNL A   1      49.237  27.135  24.108  1.00  0.00    -0.206 F 
ATOM     77  C   UNL A   1      51.318  26.170  24.608  1.00  0.00     0.059 A 
ATOM     78  C   UNL A   1      51.783  25.419  26.870  1.00  0.00     0.059 A 
ATOM     79  F   UNL A   1      50.139  25.636  28.528  1.00  0.00    -0.206 F 
ATOM     80  C   UNL A   1      52.176  25.590  25.544  1.00  0.00     0.060 A 
BRANCH  80  81
ATOM     81  S   UNL A   1      53.828  25.093  25.011  1.00  0.00     0.124 S 
ATOM     82  O   UNL A   1      54.653  25.598  26.102  1.00  0.00    -0.237 OA
ATOM     83  O   UNL A   1      53.699  23.641  24.927  1.00  0.00    -0.237 OA
ATOM     84  O   UNL A   1      53.987  25.774  23.730  1.00  0.00    -0.744 OA
ENDBRANCH  80  81
ENDBRANCH  48  73
BRANCH  60  85
ATOM     85  C   UNL A   1      46.945  32.414  28.668  1.00  0.00     0.058 A 
ATOM     86  C   UNL A   1      47.020  33.432  27.705  1.00  0.00     0.135 A 
ATOM     87  C   UNL A   1      47.417  32.696  29.960  1.00  0.00     0.135 A 
ATOM     88  F   UNL A   1      46.589  33.212  26.453  1.00  0.00    -0.206 F 
ATOM     89  C   UNL A   1      47.566  34.676  28.005  1.00  0.00     0.059 A 
ATOM     90  C   UNL A   1      47.940  33.942  30.291  1.00  0.00     0.059 A 
ATOM     91  F   UNL A   1      47.359  31.761  30.921  1.00  0.00    -0.206 F 
ATOM     92  C   UNL A   1      48.020  34.923  29.303  1.00  0.00     0.060 A 
BRANCH  92  93
ATOM     93  S   UNL A   1      48.692  36.553  29.688  1.00  0.00     0.124 S 
ATOM     94  O   UNL A   1      47.584  37.425  29.316  1.00  0.00    -0.237 OA
ATOM     95  O   UNL A   1      48.963  36.448  31.118  1.00  0.00    -0.237 OA
ATOM     96  O   UNL A   1      49.875  36.643  28.837  1.00  0.00    -0.744 OA
ENDBRANCH  92  93
ENDBRANCH  60  85
ENDBRANCH  34  35
ENDBRANCH  26  29
ENDBRANCH  24  25
ENDBRANCH  23  24
ENDBRANCH  22  23
ENDBRANCH   1  22
TORSDOF 20
ENDMDL
