MODEL 1
REMARK VINA RESULT:     -10.0      0.000      0.000
REMARK SMILES Cc1nnc(S[C@@H](C)CCO)c(C(=O)NCCCCCCNC(=O)c2ccc(-c3c4nc(c(-c5c(F)cc(S(=O)(=O)[O-])cc5F)c5ccc([nH]5)c(-c5c(F)cc(S(=O)(=O)[O-])cc5F)c5nc(c(-c6c(F)cc(S(=O)(=O)[O-])cc6F)c6ccc3[nH]6)C=C5)C=C4)cc2)c1C
REMARK SMILES IDX 17 1 16 2 15 3 13 4 14 5 12 7 1 8 2 9 3 10 91 11 4 12 92 13
REMARK SMILES IDX 5 14 6 15 7 16 8 17 9 18 10 19 11 20 18 22 19 23 20 24 21 25
REMARK SMILES IDX 22 26 23 27 24 29 25 30 26 31 90 32 27 33 89 34 28 35 29 36
REMARK SMILES IDX 30 37 83 38 31 39 88 40 82 41 84 42 32 43 87 44 81 45 80 46
REMARK SMILES IDX 33 48 67 49 46 50 66 51 47 52 50 53 65 54 85 55 48 56 49 57
REMARK SMILES IDX 64 59 86 60 51 61 34 62 35 63 44 64 36 65 37 66 43 67 45 68
REMARK SMILES IDX 38 69 39 70 40 71 41 72 42 73 68 74 69 75 78 76 70 77 71 78
REMARK SMILES IDX 77 79 79 80 72 81 73 82 74 83 75 84 76 85 52 86 53 87 62 88
REMARK SMILES IDX 54 89 55 90 61 91 63 92 56 93 57 94 58 95 59 96 60 97
REMARK H PARENT 15 6 11 21 22 28 84 47 50 58
REMARK Flexibility Score: inf
ROOT
ATOM      1  C   UNL A   1      31.669  24.263  26.799  1.00  0.00     0.021 C 
ENDROOT
BRANCH   1   2
ATOM      2  C   UNL A   1      31.545  25.768  26.582  1.00  0.00     0.116 C 
BRANCH   2   3
ATOM      3  N   UNL A   1      30.466  26.199  25.714  1.00  0.00    -0.352 N 
ATOM      4  C   UNL A   1      30.297  26.122  24.343  1.00  0.00     0.254 C 
ATOM      5  O   UNL A   1      29.147  26.240  23.933  1.00  0.00    -0.269 OA
ATOM      6  H   UNL A   1      29.716  26.625  26.187  1.00  0.00     0.163 HD
BRANCH   4   7
ATOM      7  C   UNL A   1      31.398  25.941  23.361  1.00  0.00     0.078 A 
ATOM      8  C   UNL A   1      33.388  23.236  21.483  1.00  0.00     0.069 C 
ATOM      9  C   UNL A   1      32.862  24.538  22.016  1.00  0.00     0.064 A 
ATOM     10  N   UNL A   1      33.488  25.626  21.554  1.00  0.00    -0.155 NA
ATOM     11  C   UNL A   1      31.799  24.641  22.923  1.00  0.00    -0.012 A 
ATOM     12  N   UNL A   1      33.027  26.863  21.886  1.00  0.00    -0.143 NA
ATOM     13  C   UNL A   1      31.107  23.363  23.320  1.00  0.00     0.047 C 
ATOM     14  C   UNL A   1      31.972  27.058  22.723  1.00  0.00     0.132 A 
BRANCH  14  15
ATOM     15  S   UNL A   1      31.504  28.766  22.491  1.00  0.00    -0.101 SA
BRANCH  15  16
ATOM     16  C   UNL A   1      30.391  29.453  23.773  1.00  0.00     0.052 C 
ATOM     17  C   UNL A   1      31.171  29.754  25.055  1.00  0.00     0.020 C 
BRANCH  16  18
ATOM     18  C   UNL A   1      29.337  30.483  23.354  1.00  0.00     0.043 C 
BRANCH  18  19
ATOM     19  C   UNL A   1      28.142  29.849  22.636  1.00  0.00     0.157 C 
BRANCH  19  20
ATOM     20  O   UNL A   1      27.879  28.545  23.146  1.00  0.00    -0.396 OA
ATOM     21  H   UNL A   1      26.946  28.481  23.405  1.00  0.00     0.210 HD
ENDBRANCH  19  20
ENDBRANCH  18  19
ENDBRANCH  16  18
ENDBRANCH  15  16
ENDBRANCH  14  15
ENDBRANCH   4   7
ENDBRANCH   2   3
ENDBRANCH   1   2
BRANCH   1  22
ATOM     22  C   UNL A   1      33.018  23.586  26.526  1.00  0.00     0.002 C 
BRANCH  22  23
ATOM     23  C   UNL A   1      34.024  24.264  25.591  1.00  0.00     0.002 C 
BRANCH  23  24
ATOM     24  C   UNL A   1      35.289  23.493  25.223  1.00  0.00     0.021 C 
BRANCH  24  25
ATOM     25  C   UNL A   1      36.562  23.919  25.938  1.00  0.00     0.116 C 
BRANCH  25  26
ATOM     26  N   UNL A   1      37.542  22.852  26.029  1.00  0.00    -0.352 N 
ATOM     27  C   UNL A   1      38.870  22.944  26.387  1.00  0.00     0.251 C 
ATOM     28  H   UNL A   1      37.217  21.950  25.807  1.00  0.00     0.163 HD
ATOM     29  O   UNL A   1      39.616  21.989  26.289  1.00  0.00    -0.269 OA
BRANCH  27  30
ATOM     30  C   UNL A   1      39.368  24.249  26.869  1.00  0.00     0.039 A 
ATOM     31  C   UNL A   1      39.322  24.528  28.234  1.00  0.00     0.014 A 
ATOM     32  C   UNL A   1      39.949  25.150  25.970  1.00  0.00     0.014 A 
ATOM     33  C   UNL A   1      39.907  25.701  28.709  1.00  0.00     0.010 A 
ATOM     34  C   UNL A   1      40.594  26.282  26.454  1.00  0.00     0.010 A 
ATOM     35  C   UNL A   1      40.565  26.575  27.826  1.00  0.00    -0.014 A 
BRANCH  35  36
ATOM     36  C   UNL A   1      41.174  27.830  28.327  1.00  0.00     0.031 A 
ATOM     37  C   UNL A   1      42.660  28.024  28.215  1.00  0.00     0.074 A 
ATOM     38  C   UNL A   1      40.397  28.783  28.877  1.00  0.00     0.049 A 
ATOM     39  N   UNL A   1      43.380  29.065  28.537  1.00  0.00    -0.248 NA
ATOM     40  C   UNL A   1      43.442  26.893  27.686  1.00  0.00     0.031 C 
ATOM     41  C   UNL A   1      38.951  28.684  29.075  1.00  0.00     0.029 A 
ATOM     42  N   UNL A   1      40.714  30.027  29.362  1.00  0.00    -0.354 N 
ATOM     43  C   UNL A   1      44.691  28.723  28.232  1.00  0.00     0.074 A 
ATOM     44  C   UNL A   1      44.681  27.352  27.779  1.00  0.00     0.031 C 
ATOM     45  C   UNL A   1      38.500  29.834  29.606  1.00  0.00     0.029 A 
ATOM     46  C   UNL A   1      39.627  30.743  29.805  1.00  0.00     0.049 A 
ATOM     47  H   UNL A   1      41.636  30.375  29.390  1.00  0.00     0.167 HD
ATOM     48  C   UNL A   1      45.800  29.498  28.285  1.00  0.00     0.037 A 
ATOM     49  C   UNL A   1      39.548  31.995  30.300  1.00  0.00     0.037 A 
ATOM     50  C   UNL A   1      45.798  30.865  28.726  1.00  0.00     0.049 A 
ATOM     51  C   UNL A   1      40.802  32.824  30.391  1.00  0.00     0.074 A 
ATOM     52  C   UNL A   1      46.858  31.750  28.780  1.00  0.00     0.029 A 
ATOM     53  N   UNL A   1      44.682  31.545  29.191  1.00  0.00    -0.354 N 
ATOM     54  N   UNL A   1      42.023  32.512  30.027  1.00  0.00    -0.248 NA
ATOM     55  C   UNL A   1      40.671  34.176  30.953  1.00  0.00     0.031 C 
ATOM     56  C   UNL A   1      46.394  32.950  29.326  1.00  0.00     0.029 A 
ATOM     57  C   UNL A   1      45.034  32.830  29.562  1.00  0.00     0.049 A 
ATOM     58  H   UNL A   1      43.773  31.169  29.247  1.00  0.00     0.167 HD
ATOM     59  C   UNL A   1      42.799  33.635  30.291  1.00  0.00     0.074 A 
ATOM     60  C   UNL A   1      41.910  34.637  30.838  1.00  0.00     0.031 C 
ATOM     61  C   UNL A   1      44.128  33.817  30.098  1.00  0.00     0.037 A 
BRANCH  48  62
ATOM     62  C   UNL A   1      47.096  28.890  27.832  1.00  0.00     0.058 A 
ATOM     63  C   UNL A   1      47.989  28.312  28.749  1.00  0.00     0.135 A 
ATOM     64  C   UNL A   1      47.431  28.842  26.470  1.00  0.00     0.135 A 
ATOM     65  F   UNL A   1      47.727  28.349  30.065  1.00  0.00    -0.206 F 
ATOM     66  C   UNL A   1      49.179  27.726  28.334  1.00  0.00     0.059 A 
ATOM     67  C   UNL A   1      48.604  28.235  26.029  1.00  0.00     0.059 A 
ATOM     68  F   UNL A   1      46.616  29.385  25.553  1.00  0.00    -0.206 F 
ATOM     69  C   UNL A   1      49.475  27.688  26.971  1.00  0.00     0.060 A 
BRANCH  69  70
ATOM     70  S   UNL A   1      51.016  26.906  26.450  1.00  0.00     0.124 S 
ATOM     71  O   UNL A   1      51.832  27.042  27.654  1.00  0.00    -0.237 OA
ATOM     72  O   UNL A   1      50.582  25.550  26.130  1.00  0.00    -0.237 OA
ATOM     73  O   UNL A   1      51.442  27.712  25.312  1.00  0.00    -0.744 OA
ENDBRANCH  69  70
ENDBRANCH  48  62
BRANCH  49  74
ATOM     74  C   UNL A   1      38.229  32.552  30.704  1.00  0.00     0.058 A 
ATOM     75  C   UNL A   1      37.768  32.430  32.022  1.00  0.00     0.135 A 
ATOM     76  C   UNL A   1      37.415  33.239  29.788  1.00  0.00     0.135 A 
ATOM     77  F   UNL A   1      38.505  31.776  32.933  1.00  0.00    -0.206 F 
ATOM     78  C   UNL A   1      36.545  32.960  32.421  1.00  0.00     0.059 A 
ATOM     79  C   UNL A   1      36.198  33.799  30.168  1.00  0.00     0.059 A 
ATOM     80  F   UNL A   1      37.816  33.398  28.518  1.00  0.00    -0.206 F 
ATOM     81  C   UNL A   1      35.769  33.649  31.486  1.00  0.00     0.060 A 
BRANCH  81  82
ATOM     82  S   UNL A   1      34.211  34.383  32.030  1.00  0.00     0.124 S 
ATOM     83  O   UNL A   1      34.670  35.612  32.666  1.00  0.00    -0.237 OA
ATOM     84  O   UNL A   1      33.495  34.545  30.767  1.00  0.00    -0.237 OA
ATOM     85  O   UNL A   1      33.659  33.374  32.929  1.00  0.00    -0.744 OA
ENDBRANCH  81  82
ENDBRANCH  49  74
BRANCH  61  86
ATOM     86  C   UNL A   1      44.719  35.149  30.467  1.00  0.00     0.058 A 
ATOM     87  C   UNL A   1      44.743  36.213  29.554  1.00  0.00     0.135 A 
ATOM     88  C   UNL A   1      45.146  35.399  31.782  1.00  0.00     0.135 A 
ATOM     89  F   UNL A   1      44.352  36.024  28.283  1.00  0.00    -0.206 F 
ATOM     90  C   UNL A   1      45.163  37.483  29.932  1.00  0.00     0.059 A 
ATOM     91  C   UNL A   1      45.545  36.668  32.189  1.00  0.00     0.059 A 
ATOM     92  F   UNL A   1      45.133  34.416  32.696  1.00  0.00    -0.206 F 
ATOM     93  C   UNL A   1      45.549  37.704  31.257  1.00  0.00     0.060 A 
BRANCH  93  94
ATOM     94  S   UNL A   1      46.007  39.379  31.750  1.00  0.00     0.124 S 
ATOM     95  O   UNL A   1      45.317  39.509  33.029  1.00  0.00    -0.237 OA
ATOM     96  O   UNL A   1      47.462  39.293  31.820  1.00  0.00    -0.237 OA
ATOM     97  O   UNL A   1      45.485  40.209  30.667  1.00  0.00    -0.744 OA
ENDBRANCH  93  94
ENDBRANCH  61  86
ENDBRANCH  35  36
ENDBRANCH  27  30
ENDBRANCH  25  26
ENDBRANCH  24  25
ENDBRANCH  23  24
ENDBRANCH  22  23
ENDBRANCH   1  22
TORSDOF 21
ENDMDL
MODEL 2
REMARK VINA RESULT:      -9.5      1.101      8.325
REMARK SMILES Cc1nnc(S[C@@H](C)CCO)c(C(=O)NCCCCCCNC(=O)c2ccc(-c3c4nc(c(-c5c(F)cc(S(=O)(=O)[O-])cc5F)c5ccc([nH]5)c(-c5c(F)cc(S(=O)(=O)[O-])cc5F)c5nc(c(-c6c(F)cc(S(=O)(=O)[O-])cc6F)c6ccc3[nH]6)C=C5)C=C4)cc2)c1C
REMARK SMILES IDX 17 1 16 2 15 3 13 4 14 5 12 7 1 8 2 9 3 10 91 11 4 12 92 13
REMARK SMILES IDX 5 14 6 15 7 16 8 17 9 18 10 19 11 20 18 22 19 23 20 24 21 25
REMARK SMILES IDX 22 26 23 27 24 29 25 30 26 31 90 32 27 33 89 34 28 35 29 36
REMARK SMILES IDX 30 37 83 38 31 39 88 40 82 41 84 42 32 43 87 44 81 45 80 46
REMARK SMILES IDX 33 48 67 49 46 50 66 51 47 52 50 53 65 54 85 55 48 56 49 57
REMARK SMILES IDX 64 59 86 60 51 61 34 62 35 63 44 64 36 65 37 66 43 67 45 68
REMARK SMILES IDX 38 69 39 70 40 71 41 72 42 73 68 74 69 75 78 76 70 77 71 78
REMARK SMILES IDX 77 79 79 80 72 81 73 82 74 83 75 84 76 85 52 86 53 87 62 88
REMARK SMILES IDX 54 89 55 90 61 91 63 92 56 93 57 94 58 95 59 96 60 97
REMARK H PARENT 15 6 11 21 22 28 84 47 50 58
REMARK Flexibility Score: inf
ROOT
ATOM      1  C   UNL A   1      31.577  24.196  26.568  1.00  0.00     0.021 C 
ENDROOT
BRANCH   1   2
ATOM      2  C   UNL A   1      31.270  25.690  26.573  1.00  0.00     0.116 C 
BRANCH   2   3
ATOM      3  N   UNL A   1      30.244  26.133  25.648  1.00  0.00    -0.352 N 
ATOM      4  C   UNL A   1      30.170  26.096  24.267  1.00  0.00     0.254 C 
ATOM      5  O   UNL A   1      29.048  26.210  23.784  1.00  0.00    -0.269 OA
ATOM      6  H   UNL A   1      29.458  26.533  26.082  1.00  0.00     0.163 HD
BRANCH   4   7
ATOM      7  C   UNL A   1      31.336  25.962  23.357  1.00  0.00     0.078 A 
ATOM      8  C   UNL A   1      33.426  23.355  21.449  1.00  0.00     0.069 C 
ATOM      9  C   UNL A   1      32.878  24.627  22.029  1.00  0.00     0.064 A 
ATOM     10  N   UNL A   1      33.549  25.734  21.687  1.00  0.00    -0.155 NA
ATOM     11  C   UNL A   1      31.753  24.688  22.862  1.00  0.00    -0.012 A 
ATOM     12  N   UNL A   1      33.078  26.953  22.067  1.00  0.00    -0.143 NA
ATOM     13  C   UNL A   1      31.020  23.398  23.123  1.00  0.00     0.047 C 
ATOM     14  C   UNL A   1      31.968  27.110  22.837  1.00  0.00     0.132 A 
BRANCH  14  15
ATOM     15  S   UNL A   1      31.538  28.837  22.688  1.00  0.00    -0.101 SA
BRANCH  15  16
ATOM     16  C   UNL A   1      30.343  29.456  23.930  1.00  0.00     0.052 C 
ATOM     17  C   UNL A   1      31.060  30.296  24.991  1.00  0.00     0.020 C 
BRANCH  16  18
ATOM     18  C   UNL A   1      28.985  29.976  23.447  1.00  0.00     0.043 C 
BRANCH  18  19
ATOM     19  C   UNL A   1      29.000  31.477  23.143  1.00  0.00     0.157 C 
BRANCH  19  20
ATOM     20  O   UNL A   1      29.613  31.731  21.882  1.00  0.00    -0.396 OA
ATOM     21  H   UNL A   1      29.102  31.299  21.180  1.00  0.00     0.210 HD
ENDBRANCH  19  20
ENDBRANCH  18  19
ENDBRANCH  16  18
ENDBRANCH  15  16
ENDBRANCH  14  15
ENDBRANCH   4   7
ENDBRANCH   2   3
ENDBRANCH   1   2
BRANCH   1  22
ATOM     22  C   UNL A   1      32.991  23.734  26.194  1.00  0.00     0.002 C 
BRANCH  22  23
ATOM     23  C   UNL A   1      34.023  24.768  25.734  1.00  0.00     0.002 C 
BRANCH  23  24
ATOM     24  C   UNL A   1      35.354  24.256  25.191  1.00  0.00     0.021 C 
BRANCH  24  25
ATOM     25  C   UNL A   1      36.487  24.142  26.200  1.00  0.00     0.116 C 
BRANCH  25  26
ATOM     26  N   UNL A   1      37.213  22.889  26.095  1.00  0.00    -0.352 N 
ATOM     27  C   UNL A   1      38.567  22.674  26.242  1.00  0.00     0.251 C 
ATOM     28  H   UNL A   1      36.670  22.094  25.894  1.00  0.00     0.163 HD
ATOM     29  O   UNL A   1      39.064  21.593  25.993  1.00  0.00    -0.269 OA
BRANCH  27  30
ATOM     30  C   UNL A   1      39.403  23.808  26.689  1.00  0.00     0.039 A 
ATOM     31  C   UNL A   1      39.776  24.779  25.760  1.00  0.00     0.014 A 
ATOM     32  C   UNL A   1      39.739  23.938  28.040  1.00  0.00     0.014 A 
ATOM     33  C   UNL A   1      40.454  25.916  26.199  1.00  0.00     0.010 A 
ATOM     34  C   UNL A   1      40.350  25.105  28.485  1.00  0.00     0.010 A 
ATOM     35  C   UNL A   1      40.726  26.097  27.566  1.00  0.00    -0.014 A 
BRANCH  35  36
ATOM     36  C   UNL A   1      41.460  27.296  28.033  1.00  0.00     0.031 A 
ATOM     37  C   UNL A   1      40.690  28.463  28.584  1.00  0.00     0.074 A 
ATOM     38  C   UNL A   1      42.805  27.335  27.960  1.00  0.00     0.049 A 
ATOM     39  N   UNL A   1      41.140  29.578  29.096  1.00  0.00    -0.248 NA
ATOM     40  C   UNL A   1      39.220  28.373  28.540  1.00  0.00     0.031 C 
ATOM     41  C   UNL A   1      43.652  26.278  27.406  1.00  0.00     0.029 A 
ATOM     42  N   UNL A   1      43.697  28.297  28.364  1.00  0.00    -0.354 N 
ATOM     43  C   UNL A   1      40.014  30.309  29.451  1.00  0.00     0.074 A 
ATOM     44  C   UNL A   1      38.860  29.552  29.023  1.00  0.00     0.031 C 
ATOM     45  C   UNL A   1      44.941  26.634  27.537  1.00  0.00     0.029 A 
ATOM     46  C   UNL A   1      45.013  27.951  28.167  1.00  0.00     0.049 A 
ATOM     47  H   UNL A   1      43.420  29.156  28.759  1.00  0.00     0.167 HD
ATOM     48  C   UNL A   1      39.947  31.486  30.114  1.00  0.00     0.037 A 
ATOM     49  C   UNL A   1      46.146  28.614  28.473  1.00  0.00     0.037 A 
ATOM     50  C   UNL A   1      41.100  32.226  30.548  1.00  0.00     0.049 A 
ATOM     51  C   UNL A   1      46.046  29.944  29.171  1.00  0.00     0.074 A 
ATOM     52  C   UNL A   1      41.141  33.409  31.261  1.00  0.00     0.029 A 
ATOM     53  N   UNL A   1      42.414  31.855  30.305  1.00  0.00    -0.354 N 
ATOM     54  N   UNL A   1      44.974  30.586  29.569  1.00  0.00    -0.248 NA
ATOM     55  C   UNL A   1      47.307  30.640  29.470  1.00  0.00     0.031 C 
ATOM     56  C   UNL A   1      42.481  33.781  31.406  1.00  0.00     0.029 A 
ATOM     57  C   UNL A   1      43.275  32.802  30.830  1.00  0.00     0.049 A 
ATOM     58  H   UNL A   1      42.693  31.038  29.831  1.00  0.00     0.167 HD
ATOM     59  C   UNL A   1      45.430  31.746  30.186  1.00  0.00     0.074 A 
ATOM     60  C   UNL A   1      46.876  31.714  30.118  1.00  0.00     0.031 C 
ATOM     61  C   UNL A   1      44.715  32.746  30.757  1.00  0.00     0.037 A 
BRANCH  48  62
ATOM     62  C   UNL A   1      38.583  32.031  30.431  1.00  0.00     0.058 A 
ATOM     63  C   UNL A   1      37.853  31.568  31.538  1.00  0.00     0.135 A 
ATOM     64  C   UNL A   1      38.018  33.053  29.653  1.00  0.00     0.135 A 
ATOM     65  F   UNL A   1      38.339  30.578  32.304  1.00  0.00    -0.206 F 
ATOM     66  C   UNL A   1      36.602  32.086  31.851  1.00  0.00     0.059 A 
ATOM     67  C   UNL A   1      36.779  33.604  29.964  1.00  0.00     0.059 A 
ATOM     68  F   UNL A   1      38.671  33.525  28.580  1.00  0.00    -0.206 F 
ATOM     69  C   UNL A   1      36.075  33.107  31.060  1.00  0.00     0.060 A 
BRANCH  69  70
ATOM     70  S   UNL A   1      34.456  33.778  31.494  1.00  0.00     0.124 S 
ATOM     71  O   UNL A   1      33.954  32.756  32.408  1.00  0.00    -0.237 OA
ATOM     72  O   UNL A   1      34.806  35.057  32.105  1.00  0.00    -0.237 OA
ATOM     73  O   UNL A   1      33.767  33.865  30.212  1.00  0.00    -0.744 OA
ENDBRANCH  69  70
ENDBRANCH  48  62
BRANCH  49  74
ATOM     74  C   UNL A   1      47.468  28.008  28.161  1.00  0.00     0.058 A 
ATOM     75  C   UNL A   1      48.059  28.176  26.900  1.00  0.00     0.135 A 
ATOM     76  C   UNL A   1      48.180  27.273  29.122  1.00  0.00     0.135 A 
ATOM     77  F   UNL A   1      47.416  28.864  25.945  1.00  0.00    -0.206 F 
ATOM     78  C   UNL A   1      49.303  27.631  26.597  1.00  0.00     0.059 A 
ATOM     79  C   UNL A   1      49.437  26.737  28.851  1.00  0.00     0.059 A 
ATOM     80  F   UNL A   1      47.668  27.095  30.350  1.00  0.00    -0.206 F 
ATOM     81  C   UNL A   1      49.987  26.917  27.583  1.00  0.00     0.060 A 
BRANCH  81  82
ATOM     82  S   UNL A   1      51.627  26.265  27.196  1.00  0.00     0.124 S 
ATOM     83  O   UNL A   1      52.303  26.385  28.483  1.00  0.00    -0.237 OA
ATOM     84  O   UNL A   1      51.317  24.907  26.760  1.00  0.00    -0.237 OA
ATOM     85  O   UNL A   1      52.104  27.160  26.146  1.00  0.00    -0.744 OA
ENDBRANCH  81  82
ENDBRANCH  49  74
BRANCH  61  86
ATOM     86  C   UNL A   1      45.469  33.894  31.368  1.00  0.00     0.058 A 
ATOM     87  C   UNL A   1      45.750  35.055  30.632  1.00  0.00     0.135 A 
ATOM     88  C   UNL A   1      45.797  33.884  32.734  1.00  0.00     0.135 A 
ATOM     89  F   UNL A   1      45.463  35.111  29.321  1.00  0.00    -0.206 F 
ATOM     90  C   UNL A   1      46.326  36.170  31.230  1.00  0.00     0.059 A 
ATOM     91  C   UNL A   1      46.348  34.998  33.358  1.00  0.00     0.059 A 
ATOM     92  F   UNL A   1      45.538  32.801  33.483  1.00  0.00    -0.206 F 
ATOM     93  C   UNL A   1      46.608  36.137  32.598  1.00  0.00     0.060 A 
BRANCH  93  94
ATOM     94  S   UNL A   1      47.273  37.625  33.374  1.00  0.00     0.124 S 
ATOM     95  O   UNL A   1      48.708  37.428  33.209  1.00  0.00    -0.237 OA
ATOM     96  O   UNL A   1      46.680  38.685  32.564  1.00  0.00    -0.237 OA
ATOM     97  O   UNL A   1      46.781  37.543  34.746  1.00  0.00    -0.744 OA
ENDBRANCH  93  94
ENDBRANCH  61  86
ENDBRANCH  35  36
ENDBRANCH  27  30
ENDBRANCH  25  26
ENDBRANCH  24  25
ENDBRANCH  23  24
ENDBRANCH  22  23
ENDBRANCH   1  22
TORSDOF 21
ENDMDL
MODEL 3
REMARK VINA RESULT:      -9.5      2.580      8.315
REMARK SMILES Cc1nnc(S[C@@H](C)CCO)c(C(=O)NCCCCCCNC(=O)c2ccc(-c3c4nc(c(-c5c(F)cc(S(=O)(=O)[O-])cc5F)c5ccc([nH]5)c(-c5c(F)cc(S(=O)(=O)[O-])cc5F)c5nc(c(-c6c(F)cc(S(=O)(=O)[O-])cc6F)c6ccc3[nH]6)C=C5)C=C4)cc2)c1C
REMARK SMILES IDX 17 1 16 2 15 3 13 4 14 5 12 7 1 8 2 9 3 10 91 11 4 12 92 13
REMARK SMILES IDX 5 14 6 15 7 16 8 17 9 18 10 19 11 20 18 22 19 23 20 24 21 25
REMARK SMILES IDX 22 26 23 27 24 29 25 30 26 31 90 32 27 33 89 34 28 35 29 36
REMARK SMILES IDX 30 37 83 38 31 39 88 40 82 41 84 42 32 43 87 44 81 45 80 46
REMARK SMILES IDX 33 48 67 49 46 50 66 51 47 52 50 53 65 54 85 55 48 56 49 57
REMARK SMILES IDX 64 59 86 60 51 61 34 62 35 63 44 64 36 65 37 66 43 67 45 68
REMARK SMILES IDX 38 69 39 70 40 71 41 72 42 73 68 74 69 75 78 76 70 77 71 78
REMARK SMILES IDX 77 79 79 80 72 81 73 82 74 83 75 84 76 85 52 86 53 87 62 88
REMARK SMILES IDX 54 89 55 90 61 91 63 92 56 93 57 94 58 95 59 96 60 97
REMARK H PARENT 15 6 11 21 22 28 84 47 50 58
REMARK Flexibility Score: inf
ROOT
ATOM      1  C   UNL A   1      31.349  24.412  26.404  1.00  0.00     0.021 C 
ENDROOT
BRANCH   1   2
ATOM      2  C   UNL A   1      30.945  25.883  26.433  1.00  0.00     0.116 C 
BRANCH   2   3
ATOM      3  N   UNL A   1      29.970  26.296  25.442  1.00  0.00    -0.352 N 
ATOM      4  C   UNL A   1      29.965  26.208  24.062  1.00  0.00     0.254 C 
ATOM      5  O   UNL A   1      28.870  26.309  23.518  1.00  0.00    -0.269 OA
ATOM      6  H   UNL A   1      29.165  26.715  25.821  1.00  0.00     0.163 HD
BRANCH   4   7
ATOM      7  C   UNL A   1      31.175  26.036  23.217  1.00  0.00     0.078 A 
ATOM      8  C   UNL A   1      33.389  23.347  21.582  1.00  0.00     0.069 C 
ATOM      9  C   UNL A   1      32.797  24.644  22.052  1.00  0.00     0.064 A 
ATOM     10  N   UNL A   1      33.467  25.737  21.670  1.00  0.00    -0.155 NA
ATOM     11  C   UNL A   1      31.633  24.740  22.826  1.00  0.00    -0.012 A 
ATOM     12  N   UNL A   1      32.963  26.971  21.948  1.00  0.00    -0.143 NA
ATOM     13  C   UNL A   1      30.906  23.457  23.136  1.00  0.00     0.047 C 
ATOM     14  C   UNL A   1      31.815  27.158  22.654  1.00  0.00     0.132 A 
BRANCH  14  15
ATOM     15  S   UNL A   1      31.369  28.864  22.372  1.00  0.00    -0.101 SA
BRANCH  15  16
ATOM     16  C   UNL A   1      30.253  29.598  23.625  1.00  0.00     0.052 C 
ATOM     17  C   UNL A   1      31.002  29.832  24.939  1.00  0.00     0.020 C 
BRANCH  16  18
ATOM     18  C   UNL A   1      29.279  30.696  23.187  1.00  0.00     0.043 C 
BRANCH  18  19
ATOM     19  C   UNL A   1      27.813  30.266  23.296  1.00  0.00     0.157 C 
BRANCH  19  20
ATOM     20  O   UNL A   1      27.003  31.343  23.759  1.00  0.00    -0.396 OA
ATOM     21  H   UNL A   1      26.755  31.186  24.684  1.00  0.00     0.210 HD
ENDBRANCH  19  20
ENDBRANCH  18  19
ENDBRANCH  16  18
ENDBRANCH  15  16
ENDBRANCH  14  15
ENDBRANCH   4   7
ENDBRANCH   2   3
ENDBRANCH   1   2
BRANCH   1  22
ATOM     22  C   UNL A   1      32.834  24.056  26.259  1.00  0.00     0.002 C 
BRANCH  22  23
ATOM     23  C   UNL A   1      33.780  25.046  25.574  1.00  0.00     0.002 C 
BRANCH  23  24
ATOM     24  C   UNL A   1      35.129  24.524  25.086  1.00  0.00     0.021 C 
BRANCH  24  25
ATOM     25  C   UNL A   1      36.129  24.144  26.167  1.00  0.00     0.116 C 
BRANCH  25  26
ATOM     26  N   UNL A   1      37.008  23.061  25.769  1.00  0.00    -0.352 N 
ATOM     27  C   UNL A   1      38.375  22.972  25.924  1.00  0.00     0.251 C 
ATOM     28  H   UNL A   1      36.574  22.293  25.332  1.00  0.00     0.163 HD
ATOM     29  O   UNL A   1      39.009  22.066  25.419  1.00  0.00    -0.269 OA
BRANCH  27  30
ATOM     30  C   UNL A   1      39.053  24.030  26.702  1.00  0.00     0.039 A 
ATOM     31  C   UNL A   1      39.874  24.939  26.035  1.00  0.00     0.014 A 
ATOM     32  C   UNL A   1      38.802  24.158  28.072  1.00  0.00     0.014 A 
ATOM     33  C   UNL A   1      40.412  26.015  26.740  1.00  0.00     0.010 A 
ATOM     34  C   UNL A   1      39.280  25.271  28.755  1.00  0.00     0.010 A 
ATOM     35  C   UNL A   1      40.102  26.200  28.099  1.00  0.00    -0.014 A 
BRANCH  35  36
ATOM     36  C   UNL A   1      40.685  27.334  28.854  1.00  0.00     0.031 A 
ATOM     37  C   UNL A   1      39.880  28.590  29.036  1.00  0.00     0.074 A 
ATOM     38  C   UNL A   1      41.926  27.234  29.368  1.00  0.00     0.049 A 
ATOM     39  N   UNL A   1      40.180  29.669  29.708  1.00  0.00    -0.248 NA
ATOM     40  C   UNL A   1      38.571  28.647  28.362  1.00  0.00     0.031 C 
ATOM     41  C   UNL A   1      42.813  26.080  29.217  1.00  0.00     0.029 A 
ATOM     42  N   UNL A   1      42.653  28.113  30.131  1.00  0.00    -0.354 N 
ATOM     43  C   UNL A   1      39.094  30.521  29.554  1.00  0.00     0.074 A 
ATOM     44  C   UNL A   1      38.165  29.871  28.659  1.00  0.00     0.031 C 
ATOM     45  C   UNL A   1      43.950  26.308  29.897  1.00  0.00     0.029 A 
ATOM     46  C   UNL A   1      43.881  27.630  30.515  1.00  0.00     0.049 A 
ATOM     47  H   UNL A   1      42.324  29.008  30.381  1.00  0.00     0.167 HD
ATOM     48  C   UNL A   1      38.872  31.720  30.141  1.00  0.00     0.037 A 
ATOM     49  C   UNL A   1      44.835  28.185  31.289  1.00  0.00     0.037 A 
ATOM     50  C   UNL A   1      39.797  32.353  31.040  1.00  0.00     0.049 A 
ATOM     51  C   UNL A   1      44.585  29.540  31.896  1.00  0.00     0.074 A 
ATOM     52  C   UNL A   1      39.652  33.548  31.718  1.00  0.00     0.029 A 
ATOM     53  N   UNL A   1      41.041  31.843  31.382  1.00  0.00    -0.354 N 
ATOM     54  N   UNL A   1      43.520  30.300  31.803  1.00  0.00    -0.248 NA
ATOM     55  C   UNL A   1      45.660  30.114  32.720  1.00  0.00     0.031 C 
ATOM     56  C   UNL A   1      40.829  33.787  32.433  1.00  0.00     0.029 A 
ATOM     57  C   UNL A   1      41.687  32.715  32.241  1.00  0.00     0.049 A 
ATOM     58  H   UNL A   1      41.410  30.988  31.062  1.00  0.00     0.167 HD
ATOM     59  C   UNL A   1      43.785  31.427  32.573  1.00  0.00     0.074 A 
ATOM     60  C   UNL A   1      45.108  31.247  33.134  1.00  0.00     0.031 C 
ATOM     61  C   UNL A   1      43.003  32.512  32.795  1.00  0.00     0.037 A 
BRANCH  48  62
ATOM     62  C   UNL A   1      37.570  32.409  29.847  1.00  0.00     0.058 A 
ATOM     63  C   UNL A   1      36.380  32.018  30.481  1.00  0.00     0.135 A 
ATOM     64  C   UNL A   1      37.515  33.496  28.961  1.00  0.00     0.135 A 
ATOM     65  F   UNL A   1      36.372  30.971  31.322  1.00  0.00    -0.206 F 
ATOM     66  C   UNL A   1      35.176  32.667  30.232  1.00  0.00     0.059 A 
ATOM     67  C   UNL A   1      36.327  34.179  28.718  1.00  0.00     0.059 A 
ATOM     68  F   UNL A   1      38.623  33.905  28.324  1.00  0.00    -0.206 F 
ATOM     69  C   UNL A   1      35.162  33.750  29.352  1.00  0.00     0.060 A 
BRANCH  69  70
ATOM     70  S   UNL A   1      33.593  34.593  29.057  1.00  0.00     0.124 S 
ATOM     71  O   UNL A   1      34.047  35.879  28.536  1.00  0.00    -0.237 OA
ATOM     72  O   UNL A   1      32.946  33.711  28.090  1.00  0.00    -0.237 OA
ATOM     73  O   UNL A   1      32.974  34.635  30.377  1.00  0.00    -0.744 OA
ENDBRANCH  69  70
ENDBRANCH  48  62
BRANCH  49  74
ATOM     74  C   UNL A   1      46.092  27.439  31.569  1.00  0.00     0.058 A 
ATOM     75  C   UNL A   1      47.204  27.557  30.723  1.00  0.00     0.135 A 
ATOM     76  C   UNL A   1      46.217  26.615  32.699  1.00  0.00     0.135 A 
ATOM     77  F   UNL A   1      47.133  28.327  29.626  1.00  0.00    -0.206 F 
ATOM     78  C   UNL A   1      48.393  26.881  30.979  1.00  0.00     0.059 A 
ATOM     79  C   UNL A   1      47.403  25.946  32.990  1.00  0.00     0.059 A 
ATOM     80  F   UNL A   1      45.188  26.479  33.550  1.00  0.00    -0.206 F 
ATOM     81  C   UNL A   1      48.483  26.081  32.120  1.00  0.00     0.060 A 
BRANCH  81  82
ATOM     82  S   UNL A   1      50.050  25.255  32.473  1.00  0.00     0.124 S 
ATOM     83  O   UNL A   1      49.641  24.248  33.445  1.00  0.00    -0.237 OA
ATOM     84  O   UNL A   1      50.433  24.755  31.156  1.00  0.00    -0.237 OA
ATOM     85  O   UNL A   1      50.888  26.331  32.994  1.00  0.00    -0.744 OA
ENDBRANCH  81  82
ENDBRANCH  49  74
BRANCH  61  86
ATOM     86  C   UNL A   1      43.537  33.597  33.687  1.00  0.00     0.058 A 
ATOM     87  C   UNL A   1      44.287  34.663  33.169  1.00  0.00     0.135 A 
ATOM     88  C   UNL A   1      43.186  33.637  35.047  1.00  0.00     0.135 A 
ATOM     89  F   UNL A   1      44.655  34.667  31.878  1.00  0.00    -0.206 F 
ATOM     90  C   UNL A   1      44.667  35.736  33.967  1.00  0.00     0.059 A 
ATOM     91  C   UNL A   1      43.531  34.714  35.857  1.00  0.00     0.059 A 
ATOM     92  F   UNL A   1      42.459  32.646  35.587  1.00  0.00    -0.206 F 
ATOM     93  C   UNL A   1      44.271  35.760  35.307  1.00  0.00     0.060 A 
BRANCH  93  94
ATOM     94  S   UNL A   1      44.697  37.204  36.304  1.00  0.00     0.124 S 
ATOM     95  O   UNL A   1      44.265  36.784  37.632  1.00  0.00    -0.237 OA
ATOM     96  O   UNL A   1      46.141  37.298  36.106  1.00  0.00    -0.237 OA
ATOM     97  O   UNL A   1      43.916  38.278  35.698  1.00  0.00    -0.744 OA
ENDBRANCH  93  94
ENDBRANCH  61  86
ENDBRANCH  35  36
ENDBRANCH  27  30
ENDBRANCH  25  26
ENDBRANCH  24  25
ENDBRANCH  23  24
ENDBRANCH  22  23
ENDBRANCH   1  22
TORSDOF 21
ENDMDL
