MODEL 1
REMARK VINA RESULT:     -12.6      0.000      0.000
REMARK SMILES Cc1ccnc(C(=O)c2[nH]c3ccc(C(C)(C)C)cc3c2CC(=O)NCCCCCCNC(=O)c2ccc(-c3c4nc(c(-c5c(F)cc(S(=O)(=O)[O-])cc5F)c5ccc([nH]5)c(-c5c(F)cc(S(=O)(=O)[O-])cc5F)c5nc(c(-c6c(F)cc(S(=O)(=O)[O-])cc6F)c6ccc3[nH]6)C=C5)C=C4)cc2)c1
REMARK SMILES IDX 28 1 27 2 26 3 25 4 23 5 24 6 22 8 21 9 9 10 10 11 11 12
REMARK SMILES IDX 20 14 12 15 19 16 13 17 14 18 7 19 8 20 6 21 1 22 2 23 3 24
REMARK SMILES IDX 101 25 4 26 5 27 15 28 16 29 17 30 18 31 29 32 30 33 31 34
REMARK SMILES IDX 32 35 33 36 34 38 35 39 36 40 100 41 37 42 99 43 38 44 39 45
REMARK SMILES IDX 40 46 93 47 41 48 98 49 92 50 94 51 42 52 97 53 91 54 90 55
REMARK SMILES IDX 43 57 77 58 56 59 76 60 57 61 60 62 75 63 95 64 58 65 59 66
REMARK SMILES IDX 74 68 96 69 61 70 44 71 45 72 54 73 46 74 47 75 53 76 55 77
REMARK SMILES IDX 48 78 49 79 50 80 51 81 52 82 78 83 79 84 88 85 80 86 81 87
REMARK SMILES IDX 87 88 89 89 82 90 83 91 84 92 85 93 86 94 62 95 63 96 72 97
REMARK SMILES IDX 64 98 65 99 71 100 73 101 66 102 67 103 68 104 69 105 70 106
REMARK H PARENT 25 7 10 13 32 37 94 56 60 67
REMARK Flexibility Score: inf
ROOT
ATOM      1  C   UNL A   1      35.474  24.231  24.275  1.00  0.00     0.002 C 
ENDROOT
BRANCH   1   2
ATOM      2  C   UNL A   1      34.738  24.146  22.933  1.00  0.00     0.021 C 
BRANCH   2   3
ATOM      3  C   UNL A   1      33.480  25.008  22.831  1.00  0.00     0.116 C 
BRANCH   3   4
ATOM      4  N   UNL A   1      33.749  26.421  23.014  1.00  0.00    -0.356 N 
ATOM      5  C   UNL A   1      33.568  27.200  24.121  1.00  0.00     0.224 C 
ATOM      6  O   UNL A   1      33.999  28.357  24.097  1.00  0.00    -0.275 OA
ATOM      7  H   UNL A   1      34.115  26.886  22.226  1.00  0.00     0.163 HD
BRANCH   5   8
ATOM      8  C   UNL A   1      32.964  26.622  25.390  1.00  0.00     0.138 C 
BRANCH   8   9
ATOM      9  C   UNL A   1      31.546  26.142  25.265  1.00  0.00    -0.002 A 
ATOM     10  C   UNL A   1      31.012  24.940  25.721  1.00  0.00     0.093 A 
ATOM     11  N   UNL A   1      29.667  24.952  25.432  1.00  0.00    -0.352 N 
ATOM     12  C   UNL A   1      29.333  26.072  24.714  1.00  0.00     0.046 A 
ATOM     13  H   UNL A   1      29.031  24.251  25.703  1.00  0.00     0.167 HD
ATOM     14  C   UNL A   1      30.487  26.834  24.584  1.00  0.00     0.004 A 
ATOM     15  C   UNL A   1      28.102  26.471  24.191  1.00  0.00     0.027 A 
ATOM     16  C   UNL A   1      30.400  28.057  23.881  1.00  0.00     0.015 A 
ATOM     17  C   UNL A   1      28.047  27.693  23.507  1.00  0.00     0.006 A 
ATOM     18  C   UNL A   1      29.177  28.507  23.335  1.00  0.00    -0.042 A 
BRANCH  10  19
ATOM     19  C   UNL A   1      31.650  23.850  26.437  1.00  0.00     0.227 C 
ATOM     20  O   UNL A   1      31.649  23.805  27.662  1.00  0.00    -0.285 OA
BRANCH  19  21
ATOM     21  C   UNL A   1      32.273  22.738  25.626  1.00  0.00     0.113 A 
ATOM     22  C   UNL A   1      31.940  20.937  22.300  1.00  0.00     0.044 C 
ATOM     23  C   UNL A   1      32.404  21.337  23.670  1.00  0.00    -0.047 A 
ATOM     24  C   UNL A   1      33.467  20.666  24.276  1.00  0.00     0.023 A 
ATOM     25  C   UNL A   1      31.811  22.405  24.351  1.00  0.00     0.036 A 
ATOM     26  C   UNL A   1      33.874  21.069  25.537  1.00  0.00     0.112 A 
ATOM     27  N   UNL A   1      33.297  22.075  26.224  1.00  0.00    -0.253 NA
ENDBRANCH  19  21
ENDBRANCH  10  19
BRANCH  18  28
ATOM     28  C   UNL A   1      29.119  29.861  22.603  1.00  0.00    -0.013 C 
ATOM     29  C   UNL A   1      27.798  29.958  21.810  1.00  0.00     0.016 C 
ATOM     30  C   UNL A   1      29.181  31.016  23.628  1.00  0.00     0.016 C 
ATOM     31  C   UNL A   1      30.275  30.082  21.601  1.00  0.00     0.016 C 
ENDBRANCH  18  28
ENDBRANCH   8   9
ENDBRANCH   5   8
ENDBRANCH   3   4
ENDBRANCH   2   3
ENDBRANCH   1   2
BRANCH   1  32
ATOM     32  C   UNL A   1      36.727  23.360  24.407  1.00  0.00     0.002 C 
BRANCH  32  33
ATOM     33  C   UNL A   1      37.235  23.122  25.833  1.00  0.00     0.021 C 
BRANCH  33  34
ATOM     34  C   UNL A   1      38.171  24.195  26.394  1.00  0.00     0.116 C 
BRANCH  34  35
ATOM     35  N   UNL A   1      39.563  23.947  26.067  1.00  0.00    -0.352 N 
ATOM     36  C   UNL A   1      40.687  24.599  26.508  1.00  0.00     0.251 C 
ATOM     37  H   UNL A   1      39.723  23.205  25.440  1.00  0.00     0.163 HD
ATOM     38  O   UNL A   1      41.778  24.334  26.008  1.00  0.00    -0.269 OA
BRANCH  36  39
ATOM     39  C   UNL A   1      40.596  25.636  27.563  1.00  0.00     0.039 A 
ATOM     40  C   UNL A   1      41.526  26.682  27.545  1.00  0.00     0.014 A 
ATOM     41  C   UNL A   1      39.655  25.554  28.595  1.00  0.00     0.014 A 
ATOM     42  C   UNL A   1      41.489  27.668  28.535  1.00  0.00     0.010 A 
ATOM     43  C   UNL A   1      39.610  26.549  29.576  1.00  0.00     0.010 A 
ATOM     44  C   UNL A   1      40.525  27.612  29.552  1.00  0.00    -0.014 A 
BRANCH  44  45
ATOM     45  C   UNL A   1      40.464  28.663  30.594  1.00  0.00     0.031 A 
ATOM     46  C   UNL A   1      41.402  28.631  31.764  1.00  0.00     0.074 A 
ATOM     47  C   UNL A   1      39.538  29.635  30.505  1.00  0.00     0.049 A 
ATOM     48  N   UNL A   1      41.413  29.388  32.831  1.00  0.00    -0.248 NA
ATOM     49  C   UNL A   1      42.457  27.606  31.737  1.00  0.00     0.031 C 
ATOM     50  C   UNL A   1      38.564  29.779  29.423  1.00  0.00     0.029 A 
ATOM     51  N   UNL A   1      39.262  30.682  31.347  1.00  0.00    -0.354 N 
ATOM     52  C   UNL A   1      42.445  28.908  33.625  1.00  0.00     0.074 A 
ATOM     53  C   UNL A   1      43.058  27.810  32.902  1.00  0.00     0.031 C 
ATOM     54  C   UNL A   1      37.799  30.856  29.664  1.00  0.00     0.029 A 
ATOM     55  C   UNL A   1      38.220  31.468  30.923  1.00  0.00     0.049 A 
ATOM     56  H   UNL A   1      39.764  30.854  32.177  1.00  0.00     0.167 HD
ATOM     57  C   UNL A   1      42.835  29.330  34.852  1.00  0.00     0.037 A 
ATOM     58  C   UNL A   1      37.660  32.555  31.488  1.00  0.00     0.037 A 
ATOM     59  C   UNL A   1      42.245  30.429  35.569  1.00  0.00     0.049 A 
ATOM     60  C   UNL A   1      38.182  33.071  32.795  1.00  0.00     0.074 A 
ATOM     61  C   UNL A   1      42.528  30.883  36.846  1.00  0.00     0.029 A 
ATOM     62  N   UNL A   1      41.263  31.264  35.058  1.00  0.00    -0.354 N 
ATOM     63  N   UNL A   1      39.118  32.566  33.562  1.00  0.00    -0.248 NA
ATOM     64  C   UNL A   1      37.576  34.306  33.311  1.00  0.00     0.031 C 
ATOM     65  C   UNL A   1      41.721  32.003  37.102  1.00  0.00     0.029 A 
ATOM     66  C   UNL A   1      40.947  32.246  35.980  1.00  0.00     0.049 A 
ATOM     67  H   UNL A   1      40.851  31.171  34.168  1.00  0.00     0.167 HD
ATOM     68  C   UNL A   1      39.205  33.413  34.658  1.00  0.00     0.074 A 
ATOM     69  C   UNL A   1      38.245  34.478  34.445  1.00  0.00     0.031 C 
ATOM     70  C   UNL A   1      39.999  33.307  35.751  1.00  0.00     0.037 A 
BRANCH  57  71
ATOM     71  C   UNL A   1      43.944  28.560  35.501  1.00  0.00     0.058 A 
ATOM     72  C   UNL A   1      43.680  27.439  36.300  1.00  0.00     0.135 A 
ATOM     73  C   UNL A   1      45.277  28.968  35.351  1.00  0.00     0.135 A 
ATOM     74  F   UNL A   1      42.416  27.024  36.486  1.00  0.00    -0.206 F 
ATOM     75  C   UNL A   1      44.703  26.757  36.950  1.00  0.00     0.059 A 
ATOM     76  C   UNL A   1      46.316  28.299  35.986  1.00  0.00     0.059 A 
ATOM     77  F   UNL A   1      45.574  30.046  34.607  1.00  0.00    -0.206 F 
ATOM     78  C   UNL A   1      46.017  27.205  36.800  1.00  0.00     0.060 A 
BRANCH  78  79
ATOM     79  S   UNL A   1      47.357  26.365  37.672  1.00  0.00     0.124 S 
ATOM     80  O   UNL A   1      48.333  26.192  36.600  1.00  0.00    -0.237 OA
ATOM     81  O   UNL A   1      47.726  27.320  38.712  1.00  0.00    -0.237 OA
ATOM     82  O   UNL A   1      46.717  25.142  38.148  1.00  0.00    -0.744 OA
ENDBRANCH  78  79
ENDBRANCH  57  71
BRANCH  58  83
ATOM     83  C   UNL A   1      36.531  33.224  30.804  1.00  0.00     0.058 A 
ATOM     84  C   UNL A   1      35.222  33.108  31.291  1.00  0.00     0.135 A 
ATOM     85  C   UNL A   1      36.754  34.038  29.685  1.00  0.00     0.135 A 
ATOM     86  F   UNL A   1      34.970  32.336  32.359  1.00  0.00    -0.206 F 
ATOM     87  C   UNL A   1      34.164  33.787  30.696  1.00  0.00     0.059 A 
ATOM     88  C   UNL A   1      35.713  34.729  29.076  1.00  0.00     0.059 A 
ATOM     89  F   UNL A   1      37.994  34.180  29.193  1.00  0.00    -0.206 F 
ATOM     90  C   UNL A   1      34.422  34.599  29.589  1.00  0.00     0.060 A 
BRANCH  90  91
ATOM     91  S   UNL A   1      33.088  35.567  28.849  1.00  0.00     0.124 S 
ATOM     92  O   UNL A   1      33.836  36.569  28.100  1.00  0.00    -0.237 OA
ATOM     93  O   UNL A   1      32.369  34.581  28.048  1.00  0.00    -0.237 OA
ATOM     94  O   UNL A   1      32.366  36.054  30.021  1.00  0.00    -0.744 OA
ENDBRANCH  90  91
ENDBRANCH  58  83
BRANCH  70  95
ATOM     95  C   UNL A   1      39.854  34.367  36.800  1.00  0.00     0.058 A 
ATOM     96  C   UNL A   1      40.581  35.563  36.716  1.00  0.00     0.135 A 
ATOM     97  C   UNL A   1      38.982  34.197  37.884  1.00  0.00     0.135 A 
ATOM     98  F   UNL A   1      41.432  35.767  35.697  1.00  0.00    -0.206 F 
ATOM     99  C   UNL A   1      40.455  36.558  37.681  1.00  0.00     0.059 A 
ATOM    100  C   UNL A   1      38.839  35.179  38.860  1.00  0.00     0.059 A 
ATOM    101  F   UNL A   1      38.274  33.064  38.009  1.00  0.00    -0.206 F 
ATOM    102  C   UNL A   1      39.588  36.352  38.755  1.00  0.00     0.060 A 
BRANCH 102 103
ATOM    103  S   UNL A   1      39.406  37.639  40.009  1.00  0.00     0.124 S 
ATOM    104  O   UNL A   1      40.657  38.373  39.858  1.00  0.00    -0.237 OA
ATOM    105  O   UNL A   1      38.202  38.347  39.581  1.00  0.00    -0.237 OA
ATOM    106  O   UNL A   1      39.265  36.874  41.244  1.00  0.00    -0.744 OA
ENDBRANCH 102 103
ENDBRANCH  70  95
ENDBRANCH  44  45
ENDBRANCH  36  39
ENDBRANCH  34  35
ENDBRANCH  33  34
ENDBRANCH  32  33
ENDBRANCH   1  32
TORSDOF 20
ENDMDL
MODEL 2
REMARK VINA RESULT:     -12.5      1.438      2.271
REMARK SMILES Cc1ccnc(C(=O)c2[nH]c3ccc(C(C)(C)C)cc3c2CC(=O)NCCCCCCNC(=O)c2ccc(-c3c4nc(c(-c5c(F)cc(S(=O)(=O)[O-])cc5F)c5ccc([nH]5)c(-c5c(F)cc(S(=O)(=O)[O-])cc5F)c5nc(c(-c6c(F)cc(S(=O)(=O)[O-])cc6F)c6ccc3[nH]6)C=C5)C=C4)cc2)c1
REMARK SMILES IDX 28 1 27 2 26 3 25 4 23 5 24 6 22 8 21 9 9 10 10 11 11 12
REMARK SMILES IDX 20 14 12 15 19 16 13 17 14 18 7 19 8 20 6 21 1 22 2 23 3 24
REMARK SMILES IDX 101 25 4 26 5 27 15 28 16 29 17 30 18 31 29 32 30 33 31 34
REMARK SMILES IDX 32 35 33 36 34 38 35 39 36 40 100 41 37 42 99 43 38 44 39 45
REMARK SMILES IDX 40 46 93 47 41 48 98 49 92 50 94 51 42 52 97 53 91 54 90 55
REMARK SMILES IDX 43 57 77 58 56 59 76 60 57 61 60 62 75 63 95 64 58 65 59 66
REMARK SMILES IDX 74 68 96 69 61 70 44 71 45 72 54 73 46 74 47 75 53 76 55 77
REMARK SMILES IDX 48 78 49 79 50 80 51 81 52 82 78 83 79 84 88 85 80 86 81 87
REMARK SMILES IDX 87 88 89 89 82 90 83 91 84 92 85 93 86 94 62 95 63 96 72 97
REMARK SMILES IDX 64 98 65 99 71 100 73 101 66 102 67 103 68 104 69 105 70 106
REMARK H PARENT 25 7 10 13 32 37 94 56 60 67
REMARK Flexibility Score: inf
ROOT
ATOM      1  C   UNL A   1      39.063  21.962  26.100  1.00  0.00     0.002 C 
ENDROOT
BRANCH   1   2
ATOM      2  C   UNL A   1      38.166  21.038  25.267  1.00  0.00     0.021 C 
BRANCH   2   3
ATOM      3  C   UNL A   1      36.671  21.343  25.347  1.00  0.00     0.116 C 
BRANCH   3   4
ATOM      4  N   UNL A   1      36.171  22.027  24.170  1.00  0.00    -0.356 N 
ATOM      5  C   UNL A   1      35.483  23.203  24.078  1.00  0.00     0.224 C 
ATOM      6  O   UNL A   1      35.278  23.673  22.956  1.00  0.00    -0.275 OA
ATOM      7  H   UNL A   1      36.355  21.578  23.313  1.00  0.00     0.163 HD
BRANCH   5   8
ATOM      8  C   UNL A   1      35.089  23.974  25.328  1.00  0.00     0.138 C 
BRANCH   8   9
ATOM      9  C   UNL A   1      33.621  23.976  25.645  1.00  0.00    -0.002 A 
ATOM     10  C   UNL A   1      32.840  22.900  26.055  1.00  0.00     0.093 A 
ATOM     11  N   UNL A   1      31.568  23.376  26.277  1.00  0.00    -0.352 N 
ATOM     12  C   UNL A   1      31.475  24.698  25.925  1.00  0.00     0.046 A 
ATOM     13  H   UNL A   1      30.825  22.840  26.639  1.00  0.00     0.167 HD
ATOM     14  C   UNL A   1      32.739  25.102  25.515  1.00  0.00     0.004 A 
ATOM     15  C   UNL A   1      30.379  25.562  25.955  1.00  0.00     0.027 A 
ATOM     16  C   UNL A   1      32.907  26.445  25.105  1.00  0.00     0.015 A 
ATOM     17  C   UNL A   1      30.581  26.889  25.549  1.00  0.00     0.006 A 
ATOM     18  C   UNL A   1      31.830  27.359  25.119  1.00  0.00    -0.042 A 
BRANCH  10  19
ATOM     19  C   UNL A   1      33.213  21.519  26.302  1.00  0.00     0.227 C 
ATOM     20  O   UNL A   1      33.686  21.168  27.378  1.00  0.00    -0.285 OA
BRANCH  19  21
ATOM     21  C   UNL A   1      32.951  20.508  25.210  1.00  0.00     0.113 A 
ATOM     22  C   UNL A   1      33.336  16.815  24.420  1.00  0.00     0.044 C 
ATOM     23  C   UNL A   1      33.023  18.277  24.302  1.00  0.00    -0.047 A 
ATOM     24  C   UNL A   1      32.462  18.784  23.130  1.00  0.00     0.023 A 
ATOM     25  C   UNL A   1      33.253  19.154  25.368  1.00  0.00     0.036 A 
ATOM     26  C   UNL A   1      32.178  20.137  23.060  1.00  0.00     0.112 A 
ATOM     27  N   UNL A   1      32.419  21.006  24.063  1.00  0.00    -0.253 NA
ENDBRANCH  19  21
ENDBRANCH  10  19
BRANCH  18  28
ATOM     28  C   UNL A   1      32.064  28.821  24.693  1.00  0.00    -0.013 C 
ATOM     29  C   UNL A   1      30.798  29.358  23.990  1.00  0.00     0.016 C 
ATOM     30  C   UNL A   1      32.362  29.690  25.935  1.00  0.00     0.016 C 
ATOM     31  C   UNL A   1      33.247  29.008  23.716  1.00  0.00     0.016 C 
ENDBRANCH  18  28
ENDBRANCH   8   9
ENDBRANCH   5   8
ENDBRANCH   3   4
ENDBRANCH   2   3
ENDBRANCH   1   2
BRANCH   1  32
ATOM     32  C   UNL A   1      40.399  21.367  26.552  1.00  0.00     0.002 C 
BRANCH  32  33
ATOM     33  C   UNL A   1      40.986  21.939  27.847  1.00  0.00     0.021 C 
BRANCH  33  34
ATOM     34  C   UNL A   1      42.170  22.893  27.677  1.00  0.00     0.116 C 
BRANCH  34  35
ATOM     35  N   UNL A   1      42.150  23.585  26.402  1.00  0.00    -0.352 N 
ATOM     36  C   UNL A   1      41.868  24.900  26.132  1.00  0.00     0.251 C 
ATOM     37  H   UNL A   1      42.371  23.031  25.618  1.00  0.00     0.163 HD
ATOM     38  O   UNL A   1      41.763  25.273  24.966  1.00  0.00    -0.269 OA
BRANCH  36  39
ATOM     39  C   UNL A   1      41.664  25.872  27.233  1.00  0.00     0.039 A 
ATOM     40  C   UNL A   1      42.552  26.948  27.340  1.00  0.00     0.014 A 
ATOM     41  C   UNL A   1      40.656  25.700  28.187  1.00  0.00     0.014 A 
ATOM     42  C   UNL A   1      42.408  27.874  28.376  1.00  0.00     0.010 A 
ATOM     43  C   UNL A   1      40.503  26.635  29.215  1.00  0.00     0.010 A 
ATOM     44  C   UNL A   1      41.377  27.728  29.316  1.00  0.00    -0.014 A 
BRANCH  44  45
ATOM     45  C   UNL A   1      41.203  28.715  30.406  1.00  0.00     0.031 A 
ATOM     46  C   UNL A   1      42.116  28.705  31.596  1.00  0.00     0.074 A 
ATOM     47  C   UNL A   1      40.197  29.607  30.342  1.00  0.00     0.049 A 
ATOM     48  N   UNL A   1      42.039  29.405  32.699  1.00  0.00    -0.248 NA
ATOM     49  C   UNL A   1      43.257  27.779  31.544  1.00  0.00     0.031 C 
ATOM     50  C   UNL A   1      39.236  29.721  29.244  1.00  0.00     0.029 A 
ATOM     51  N   UNL A   1      39.813  30.581  31.227  1.00  0.00    -0.354 N 
ATOM     52  C   UNL A   1      43.093  28.977  33.494  1.00  0.00     0.074 A 
ATOM     53  C   UNL A   1      43.814  27.974  32.733  1.00  0.00     0.031 C 
ATOM     54  C   UNL A   1      38.374  30.714  29.520  1.00  0.00     0.029 A 
ATOM     55  C   UNL A   1      38.715  31.294  30.817  1.00  0.00     0.049 A 
ATOM     56  H   UNL A   1      40.281  30.754  32.077  1.00  0.00     0.167 HD
ATOM     57  C   UNL A   1      43.420  29.367  34.749  1.00  0.00     0.037 A 
ATOM     58  C   UNL A   1      38.050  32.299  31.420  1.00  0.00     0.037 A 
ATOM     59  C   UNL A   1      42.721  30.373  35.504  1.00  0.00     0.049 A 
ATOM     60  C   UNL A   1      38.498  32.791  32.764  1.00  0.00     0.074 A 
ATOM     61  C   UNL A   1      42.936  30.785  36.808  1.00  0.00     0.029 A 
ATOM     62  N   UNL A   1      41.680  31.145  35.010  1.00  0.00    -0.354 N 
ATOM     63  N   UNL A   1      39.459  32.330  33.528  1.00  0.00    -0.248 NA
ATOM     64  C   UNL A   1      37.775  33.940  33.325  1.00  0.00     0.031 C 
ATOM     65  C   UNL A   1      42.030  31.815  37.099  1.00  0.00     0.029 A 
ATOM     66  C   UNL A   1      41.260  32.048  35.972  1.00  0.00     0.049 A 
ATOM     67  H   UNL A   1      41.295  31.062  34.107  1.00  0.00     0.167 HD
ATOM     68  C   UNL A   1      39.449  33.125  34.666  1.00  0.00     0.074 A 
ATOM     69  C   UNL A   1      38.403  34.111  34.482  1.00  0.00     0.031 C 
ATOM     70  C   UNL A   1      40.227  33.032  35.772  1.00  0.00     0.037 A 
BRANCH  57  71
ATOM     71  C   UNL A   1      44.578  28.665  35.387  1.00  0.00     0.058 A 
ATOM     72  C   UNL A   1      44.403  27.466  36.092  1.00  0.00     0.135 A 
ATOM     73  C   UNL A   1      45.867  29.213  35.321  1.00  0.00     0.135 A 
ATOM     74  F   UNL A   1      43.183  26.916  36.196  1.00  0.00    -0.206 F 
ATOM     75  C   UNL A   1      45.467  26.842  36.733  1.00  0.00     0.059 A 
ATOM     76  C   UNL A   1      46.947  28.604  35.949  1.00  0.00     0.059 A 
ATOM     77  F   UNL A   1      46.078  30.368  34.668  1.00  0.00    -0.206 F 
ATOM     78  C   UNL A   1      46.733  27.428  36.670  1.00  0.00     0.060 A 
BRANCH  78  79
ATOM     79  S   UNL A   1      48.122  26.662  37.534  1.00  0.00     0.124 S 
ATOM     80  O   UNL A   1      48.917  26.165  36.416  1.00  0.00    -0.237 OA
ATOM     81  O   UNL A   1      48.705  27.774  38.277  1.00  0.00    -0.237 OA
ATOM     82  O   UNL A   1      47.472  25.641  38.350  1.00  0.00    -0.744 OA
ENDBRANCH  78  79
ENDBRANCH  57  71
BRANCH  58  83
ATOM     83  C   UNL A   1      36.880  32.901  30.743  1.00  0.00     0.058 A 
ATOM     84  C   UNL A   1      35.574  32.552  31.112  1.00  0.00     0.135 A 
ATOM     85  C   UNL A   1      37.052  33.879  29.754  1.00  0.00     0.135 A 
ATOM     86  F   UNL A   1      35.371  31.618  32.053  1.00  0.00    -0.206 F 
ATOM     87  C   UNL A   1      34.469  33.162  30.528  1.00  0.00     0.059 A 
ATOM     88  C   UNL A   1      35.963  34.505  29.160  1.00  0.00     0.059 A 
ATOM     89  F   UNL A   1      38.287  34.246  29.378  1.00  0.00    -0.206 F 
ATOM     90  C   UNL A   1      34.675  34.141  29.554  1.00  0.00     0.060 A 
BRANCH  90  91
ATOM     91  S   UNL A   1      33.265  35.019  28.843  1.00  0.00     0.124 S 
ATOM     92  O   UNL A   1      33.922  36.139  28.181  1.00  0.00    -0.237 OA
ATOM     93  O   UNL A   1      32.667  34.021  27.960  1.00  0.00    -0.237 OA
ATOM     94  O   UNL A   1      32.473  35.350  30.024  1.00  0.00    -0.744 OA
ENDBRANCH  90  91
ENDBRANCH  58  83
BRANCH  70  95
ATOM     95  C   UNL A   1      39.968  34.022  36.867  1.00  0.00     0.058 A 
ATOM     96  C   UNL A   1      40.601  35.273  36.868  1.00  0.00     0.135 A 
ATOM     97  C   UNL A   1      39.081  33.727  37.911  1.00  0.00     0.135 A 
ATOM     98  F   UNL A   1      41.463  35.595  35.889  1.00  0.00    -0.206 F 
ATOM     99  C   UNL A   1      40.369  36.202  37.877  1.00  0.00     0.059 A 
ATOM    100  C   UNL A   1      38.832  34.642  38.931  1.00  0.00     0.059 A 
ATOM    101  F   UNL A   1      38.461  32.538  37.956  1.00  0.00    -0.206 F 
ATOM    102  C   UNL A   1      39.489  35.873  38.910  1.00  0.00     0.060 A 
BRANCH 102 103
ATOM    103  S   UNL A   1      39.169  37.074  40.221  1.00  0.00     0.124 S 
ATOM    104  O   UNL A   1      38.322  36.302  41.123  1.00  0.00    -0.237 OA
ATOM    105  O   UNL A   1      40.507  37.381  40.719  1.00  0.00    -0.237 OA
ATOM    106  O   UNL A   1      38.510  38.165  39.511  1.00  0.00    -0.744 OA
ENDBRANCH 102 103
ENDBRANCH  70  95
ENDBRANCH  44  45
ENDBRANCH  36  39
ENDBRANCH  34  35
ENDBRANCH  33  34
ENDBRANCH  32  33
ENDBRANCH   1  32
TORSDOF 20
ENDMDL
MODEL 3
REMARK VINA RESULT:     -12.5      6.636      9.364
REMARK SMILES Cc1ccnc(C(=O)c2[nH]c3ccc(C(C)(C)C)cc3c2CC(=O)NCCCCCCNC(=O)c2ccc(-c3c4nc(c(-c5c(F)cc(S(=O)(=O)[O-])cc5F)c5ccc([nH]5)c(-c5c(F)cc(S(=O)(=O)[O-])cc5F)c5nc(c(-c6c(F)cc(S(=O)(=O)[O-])cc6F)c6ccc3[nH]6)C=C5)C=C4)cc2)c1
REMARK SMILES IDX 28 1 27 2 26 3 25 4 23 5 24 6 22 8 21 9 9 10 10 11 11 12
REMARK SMILES IDX 20 14 12 15 19 16 13 17 14 18 7 19 8 20 6 21 1 22 2 23 3 24
REMARK SMILES IDX 101 25 4 26 5 27 15 28 16 29 17 30 18 31 29 32 30 33 31 34
REMARK SMILES IDX 32 35 33 36 34 38 35 39 36 40 100 41 37 42 99 43 38 44 39 45
REMARK SMILES IDX 40 46 93 47 41 48 98 49 92 50 94 51 42 52 97 53 91 54 90 55
REMARK SMILES IDX 43 57 77 58 56 59 76 60 57 61 60 62 75 63 95 64 58 65 59 66
REMARK SMILES IDX 74 68 96 69 61 70 44 71 45 72 54 73 46 74 47 75 53 76 55 77
REMARK SMILES IDX 48 78 49 79 50 80 51 81 52 82 78 83 79 84 88 85 80 86 81 87
REMARK SMILES IDX 87 88 89 89 82 90 83 91 84 92 85 93 86 94 62 95 63 96 72 97
REMARK SMILES IDX 64 98 65 99 71 100 73 101 66 102 67 103 68 104 69 105 70 106
REMARK H PARENT 25 7 10 13 32 37 94 56 60 67
REMARK Flexibility Score: inf
ROOT
ATOM      1  C   UNL A   1      39.489  21.705  26.387  1.00  0.00     0.002 C 
ENDROOT
BRANCH   1   2
ATOM      2  C   UNL A   1      39.221  23.174  26.736  1.00  0.00     0.021 C 
BRANCH   2   3
ATOM      3  C   UNL A   1      37.968  23.772  26.096  1.00  0.00     0.116 C 
BRANCH   3   4
ATOM      4  N   UNL A   1      37.798  23.376  24.712  1.00  0.00    -0.356 N 
ATOM      5  C   UNL A   1      36.663  23.346  23.954  1.00  0.00     0.224 C 
ATOM      6  O   UNL A   1      36.773  23.106  22.747  1.00  0.00    -0.275 OA
ATOM      7  H   UNL A   1      38.620  23.087  24.253  1.00  0.00     0.163 HD
BRANCH   5   8
ATOM      8  C   UNL A   1      35.316  23.719  24.552  1.00  0.00     0.138 C 
BRANCH   8   9
ATOM      9  C   UNL A   1      34.121  23.346  23.723  1.00  0.00    -0.002 A 
ATOM     10  C   UNL A   1      33.294  24.196  22.993  1.00  0.00     0.093 A 
ATOM     11  N   UNL A   1      32.362  23.412  22.352  1.00  0.00    -0.352 N 
ATOM     12  C   UNL A   1      32.493  22.098  22.723  1.00  0.00     0.046 A 
ATOM     13  H   UNL A   1      31.692  23.749  21.714  1.00  0.00     0.167 HD
ATOM     14  C   UNL A   1      33.577  22.023  23.588  1.00  0.00     0.004 A 
ATOM     15  C   UNL A   1      31.748  20.979  22.347  1.00  0.00     0.027 A 
ATOM     16  C   UNL A   1      33.924  20.756  24.109  1.00  0.00     0.015 A 
ATOM     17  C   UNL A   1      32.124  19.736  22.875  1.00  0.00     0.006 A 
ATOM     18  C   UNL A   1      33.204  19.592  23.758  1.00  0.00    -0.042 A 
BRANCH  10  19
ATOM     19  C   UNL A   1      33.360  25.635  22.819  1.00  0.00     0.227 C 
ATOM     20  O   UNL A   1      33.902  26.135  21.839  1.00  0.00    -0.285 OA
BRANCH  19  21
ATOM     21  C   UNL A   1      32.691  26.506  23.857  1.00  0.00     0.113 A 
ATOM     22  C   UNL A   1      33.184  29.731  25.797  1.00  0.00     0.044 C 
ATOM     23  C   UNL A   1      32.610  28.442  25.289  1.00  0.00    -0.047 A 
ATOM     24  C   UNL A   1      31.390  27.974  25.779  1.00  0.00     0.023 A 
ATOM     25  C   UNL A   1      33.261  27.703  24.295  1.00  0.00     0.036 A 
ATOM     26  C   UNL A   1      30.887  26.784  25.279  1.00  0.00     0.112 A 
ATOM     27  N   UNL A   1      31.512  26.040  24.345  1.00  0.00    -0.253 NA
ENDBRANCH  19  21
ENDBRANCH  10  19
BRANCH  18  28
ATOM     28  C   UNL A   1      33.636  18.226  24.325  1.00  0.00    -0.013 C 
ATOM     29  C   UNL A   1      33.345  17.125  23.282  1.00  0.00     0.016 C 
ATOM     30  C   UNL A   1      35.149  18.241  24.639  1.00  0.00     0.016 C 
ATOM     31  C   UNL A   1      32.907  17.830  25.628  1.00  0.00     0.016 C 
ENDBRANCH  18  28
ENDBRANCH   8   9
ENDBRANCH   5   8
ENDBRANCH   3   4
ENDBRANCH   2   3
ENDBRANCH   1   2
BRANCH   1  32
ATOM     32  C   UNL A   1      40.959  21.277  26.383  1.00  0.00     0.002 C 
BRANCH  32  33
ATOM     33  C   UNL A   1      41.234  19.821  25.992  1.00  0.00     0.021 C 
BRANCH  33  34
ATOM     34  C   UNL A   1      42.554  19.234  26.496  1.00  0.00     0.116 C 
BRANCH  34  35
ATOM     35  N   UNL A   1      43.433  18.827  25.415  1.00  0.00    -0.352 N 
ATOM     36  C   UNL A   1      44.282  19.590  24.653  1.00  0.00     0.251 C 
ATOM     37  H   UNL A   1      43.417  17.867  25.196  1.00  0.00     0.163 HD
ATOM     38  O   UNL A   1      44.845  19.088  23.683  1.00  0.00    -0.269 OA
BRANCH  36  39
ATOM     39  C   UNL A   1      44.509  21.019  24.973  1.00  0.00     0.039 A 
ATOM     40  C   UNL A   1      45.246  21.332  26.121  1.00  0.00     0.014 A 
ATOM     41  C   UNL A   1      43.956  22.043  24.197  1.00  0.00     0.014 A 
ATOM     42  C   UNL A   1      45.464  22.667  26.471  1.00  0.00     0.010 A 
ATOM     43  C   UNL A   1      44.187  23.378  24.539  1.00  0.00     0.010 A 
ATOM     44  C   UNL A   1      44.943  23.699  25.677  1.00  0.00    -0.014 A 
BRANCH  44  45
ATOM     45  C   UNL A   1      45.186  25.118  26.027  1.00  0.00     0.031 A 
ATOM     46  C   UNL A   1      46.548  25.723  25.854  1.00  0.00     0.074 A 
ATOM     47  C   UNL A   1      44.184  25.859  26.536  1.00  0.00     0.049 A 
ATOM     48  N   UNL A   1      46.977  26.902  26.223  1.00  0.00    -0.248 NA
ATOM     49  C   UNL A   1      47.561  24.888  25.191  1.00  0.00     0.031 C 
ATOM     50  C   UNL A   1      42.816  25.392  26.758  1.00  0.00     0.029 A 
ATOM     51  N   UNL A   1      44.168  27.162  26.963  1.00  0.00    -0.354 N 
ATOM     52  C   UNL A   1      48.321  26.941  25.878  1.00  0.00     0.074 A 
ATOM     53  C   UNL A   1      48.629  25.674  25.243  1.00  0.00     0.031 C 
ATOM     54  C   UNL A   1      42.091  26.395  27.279  1.00  0.00     0.029 A 
ATOM     55  C   UNL A   1      42.947  27.569  27.438  1.00  0.00     0.049 A 
ATOM     56  H   UNL A   1      44.959  27.749  26.933  1.00  0.00     0.167 HD
ATOM     57  C   UNL A   1      49.221  27.931  26.089  1.00  0.00     0.037 A 
ATOM     58  C   UNL A   1      42.560  28.753  27.951  1.00  0.00     0.037 A 
ATOM     59  C   UNL A   1      48.919  29.197  26.702  1.00  0.00     0.049 A 
ATOM     60  C   UNL A   1      43.548  29.874  28.072  1.00  0.00     0.074 A 
ATOM     61  C   UNL A   1      49.781  30.234  27.020  1.00  0.00     0.029 A 
ATOM     62  N   UNL A   1      47.648  29.610  27.071  1.00  0.00    -0.354 N 
ATOM     63  N   UNL A   1      44.830  29.871  27.799  1.00  0.00    -0.248 NA
ATOM     64  C   UNL A   1      43.037  31.160  28.566  1.00  0.00     0.031 C 
ATOM     65  C   UNL A   1      49.025  31.279  27.573  1.00  0.00     0.029 A 
ATOM     66  C   UNL A   1      47.695  30.893  27.588  1.00  0.00     0.049 A 
ATOM     67  H   UNL A   1      46.831  29.068  26.979  1.00  0.00     0.167 HD
ATOM     68  C   UNL A   1      45.283  31.148  28.100  1.00  0.00     0.074 A 
ATOM     69  C   UNL A   1      44.134  31.906  28.552  1.00  0.00     0.031 C 
ATOM     70  C   UNL A   1      46.543  31.641  28.023  1.00  0.00     0.037 A 
BRANCH  57  71
ATOM     71  C   UNL A   1      50.631  27.652  25.671  1.00  0.00     0.058 A 
ATOM     72  C   UNL A   1      51.036  27.793  24.337  1.00  0.00     0.135 A 
ATOM     73  C   UNL A   1      51.576  27.207  26.607  1.00  0.00     0.135 A 
ATOM     74  F   UNL A   1      50.158  28.199  23.405  1.00  0.00    -0.206 F 
ATOM     75  C   UNL A   1      52.330  27.480  23.936  1.00  0.00     0.059 A 
ATOM     76  C   UNL A   1      52.877  26.893  26.231  1.00  0.00     0.059 A 
ATOM     77  F   UNL A   1      51.228  27.043  27.894  1.00  0.00    -0.206 F 
ATOM     78  C   UNL A   1      53.239  27.015  24.888  1.00  0.00     0.060 A 
BRANCH  78  79
ATOM     79  S   UNL A   1      54.912  26.556  24.384  1.00  0.00     0.124 S 
ATOM     80  O   UNL A   1      54.832  26.724  22.937  1.00  0.00    -0.237 OA
ATOM     81  O   UNL A   1      55.748  27.524  25.086  1.00  0.00    -0.237 OA
ATOM     82  O   UNL A   1      55.025  25.179  24.855  1.00  0.00    -0.744 OA
ENDBRANCH  78  79
ENDBRANCH  57  71
BRANCH  58  83
ATOM     83  C   UNL A   1      41.158  28.927  28.391  1.00  0.00     0.058 A 
ATOM     84  C   UNL A   1      40.819  28.897  29.750  1.00  0.00     0.135 A 
ATOM     85  C   UNL A   1      40.142  29.183  27.459  1.00  0.00     0.135 A 
ATOM     86  F   UNL A   1      41.764  28.652  30.671  1.00  0.00    -0.206 F 
ATOM     87  C   UNL A   1      39.516  29.126  30.178  1.00  0.00     0.059 A 
ATOM     88  C   UNL A   1      38.835  29.419  27.863  1.00  0.00     0.059 A 
ATOM     89  F   UNL A   1      40.428  29.227  26.149  1.00  0.00    -0.206 F 
ATOM     90  C   UNL A   1      38.530  29.390  29.225  1.00  0.00     0.060 A 
BRANCH  90  91
ATOM     91  S   UNL A   1      36.847  29.783  29.750  1.00  0.00     0.124 S 
ATOM     92  O   UNL A   1      36.743  29.025  30.990  1.00  0.00    -0.237 OA
ATOM     93  O   UNL A   1      36.878  31.236  29.894  1.00  0.00    -0.237 OA
ATOM     94  O   UNL A   1      36.046  29.292  28.632  1.00  0.00    -0.744 OA
ENDBRANCH  90  91
ENDBRANCH  58  83
BRANCH  70  95
ATOM     95  C   UNL A   1      46.741  33.065  28.445  1.00  0.00     0.058 A 
ATOM     96  C   UNL A   1      46.619  34.111  27.519  1.00  0.00     0.135 A 
ATOM     97  C   UNL A   1      47.040  33.390  29.775  1.00  0.00     0.135 A 
ATOM     98  F   UNL A   1      46.338  33.846  26.232  1.00  0.00    -0.206 F 
ATOM     99  C   UNL A   1      46.798  35.438  27.896  1.00  0.00     0.059 A 
ATOM    100  C   UNL A   1      47.220  34.711  30.176  1.00  0.00     0.059 A 
ATOM    101  F   UNL A   1      47.174  32.420  30.693  1.00  0.00    -0.206 F 
ATOM    102  C   UNL A   1      47.107  35.727  29.226  1.00  0.00     0.060 A 
BRANCH 102 103
ATOM    103  S   UNL A   1      47.330  37.447  29.733  1.00  0.00     0.124 S 
ATOM    104  O   UNL A   1      48.612  37.382  30.427  1.00  0.00    -0.237 OA
ATOM    105  O   UNL A   1      47.335  38.166  28.463  1.00  0.00    -0.237 OA
ATOM    106  O   UNL A   1      46.165  37.692  30.577  1.00  0.00    -0.744 OA
ENDBRANCH 102 103
ENDBRANCH  70  95
ENDBRANCH  44  45
ENDBRANCH  36  39
ENDBRANCH  34  35
ENDBRANCH  33  34
ENDBRANCH  32  33
ENDBRANCH   1  32
TORSDOF 20
ENDMDL
