MODEL 1
REMARK VINA RESULT:     -10.8      0.000      0.000
REMARK SMILES C[C@@H](Nc1ccc(C(=O)NCCCCCCNC(=O)c2ccc(-c3c4nc(c(-c5c(F)cc(S(=O)(=O)[O-])cc5F)c5ccc([nH]5)c(-c5c(F)cc(S(=O)(=O)[O-])cc5F)c5nc(c(-c6c(F)cc(S(=O)(=O)[O-])cc6F)c6ccc3[nH]6)C=C5)C=C4)cc2)c(F)c1F)C(N)=O
REMARK SMILES IDX 13 1 12 2 11 3 10 4 8 5 9 6 7 8 4 9 5 10 88 11 6 12 86 13
REMARK SMILES IDX 89 14 87 15 3 16 2 18 1 19 90 20 91 21 92 22 14 25 15 26
REMARK SMILES IDX 16 27 17 28 18 29 19 31 20 32 21 33 85 34 22 35 84 36 23 37
REMARK SMILES IDX 24 38 25 39 78 40 26 41 83 42 77 43 79 44 27 45 82 46 76 47
REMARK SMILES IDX 75 48 28 50 62 51 41 52 61 53 42 54 45 55 60 56 80 57 43 58
REMARK SMILES IDX 44 59 59 61 81 62 46 63 29 64 30 65 39 66 31 67 32 68 38 69
REMARK SMILES IDX 40 70 33 71 34 72 35 73 36 74 37 75 63 76 64 77 73 78 65 79
REMARK SMILES IDX 66 80 72 81 74 82 67 83 68 84 69 85 70 86 71 87 47 88 48 89
REMARK SMILES IDX 57 90 49 91 50 92 56 93 58 94 51 95 52 96 53 97 54 98 55 99
REMARK H PARENT 10 7 3 17 91 23 91 24 17 30 79 49 45 60
REMARK Flexibility Score: inf
ROOT
ATOM      1  C   UNL A   1      30.726  27.328  25.047  1.00  0.00     0.002 C 
ENDROOT
BRANCH   1   2
ATOM      2  C   UNL A   1      30.160  27.870  23.731  1.00  0.00     0.021 C 
BRANCH   2   3
ATOM      3  C   UNL A   1      30.685  27.236  22.446  1.00  0.00     0.116 C 
BRANCH   3   4
ATOM      4  N   UNL A   1      32.003  27.703  22.062  1.00  0.00    -0.352 N 
ATOM      5  C   UNL A   1      33.241  27.126  22.197  1.00  0.00     0.254 C 
ATOM      6  O   UNL A   1      34.213  27.751  21.768  1.00  0.00    -0.269 OA
ATOM      7  H   UNL A   1      32.011  28.587  21.629  1.00  0.00     0.163 HD
BRANCH   5   8
ATOM      8  C   UNL A   1      33.486  25.841  22.898  1.00  0.00     0.078 A 
ATOM      9  C   UNL A   1      33.893  23.510  24.491  1.00  0.00     0.074 A 
ATOM     10  C   UNL A   1      34.242  24.773  24.963  1.00  0.00     0.030 A 
ATOM     11  C   UNL A   1      33.445  23.440  23.161  1.00  0.00     0.182 A 
ATOM     12  C   UNL A   1      34.022  25.922  24.193  1.00  0.00     0.019 A 
ATOM     13  C   UNL A   1      33.279  24.575  22.365  1.00  0.00     0.173 A 
ATOM     14  F   UNL A   1      33.153  22.235  22.641  1.00  0.00    -0.201 F 
ATOM     15  F   UNL A   1      32.948  24.399  21.078  1.00  0.00    -0.203 F 
BRANCH   9  16
ATOM     16  N   UNL A   1      33.962  22.355  25.250  1.00  0.00    -0.371 N 
ATOM     17  H   UNL A   1      34.832  21.896  25.257  1.00  0.00     0.161 HD
BRANCH  16  18
ATOM     18  C   UNL A   1      32.894  21.724  26.049  1.00  0.00     0.165 C 
ATOM     19  C   UNL A   1      32.294  20.569  25.245  1.00  0.00     0.041 C 
BRANCH  18  20
ATOM     20  C   UNL A   1      31.740  22.644  26.493  1.00  0.00     0.239 C 
ATOM     21  N   UNL A   1      30.527  22.394  25.902  1.00  0.00    -0.368 N 
ATOM     22  O   UNL A   1      31.839  23.551  27.314  1.00  0.00    -0.273 OA
ATOM     23  H   UNL A   1      30.442  21.669  25.242  1.00  0.00     0.159 HD
ATOM     24  H   UNL A   1      29.743  22.940  26.137  1.00  0.00     0.159 HD
ENDBRANCH  18  20
ENDBRANCH  16  18
ENDBRANCH   9  16
ENDBRANCH   5   8
ENDBRANCH   3   4
ENDBRANCH   2   3
ENDBRANCH   1   2
BRANCH   1  25
ATOM     25  C   UNL A   1      31.538  28.307  25.899  1.00  0.00     0.002 C 
BRANCH  25  26
ATOM     26  C   UNL A   1      32.494  27.688  26.920  1.00  0.00     0.021 C 
BRANCH  26  27
ATOM     27  C   UNL A   1      33.832  28.398  27.095  1.00  0.00     0.116 C 
BRANCH  27  28
ATOM     28  N   UNL A   1      33.686  29.756  27.591  1.00  0.00    -0.352 N 
ATOM     29  C   UNL A   1      34.587  30.542  28.267  1.00  0.00     0.251 C 
ATOM     30  H   UNL A   1      32.812  30.174  27.416  1.00  0.00     0.163 HD
ATOM     31  O   UNL A   1      34.224  31.609  28.750  1.00  0.00    -0.269 OA
BRANCH  29  32
ATOM     32  C   UNL A   1      35.988  30.092  28.436  1.00  0.00     0.039 A 
ATOM     33  C   UNL A   1      36.858  30.177  27.346  1.00  0.00     0.014 A 
ATOM     34  C   UNL A   1      36.444  29.579  29.654  1.00  0.00     0.014 A 
ATOM     35  C   UNL A   1      38.197  29.810  27.495  1.00  0.00     0.010 A 
ATOM     36  C   UNL A   1      37.795  29.281  29.821  1.00  0.00     0.010 A 
ATOM     37  C   UNL A   1      38.688  29.393  28.744  1.00  0.00    -0.014 A 
BRANCH  37  38
ATOM     38  C   UNL A   1      40.131  29.094  28.942  1.00  0.00     0.031 A 
ATOM     39  C   UNL A   1      40.690  27.750  28.556  1.00  0.00     0.074 A 
ATOM     40  C   UNL A   1      40.923  30.013  29.532  1.00  0.00     0.049 A 
ATOM     41  N   UNL A   1      41.904  27.288  28.713  1.00  0.00    -0.248 NA
ATOM     42  C   UNL A   1      39.762  26.791  27.935  1.00  0.00     0.031 C 
ATOM     43  C   UNL A   1      40.485  31.330  30.002  1.00  0.00     0.029 A 
ATOM     44  N   UNL A   1      42.258  29.977  29.854  1.00  0.00    -0.354 N 
ATOM     45  C   UNL A   1      41.880  25.983  28.232  1.00  0.00     0.074 A 
ATOM     46  C   UNL A   1      40.523  25.714  27.812  1.00  0.00     0.031 C 
ATOM     47  C   UNL A   1      41.530  31.977  30.543  1.00  0.00     0.029 A 
ATOM     48  C   UNL A   1      42.703  31.109  30.497  1.00  0.00     0.049 A 
ATOM     49  H   UNL A   1      42.842  29.212  29.645  1.00  0.00     0.167 HD
ATOM     50  C   UNL A   1      42.901  25.099  28.138  1.00  0.00     0.037 A 
ATOM     51  C   UNL A   1      43.913  31.409  31.012  1.00  0.00     0.037 A 
ATOM     52  C   UNL A   1      44.258  25.389  28.526  1.00  0.00     0.049 A 
ATOM     53  C   UNL A   1      45.032  30.411  30.880  1.00  0.00     0.074 A 
ATOM     54  C   UNL A   1      45.379  24.590  28.383  1.00  0.00     0.029 A 
ATOM     55  N   UNL A   1      44.677  26.559  29.141  1.00  0.00    -0.354 N 
ATOM     56  N   UNL A   1      45.012  29.218  30.334  1.00  0.00    -0.248 NA
ATOM     57  C   UNL A   1      46.341  30.799  31.424  1.00  0.00     0.031 C 
ATOM     58  C   UNL A   1      46.464  25.251  28.967  1.00  0.00     0.029 A 
ATOM     59  C   UNL A   1      46.034  26.489  29.415  1.00  0.00     0.049 A 
ATOM     60  H   UNL A   1      44.098  27.326  29.351  1.00  0.00     0.167 HD
ATOM     61  C   UNL A   1      46.308  28.725  30.447  1.00  0.00     0.074 A 
ATOM     62  C   UNL A   1      47.091  29.756  31.095  1.00  0.00     0.031 C 
ATOM     63  C   UNL A   1      46.803  27.527  30.052  1.00  0.00     0.037 A 
BRANCH  50  64
ATOM     64  C   UNL A   1      42.609  23.726  27.596  1.00  0.00     0.058 A 
ATOM     65  C   UNL A   1      42.661  23.446  26.221  1.00  0.00     0.135 A 
ATOM     66  C   UNL A   1      42.369  22.655  28.473  1.00  0.00     0.135 A 
ATOM     67  F   UNL A   1      42.871  24.433  25.337  1.00  0.00    -0.206 F 
ATOM     68  C   UNL A   1      42.478  22.155  25.735  1.00  0.00     0.059 A 
ATOM     69  C   UNL A   1      42.211  21.352  28.011  1.00  0.00     0.059 A 
ATOM     70  F   UNL A   1      42.306  22.868  29.797  1.00  0.00    -0.206 F 
ATOM     71  C   UNL A   1      42.263  21.112  26.639  1.00  0.00     0.060 A 
BRANCH  71  72
ATOM     72  S   UNL A   1      42.083  19.436  25.993  1.00  0.00     0.124 S 
ATOM     73  O   UNL A   1      42.914  19.494  24.794  1.00  0.00    -0.237 OA
ATOM     74  O   UNL A   1      42.604  18.623  27.087  1.00  0.00    -0.237 OA
ATOM     75  O   UNL A   1      40.648  19.315  25.755  1.00  0.00    -0.744 OA
ENDBRANCH  71  72
ENDBRANCH  50  64
BRANCH  51  76
ATOM     76  C   UNL A   1      44.130  32.705  31.713  1.00  0.00     0.058 A 
ATOM     77  C   UNL A   1      43.905  32.837  33.092  1.00  0.00     0.135 A 
ATOM     78  C   UNL A   1      44.549  33.847  31.010  1.00  0.00     0.135 A 
ATOM     79  F   UNL A   1      43.500  31.777  33.809  1.00  0.00    -0.206 F 
ATOM     80  C   UNL A   1      44.051  34.058  33.743  1.00  0.00     0.059 A 
ATOM     81  C   UNL A   1      44.733  35.071  31.644  1.00  0.00     0.059 A 
ATOM     82  F   UNL A   1      44.798  33.774  29.693  1.00  0.00    -0.206 F 
ATOM     83  C   UNL A   1      44.464  35.171  33.008  1.00  0.00     0.060 A 
BRANCH  83  84
ATOM     84  S   UNL A   1      44.662  36.749  33.863  1.00  0.00     0.124 S 
ATOM     85  O   UNL A   1      46.025  36.638  34.370  1.00  0.00    -0.237 OA
ATOM     86  O   UNL A   1      44.456  37.711  32.785  1.00  0.00    -0.237 OA
ATOM     87  O   UNL A   1      43.608  36.717  34.875  1.00  0.00    -0.744 OA
ENDBRANCH  83  84
ENDBRANCH  51  76
BRANCH  63  88
ATOM     88  C   UNL A   1      48.271  27.274  30.273  1.00  0.00     0.058 A 
ATOM     89  C   UNL A   1      48.733  26.472  31.328  1.00  0.00     0.135 A 
ATOM     90  C   UNL A   1      49.223  27.794  29.381  1.00  0.00     0.135 A 
ATOM     91  F   UNL A   1      47.866  25.955  32.214  1.00  0.00    -0.206 F 
ATOM     92  C   UNL A   1      50.088  26.216  31.506  1.00  0.00     0.059 A 
ATOM     93  C   UNL A   1      50.581  27.525  29.520  1.00  0.00     0.059 A 
ATOM     94  F   UNL A   1      48.835  28.559  28.347  1.00  0.00    -0.206 F 
ATOM     95  C   UNL A   1      51.004  26.743  30.593  1.00  0.00     0.060 A 
BRANCH  95  96
ATOM     96  S   UNL A   1      52.757  26.371  30.816  1.00  0.00     0.124 S 
ATOM     97  O   UNL A   1      53.166  26.055  29.451  1.00  0.00    -0.237 OA
ATOM     98  O   UNL A   1      53.275  27.622  31.360  1.00  0.00    -0.237 OA
ATOM     99  O   UNL A   1      52.751  25.245  31.745  1.00  0.00    -0.744 OA
ENDBRANCH  95  96
ENDBRANCH  63  88
ENDBRANCH  37  38
ENDBRANCH  29  32
ENDBRANCH  27  28
ENDBRANCH  26  27
ENDBRANCH  25  26
ENDBRANCH   1  25
TORSDOF 19
ENDMDL
MODEL 2
REMARK VINA RESULT:     -10.7      2.992      8.691
REMARK SMILES C[C@@H](Nc1ccc(C(=O)NCCCCCCNC(=O)c2ccc(-c3c4nc(c(-c5c(F)cc(S(=O)(=O)[O-])cc5F)c5ccc([nH]5)c(-c5c(F)cc(S(=O)(=O)[O-])cc5F)c5nc(c(-c6c(F)cc(S(=O)(=O)[O-])cc6F)c6ccc3[nH]6)C=C5)C=C4)cc2)c(F)c1F)C(N)=O
REMARK SMILES IDX 13 1 12 2 11 3 10 4 8 5 9 6 7 8 4 9 5 10 88 11 6 12 86 13
REMARK SMILES IDX 89 14 87 15 3 16 2 18 1 19 90 20 91 21 92 22 14 25 15 26
REMARK SMILES IDX 16 27 17 28 18 29 19 31 20 32 21 33 85 34 22 35 84 36 23 37
REMARK SMILES IDX 24 38 25 39 78 40 26 41 83 42 77 43 79 44 27 45 82 46 76 47
REMARK SMILES IDX 75 48 28 50 62 51 41 52 61 53 42 54 45 55 60 56 80 57 43 58
REMARK SMILES IDX 44 59 59 61 81 62 46 63 29 64 30 65 39 66 31 67 32 68 38 69
REMARK SMILES IDX 40 70 33 71 34 72 35 73 36 74 37 75 63 76 64 77 73 78 65 79
REMARK SMILES IDX 66 80 72 81 74 82 67 83 68 84 69 85 70 86 71 87 47 88 48 89
REMARK SMILES IDX 57 90 49 91 50 92 56 93 58 94 51 95 52 96 53 97 54 98 55 99
REMARK H PARENT 10 7 3 17 91 23 91 24 17 30 79 49 45 60
REMARK Flexibility Score: inf
ROOT
ATOM      1  C   UNL A   1      33.368  25.473  25.747  1.00  0.00     0.002 C 
ENDROOT
BRANCH   1   2
ATOM      2  C   UNL A   1      32.145  24.553  25.736  1.00  0.00     0.021 C 
BRANCH   2   3
ATOM      3  C   UNL A   1      31.350  24.483  24.435  1.00  0.00     0.116 C 
BRANCH   3   4
ATOM      4  N   UNL A   1      32.180  24.443  23.246  1.00  0.00    -0.352 N 
ATOM      5  C   UNL A   1      32.996  23.458  22.746  1.00  0.00     0.254 C 
ATOM      6  O   UNL A   1      33.593  23.691  21.693  1.00  0.00    -0.269 OA
ATOM      7  H   UNL A   1      32.155  25.264  22.705  1.00  0.00     0.163 HD
BRANCH   5   8
ATOM      8  C   UNL A   1      33.263  22.172  23.436  1.00  0.00     0.078 A 
ATOM      9  C   UNL A   1      33.638  19.571  24.545  1.00  0.00     0.074 A 
ATOM     10  C   UNL A   1      32.467  19.901  23.867  1.00  0.00     0.030 A 
ATOM     11  C   UNL A   1      34.560  20.612  24.749  1.00  0.00     0.182 A 
ATOM     12  C   UNL A   1      32.290  21.170  23.300  1.00  0.00     0.019 A 
ATOM     13  C   UNL A   1      34.363  21.897  24.239  1.00  0.00     0.173 A 
ATOM     14  F   UNL A   1      35.677  20.357  25.451  1.00  0.00    -0.201 F 
ATOM     15  F   UNL A   1      35.245  22.849  24.575  1.00  0.00    -0.203 F 
BRANCH   9  16
ATOM     16  N   UNL A   1      33.930  18.301  25.011  1.00  0.00    -0.371 N 
ATOM     17  H   UNL A   1      33.525  18.056  25.874  1.00  0.00     0.161 HD
BRANCH  16  18
ATOM     18  C   UNL A   1      34.772  17.268  24.377  1.00  0.00     0.165 C 
ATOM     19  C   UNL A   1      34.079  16.780  23.104  1.00  0.00     0.041 C 
BRANCH  18  20
ATOM     20  C   UNL A   1      35.106  16.036  25.240  1.00  0.00     0.239 C 
ATOM     21  N   UNL A   1      36.247  16.138  25.995  1.00  0.00    -0.368 N 
ATOM     22  O   UNL A   1      34.435  15.009  25.290  1.00  0.00    -0.273 OA
ATOM     23  H   UNL A   1      36.790  16.958  25.958  1.00  0.00     0.159 HD
ATOM     24  H   UNL A   1      36.523  15.391  26.572  1.00  0.00     0.159 HD
ENDBRANCH  18  20
ENDBRANCH  16  18
ENDBRANCH   9  16
ENDBRANCH   5   8
ENDBRANCH   3   4
ENDBRANCH   2   3
ENDBRANCH   1   2
BRANCH   1  25
ATOM     25  C   UNL A   1      33.180  26.870  25.151  1.00  0.00     0.002 C 
BRANCH  25  26
ATOM     26  C   UNL A   1      33.092  28.028  26.146  1.00  0.00     0.021 C 
BRANCH  26  27
ATOM     27  C   UNL A   1      34.307  28.948  26.208  1.00  0.00     0.116 C 
BRANCH  27  28
ATOM     28  N   UNL A   1      33.997  30.250  26.773  1.00  0.00    -0.352 N 
ATOM     29  C   UNL A   1      34.612  30.928  27.798  1.00  0.00     0.251 C 
ATOM     30  H   UNL A   1      33.234  30.715  26.360  1.00  0.00     0.163 HD
ATOM     31  O   UNL A   1      34.103  31.950  28.244  1.00  0.00    -0.269 OA
BRANCH  29  32
ATOM     32  C   UNL A   1      35.873  30.413  28.379  1.00  0.00     0.039 A 
ATOM     33  C   UNL A   1      37.086  30.790  27.795  1.00  0.00     0.014 A 
ATOM     34  C   UNL A   1      35.866  29.558  29.484  1.00  0.00     0.014 A 
ATOM     35  C   UNL A   1      38.290  30.361  28.358  1.00  0.00     0.010 A 
ATOM     36  C   UNL A   1      37.068  29.191  30.087  1.00  0.00     0.010 A 
ATOM     37  C   UNL A   1      38.294  29.588  29.532  1.00  0.00    -0.014 A 
BRANCH  37  38
ATOM     38  C   UNL A   1      39.569  29.209  30.197  1.00  0.00     0.031 A 
ATOM     39  C   UNL A   1      40.079  29.999  31.373  1.00  0.00     0.074 A 
ATOM     40  C   UNL A   1      40.301  28.192  29.697  1.00  0.00     0.049 A 
ATOM     41  N   UNL A   1      41.197  29.857  32.038  1.00  0.00    -0.248 NA
ATOM     42  C   UNL A   1      39.236  31.108  31.852  1.00  0.00     0.031 C 
ATOM     43  C   UNL A   1      39.940  27.387  28.526  1.00  0.00     0.029 A 
ATOM     44  N   UNL A   1      41.506  27.669  30.096  1.00  0.00    -0.354 N 
ATOM     45  C   UNL A   1      41.202  30.867  32.995  1.00  0.00     0.074 A 
ATOM     46  C   UNL A   1      39.994  31.637  32.802  1.00  0.00     0.031 C 
ATOM     47  C   UNL A   1      40.896  26.471  28.308  1.00  0.00     0.029 A 
ATOM     48  C   UNL A   1      41.958  26.646  29.294  1.00  0.00     0.049 A 
ATOM     49  H   UNL A   1      42.001  27.995  30.881  1.00  0.00     0.167 HD
ATOM     50  C   UNL A   1      42.124  31.116  33.954  1.00  0.00     0.037 A 
ATOM     51  C   UNL A   1      43.107  25.940  29.333  1.00  0.00     0.037 A 
ATOM     52  C   UNL A   1      43.307  30.320  34.162  1.00  0.00     0.049 A 
ATOM     53  C   UNL A   1      44.107  26.231  30.420  1.00  0.00     0.074 A 
ATOM     54  C   UNL A   1      44.254  30.438  35.166  1.00  0.00     0.029 A 
ATOM     55  N   UNL A   1      43.713  29.270  33.352  1.00  0.00    -0.354 N 
ATOM     56  N   UNL A   1      44.048  27.128  31.376  1.00  0.00    -0.248 NA
ATOM     57  C   UNL A   1      45.327  25.412  30.443  1.00  0.00     0.031 C 
ATOM     58  C   UNL A   1      45.263  29.501  34.927  1.00  0.00     0.029 A 
ATOM     59  C   UNL A   1      44.914  28.754  33.813  1.00  0.00     0.049 A 
ATOM     60  H   UNL A   1      43.221  28.939  32.567  1.00  0.00     0.167 HD
ATOM     61  C   UNL A   1      45.207  26.963  32.126  1.00  0.00     0.074 A 
ATOM     62  C   UNL A   1      45.940  25.868  31.526  1.00  0.00     0.031 C 
ATOM     63  C   UNL A   1      45.628  27.657  33.212  1.00  0.00     0.037 A 
BRANCH  50  64
ATOM     64  C   UNL A   1      41.908  32.295  34.864  1.00  0.00     0.058 A 
ATOM     65  C   UNL A   1      42.468  33.553  34.593  1.00  0.00     0.135 A 
ATOM     66  C   UNL A   1      41.050  32.185  35.971  1.00  0.00     0.135 A 
ATOM     67  F   UNL A   1      43.308  33.711  33.557  1.00  0.00    -0.206 F 
ATOM     68  C   UNL A   1      42.190  34.659  35.389  1.00  0.00     0.059 A 
ATOM     69  C   UNL A   1      40.737  33.285  36.765  1.00  0.00     0.059 A 
ATOM     70  F   UNL A   1      40.490  31.005  36.277  1.00  0.00    -0.206 F 
ATOM     71  C   UNL A   1      41.315  34.517  36.469  1.00  0.00     0.060 A 
BRANCH  71  72
ATOM     72  S   UNL A   1      40.925  35.976  37.458  1.00  0.00     0.124 S 
ATOM     73  O   UNL A   1      42.155  36.752  37.332  1.00  0.00    -0.237 OA
ATOM     74  O   UNL A   1      39.759  36.518  36.767  1.00  0.00    -0.237 OA
ATOM     75  O   UNL A   1      40.665  35.428  38.786  1.00  0.00    -0.744 OA
ENDBRANCH  71  72
ENDBRANCH  50  64
BRANCH  51  76
ATOM     76  C   UNL A   1      43.384  24.899  28.305  1.00  0.00     0.058 A 
ATOM     77  C   UNL A   1      43.974  25.225  27.075  1.00  0.00     0.135 A 
ATOM     78  C   UNL A   1      43.043  23.554  28.528  1.00  0.00     0.135 A 
ATOM     79  F   UNL A   1      44.315  26.496  26.811  1.00  0.00    -0.206 F 
ATOM     80  C   UNL A   1      44.183  24.267  26.088  1.00  0.00     0.059 A 
ATOM     81  C   UNL A   1      43.273  22.572  27.569  1.00  0.00     0.059 A 
ATOM     82  F   UNL A   1      42.494  23.182  29.694  1.00  0.00    -0.206 F 
ATOM     83  C   UNL A   1      43.826  22.942  26.345  1.00  0.00     0.060 A 
BRANCH  83  84
ATOM     84  S   UNL A   1      44.113  21.703  25.062  1.00  0.00     0.124 S 
ATOM     85  O   UNL A   1      43.813  22.458  23.852  1.00  0.00    -0.237 OA
ATOM     86  O   UNL A   1      45.517  21.363  25.273  1.00  0.00    -0.237 OA
ATOM     87  O   UNL A   1      43.163  20.646  25.399  1.00  0.00    -0.744 OA
ENDBRANCH  83  84
ENDBRANCH  51  76
BRANCH  63  88
ATOM     88  C   UNL A   1      46.924  27.233  33.850  1.00  0.00     0.058 A 
ATOM     89  C   UNL A   1      46.972  26.239  34.838  1.00  0.00     0.135 A 
ATOM     90  C   UNL A   1      48.141  27.791  33.422  1.00  0.00     0.135 A 
ATOM     91  F   UNL A   1      45.838  25.677  35.289  1.00  0.00    -0.206 F 
ATOM     92  C   UNL A   1      48.177  25.830  35.399  1.00  0.00     0.059 A 
ATOM     93  C   UNL A   1      49.361  27.374  33.945  1.00  0.00     0.059 A 
ATOM     94  F   UNL A   1      48.154  28.738  32.470  1.00  0.00    -0.206 F 
ATOM     95  C   UNL A   1      49.367  26.400  34.942  1.00  0.00     0.060 A 
BRANCH  95  96
ATOM     96  S   UNL A   1      50.927  25.832  35.654  1.00  0.00     0.124 S 
ATOM     97  O   UNL A   1      51.871  26.797  35.100  1.00  0.00    -0.237 OA
ATOM     98  O   UNL A   1      50.675  25.942  37.087  1.00  0.00    -0.237 OA
ATOM     99  O   UNL A   1      51.055  24.468  35.149  1.00  0.00    -0.744 OA
ENDBRANCH  95  96
ENDBRANCH  63  88
ENDBRANCH  37  38
ENDBRANCH  29  32
ENDBRANCH  27  28
ENDBRANCH  26  27
ENDBRANCH  25  26
ENDBRANCH   1  25
TORSDOF 19
ENDMDL
MODEL 3
REMARK VINA RESULT:     -10.7      2.059      8.744
REMARK SMILES C[C@@H](Nc1ccc(C(=O)NCCCCCCNC(=O)c2ccc(-c3c4nc(c(-c5c(F)cc(S(=O)(=O)[O-])cc5F)c5ccc([nH]5)c(-c5c(F)cc(S(=O)(=O)[O-])cc5F)c5nc(c(-c6c(F)cc(S(=O)(=O)[O-])cc6F)c6ccc3[nH]6)C=C5)C=C4)cc2)c(F)c1F)C(N)=O
REMARK SMILES IDX 13 1 12 2 11 3 10 4 8 5 9 6 7 8 4 9 5 10 88 11 6 12 86 13
REMARK SMILES IDX 89 14 87 15 3 16 2 18 1 19 90 20 91 21 92 22 14 25 15 26
REMARK SMILES IDX 16 27 17 28 18 29 19 31 20 32 21 33 85 34 22 35 84 36 23 37
REMARK SMILES IDX 24 38 25 39 78 40 26 41 83 42 77 43 79 44 27 45 82 46 76 47
REMARK SMILES IDX 75 48 28 50 62 51 41 52 61 53 42 54 45 55 60 56 80 57 43 58
REMARK SMILES IDX 44 59 59 61 81 62 46 63 29 64 30 65 39 66 31 67 32 68 38 69
REMARK SMILES IDX 40 70 33 71 34 72 35 73 36 74 37 75 63 76 64 77 73 78 65 79
REMARK SMILES IDX 66 80 72 81 74 82 67 83 68 84 69 85 70 86 71 87 47 88 48 89
REMARK SMILES IDX 57 90 49 91 50 92 56 93 58 94 51 95 52 96 53 97 54 98 55 99
REMARK H PARENT 10 7 3 17 91 23 91 24 17 30 79 49 45 60
REMARK Flexibility Score: inf
ROOT
ATOM      1  C   UNL A   1      34.911  25.396  25.455  1.00  0.00     0.002 C 
ENDROOT
BRANCH   1   2
ATOM      2  C   UNL A   1      34.788  23.875  25.340  1.00  0.00     0.021 C 
BRANCH   2   3
ATOM      3  C   UNL A   1      34.513  23.312  23.948  1.00  0.00     0.116 C 
BRANCH   3   4
ATOM      4  N   UNL A   1      33.147  23.507  23.500  1.00  0.00    -0.352 N 
ATOM      5  C   UNL A   1      32.102  22.627  23.377  1.00  0.00     0.254 C 
ATOM      6  O   UNL A   1      31.026  23.070  22.970  1.00  0.00    -0.269 OA
ATOM      7  H   UNL A   1      32.933  24.432  23.239  1.00  0.00     0.163 HD
BRANCH   5   8
ATOM      8  C   UNL A   1      32.212  21.167  23.623  1.00  0.00     0.078 A 
ATOM      9  C   UNL A   1      32.555  18.344  23.839  1.00  0.00     0.074 A 
ATOM     10  C   UNL A   1      32.275  18.942  22.613  1.00  0.00     0.030 A 
ATOM     11  C   UNL A   1      32.542  19.185  24.965  1.00  0.00     0.182 A 
ATOM     12  C   UNL A   1      32.130  20.331  22.499  1.00  0.00     0.019 A 
ATOM     13  C   UNL A   1      32.339  20.563  24.868  1.00  0.00     0.173 A 
ATOM     14  F   UNL A   1      32.747  18.643  26.178  1.00  0.00    -0.201 F 
ATOM     15  F   UNL A   1      32.239  21.266  26.005  1.00  0.00    -0.203 F 
BRANCH   9  16
ATOM     16  N   UNL A   1      32.839  16.999  23.996  1.00  0.00    -0.371 N 
ATOM     17  H   UNL A   1      32.675  16.430  23.209  1.00  0.00     0.161 HD
BRANCH  16  18
ATOM     18  C   UNL A   1      33.355  16.310  25.194  1.00  0.00     0.165 C 
ATOM     19  C   UNL A   1      34.872  16.161  25.062  1.00  0.00     0.041 C 
BRANCH  18  20
ATOM     20  C   UNL A   1      32.765  14.917  25.488  1.00  0.00     0.239 C 
ATOM     21  N   UNL A   1      31.419  14.892  25.752  1.00  0.00    -0.368 N 
ATOM     22  O   UNL A   1      33.404  13.869  25.497  1.00  0.00    -0.273 OA
ATOM     23  H   UNL A   1      30.901  15.730  25.747  1.00  0.00     0.159 HD
ATOM     24  H   UNL A   1      30.971  14.038  25.947  1.00  0.00     0.159 HD
ENDBRANCH  18  20
ENDBRANCH  16  18
ENDBRANCH   9  16
ENDBRANCH   5   8
ENDBRANCH   3   4
ENDBRANCH   2   3
ENDBRANCH   1   2
BRANCH   1  25
ATOM     25  C   UNL A   1      33.620  26.170  25.733  1.00  0.00     0.002 C 
BRANCH  25  26
ATOM     26  C   UNL A   1      33.768  27.673  25.977  1.00  0.00     0.021 C 
BRANCH  26  27
ATOM     27  C   UNL A   1      33.329  28.171  27.351  1.00  0.00     0.116 C 
BRANCH  27  28
ATOM     28  N   UNL A   1      33.271  29.620  27.430  1.00  0.00    -0.352 N 
ATOM     29  C   UNL A   1      34.225  30.512  27.859  1.00  0.00     0.251 C 
ATOM     30  H   UNL A   1      32.423  30.023  27.133  1.00  0.00     0.163 HD
ATOM     31  O   UNL A   1      33.932  31.693  28.008  1.00  0.00    -0.269 OA
BRANCH  29  32
ATOM     32  C   UNL A   1      35.597  30.045  28.165  1.00  0.00     0.039 A 
ATOM     33  C   UNL A   1      36.552  30.051  27.146  1.00  0.00     0.014 A 
ATOM     34  C   UNL A   1      35.941  29.593  29.442  1.00  0.00     0.014 A 
ATOM     35  C   UNL A   1      37.865  29.667  27.424  1.00  0.00     0.010 A 
ATOM     36  C   UNL A   1      37.267  29.279  29.735  1.00  0.00     0.010 A 
ATOM     37  C   UNL A   1      38.245  29.313  28.729  1.00  0.00    -0.014 A 
BRANCH  37  38
ATOM     38  C   UNL A   1      39.661  28.997  29.059  1.00  0.00     0.031 A 
ATOM     39  C   UNL A   1      40.558  30.052  29.650  1.00  0.00     0.074 A 
ATOM     40  C   UNL A   1      40.155  27.778  28.762  1.00  0.00     0.049 A 
ATOM     41  N   UNL A   1      41.832  29.981  29.942  1.00  0.00    -0.248 NA
ATOM     42  C   UNL A   1      39.955  31.366  29.929  1.00  0.00     0.031 C 
ATOM     43  C   UNL A   1      39.399  26.690  28.136  1.00  0.00     0.029 A 
ATOM     44  N   UNL A   1      41.411  27.250  28.931  1.00  0.00    -0.354 N 
ATOM     45  C   UNL A   1      42.186  31.240  30.416  1.00  0.00     0.074 A 
ATOM     46  C   UNL A   1      41.003  32.067  30.339  1.00  0.00     0.031 C 
ATOM     47  C   UNL A   1      40.202  25.625  27.981  1.00  0.00     0.029 A 
ATOM     48  C   UNL A   1      41.539  25.964  28.458  1.00  0.00     0.049 A 
ATOM     49  H   UNL A   1      42.151  27.744  29.351  1.00  0.00     0.167 HD
ATOM     50  C   UNL A   1      43.384  31.658  30.884  1.00  0.00     0.037 A 
ATOM     51  C   UNL A   1      42.616  25.154  28.394  1.00  0.00     0.037 A 
ATOM     52  C   UNL A   1      44.548  30.816  30.992  1.00  0.00     0.049 A 
ATOM     53  C   UNL A   1      43.933  25.644  28.936  1.00  0.00     0.074 A 
ATOM     54  C   UNL A   1      45.782  31.125  31.540  1.00  0.00     0.029 A 
ATOM     55  N   UNL A   1      44.630  29.509  30.535  1.00  0.00    -0.354 N 
ATOM     56  N   UNL A   1      44.222  26.807  29.470  1.00  0.00    -0.248 NA
ATOM     57  C   UNL A   1      45.067  24.712  28.878  1.00  0.00     0.031 C 
ATOM     58  C   UNL A   1      46.627  30.026  31.359  1.00  0.00     0.029 A 
ATOM     59  C   UNL A   1      45.903  29.010  30.757  1.00  0.00     0.049 A 
ATOM     60  H   UNL A   1      43.893  29.010  30.115  1.00  0.00     0.167 HD
ATOM     61  C   UNL A   1      45.564  26.736  29.833  1.00  0.00     0.074 A 
ATOM     62  C   UNL A   1      46.022  25.410  29.476  1.00  0.00     0.031 C 
ATOM     63  C   UNL A   1      46.344  27.684  30.406  1.00  0.00     0.037 A 
BRANCH  50  64
ATOM     64  C   UNL A   1      43.518  33.092  31.324  1.00  0.00     0.058 A 
ATOM     65  C   UNL A   1      43.298  33.483  32.654  1.00  0.00     0.135 A 
ATOM     66  C   UNL A   1      43.966  34.070  30.420  1.00  0.00     0.135 A 
ATOM     67  F   UNL A   1      42.855  32.594  33.556  1.00  0.00    -0.206 F 
ATOM     68  C   UNL A   1      43.511  34.793  33.071  1.00  0.00     0.059 A 
ATOM     69  C   UNL A   1      44.212  35.379  30.822  1.00  0.00     0.059 A 
ATOM     70  F   UNL A   1      44.189  33.751  29.135  1.00  0.00    -0.206 F 
ATOM     71  C   UNL A   1      43.977  35.733  32.149  1.00  0.00     0.060 A 
BRANCH  71  72
ATOM     72  S   UNL A   1      44.299  37.414  32.721  1.00  0.00     0.124 S 
ATOM     73  O   UNL A   1      44.062  38.187  31.505  1.00  0.00    -0.237 OA
ATOM     74  O   UNL A   1      43.309  37.578  33.780  1.00  0.00    -0.237 OA
ATOM     75  O   UNL A   1      45.688  37.363  33.168  1.00  0.00    -0.744 OA
ENDBRANCH  71  72
ENDBRANCH  50  64
BRANCH  51  76
ATOM     76  C   UNL A   1      42.503  23.801  27.782  1.00  0.00     0.058 A 
ATOM     77  C   UNL A   1      42.381  22.649  28.573  1.00  0.00     0.135 A 
ATOM     78  C   UNL A   1      42.535  23.633  26.388  1.00  0.00     0.135 A 
ATOM     79  F   UNL A   1      42.350  22.755  29.911  1.00  0.00    -0.206 F 
ATOM     80  C   UNL A   1      42.332  21.377  28.010  1.00  0.00     0.059 A 
ATOM     81  C   UNL A   1      42.455  22.375  25.800  1.00  0.00     0.059 A 
ATOM     82  F   UNL A   1      42.630  24.702  25.582  1.00  0.00    -0.206 F 
ATOM     83  C   UNL A   1      42.372  21.251  26.620  1.00  0.00     0.060 A 
BRANCH  83  84
ATOM     84  S   UNL A   1      42.295  19.598  25.897  1.00  0.00     0.124 S 
ATOM     85  O   UNL A   1      42.625  18.761  27.044  1.00  0.00    -0.237 OA
ATOM     86  O   UNL A   1      40.914  19.531  25.431  1.00  0.00    -0.237 OA
ATOM     87  O   UNL A   1      43.303  19.647  24.841  1.00  0.00    -0.744 OA
ENDBRANCH  83  84
ENDBRANCH  51  76
BRANCH  63  88
ATOM     88  C   UNL A   1      47.769  27.315  30.721  1.00  0.00     0.058 A 
ATOM     89  C   UNL A   1      48.819  27.589  29.832  1.00  0.00     0.135 A 
ATOM     90  C   UNL A   1      48.093  26.730  31.957  1.00  0.00     0.135 A 
ATOM     91  F   UNL A   1      48.565  28.140  28.634  1.00  0.00    -0.206 F 
ATOM     92  C   UNL A   1      50.137  27.275  30.145  1.00  0.00     0.059 A 
ATOM     93  C   UNL A   1      49.408  26.437  32.306  1.00  0.00     0.059 A 
ATOM     94  F   UNL A   1      47.129  26.457  32.851  1.00  0.00    -0.206 F 
ATOM     95  C   UNL A   1      50.422  26.703  31.387  1.00  0.00     0.060 A 
BRANCH  95  96
ATOM     96  S   UNL A   1      52.142  26.334  31.795  1.00  0.00     0.124 S 
ATOM     97  O   UNL A   1      52.314  27.074  33.041  1.00  0.00    -0.237 OA
ATOM     98  O   UNL A   1      52.129  24.880  31.916  1.00  0.00    -0.237 OA
ATOM     99  O   UNL A   1      52.883  26.855  30.649  1.00  0.00    -0.744 OA
ENDBRANCH  95  96
ENDBRANCH  63  88
ENDBRANCH  37  38
ENDBRANCH  29  32
ENDBRANCH  27  28
ENDBRANCH  26  27
ENDBRANCH  25  26
ENDBRANCH   1  25
TORSDOF 19
ENDMDL
