MODEL 1
REMARK VINA RESULT:     -11.9      0.000      0.000
REMARK SMILES Cc1c(Br)c(C)c2c(c1Br)O[C@H](C(F)(F)F)C(C(=O)NCCCCCCNC(=O)c1ccc(-c3c4nc(c(-c5c(F)cc(S(=O)(=O)[O-])cc5F)c5ccc([nH]5)c(-c5c(F)cc(S(=O)(=O)[O-])cc5F)c5nc(c(-c6c(F)cc(S(=O)(=O)[O-])cc6F)c6ccc3[nH]6)C=C5)C=C4)cc1)=C2
REMARK SMILES IDX 24 1 23 2 22 3 21 4 20 5 18 6 19 7 17 9 1 10 2 11 3 12 9 13
REMARK SMILES IDX 4 14 5 15 8 16 10 17 6 18 7 19 11 20 96 21 12 22 13 23 14 24
REMARK SMILES IDX 15 25 16 26 25 27 26 28 27 29 28 30 29 32 30 33 31 34 95 35
REMARK SMILES IDX 32 36 94 37 33 38 34 39 35 40 88 41 36 42 93 43 87 44 89 45
REMARK SMILES IDX 37 46 92 47 86 48 85 49 38 51 72 52 51 53 71 54 52 55 55 56
REMARK SMILES IDX 70 57 90 58 53 59 54 60 69 62 91 63 56 64 39 65 40 66 49 67
REMARK SMILES IDX 41 68 42 69 48 70 50 71 43 72 44 73 45 74 46 75 47 76 73 77
REMARK SMILES IDX 74 78 83 79 75 80 76 81 82 82 84 83 77 84 78 85 79 86 80 87
REMARK SMILES IDX 81 88 57 89 58 90 67 91 59 92 60 93 66 94 68 95 61 96 62 97
REMARK SMILES IDX 63 98 64 99 65 100
REMARK H PARENT 20 8 27 31 89 50 55 61
REMARK Flexibility Score: inf
ROOT
ATOM      1  C   UNL A   1      33.016  28.577  27.253  1.00  0.00     0.002 C 
ENDROOT
BRANCH   1   2
ATOM      2  C   UNL A   1      31.633  29.090  26.833  1.00  0.00     0.002 C 
BRANCH   2   3
ATOM      3  C   UNL A   1      31.648  30.159  25.737  1.00  0.00     0.021 C 
BRANCH   3   4
ATOM      4  C   UNL A   1      31.302  29.612  24.357  1.00  0.00     0.116 C 
BRANCH   4   5
ATOM      5  N   UNL A   1      32.494  29.255  23.608  1.00  0.00    -0.352 N 
ATOM      6  C   UNL A   1      33.222  28.137  23.380  1.00  0.00     0.251 C 
ATOM      7  O   UNL A   1      34.194  28.282  22.631  1.00  0.00    -0.270 OA
ATOM      8  H   UNL A   1      32.873  30.034  23.140  1.00  0.00     0.163 HD
BRANCH   6   9
ATOM      9  C   UNL A   1      32.932  26.790  23.958  1.00  0.00     0.067 C 
ATOM     10  C   UNL A   1      33.071  20.695  26.399  1.00  0.00     0.047 C 
ATOM     11  C   UNL A   1      33.320  22.048  25.775  1.00  0.00    -0.019 A 
ATOM     12  C   UNL A   1      34.556  22.345  25.144  1.00  0.00     0.025 A 
ATOM     13  C   UNL A   1      32.318  23.032  25.757  1.00  0.00     0.064 A 
ATOM     14  Br  UNL A   1      35.900  20.974  25.072  1.00  0.00    -0.050 Br
ATOM     15  C   UNL A   1      34.811  23.614  24.558  1.00  0.00    -0.026 A 
ATOM     16  C   UNL A   1      32.558  24.288  25.180  1.00  0.00     0.142 A 
ATOM     17  Br  UNL A   1      30.574  22.704  26.484  1.00  0.00    -0.046 Br
ATOM     18  C   UNL A   1      36.128  23.956  23.898  1.00  0.00     0.046 C 
ATOM     19  C   UNL A   1      33.793  24.596  24.595  1.00  0.00     0.022 A 
ATOM     20  O   UNL A   1      31.551  25.207  25.269  1.00  0.00    -0.474 OA
ATOM     21  C   UNL A   1      33.981  25.955  24.069  1.00  0.00     0.026 C 
ATOM     22  C   UNL A   1      31.569  26.334  24.369  1.00  0.00     0.314 C 
BRANCH  22  23
ATOM     23  C   UNL A   1      30.642  26.056  23.172  1.00  0.00     0.429 C 
ATOM     24  F   UNL A   1      29.767  25.064  23.465  1.00  0.00    -0.167 F 
ATOM     25  F   UNL A   1      29.899  27.134  22.831  1.00  0.00    -0.167 F 
ATOM     26  F   UNL A   1      31.328  25.686  22.067  1.00  0.00    -0.167 F 
ENDBRANCH  22  23
ENDBRANCH   6   9
ENDBRANCH   4   5
ENDBRANCH   3   4
ENDBRANCH   2   3
ENDBRANCH   1   2
BRANCH   1  27
ATOM     27  C   UNL A   1      34.152  29.598  27.138  1.00  0.00     0.021 C 
BRANCH  27  28
ATOM     28  C   UNL A   1      35.331  29.329  28.065  1.00  0.00     0.116 C 
BRANCH  28  29
ATOM     29  N   UNL A   1      35.407  30.313  29.133  1.00  0.00    -0.352 N 
ATOM     30  C   UNL A   1      36.473  30.644  29.928  1.00  0.00     0.251 C 
ATOM     31  H   UNL A   1      34.576  30.810  29.310  1.00  0.00     0.163 HD
ATOM     32  O   UNL A   1      36.299  31.318  30.941  1.00  0.00    -0.269 OA
BRANCH  30  33
ATOM     33  C   UNL A   1      37.825  30.178  29.563  1.00  0.00     0.039 A 
ATOM     34  C   UNL A   1      38.171  30.091  28.214  1.00  0.00     0.014 A 
ATOM     35  C   UNL A   1      38.743  29.822  30.556  1.00  0.00     0.014 A 
ATOM     36  C   UNL A   1      39.458  29.684  27.861  1.00  0.00     0.010 A 
ATOM     37  C   UNL A   1      40.046  29.487  30.204  1.00  0.00     0.010 A 
ATOM     38  C   UNL A   1      40.411  29.401  28.853  1.00  0.00    -0.014 A 
BRANCH  38  39
ATOM     39  C   UNL A   1      41.788  28.983  28.492  1.00  0.00     0.031 A 
ATOM     40  C   UNL A   1      42.900  29.997  28.492  1.00  0.00     0.074 A 
ATOM     41  C   UNL A   1      42.026  27.705  28.137  1.00  0.00     0.049 A 
ATOM     42  N   UNL A   1      44.156  29.841  28.164  1.00  0.00    -0.248 NA
ATOM     43  C   UNL A   1      42.551  31.371  28.892  1.00  0.00     0.031 C 
ATOM     44  C   UNL A   1      41.020  26.644  28.073  1.00  0.00     0.029 A 
ATOM     45  N   UNL A   1      43.190  27.081  27.763  1.00  0.00    -0.354 N 
ATOM     46  C   UNL A   1      44.745  31.090  28.319  1.00  0.00     0.074 A 
ATOM     47  C   UNL A   1      43.698  32.008  28.709  1.00  0.00     0.031 C 
ATOM     48  C   UNL A   1      41.614  25.494  27.713  1.00  0.00     0.029 A 
ATOM     49  C   UNL A   1      43.034  25.744  27.481  1.00  0.00     0.049 A 
ATOM     50  H   UNL A   1      44.055  27.547  27.703  1.00  0.00     0.167 HD
ATOM     51  C   UNL A   1      46.046  31.432  28.179  1.00  0.00     0.037 A 
ATOM     52  C   UNL A   1      43.934  24.825  27.078  1.00  0.00     0.037 A 
ATOM     53  C   UNL A   1      47.085  30.506  27.815  1.00  0.00     0.049 A 
ATOM     54  C   UNL A   1      45.370  25.243  26.897  1.00  0.00     0.074 A 
ATOM     55  C   UNL A   1      48.442  30.747  27.687  1.00  0.00     0.029 A 
ATOM     56  N   UNL A   1      46.887  29.164  27.526  1.00  0.00    -0.354 N 
ATOM     57  N   UNL A   1      45.918  26.418  27.093  1.00  0.00    -0.248 NA
ATOM     58  C   UNL A   1      46.311  24.210  26.441  1.00  0.00     0.031 C 
ATOM     59  C   UNL A   1      49.057  29.562  27.273  1.00  0.00     0.029 A 
ATOM     60  C   UNL A   1      48.093  28.569  27.196  1.00  0.00     0.049 A 
ATOM     61  H   UNL A   1      46.017  28.703  27.552  1.00  0.00     0.167 HD
ATOM     62  C   UNL A   1      47.269  26.261  26.808  1.00  0.00     0.074 A 
ATOM     63  C   UNL A   1      47.460  24.873  26.443  1.00  0.00     0.031 C 
ATOM     64  C   UNL A   1      48.263  27.183  26.841  1.00  0.00     0.037 A 
BRANCH  51  65
ATOM     65  C   UNL A   1      46.431  32.862  28.441  1.00  0.00     0.058 A 
ATOM     66  C   UNL A   1      46.425  33.822  27.417  1.00  0.00     0.135 A 
ATOM     67  C   UNL A   1      46.734  33.294  29.743  1.00  0.00     0.135 A 
ATOM     68  F   UNL A   1      46.162  33.459  26.152  1.00  0.00    -0.206 F 
ATOM     69  C   UNL A   1      46.711  35.159  27.671  1.00  0.00     0.059 A 
ATOM     70  C   UNL A   1      46.997  34.632  30.025  1.00  0.00     0.059 A 
ATOM     71  F   UNL A   1      46.761  32.417  30.758  1.00  0.00    -0.206 F 
ATOM     72  C   UNL A   1      46.987  35.556  28.981  1.00  0.00     0.060 A 
BRANCH  72  73
ATOM     73  S   UNL A   1      47.312  37.304  29.296  1.00  0.00     0.124 S 
ATOM     74  O   UNL A   1      48.177  37.233  30.470  1.00  0.00    -0.237 OA
ATOM     75  O   UNL A   1      47.958  37.726  28.058  1.00  0.00    -0.237 OA
ATOM     76  O   UNL A   1      45.984  37.861  29.531  1.00  0.00    -0.744 OA
ENDBRANCH  72  73
ENDBRANCH  51  65
BRANCH  52  77
ATOM     77  C   UNL A   1      43.510  23.419  26.836  1.00  0.00     0.058 A 
ATOM     78  C   UNL A   1      43.407  22.912  25.533  1.00  0.00     0.135 A 
ATOM     79  C   UNL A   1      43.205  22.554  27.899  1.00  0.00     0.135 A 
ATOM     80  F   UNL A   1      43.682  23.701  24.482  1.00  0.00    -0.206 F 
ATOM     81  C   UNL A   1      43.000  21.605  25.288  1.00  0.00     0.059 A 
ATOM     82  C   UNL A   1      42.822  21.234  27.681  1.00  0.00     0.059 A 
ATOM     83  F   UNL A   1      43.303  22.984  29.166  1.00  0.00    -0.206 F 
ATOM     84  C   UNL A   1      42.712  20.772  26.371  1.00  0.00     0.060 A 
BRANCH  84  85
ATOM     85  S   UNL A   1      42.218  19.066  26.040  1.00  0.00     0.124 S 
ATOM     86  O   UNL A   1      40.793  19.219  25.774  1.00  0.00    -0.237 OA
ATOM     87  O   UNL A   1      43.051  18.726  24.891  1.00  0.00    -0.237 OA
ATOM     88  O   UNL A   1      42.558  18.372  27.279  1.00  0.00    -0.744 OA
ENDBRANCH  84  85
ENDBRANCH  52  77
BRANCH  64  89
ATOM     89  C   UNL A   1      49.652  26.724  26.491  1.00  0.00     0.058 A 
ATOM     90  C   UNL A   1      50.452  26.035  27.415  1.00  0.00     0.135 A 
ATOM     91  C   UNL A   1      50.156  26.905  25.193  1.00  0.00     0.135 A 
ATOM     92  F   UNL A   1      50.019  25.839  28.671  1.00  0.00    -0.206 F 
ATOM     93  C   UNL A   1      51.711  25.556  27.070  1.00  0.00     0.059 A 
ATOM     94  C   UNL A   1      51.399  26.408  24.816  1.00  0.00     0.059 A 
ATOM     95  F   UNL A   1      49.426  27.547  24.267  1.00  0.00    -0.206 F 
ATOM     96  C   UNL A   1      52.173  25.741  25.765  1.00  0.00     0.060 A 
BRANCH  96  97
ATOM     97  S   UNL A   1      53.790  25.073  25.323  1.00  0.00     0.124 S 
ATOM     98  O   UNL A   1      53.961  25.587  23.968  1.00  0.00    -0.237 OA
ATOM     99  O   UNL A   1      54.657  25.662  26.339  1.00  0.00    -0.237 OA
ATOM    100  O   UNL A   1      53.603  23.629  25.426  1.00  0.00    -0.744 OA
ENDBRANCH  96  97
ENDBRANCH  64  89
ENDBRANCH  38  39
ENDBRANCH  30  33
ENDBRANCH  28  29
ENDBRANCH  27  28
ENDBRANCH   1  27
TORSDOF 17
ENDMDL
MODEL 2
REMARK VINA RESULT:     -11.9      4.454     10.065
REMARK SMILES Cc1c(Br)c(C)c2c(c1Br)O[C@H](C(F)(F)F)C(C(=O)NCCCCCCNC(=O)c1ccc(-c3c4nc(c(-c5c(F)cc(S(=O)(=O)[O-])cc5F)c5ccc([nH]5)c(-c5c(F)cc(S(=O)(=O)[O-])cc5F)c5nc(c(-c6c(F)cc(S(=O)(=O)[O-])cc6F)c6ccc3[nH]6)C=C5)C=C4)cc1)=C2
REMARK SMILES IDX 24 1 23 2 22 3 21 4 20 5 18 6 19 7 17 9 1 10 2 11 3 12 9 13
REMARK SMILES IDX 4 14 5 15 8 16 10 17 6 18 7 19 11 20 96 21 12 22 13 23 14 24
REMARK SMILES IDX 15 25 16 26 25 27 26 28 27 29 28 30 29 32 30 33 31 34 95 35
REMARK SMILES IDX 32 36 94 37 33 38 34 39 35 40 88 41 36 42 93 43 87 44 89 45
REMARK SMILES IDX 37 46 92 47 86 48 85 49 38 51 72 52 51 53 71 54 52 55 55 56
REMARK SMILES IDX 70 57 90 58 53 59 54 60 69 62 91 63 56 64 39 65 40 66 49 67
REMARK SMILES IDX 41 68 42 69 48 70 50 71 43 72 44 73 45 74 46 75 47 76 73 77
REMARK SMILES IDX 74 78 83 79 75 80 76 81 82 82 84 83 77 84 78 85 79 86 80 87
REMARK SMILES IDX 81 88 57 89 58 90 67 91 59 92 60 93 66 94 68 95 61 96 62 97
REMARK SMILES IDX 63 98 64 99 65 100
REMARK H PARENT 20 8 27 31 89 50 55 61
REMARK Flexibility Score: inf
ROOT
ATOM      1  C   UNL A   1      35.024  22.039  26.277  1.00  0.00     0.002 C 
ENDROOT
BRANCH   1   2
ATOM      2  C   UNL A   1      34.346  21.424  25.046  1.00  0.00     0.002 C 
BRANCH   2   3
ATOM      3  C   UNL A   1      32.819  21.533  25.029  1.00  0.00     0.021 C 
BRANCH   3   4
ATOM      4  C   UNL A   1      32.318  22.931  24.680  1.00  0.00     0.116 C 
BRANCH   4   5
ATOM      5  N   UNL A   1      32.925  23.428  23.459  1.00  0.00    -0.352 N 
ATOM      6  C   UNL A   1      33.040  24.616  22.823  1.00  0.00     0.251 C 
ATOM      7  O   UNL A   1      33.687  24.593  21.769  1.00  0.00    -0.270 OA
ATOM      8  H   UNL A   1      33.375  22.707  22.960  1.00  0.00     0.163 HD
BRANCH   6   9
ATOM      9  C   UNL A   1      32.454  25.905  23.298  1.00  0.00     0.067 C 
ATOM     10  C   UNL A   1      31.147  31.736  26.022  1.00  0.00     0.047 C 
ATOM     11  C   UNL A   1      31.689  30.404  25.560  1.00  0.00    -0.019 A 
ATOM     12  C   UNL A   1      32.850  29.843  26.152  1.00  0.00     0.025 A 
ATOM     13  C   UNL A   1      31.031  29.662  24.566  1.00  0.00     0.064 A 
ATOM     14  Br  UNL A   1      33.702  30.800  27.583  1.00  0.00    -0.050 Br
ATOM     15  C   UNL A   1      33.379  28.595  25.726  1.00  0.00    -0.026 A 
ATOM     16  C   UNL A   1      31.544  28.427  24.138  1.00  0.00     0.142 A 
ATOM     17  Br  UNL A   1      29.396  30.272  23.772  1.00  0.00    -0.046 Br
ATOM     18  C   UNL A   1      34.625  27.988  26.331  1.00  0.00     0.046 C 
ATOM     19  C   UNL A   1      32.713  27.893  24.693  1.00  0.00     0.022 A 
ATOM     20  O   UNL A   1      30.877  27.807  23.119  1.00  0.00    -0.474 OA
ATOM     21  C   UNL A   1      33.214  26.626  24.143  1.00  0.00     0.026 C 
ATOM     22  C   UNL A   1      31.094  26.395  22.917  1.00  0.00     0.314 C 
BRANCH  22  23
ATOM     23  C   UNL A   1      29.960  25.597  23.584  1.00  0.00     0.429 C 
ATOM     24  F   UNL A   1      30.203  25.436  24.907  1.00  0.00    -0.167 F 
ATOM     25  F   UNL A   1      28.761  26.218  23.487  1.00  0.00    -0.167 F 
ATOM     26  F   UNL A   1      29.809  24.367  23.041  1.00  0.00    -0.167 F 
ENDBRANCH  22  23
ENDBRANCH   6   9
ENDBRANCH   4   5
ENDBRANCH   3   4
ENDBRANCH   2   3
ENDBRANCH   1   2
BRANCH   1  27
ATOM     27  C   UNL A   1      35.258  23.551  26.204  1.00  0.00     0.021 C 
BRANCH  27  28
ATOM     28  C   UNL A   1      36.564  23.951  25.529  1.00  0.00     0.116 C 
BRANCH  28  29
ATOM     29  N   UNL A   1      37.577  22.919  25.673  1.00  0.00    -0.352 N 
ATOM     30  C   UNL A   1      38.858  23.026  26.149  1.00  0.00     0.251 C 
ATOM     31  H   UNL A   1      37.306  22.016  25.387  1.00  0.00     0.163 HD
ATOM     32  O   UNL A   1      39.658  22.110  25.973  1.00  0.00    -0.269 OA
BRANCH  30  33
ATOM     33  C   UNL A   1      39.267  24.249  26.865  1.00  0.00     0.039 A 
ATOM     34  C   UNL A   1      38.878  24.420  28.195  1.00  0.00     0.014 A 
ATOM     35  C   UNL A   1      40.027  25.228  26.218  1.00  0.00     0.014 A 
ATOM     36  C   UNL A   1      39.289  25.558  28.889  1.00  0.00     0.010 A 
ATOM     37  C   UNL A   1      40.496  26.325  26.932  1.00  0.00     0.010 A 
ATOM     38  C   UNL A   1      40.119  26.507  28.271  1.00  0.00    -0.014 A 
BRANCH  38  39
ATOM     39  C   UNL A   1      40.577  27.714  29.002  1.00  0.00     0.031 A 
ATOM     40  C   UNL A   1      41.964  27.751  29.584  1.00  0.00     0.074 A 
ATOM     41  C   UNL A   1      39.736  28.754  29.167  1.00  0.00     0.049 A 
ATOM     42  N   UNL A   1      42.534  28.691  30.294  1.00  0.00    -0.248 NA
ATOM     43  C   UNL A   1      42.817  26.572  29.358  1.00  0.00     0.031 C 
ATOM     44  C   UNL A   1      38.360  28.815  28.672  1.00  0.00     0.029 A 
ATOM     45  N   UNL A   1      39.915  29.960  29.797  1.00  0.00    -0.354 N 
ATOM     46  C   UNL A   1      43.805  28.218  30.596  1.00  0.00     0.074 A 
ATOM     47  C   UNL A   1      43.904  26.883  30.048  1.00  0.00     0.031 C 
ATOM     48  C   UNL A   1      37.830  30.007  28.990  1.00  0.00     0.029 A 
ATOM     49  C   UNL A   1      38.813  30.779  29.746  1.00  0.00     0.049 A 
ATOM     50  H   UNL A   1      40.755  30.214  30.243  1.00  0.00     0.167 HD
ATOM     51  C   UNL A   1      44.809  28.852  31.244  1.00  0.00     0.037 A 
ATOM     52  C   UNL A   1      38.615  32.012  30.254  1.00  0.00     0.037 A 
ATOM     53  C   UNL A   1      44.710  30.190  31.763  1.00  0.00     0.049 A 
ATOM     54  C   UNL A   1      39.739  32.681  31.001  1.00  0.00     0.074 A 
ATOM     55  C   UNL A   1      45.685  30.937  32.401  1.00  0.00     0.029 A 
ATOM     56  N   UNL A   1      43.574  30.984  31.703  1.00  0.00    -0.354 N 
ATOM     57  N   UNL A   1      40.951  32.237  31.237  1.00  0.00    -0.248 NA
ATOM     58  C   UNL A   1      39.472  34.017  31.550  1.00  0.00     0.031 C 
ATOM     59  C   UNL A   1      45.125  32.163  32.769  1.00  0.00     0.029 A 
ATOM     60  C   UNL A   1      43.816  32.203  32.313  1.00  0.00     0.049 A 
ATOM     61  H   UNL A   1      42.722  30.718  31.287  1.00  0.00     0.167 HD
ATOM     62  C   UNL A   1      41.596  33.248  31.940  1.00  0.00     0.074 A 
ATOM     63  C   UNL A   1      40.648  34.333  32.076  1.00  0.00     0.031 C 
ATOM     64  C   UNL A   1      42.860  33.274  32.433  1.00  0.00     0.037 A 
BRANCH  51  65
ATOM     65  C   UNL A   1      46.113  28.122  31.411  1.00  0.00     0.058 A 
ATOM     66  C   UNL A   1      46.364  27.320  32.535  1.00  0.00     0.135 A 
ATOM     67  C   UNL A   1      47.089  28.161  30.402  1.00  0.00     0.135 A 
ATOM     68  F   UNL A   1      45.473  27.262  33.538  1.00  0.00    -0.206 F 
ATOM     69  C   UNL A   1      47.539  26.587  32.658  1.00  0.00     0.059 A 
ATOM     70  C   UNL A   1      48.261  27.414  30.491  1.00  0.00     0.059 A 
ATOM     71  F   UNL A   1      46.903  28.916  29.310  1.00  0.00    -0.206 F 
ATOM     72  C   UNL A   1      48.478  26.633  31.626  1.00  0.00     0.060 A 
BRANCH  72  73
ATOM     73  S   UNL A   1      49.976  25.639  31.785  1.00  0.00     0.124 S 
ATOM     74  O   UNL A   1      49.574  24.665  32.797  1.00  0.00    -0.237 OA
ATOM     75  O   UNL A   1      50.145  25.115  30.434  1.00  0.00    -0.237 OA
ATOM     76  O   UNL A   1      50.984  26.604  32.212  1.00  0.00    -0.744 OA
ENDBRANCH  72  73
ENDBRANCH  51  65
BRANCH  52  77
ATOM     77  C   UNL A   1      37.311  32.701  30.059  1.00  0.00     0.058 A 
ATOM     78  C   UNL A   1      37.142  33.647  29.038  1.00  0.00     0.135 A 
ATOM     79  C   UNL A   1      36.208  32.427  30.884  1.00  0.00     0.135 A 
ATOM     80  F   UNL A   1      38.167  33.949  28.226  1.00  0.00    -0.206 F 
ATOM     81  C   UNL A   1      35.934  34.311  28.850  1.00  0.00     0.059 A 
ATOM     82  C   UNL A   1      34.981  33.058  30.698  1.00  0.00     0.059 A 
ATOM     83  F   UNL A   1      36.311  31.519  31.866  1.00  0.00    -0.206 F 
ATOM     84  C   UNL A   1      34.857  34.007  29.685  1.00  0.00     0.060 A 
BRANCH  84  85
ATOM     85  S   UNL A   1      33.284  34.850  29.407  1.00  0.00     0.124 S 
ATOM     86  O   UNL A   1      32.747  34.924  30.761  1.00  0.00    -0.237 OA
ATOM     87  O   UNL A   1      33.716  36.113  28.820  1.00  0.00    -0.237 OA
ATOM     88  O   UNL A   1      32.578  33.952  28.497  1.00  0.00    -0.744 OA
ENDBRANCH  84  85
ENDBRANCH  52  77
BRANCH  64  89
ATOM     89  C   UNL A   1      43.302  34.519  33.151  1.00  0.00     0.058 A 
ATOM     90  C   UNL A   1      43.871  35.600  32.462  1.00  0.00     0.135 A 
ATOM     91  C   UNL A   1      43.080  34.663  34.531  1.00  0.00     0.135 A 
ATOM     92  F   UNL A   1      44.108  35.513  31.144  1.00  0.00    -0.206 F 
ATOM     93  C   UNL A   1      44.221  36.775  33.118  1.00  0.00     0.059 A 
ATOM     94  C   UNL A   1      43.393  35.840  35.202  1.00  0.00     0.059 A 
ATOM     95  F   UNL A   1      42.527  33.662  35.235  1.00  0.00    -0.206 F 
ATOM     96  C   UNL A   1      43.972  36.888  34.487  1.00  0.00     0.060 A 
BRANCH  96  97
ATOM     97  S   UNL A   1      44.391  38.437  35.313  1.00  0.00     0.124 S 
ATOM     98  O   UNL A   1      45.838  38.483  35.139  1.00  0.00    -0.237 OA
ATOM     99  O   UNL A   1      43.628  39.415  34.542  1.00  0.00    -0.237 OA
ATOM    100  O   UNL A   1      43.930  38.230  36.683  1.00  0.00    -0.744 OA
ENDBRANCH  96  97
ENDBRANCH  64  89
ENDBRANCH  38  39
ENDBRANCH  30  33
ENDBRANCH  28  29
ENDBRANCH  27  28
ENDBRANCH   1  27
TORSDOF 17
ENDMDL
MODEL 3
REMARK VINA RESULT:     -11.7      6.500     11.869
REMARK SMILES Cc1c(Br)c(C)c2c(c1Br)O[C@H](C(F)(F)F)C(C(=O)NCCCCCCNC(=O)c1ccc(-c3c4nc(c(-c5c(F)cc(S(=O)(=O)[O-])cc5F)c5ccc([nH]5)c(-c5c(F)cc(S(=O)(=O)[O-])cc5F)c5nc(c(-c6c(F)cc(S(=O)(=O)[O-])cc6F)c6ccc3[nH]6)C=C5)C=C4)cc1)=C2
REMARK SMILES IDX 24 1 23 2 22 3 21 4 20 5 18 6 19 7 17 9 1 10 2 11 3 12 9 13
REMARK SMILES IDX 4 14 5 15 8 16 10 17 6 18 7 19 11 20 96 21 12 22 13 23 14 24
REMARK SMILES IDX 15 25 16 26 25 27 26 28 27 29 28 30 29 32 30 33 31 34 95 35
REMARK SMILES IDX 32 36 94 37 33 38 34 39 35 40 88 41 36 42 93 43 87 44 89 45
REMARK SMILES IDX 37 46 92 47 86 48 85 49 38 51 72 52 51 53 71 54 52 55 55 56
REMARK SMILES IDX 70 57 90 58 53 59 54 60 69 62 91 63 56 64 39 65 40 66 49 67
REMARK SMILES IDX 41 68 42 69 48 70 50 71 43 72 44 73 45 74 46 75 47 76 73 77
REMARK SMILES IDX 74 78 83 79 75 80 76 81 82 82 84 83 77 84 78 85 79 86 80 87
REMARK SMILES IDX 81 88 57 89 58 90 67 91 59 92 60 93 66 94 68 95 61 96 62 97
REMARK SMILES IDX 63 98 64 99 65 100
REMARK H PARENT 20 8 27 31 89 50 55 61
REMARK Flexibility Score: inf
ROOT
ATOM      1  C   UNL A   1      41.176  21.925  26.479  1.00  0.00     0.002 C 
ENDROOT
BRANCH   1   2
ATOM      2  C   UNL A   1      39.763  22.514  26.571  1.00  0.00     0.002 C 
BRANCH   2   3
ATOM      3  C   UNL A   1      38.695  21.755  25.779  1.00  0.00     0.021 C 
BRANCH   3   4
ATOM      4  C   UNL A   1      37.492  22.616  25.410  1.00  0.00     0.116 C 
BRANCH   4   5
ATOM      5  N   UNL A   1      36.337  22.301  26.232  1.00  0.00    -0.352 N 
ATOM      6  C   UNL A   1      35.025  22.629  26.263  1.00  0.00     0.251 C 
ATOM      7  O   UNL A   1      34.366  22.095  27.163  1.00  0.00    -0.270 OA
ATOM      8  H   UNL A   1      36.571  21.682  26.961  1.00  0.00     0.163 HD
BRANCH   6   9
ATOM      9  C   UNL A   1      34.350  23.563  25.313  1.00  0.00     0.067 C 
ATOM     10  C   UNL A   1      31.520  28.606  22.200  1.00  0.00     0.047 C 
ATOM     11  C   UNL A   1      32.160  27.621  23.150  1.00  0.00    -0.019 A 
ATOM     12  C   UNL A   1      32.254  27.901  24.538  1.00  0.00     0.025 A 
ATOM     13  C   UNL A   1      32.633  26.380  22.693  1.00  0.00     0.064 A 
ATOM     14  Br  UNL A   1      31.519  29.551  25.191  1.00  0.00    -0.050 Br
ATOM     15  C   UNL A   1      32.858  26.990  25.445  1.00  0.00    -0.026 A 
ATOM     16  C   UNL A   1      33.231  25.472  23.581  1.00  0.00     0.142 A 
ATOM     17  Br  UNL A   1      32.461  25.851  20.858  1.00  0.00    -0.046 Br
ATOM     18  C   UNL A   1      32.985  27.277  26.925  1.00  0.00     0.046 C 
ATOM     19  C   UNL A   1      33.363  25.766  24.944  1.00  0.00     0.022 A 
ATOM     20  O   UNL A   1      33.725  24.320  23.038  1.00  0.00    -0.474 OA
ATOM     21  C   UNL A   1      34.056  24.786  25.791  1.00  0.00     0.026 C 
ATOM     22  C   UNL A   1      33.969  23.199  23.913  1.00  0.00     0.314 C 
BRANCH  22  23
ATOM     23  C   UNL A   1      32.780  22.224  23.850  1.00  0.00     0.429 C 
ATOM     24  F   UNL A   1      33.173  20.969  24.178  1.00  0.00    -0.167 F 
ATOM     25  F   UNL A   1      31.791  22.554  24.714  1.00  0.00    -0.167 F 
ATOM     26  F   UNL A   1      32.223  22.171  22.618  1.00  0.00    -0.167 F 
ENDBRANCH  22  23
ENDBRANCH   6   9
ENDBRANCH   4   5
ENDBRANCH   3   4
ENDBRANCH   2   3
ENDBRANCH   1   2
BRANCH   1  27
ATOM     27  C   UNL A   1      42.052  22.136  27.719  1.00  0.00     0.021 C 
BRANCH  27  28
ATOM     28  C   UNL A   1      43.032  23.297  27.602  1.00  0.00     0.116 C 
BRANCH  28  29
ATOM     29  N   UNL A   1      42.891  23.990  26.332  1.00  0.00    -0.352 N 
ATOM     30  C   UNL A   1      42.317  25.206  26.071  1.00  0.00     0.251 C 
ATOM     31  H   UNL A   1      43.258  23.518  25.549  1.00  0.00     0.163 HD
ATOM     32  O   UNL A   1      42.062  25.531  24.913  1.00  0.00    -0.269 OA
BRANCH  30  33
ATOM     33  C   UNL A   1      42.002  26.116  27.189  1.00  0.00     0.039 A 
ATOM     34  C   UNL A   1      40.905  25.833  28.006  1.00  0.00     0.014 A 
ATOM     35  C   UNL A   1      42.786  27.251  27.423  1.00  0.00     0.014 A 
ATOM     36  C   UNL A   1      40.620  26.670  29.085  1.00  0.00     0.010 A 
ATOM     37  C   UNL A   1      42.543  28.041  28.540  1.00  0.00     0.010 A 
ATOM     38  C   UNL A   1      41.450  27.766  29.374  1.00  0.00    -0.014 A 
BRANCH  38  39
ATOM     39  C   UNL A   1      41.167  28.654  30.528  1.00  0.00     0.031 A 
ATOM     40  C   UNL A   1      41.994  28.535  31.780  1.00  0.00     0.074 A 
ATOM     41  C   UNL A   1      40.154  29.539  30.458  1.00  0.00     0.049 A 
ATOM     42  N   UNL A   1      41.876  29.185  32.909  1.00  0.00    -0.248 NA
ATOM     43  C   UNL A   1      43.082  27.542  31.772  1.00  0.00     0.031 C 
ATOM     44  C   UNL A   1      39.268  29.720  29.307  1.00  0.00     0.029 A 
ATOM     45  N   UNL A   1      39.696  30.452  31.375  1.00  0.00    -0.354 N 
ATOM     46  C   UNL A   1      42.870  28.682  33.740  1.00  0.00     0.074 A 
ATOM     47  C   UNL A   1      43.542  27.630  33.011  1.00  0.00     0.031 C 
ATOM     48  C   UNL A   1      38.394  30.704  29.573  1.00  0.00     0.029 A 
ATOM     49  C   UNL A   1      38.630  31.196  30.928  1.00  0.00     0.049 A 
ATOM     50  H   UNL A   1      40.094  30.563  32.268  1.00  0.00     0.167 HD
ATOM     51  C   UNL A   1      43.211  29.084  34.986  1.00  0.00     0.037 A 
ATOM     52  C   UNL A   1      37.920  32.163  31.543  1.00  0.00     0.037 A 
ATOM     53  C   UNL A   1      42.553  30.150  35.694  1.00  0.00     0.049 A 
ATOM     54  C   UNL A   1      38.301  32.567  32.944  1.00  0.00     0.074 A 
ATOM     55  C   UNL A   1      42.850  30.659  36.946  1.00  0.00     0.029 A 
ATOM     56  N   UNL A   1      41.470  30.872  35.214  1.00  0.00    -0.354 N 
ATOM     57  N   UNL A   1      39.273  32.113  33.697  1.00  0.00    -0.248 NA
ATOM     58  C   UNL A   1      37.489  33.615  33.578  1.00  0.00     0.031 C 
ATOM     59  C   UNL A   1      41.917  31.657  37.243  1.00  0.00     0.029 A 
ATOM     60  C   UNL A   1      41.072  31.807  36.155  1.00  0.00     0.049 A 
ATOM     61  H   UNL A   1      41.048  30.739  34.334  1.00  0.00     0.167 HD
ATOM     62  C   UNL A   1      39.205  32.835  34.883  1.00  0.00     0.074 A 
ATOM     63  C   UNL A   1      38.107  33.767  34.741  1.00  0.00     0.031 C 
ATOM     64  C   UNL A   1      39.979  32.732  35.992  1.00  0.00     0.037 A 
BRANCH  51  65
ATOM     65  C   UNL A   1      44.361  28.389  35.661  1.00  0.00     0.058 A 
ATOM     66  C   UNL A   1      45.680  28.848  35.518  1.00  0.00     0.135 A 
ATOM     67  C   UNL A   1      44.135  27.303  36.523  1.00  0.00     0.135 A 
ATOM     68  F   UNL A   1      45.955  29.870  34.691  1.00  0.00    -0.206 F 
ATOM     69  C   UNL A   1      46.736  28.251  36.197  1.00  0.00     0.059 A 
ATOM     70  C   UNL A   1      45.173  26.707  37.234  1.00  0.00     0.059 A 
ATOM     71  F   UNL A   1      42.894  26.821  36.691  1.00  0.00    -0.206 F 
ATOM     72  C   UNL A   1      46.470  27.187  37.061  1.00  0.00     0.060 A 
BRANCH  72  73
ATOM     73  S   UNL A   1      47.850  26.455  37.968  1.00  0.00     0.124 S 
ATOM     74  O   UNL A   1      48.972  26.753  37.083  1.00  0.00    -0.237 OA
ATOM     75  O   UNL A   1      47.821  27.197  39.225  1.00  0.00    -0.237 OA
ATOM     76  O   UNL A   1      47.487  25.045  38.065  1.00  0.00    -0.744 OA
ENDBRANCH  72  73
ENDBRANCH  51  65
BRANCH  52  77
ATOM     77  C   UNL A   1      36.794  32.830  30.835  1.00  0.00     0.058 A 
ATOM     78  C   UNL A   1      35.473  32.391  31.010  1.00  0.00     0.135 A 
ATOM     79  C   UNL A   1      37.011  33.918  29.975  1.00  0.00     0.135 A 
ATOM     80  F   UNL A   1      35.213  31.350  31.817  1.00  0.00    -0.206 F 
ATOM     81  C   UNL A   1      34.410  32.993  30.345  1.00  0.00     0.059 A 
ATOM     82  C   UNL A   1      35.961  34.554  29.320  1.00  0.00     0.059 A 
ATOM     83  F   UNL A   1      38.253  34.387  29.784  1.00  0.00    -0.206 F 
ATOM     84  C   UNL A   1      34.664  34.077  29.504  1.00  0.00     0.060 A 
BRANCH  84  85
ATOM     85  S   UNL A   1      33.270  34.872  28.675  1.00  0.00     0.124 S 
ATOM     86  O   UNL A   1      32.476  35.330  29.810  1.00  0.00    -0.237 OA
ATOM     87  O   UNL A   1      33.933  35.913  27.896  1.00  0.00    -0.237 OA
ATOM     88  O   UNL A   1      32.683  33.790  27.891  1.00  0.00    -0.744 OA
ENDBRANCH  84  85
ENDBRANCH  52  77
BRANCH  64  89
ATOM     89  C   UNL A   1      39.683  33.660  37.137  1.00  0.00     0.058 A 
ATOM     90  C   UNL A   1      38.790  33.303  38.159  1.00  0.00     0.135 A 
ATOM     91  C   UNL A   1      40.359  34.886  37.255  1.00  0.00     0.135 A 
ATOM     92  F   UNL A   1      38.115  32.144  38.093  1.00  0.00    -0.206 F 
ATOM     93  C   UNL A   1      38.565  34.136  39.250  1.00  0.00     0.059 A 
ATOM     94  C   UNL A   1      40.173  35.720  38.352  1.00  0.00     0.059 A 
ATOM     95  F   UNL A   1      41.232  35.270  36.311  1.00  0.00    -0.206 F 
ATOM     96  C   UNL A   1      39.266  35.339  39.341  1.00  0.00     0.060 A 
BRANCH  96  97
ATOM     97  S   UNL A   1      38.995  36.386  40.786  1.00  0.00     0.124 S 
ATOM     98  O   UNL A   1      38.535  37.626  40.170  1.00  0.00    -0.237 OA
ATOM     99  O   UNL A   1      37.987  35.634  41.528  1.00  0.00    -0.237 OA
ATOM    100  O   UNL A   1      40.311  36.449  41.414  1.00  0.00    -0.744 OA
ENDBRANCH  96  97
ENDBRANCH  64  89
ENDBRANCH  38  39
ENDBRANCH  30  33
ENDBRANCH  28  29
ENDBRANCH  27  28
ENDBRANCH   1  27
TORSDOF 17
ENDMDL
