MODEL 1
REMARK VINA RESULT:     -10.4      0.000      0.000
REMARK SMILES C[C@@H](NC(=O)N1CC[N@@H+]2CCCC[C@H]2C1)C(=O)NCCCCCCNC(=O)c1ccc(-c2c3nc(c(-c4c(F)cc(S(=O)(=O)[O-])cc4F)c4ccc([nH]4)c(-c4c(F)cc(S(=O)(=O)[O-])cc4F)c4nc(c(-c5c(F)cc(S(=O)(=O)[O-])cc5F)c5ccc2[nH]5)C=C4)C=C3)cc1
REMARK SMILES IDX 22 1 21 2 20 3 19 4 18 5 16 6 17 7 2 9 1 10 3 11 4 12 5 14
REMARK SMILES IDX 6 15 7 16 15 17 8 18 14 19 9 20 13 21 10 22 12 24 11 25
REMARK SMILES IDX 23 26 24 27 25 28 26 29 27 31 28 32 29 33 93 34 30 35 92 36
REMARK SMILES IDX 31 37 32 38 33 39 86 40 34 41 91 42 85 43 87 44 35 45 90 46
REMARK SMILES IDX 84 47 83 48 36 50 70 51 49 52 69 53 50 54 53 55 68 56 88 57
REMARK SMILES IDX 51 58 52 59 67 61 89 62 54 63 37 64 38 65 47 66 39 67 40 68
REMARK SMILES IDX 46 69 48 70 41 71 42 72 43 73 44 74 45 75 71 76 72 77 81 78
REMARK SMILES IDX 73 79 74 80 80 81 82 82 75 83 76 84 77 85 78 86 79 87 55 88
REMARK SMILES IDX 56 89 65 90 57 91 58 92 64 93 66 94 59 95 60 96 61 97 62 98
REMARK SMILES IDX 63 99
REMARK H PARENT 18 8 3 13 9 23 25 30 87 49 53 60
REMARK Flexibility Score: inf
ROOT
ATOM      1  C   UNL A   1      36.021  33.972  28.515  1.00  0.00     0.002 C 
ENDROOT
BRANCH   1   2
ATOM      2  C   UNL A   1      37.203  33.182  29.085  1.00  0.00     0.002 C 
BRANCH   2   3
ATOM      3  C   UNL A   1      38.473  34.014  29.279  1.00  0.00     0.021 C 
BRANCH   3   4
ATOM      4  C   UNL A   1      38.470  34.828  30.573  1.00  0.00     0.116 C 
BRANCH   4   5
ATOM      5  N   UNL A   1      39.574  34.451  31.436  1.00  0.00    -0.354 N 
ATOM      6  C   UNL A   1      39.589  33.606  32.501  1.00  0.00     0.242 C 
ATOM      7  O   UNL A   1      40.622  33.569  33.182  1.00  0.00    -0.273 OA
ATOM      8  H   UNL A   1      40.438  34.868  31.217  1.00  0.00     0.163 HD
BRANCH   6   9
ATOM      9  C   UNL A   1      38.337  32.845  32.976  1.00  0.00     0.170 C 
ATOM     10  C   UNL A   1      38.603  31.353  32.746  1.00  0.00     0.041 C 
BRANCH   9  11
ATOM     11  N   UNL A   1      37.909  33.067  34.353  1.00  0.00    -0.326 N 
ATOM     12  C   UNL A   1      36.721  33.351  34.925  1.00  0.00     0.318 C 
ATOM     13  H   UNL A   1      38.645  32.992  35.003  1.00  0.00     0.166 HD
ATOM     14  O   UNL A   1      36.736  33.503  36.148  1.00  0.00    -0.249 OA
BRANCH  12  15
ATOM     15  N   UNL A   1      35.624  33.637  34.174  1.00  0.00    -0.313 N 
ATOM     16  C   UNL A   1      34.896  32.743  33.277  1.00  0.00     0.183 C 
ATOM     17  C   UNL A   1      34.874  34.856  34.482  1.00  0.00     0.186 C 
ATOM     18  C   UNL A   1      34.416  33.463  31.995  1.00  0.00     0.284 C 
ATOM     19  C   UNL A   1      34.565  35.602  33.165  1.00  0.00     0.203 C 
ATOM     20  N   UNL A   1      33.777  34.785  32.209  1.00  0.00    -0.330 N 
ATOM     21  C   UNL A   1      33.839  36.926  33.433  1.00  0.00     0.067 C 
ATOM     22  C   UNL A   1      33.670  35.495  30.918  1.00  0.00     0.262 C 
ATOM     23  H   UNL A   1      32.846  34.638  32.600  1.00  0.00     0.348 HD
ATOM     24  C   UNL A   1      33.682  37.716  32.135  1.00  0.00     0.012 C 
ATOM     25  C   UNL A   1      33.009  36.868  31.064  1.00  0.00     0.062 C 
ENDBRANCH  12  15
ENDBRANCH   9  11
ENDBRANCH   6   9
ENDBRANCH   4   5
ENDBRANCH   3   4
ENDBRANCH   2   3
ENDBRANCH   1   2
BRANCH   1  26
ATOM     26  C   UNL A   1      34.862  33.142  27.984  1.00  0.00     0.021 C 
BRANCH  26  27
ATOM     27  C   UNL A   1      34.428  32.018  28.909  1.00  0.00     0.116 C 
BRANCH  27  28
ATOM     28  N   UNL A   1      34.010  30.807  28.207  1.00  0.00    -0.352 N 
ATOM     29  C   UNL A   1      34.783  29.727  27.833  1.00  0.00     0.251 C 
ATOM     30  H   UNL A   1      33.056  30.756  27.970  1.00  0.00     0.163 HD
ATOM     31  O   UNL A   1      34.321  28.814  27.175  1.00  0.00    -0.269 OA
BRANCH  29  32
ATOM     32  C   UNL A   1      36.206  29.744  28.227  1.00  0.00     0.039 A 
ATOM     33  C   UNL A   1      36.565  29.301  29.500  1.00  0.00     0.014 A 
ATOM     34  C   UNL A   1      37.175  30.045  27.269  1.00  0.00     0.014 A 
ATOM     35  C   UNL A   1      37.910  29.062  29.780  1.00  0.00     0.010 A 
ATOM     36  C   UNL A   1      38.494  29.698  27.513  1.00  0.00     0.010 A 
ATOM     37  C   UNL A   1      38.877  29.202  28.769  1.00  0.00    -0.014 A 
BRANCH  37  38
ATOM     38  C   UNL A   1      40.300  28.842  28.992  1.00  0.00     0.031 A 
ATOM     39  C   UNL A   1      41.246  29.879  29.539  1.00  0.00     0.074 A 
ATOM     40  C   UNL A   1      40.759  27.633  28.611  1.00  0.00     0.049 A 
ATOM     41  N   UNL A   1      42.543  29.821  29.678  1.00  0.00    -0.248 NA
ATOM     42  C   UNL A   1      40.658  31.172  29.929  1.00  0.00     0.031 C 
ATOM     43  C   UNL A   1      39.958  26.572  27.994  1.00  0.00     0.029 A 
ATOM     44  N   UNL A   1      42.020  27.095  28.676  1.00  0.00    -0.354 N 
ATOM     45  C   UNL A   1      42.928  31.077  30.133  1.00  0.00     0.074 A 
ATOM     46  C   UNL A   1      41.737  31.895  30.183  1.00  0.00     0.031 C 
ATOM     47  C   UNL A   1      40.738  25.501  27.772  1.00  0.00     0.029 A 
ATOM     48  C   UNL A   1      42.100  25.809  28.194  1.00  0.00     0.049 A 
ATOM     49  H   UNL A   1      42.796  27.583  29.034  1.00  0.00     0.167 HD
ATOM     50  C   UNL A   1      44.157  31.502  30.509  1.00  0.00     0.037 A 
ATOM     51  C   UNL A   1      43.153  24.974  28.106  1.00  0.00     0.037 A 
ATOM     52  C   UNL A   1      45.322  30.660  30.525  1.00  0.00     0.049 A 
ATOM     53  C   UNL A   1      44.496  25.445  28.595  1.00  0.00     0.074 A 
ATOM     54  C   UNL A   1      46.596  30.962  30.966  1.00  0.00     0.029 A 
ATOM     55  N   UNL A   1      45.346  29.342  30.093  1.00  0.00    -0.354 N 
ATOM     56  N   UNL A   1      44.830  26.617  29.081  1.00  0.00    -0.248 NA
ATOM     57  C   UNL A   1      45.602  24.480  28.534  1.00  0.00     0.031 C 
ATOM     58  C   UNL A   1      47.399  29.831  30.782  1.00  0.00     0.029 A 
ATOM     59  C   UNL A   1      46.615  28.816  30.256  1.00  0.00     0.049 A 
ATOM     60  H   UNL A   1      44.575  28.853  29.727  1.00  0.00     0.167 HD
ATOM     61  C   UNL A   1      46.179  26.523  29.404  1.00  0.00     0.074 A 
ATOM     62  C   UNL A   1      46.596  25.176  29.071  1.00  0.00     0.031 C 
ATOM     63  C   UNL A   1      47.000  27.466  29.929  1.00  0.00     0.037 A 
BRANCH  50  64
ATOM     64  C   UNL A   1      44.287  32.930  30.957  1.00  0.00     0.058 A 
ATOM     65  C   UNL A   1      44.084  33.302  32.298  1.00  0.00     0.135 A 
ATOM     66  C   UNL A   1      44.622  33.940  30.042  1.00  0.00     0.135 A 
ATOM     67  F   UNL A   1      43.742  32.379  33.211  1.00  0.00    -0.206 F 
ATOM     68  C   UNL A   1      44.169  34.629  32.705  1.00  0.00     0.059 A 
ATOM     69  C   UNL A   1      44.741  35.271  30.434  1.00  0.00     0.059 A 
ATOM     70  F   UNL A   1      44.824  33.642  28.749  1.00  0.00    -0.206 F 
ATOM     71  C   UNL A   1      44.494  35.607  31.765  1.00  0.00     0.060 A 
BRANCH  71  72
ATOM     72  S   UNL A   1      44.594  37.325  32.307  1.00  0.00     0.124 S 
ATOM     73  O   UNL A   1      45.989  37.417  32.725  1.00  0.00    -0.237 OA
ATOM     74  O   UNL A   1      44.247  38.059  31.094  1.00  0.00    -0.237 OA
ATOM     75  O   UNL A   1      43.610  37.399  33.383  1.00  0.00    -0.744 OA
ENDBRANCH  71  72
ENDBRANCH  50  64
BRANCH  51  76
ATOM     76  C   UNL A   1      42.972  23.597  27.576  1.00  0.00     0.058 A 
ATOM     77  C   UNL A   1      42.555  22.554  28.417  1.00  0.00     0.135 A 
ATOM     78  C   UNL A   1      43.196  23.295  26.225  1.00  0.00     0.135 A 
ATOM     79  F   UNL A   1      42.332  22.793  29.719  1.00  0.00    -0.206 F 
ATOM     80  C   UNL A   1      42.383  21.257  27.945  1.00  0.00     0.059 A 
ATOM     81  C   UNL A   1      43.010  22.009  25.722  1.00  0.00     0.059 A 
ATOM     82  F   UNL A   1      43.579  24.260  25.374  1.00  0.00    -0.206 F 
ATOM     83  C   UNL A   1      42.613  20.995  26.594  1.00  0.00     0.060 A 
BRANCH  83  84
ATOM     84  S   UNL A   1      42.343  19.318  25.979  1.00  0.00     0.124 S 
ATOM     85  O   UNL A   1      42.811  18.515  27.102  1.00  0.00    -0.237 OA
ATOM     86  O   UNL A   1      40.903  19.306  25.741  1.00  0.00    -0.237 OA
ATOM     87  O   UNL A   1      43.169  19.266  24.776  1.00  0.00    -0.744 OA
ENDBRANCH  83  84
ENDBRANCH  51  76
BRANCH  63  88
ATOM     88  C   UNL A   1      48.419  27.066  30.206  1.00  0.00     0.058 A 
ATOM     89  C   UNL A   1      49.450  27.339  29.294  1.00  0.00     0.135 A 
ATOM     90  C   UNL A   1      48.761  26.459  31.425  1.00  0.00     0.135 A 
ATOM     91  F   UNL A   1      49.173  27.915  28.113  1.00  0.00    -0.206 F 
ATOM     92  C   UNL A   1      50.772  27.009  29.575  1.00  0.00     0.059 A 
ATOM     93  C   UNL A   1      50.077  26.141  31.736  1.00  0.00     0.059 A 
ATOM     94  F   UNL A   1      47.810  26.187  32.334  1.00  0.00    -0.206 F 
ATOM     95  C   UNL A   1      51.075  26.411  30.801  1.00  0.00     0.060 A 
BRANCH  95  96
ATOM     96  S   UNL A   1      52.798  26.025  31.172  1.00  0.00     0.124 S 
ATOM     97  O   UNL A   1      53.176  27.152  32.018  1.00  0.00    -0.237 OA
ATOM     98  O   UNL A   1      52.694  24.733  31.844  1.00  0.00    -0.237 OA
ATOM     99  O   UNL A   1      53.428  25.988  29.855  1.00  0.00    -0.744 OA
ENDBRANCH  95  96
ENDBRANCH  63  88
ENDBRANCH  37  38
ENDBRANCH  29  32
ENDBRANCH  27  28
ENDBRANCH  26  27
ENDBRANCH   1  26
TORSDOF 18
ENDMDL
MODEL 2
REMARK VINA RESULT:     -10.1      4.313     10.969
REMARK SMILES C[C@@H](NC(=O)N1CC[N@@H+]2CCCC[C@H]2C1)C(=O)NCCCCCCNC(=O)c1ccc(-c2c3nc(c(-c4c(F)cc(S(=O)(=O)[O-])cc4F)c4ccc([nH]4)c(-c4c(F)cc(S(=O)(=O)[O-])cc4F)c4nc(c(-c5c(F)cc(S(=O)(=O)[O-])cc5F)c5ccc2[nH]5)C=C4)C=C3)cc1
REMARK SMILES IDX 22 1 21 2 20 3 19 4 18 5 16 6 17 7 2 9 1 10 3 11 4 12 5 14
REMARK SMILES IDX 6 15 7 16 15 17 8 18 14 19 9 20 13 21 10 22 12 24 11 25
REMARK SMILES IDX 23 26 24 27 25 28 26 29 27 31 28 32 29 33 93 34 30 35 92 36
REMARK SMILES IDX 31 37 32 38 33 39 86 40 34 41 91 42 85 43 87 44 35 45 90 46
REMARK SMILES IDX 84 47 83 48 36 50 70 51 49 52 69 53 50 54 53 55 68 56 88 57
REMARK SMILES IDX 51 58 52 59 67 61 89 62 54 63 37 64 38 65 47 66 39 67 40 68
REMARK SMILES IDX 46 69 48 70 41 71 42 72 43 73 44 74 45 75 71 76 72 77 81 78
REMARK SMILES IDX 73 79 74 80 80 81 82 82 75 83 76 84 77 85 78 86 79 87 55 88
REMARK SMILES IDX 56 89 65 90 57 91 58 92 64 93 66 94 59 95 60 96 61 97 62 98
REMARK SMILES IDX 63 99
REMARK H PARENT 18 8 3 13 9 23 25 30 87 49 53 60
REMARK Flexibility Score: inf
ROOT
ATOM      1  C   UNL A   1      34.730  23.548  25.931  1.00  0.00     0.002 C 
ENDROOT
BRANCH   1   2
ATOM      2  C   UNL A   1      34.633  25.007  25.473  1.00  0.00     0.002 C 
BRANCH   2   3
ATOM      3  C   UNL A   1      33.425  25.758  26.038  1.00  0.00     0.021 C 
BRANCH   3   4
ATOM      4  C   UNL A   1      33.718  27.227  26.346  1.00  0.00     0.116 C 
BRANCH   4   5
ATOM      5  N   UNL A   1      33.941  27.987  25.130  1.00  0.00    -0.354 N 
ATOM      6  C   UNL A   1      33.163  28.941  24.553  1.00  0.00     0.242 C 
ATOM      7  O   UNL A   1      33.488  29.333  23.425  1.00  0.00    -0.273 OA
ATOM      8  H   UNL A   1      34.777  27.781  24.655  1.00  0.00     0.163 HD
BRANCH   6   9
ATOM      9  C   UNL A   1      31.830  29.410  25.166  1.00  0.00     0.170 C 
ATOM     10  C   UNL A   1      32.170  30.457  26.234  1.00  0.00     0.041 C 
BRANCH   9  11
ATOM     11  N   UNL A   1      30.829  29.943  24.249  1.00  0.00    -0.326 N 
ATOM     12  C   UNL A   1      29.907  29.375  23.445  1.00  0.00     0.318 C 
ATOM     13  H   UNL A   1      30.826  30.926  24.210  1.00  0.00     0.166 HD
ATOM     14  O   UNL A   1      29.230  30.154  22.769  1.00  0.00    -0.249 OA
BRANCH  12  15
ATOM     15  N   UNL A   1      29.864  28.029  23.256  1.00  0.00    -0.313 N 
ATOM     16  C   UNL A   1      28.868  27.086  23.758  1.00  0.00     0.183 C 
ATOM     17  C   UNL A   1      30.704  27.451  22.206  1.00  0.00     0.186 C 
ATOM     18  C   UNL A   1      29.499  25.745  24.198  1.00  0.00     0.284 C 
ATOM     19  C   UNL A   1      31.424  26.205  22.766  1.00  0.00     0.203 C 
ATOM     20  N   UNL A   1      30.484  25.164  23.252  1.00  0.00    -0.330 N 
ATOM     21  C   UNL A   1      32.375  25.597  21.727  1.00  0.00     0.067 C 
ATOM     22  C   UNL A   1      31.238  24.088  23.926  1.00  0.00     0.262 C 
ATOM     23  H   UNL A   1      29.981  24.783  22.451  1.00  0.00     0.348 HD
ATOM     24  C   UNL A   1      33.187  24.464  22.352  1.00  0.00     0.012 C 
ATOM     25  C   UNL A   1      32.270  23.436  23.002  1.00  0.00     0.062 C 
ENDBRANCH  12  15
ENDBRANCH   9  11
ENDBRANCH   6   9
ENDBRANCH   4   5
ENDBRANCH   3   4
ENDBRANCH   2   3
ENDBRANCH   1   2
BRANCH   1  26
ATOM     26  C   UNL A   1      35.841  22.727  25.295  1.00  0.00     0.021 C 
BRANCH  26  27
ATOM     27  C   UNL A   1      37.153  23.475  25.133  1.00  0.00     0.116 C 
BRANCH  27  28
ATOM     28  N   UNL A   1      38.334  22.649  25.371  1.00  0.00    -0.352 N 
ATOM     29  C   UNL A   1      39.472  22.972  26.082  1.00  0.00     0.251 C 
ATOM     30  H   UNL A   1      38.316  21.749  24.974  1.00  0.00     0.163 HD
ATOM     31  O   UNL A   1      40.423  22.215  26.133  1.00  0.00    -0.269 OA
BRANCH  29  32
ATOM     32  C   UNL A   1      39.507  24.292  26.741  1.00  0.00     0.039 A 
ATOM     33  C   UNL A   1      38.943  24.434  28.009  1.00  0.00     0.014 A 
ATOM     34  C   UNL A   1      40.244  25.326  26.161  1.00  0.00     0.014 A 
ATOM     35  C   UNL A   1      39.207  25.591  28.742  1.00  0.00     0.010 A 
ATOM     36  C   UNL A   1      40.597  26.419  26.935  1.00  0.00     0.010 A 
ATOM     37  C   UNL A   1      40.085  26.564  28.234  1.00  0.00    -0.014 A 
BRANCH  37  38
ATOM     38  C   UNL A   1      40.485  27.750  29.032  1.00  0.00     0.031 A 
ATOM     39  C   UNL A   1      41.809  27.744  29.750  1.00  0.00     0.074 A 
ATOM     40  C   UNL A   1      39.626  28.776  29.195  1.00  0.00     0.049 A 
ATOM     41  N   UNL A   1      42.289  28.607  30.605  1.00  0.00    -0.248 NA
ATOM     42  C   UNL A   1      42.685  26.583  29.514  1.00  0.00     0.031 C 
ATOM     43  C   UNL A   1      38.281  28.863  28.616  1.00  0.00     0.029 A 
ATOM     44  N   UNL A   1      39.751  29.942  29.907  1.00  0.00    -0.354 N 
ATOM     45  C   UNL A   1      43.499  28.074  31.036  1.00  0.00     0.074 A 
ATOM     46  C   UNL A   1      43.648  26.785  30.399  1.00  0.00     0.031 C 
ATOM     47  C   UNL A   1      37.724  30.033  28.968  1.00  0.00     0.029 A 
ATOM     48  C   UNL A   1      38.651  30.764  29.824  1.00  0.00     0.049 A 
ATOM     49  H   UNL A   1      40.553  30.170  30.430  1.00  0.00     0.167 HD
ATOM     50  C   UNL A   1      44.420  28.626  31.860  1.00  0.00     0.037 A 
ATOM     51  C   UNL A   1      38.420  31.970  30.376  1.00  0.00     0.037 A 
ATOM     52  C   UNL A   1      44.296  29.939  32.431  1.00  0.00     0.049 A 
ATOM     53  C   UNL A   1      39.488  32.594  31.234  1.00  0.00     0.074 A 
ATOM     54  C   UNL A   1      45.207  30.628  33.210  1.00  0.00     0.029 A 
ATOM     55  N   UNL A   1      43.196  30.768  32.268  1.00  0.00    -0.354 N 
ATOM     56  N   UNL A   1      40.653  32.103  31.582  1.00  0.00    -0.248 NA
ATOM     57  C   UNL A   1      39.215  33.936  31.767  1.00  0.00     0.031 C 
ATOM     58  C   UNL A   1      44.647  31.869  33.537  1.00  0.00     0.029 A 
ATOM     59  C   UNL A   1      43.403  31.963  32.933  1.00  0.00     0.049 A 
ATOM     60  H   UNL A   1      42.389  30.540  31.753  1.00  0.00     0.167 HD
ATOM     61  C   UNL A   1      41.264  33.085  32.355  1.00  0.00     0.074 A 
ATOM     62  C   UNL A   1      40.343  34.203  32.412  1.00  0.00     0.031 C 
ATOM     63  C   UNL A   1      42.475  33.066  32.963  1.00  0.00     0.037 A 
BRANCH  50  64
ATOM     64  C   UNL A   1      45.647  27.814  32.165  1.00  0.00     0.058 A 
ATOM     65  C   UNL A   1      45.640  26.809  33.147  1.00  0.00     0.135 A 
ATOM     66  C   UNL A   1      46.844  28.037  31.467  1.00  0.00     0.135 A 
ATOM     67  F   UNL A   1      44.527  26.568  33.859  1.00  0.00    -0.206 F 
ATOM     68  C   UNL A   1      46.785  26.083  33.454  1.00  0.00     0.059 A 
ATOM     69  C   UNL A   1      47.996  27.301  31.737  1.00  0.00     0.059 A 
ATOM     70  F   UNL A   1      46.910  28.986  30.520  1.00  0.00    -0.206 F 
ATOM     71  C   UNL A   1      47.960  26.339  32.746  1.00  0.00     0.060 A 
BRANCH  71  72
ATOM     72  S   UNL A   1      49.440  25.393  33.160  1.00  0.00     0.124 S 
ATOM     73  O   UNL A   1      50.401  26.459  33.425  1.00  0.00    -0.237 OA
ATOM     74  O   UNL A   1      49.007  24.627  34.325  1.00  0.00    -0.237 OA
ATOM     75  O   UNL A   1      49.687  24.607  31.955  1.00  0.00    -0.744 OA
ENDBRANCH  71  72
ENDBRANCH  50  64
BRANCH  51  76
ATOM     76  C   UNL A   1      37.147  32.687  30.100  1.00  0.00     0.058 A 
ATOM     77  C   UNL A   1      37.076  33.659  29.090  1.00  0.00     0.135 A 
ATOM     78  C   UNL A   1      35.976  32.410  30.822  1.00  0.00     0.135 A 
ATOM     79  F   UNL A   1      38.171  33.962  28.376  1.00  0.00    -0.206 F 
ATOM     80  C   UNL A   1      35.898  34.345  28.816  1.00  0.00     0.059 A 
ATOM     81  C   UNL A   1      34.778  33.067  30.552  1.00  0.00     0.059 A 
ATOM     82  F   UNL A   1      35.986  31.476  31.785  1.00  0.00    -0.206 F 
ATOM     83  C   UNL A   1      34.753  34.041  29.554  1.00  0.00     0.060 A 
BRANCH  83  84
ATOM     84  S   UNL A   1      33.215  34.904  29.160  1.00  0.00     0.124 S 
ATOM     85  O   UNL A   1      33.714  36.176  28.653  1.00  0.00    -0.237 OA
ATOM     86  O   UNL A   1      32.608  34.016  28.173  1.00  0.00    -0.237 OA
ATOM     87  O   UNL A   1      32.525  34.961  30.446  1.00  0.00    -0.744 OA
ENDBRANCH  83  84
ENDBRANCH  51  76
BRANCH  63  88
ATOM     88  C   UNL A   1      42.889  34.297  33.713  1.00  0.00     0.058 A 
ATOM     89  C   UNL A   1      42.695  34.412  35.097  1.00  0.00     0.135 A 
ATOM     90  C   UNL A   1      43.546  35.346  33.049  1.00  0.00     0.135 A 
ATOM     91  F   UNL A   1      42.069  33.438  35.776  1.00  0.00    -0.206 F 
ATOM     92  C   UNL A   1      43.122  35.536  35.797  1.00  0.00     0.059 A 
ATOM     93  C   UNL A   1      44.002  36.467  33.732  1.00  0.00     0.059 A 
ATOM     94  F   UNL A   1      43.764  35.276  31.726  1.00  0.00    -0.206 F 
ATOM     95  C   UNL A   1      43.776  36.558  35.105  1.00  0.00     0.060 A 
BRANCH  95  96
ATOM     96  S   UNL A   1      44.364  37.991  36.030  1.00  0.00     0.124 S 
ATOM     97  O   UNL A   1      43.563  37.904  37.246  1.00  0.00    -0.237 OA
ATOM     98  O   UNL A   1      45.787  37.705  36.185  1.00  0.00    -0.237 OA
ATOM     99  O   UNL A   1      44.051  39.113  35.149  1.00  0.00    -0.744 OA
ENDBRANCH  95  96
ENDBRANCH  63  88
ENDBRANCH  37  38
ENDBRANCH  29  32
ENDBRANCH  27  28
ENDBRANCH  26  27
ENDBRANCH   1  26
TORSDOF 18
ENDMDL
MODEL 3
REMARK VINA RESULT:     -10.0      3.737      7.295
REMARK SMILES C[C@@H](NC(=O)N1CC[N@@H+]2CCCC[C@H]2C1)C(=O)NCCCCCCNC(=O)c1ccc(-c2c3nc(c(-c4c(F)cc(S(=O)(=O)[O-])cc4F)c4ccc([nH]4)c(-c4c(F)cc(S(=O)(=O)[O-])cc4F)c4nc(c(-c5c(F)cc(S(=O)(=O)[O-])cc5F)c5ccc2[nH]5)C=C4)C=C3)cc1
REMARK SMILES IDX 22 1 21 2 20 3 19 4 18 5 16 6 17 7 2 9 1 10 3 11 4 12 5 14
REMARK SMILES IDX 6 15 7 16 15 17 8 18 14 19 9 20 13 21 10 22 12 24 11 25
REMARK SMILES IDX 23 26 24 27 25 28 26 29 27 31 28 32 29 33 93 34 30 35 92 36
REMARK SMILES IDX 31 37 32 38 33 39 86 40 34 41 91 42 85 43 87 44 35 45 90 46
REMARK SMILES IDX 84 47 83 48 36 50 70 51 49 52 69 53 50 54 53 55 68 56 88 57
REMARK SMILES IDX 51 58 52 59 67 61 89 62 54 63 37 64 38 65 47 66 39 67 40 68
REMARK SMILES IDX 46 69 48 70 41 71 42 72 43 73 44 74 45 75 71 76 72 77 81 78
REMARK SMILES IDX 73 79 74 80 80 81 82 82 75 83 76 84 77 85 78 86 79 87 55 88
REMARK SMILES IDX 56 89 65 90 57 91 58 92 64 93 66 94 59 95 60 96 61 97 62 98
REMARK SMILES IDX 63 99
REMARK H PARENT 18 8 3 13 9 23 25 30 87 49 53 60
REMARK Flexibility Score: inf
ROOT
ATOM      1  C   UNL A   1      32.101  29.858  25.396  1.00  0.00     0.002 C 
ENDROOT
BRANCH   1   2
ATOM      2  C   UNL A   1      31.078  29.273  24.417  1.00  0.00     0.002 C 
BRANCH   2   3
ATOM      3  C   UNL A   1      31.697  28.677  23.150  1.00  0.00     0.021 C 
BRANCH   3   4
ATOM      4  C   UNL A   1      30.864  27.547  22.546  1.00  0.00     0.116 C 
BRANCH   4   5
ATOM      5  N   UNL A   1      31.623  26.804  21.556  1.00  0.00    -0.354 N 
ATOM      6  C   UNL A   1      32.476  25.759  21.727  1.00  0.00     0.242 C 
ATOM      7  O   UNL A   1      33.132  25.396  20.743  1.00  0.00    -0.273 OA
ATOM      8  H   UNL A   1      31.502  27.101  20.626  1.00  0.00     0.163 HD
BRANCH   6   9
ATOM      9  C   UNL A   1      32.771  25.145  23.107  1.00  0.00     0.170 C 
ATOM     10  C   UNL A   1      33.940  25.934  23.710  1.00  0.00     0.041 C 
BRANCH   9  11
ATOM     11  N   UNL A   1      31.667  25.089  24.059  1.00  0.00    -0.326 N 
ATOM     12  C   UNL A   1      31.451  24.394  25.195  1.00  0.00     0.318 C 
ATOM     13  H   UNL A   1      30.921  25.685  23.820  1.00  0.00     0.166 HD
ATOM     14  O   UNL A   1      30.361  24.581  25.740  1.00  0.00    -0.249 OA
BRANCH  12  15
ATOM     15  N   UNL A   1      32.303  23.416  25.600  1.00  0.00    -0.313 N 
ATOM     16  C   UNL A   1      33.574  23.570  26.304  1.00  0.00     0.183 C 
ATOM     17  C   UNL A   1      31.810  22.038  25.629  1.00  0.00     0.186 C 
ATOM     18  C   UNL A   1      34.642  22.566  25.813  1.00  0.00     0.284 C 
ATOM     19  C   UNL A   1      32.863  21.113  24.981  1.00  0.00     0.203 C 
ATOM     20  N   UNL A   1      34.178  21.164  25.667  1.00  0.00    -0.330 N 
ATOM     21  C   UNL A   1      32.369  19.662  24.920  1.00  0.00     0.067 C 
ATOM     22  C   UNL A   1      35.174  20.394  24.895  1.00  0.00     0.262 C 
ATOM     23  H   UNL A   1      34.074  20.757  26.597  1.00  0.00     0.348 HD
ATOM     24  C   UNL A   1      33.358  18.798  24.140  1.00  0.00     0.012 C 
ATOM     25  C   UNL A   1      34.762  18.930  24.713  1.00  0.00     0.062 C 
ENDBRANCH  12  15
ENDBRANCH   9  11
ENDBRANCH   6   9
ENDBRANCH   4   5
ENDBRANCH   3   4
ENDBRANCH   2   3
ENDBRANCH   1   2
BRANCH   1  26
ATOM     26  C   UNL A   1      33.251  28.940  25.780  1.00  0.00     0.021 C 
BRANCH  26  27
ATOM     27  C   UNL A   1      33.553  28.914  27.269  1.00  0.00     0.116 C 
BRANCH  27  28
ATOM     28  N   UNL A   1      33.568  30.237  27.889  1.00  0.00    -0.352 N 
ATOM     29  C   UNL A   1      34.609  30.861  28.544  1.00  0.00     0.251 C 
ATOM     30  H   UNL A   1      32.728  30.747  27.832  1.00  0.00     0.163 HD
ATOM     31  O   UNL A   1      34.460  31.938  29.090  1.00  0.00    -0.269 OA
BRANCH  29  32
ATOM     32  C   UNL A   1      35.901  30.149  28.595  1.00  0.00     0.039 A 
ATOM     33  C   UNL A   1      36.754  30.207  27.493  1.00  0.00     0.014 A 
ATOM     34  C   UNL A   1      36.316  29.572  29.797  1.00  0.00     0.014 A 
ATOM     35  C   UNL A   1      38.071  29.771  27.632  1.00  0.00     0.010 A 
ATOM     36  C   UNL A   1      37.653  29.248  29.963  1.00  0.00     0.010 A 
ATOM     37  C   UNL A   1      38.546  29.345  28.885  1.00  0.00    -0.014 A 
BRANCH  37  38
ATOM     38  C   UNL A   1      39.970  28.987  29.101  1.00  0.00     0.031 A 
ATOM     39  C   UNL A   1      40.916  30.023  29.649  1.00  0.00     0.074 A 
ATOM     40  C   UNL A   1      40.430  27.780  28.713  1.00  0.00     0.049 A 
ATOM     41  N   UNL A   1      42.214  29.967  29.784  1.00  0.00    -0.248 NA
ATOM     42  C   UNL A   1      40.327  31.313  30.048  1.00  0.00     0.031 C 
ATOM     43  C   UNL A   1      39.629  26.720  28.094  1.00  0.00     0.029 A 
ATOM     44  N   UNL A   1      41.692  27.245  28.772  1.00  0.00    -0.354 N 
ATOM     45  C   UNL A   1      42.597  31.222  30.243  1.00  0.00     0.074 A 
ATOM     46  C   UNL A   1      41.405  32.037  30.301  1.00  0.00     0.031 C 
ATOM     47  C   UNL A   1      40.410  25.652  27.865  1.00  0.00     0.029 A 
ATOM     48  C   UNL A   1      41.772  25.960  28.284  1.00  0.00     0.049 A 
ATOM     49  H   UNL A   1      42.468  27.733  29.129  1.00  0.00     0.167 HD
ATOM     50  C   UNL A   1      43.827  31.647  30.617  1.00  0.00     0.037 A 
ATOM     51  C   UNL A   1      42.827  25.128  28.188  1.00  0.00     0.037 A 
ATOM     52  C   UNL A   1      44.994  30.807  30.625  1.00  0.00     0.049 A 
ATOM     53  C   UNL A   1      44.170  25.599  28.675  1.00  0.00     0.074 A 
ATOM     54  C   UNL A   1      46.269  31.110  31.063  1.00  0.00     0.029 A 
ATOM     55  N   UNL A   1      45.019  29.491  30.187  1.00  0.00    -0.354 N 
ATOM     56  N   UNL A   1      44.504  26.770  29.164  1.00  0.00    -0.248 NA
ATOM     57  C   UNL A   1      45.279  24.637  28.605  1.00  0.00     0.031 C 
ATOM     58  C   UNL A   1      47.074  29.981  30.870  1.00  0.00     0.029 A 
ATOM     59  C   UNL A   1      46.289  28.967  30.343  1.00  0.00     0.049 A 
ATOM     60  H   UNL A   1      44.247  29.002  29.821  1.00  0.00     0.167 HD
ATOM     61  C   UNL A   1      45.855  26.677  29.482  1.00  0.00     0.074 A 
ATOM     62  C   UNL A   1      46.273  25.332  29.141  1.00  0.00     0.031 C 
ATOM     63  C   UNL A   1      46.676  27.619  30.008  1.00  0.00     0.037 A 
BRANCH  50  64
ATOM     64  C   UNL A   1      43.956  33.073  31.071  1.00  0.00     0.058 A 
ATOM     65  C   UNL A   1      44.171  34.120  30.158  1.00  0.00     0.135 A 
ATOM     66  C   UNL A   1      43.860  33.403  32.432  1.00  0.00     0.135 A 
ATOM     67  F   UNL A   1      44.290  33.858  28.846  1.00  0.00    -0.206 F 
ATOM     68  C   UNL A   1      44.327  35.435  30.581  1.00  0.00     0.059 A 
ATOM     69  C   UNL A   1      43.984  34.717  32.876  1.00  0.00     0.059 A 
ATOM     70  F   UNL A   1      43.658  32.444  33.349  1.00  0.00    -0.206 F 
ATOM     71  C   UNL A   1      44.235  35.723  31.943  1.00  0.00     0.060 A 
BRANCH  71  72
ATOM     72  S   UNL A   1      44.446  37.434  32.478  1.00  0.00     0.124 S 
ATOM     73  O   UNL A   1      45.772  37.387  33.084  1.00  0.00    -0.237 OA
ATOM     74  O   UNL A   1      44.349  38.170  31.221  1.00  0.00    -0.237 OA
ATOM     75  O   UNL A   1      43.337  37.637  33.406  1.00  0.00    -0.744 OA
ENDBRANCH  71  72
ENDBRANCH  50  64
BRANCH  51  76
ATOM     76  C   UNL A   1      42.647  23.753  27.653  1.00  0.00     0.058 A 
ATOM     77  C   UNL A   1      42.509  22.659  28.520  1.00  0.00     0.135 A 
ATOM     78  C   UNL A   1      42.595  23.503  26.273  1.00  0.00     0.135 A 
ATOM     79  F   UNL A   1      42.557  22.847  29.847  1.00  0.00    -0.206 F 
ATOM     80  C   UNL A   1      42.343  21.363  28.041  1.00  0.00     0.059 A 
ATOM     81  C   UNL A   1      42.408  22.218  25.769  1.00  0.00     0.059 A 
ATOM     82  F   UNL A   1      42.703  24.518  25.401  1.00  0.00    -0.206 F 
ATOM     83  C   UNL A   1      42.294  21.153  26.663  1.00  0.00     0.060 A 
BRANCH  83  84
ATOM     84  S   UNL A   1      42.032  19.473  26.051  1.00  0.00     0.124 S 
ATOM     85  O   UNL A   1      42.875  19.460  24.862  1.00  0.00    -0.237 OA
ATOM     86  O   UNL A   1      42.497  18.662  27.173  1.00  0.00    -0.237 OA
ATOM     87  O   UNL A   1      40.593  19.426  25.808  1.00  0.00    -0.744 OA
ENDBRANCH  83  84
ENDBRANCH  51  76
BRANCH  63  88
ATOM     88  C   UNL A   1      48.097  27.221  30.278  1.00  0.00     0.058 A 
ATOM     89  C   UNL A   1      49.110  27.428  29.331  1.00  0.00     0.135 A 
ATOM     90  C   UNL A   1      48.459  26.683  31.525  1.00  0.00     0.135 A 
ATOM     91  F   UNL A   1      48.813  27.935  28.124  1.00  0.00    -0.206 F 
ATOM     92  C   UNL A   1      50.434  27.100  29.603  1.00  0.00     0.059 A 
ATOM     93  C   UNL A   1      49.779  26.370  31.826  1.00  0.00     0.059 A 
ATOM     94  F   UNL A   1      47.526  26.477  32.468  1.00  0.00    -0.206 F 
ATOM     95  C   UNL A   1      50.759  26.573  30.855  1.00  0.00     0.060 A 
BRANCH  95  96
ATOM     96  S   UNL A   1      52.486  26.190  31.212  1.00  0.00     0.124 S 
ATOM     97  O   UNL A   1      53.064  26.169  29.872  1.00  0.00    -0.237 OA
ATOM     98  O   UNL A   1      52.887  27.309  32.059  1.00  0.00    -0.237 OA
ATOM     99  O   UNL A   1      52.413  24.898  31.887  1.00  0.00    -0.744 OA
ENDBRANCH  95  96
ENDBRANCH  63  88
ENDBRANCH  37  38
ENDBRANCH  29  32
ENDBRANCH  27  28
ENDBRANCH  26  27
ENDBRANCH   1  26
TORSDOF 18
ENDMDL
