MODEL 1
REMARK VINA RESULT:      -9.9      0.000      0.000
REMARK SMILES CC(C)(C)SCC(=O)N1CC(n2cc(C(=O)NCCCCCCNC(=O)c3ccc(-c4c5nc(c(-c6c(F)cc(S(=O)(=O)[O-])cc6F)c6ccc([nH]6)c(-c6c(F)cc(S(=O)(=O)[O-])cc6F)c6nc(c(-c7c(F)cc(S(=O)(=O)[O-])cc7F)c7ccc4[nH]7)C=C6)C=C5)cc3)nn2)C1
REMARK SMILES IDX 20 1 19 2 18 3 17 4 15 5 16 6 14 8 12 9 13 10 94 11 93 12
REMARK SMILES IDX 11 13 7 14 8 15 9 16 10 17 95 18 6 19 5 20 2 21 1 22 3 23
REMARK SMILES IDX 4 24 21 25 22 26 23 27 24 28 25 29 26 31 27 32 28 33 92 34
REMARK SMILES IDX 29 35 91 36 30 37 31 38 32 39 85 40 33 41 90 42 84 43 86 44
REMARK SMILES IDX 34 45 89 46 83 47 82 48 35 50 69 51 48 52 68 53 49 54 52 55
REMARK SMILES IDX 67 56 87 57 50 58 51 59 66 61 88 62 53 63 36 64 37 65 46 66
REMARK SMILES IDX 38 67 39 68 45 69 47 70 40 71 41 72 42 73 43 74 44 75 70 76
REMARK SMILES IDX 71 77 80 78 72 79 73 80 79 81 81 82 74 83 75 84 76 85 77 86
REMARK SMILES IDX 78 87 54 88 55 89 64 90 56 91 57 92 63 93 65 94 58 95 59 96
REMARK SMILES IDX 60 97 61 98 62 99
REMARK H PARENT 17 7 24 30 86 49 52 60
REMARK Flexibility Score: inf
ROOT
ATOM      1  C   UNL A   1      36.654  30.861  28.517  1.00  0.00     0.002 C 
ENDROOT
BRANCH   1   2
ATOM      2  C   UNL A   1      36.190  30.061  27.292  1.00  0.00     0.021 C 
BRANCH   2   3
ATOM      3  C   UNL A   1      34.818  29.411  27.464  1.00  0.00     0.116 C 
BRANCH   3   4
ATOM      4  N   UNL A   1      33.889  29.877  26.453  1.00  0.00    -0.351 N 
ATOM      5  C   UNL A   1      32.894  29.237  25.751  1.00  0.00     0.273 C 
ATOM      6  O   UNL A   1      32.172  29.949  25.049  1.00  0.00    -0.267 OA
ATOM      7  H   UNL A   1      33.989  30.830  26.227  1.00  0.00     0.163 HD
BRANCH   5   8
ATOM      8  C   UNL A   1      32.672  27.802  25.876  1.00  0.00     0.170 A 
ATOM      9  N   UNL A   1      32.787  25.647  26.135  1.00  0.00    -0.245 N 
ATOM     10  C   UNL A   1      33.560  26.744  25.873  1.00  0.00     0.145 A 
ATOM     11  N   UNL A   1      31.491  25.972  26.210  1.00  0.00    -0.066 NA
ATOM     12  N   UNL A   1      31.400  27.282  26.016  1.00  0.00    -0.125 NA
BRANCH   9  13
ATOM     13  C   UNL A   1      33.345  24.370  26.438  1.00  0.00     0.148 C 
ATOM     14  C   UNL A   1      34.542  21.440  25.567  1.00  0.00     0.232 C 
ATOM     15  O   UNL A   1      35.718  21.278  25.911  1.00  0.00    -0.274 OA
ATOM     16  N   UNL A   1      34.012  22.695  25.509  1.00  0.00    -0.338 N 
ATOM     17  C   UNL A   1      34.657  23.988  25.742  1.00  0.00     0.148 C 
ATOM     18  C   UNL A   1      32.686  23.269  25.562  1.00  0.00     0.148 C 
BRANCH  14  19
ATOM     19  C   UNL A   1      33.761  20.256  25.025  1.00  0.00     0.170 C 
BRANCH  19  20
ATOM     20  S   UNL A   1      34.657  18.753  24.561  1.00  0.00    -0.146 SA
BRANCH  20  21
ATOM     21  C   UNL A   1      33.329  17.583  24.011  1.00  0.00     0.008 C 
ATOM     22  C   UNL A   1      32.323  17.544  25.177  1.00  0.00     0.022 C 
ATOM     23  C   UNL A   1      33.888  16.175  23.787  1.00  0.00     0.022 C 
ATOM     24  C   UNL A   1      32.607  18.085  22.756  1.00  0.00     0.022 C 
ENDBRANCH  20  21
ENDBRANCH  19  20
ENDBRANCH  14  19
ENDBRANCH   9  13
ENDBRANCH   5   8
ENDBRANCH   3   4
ENDBRANCH   2   3
ENDBRANCH   1   2
BRANCH   1  25
ATOM     25  C   UNL A   1      36.779  32.382  28.315  1.00  0.00     0.002 C 
BRANCH  25  26
ATOM     26  C   UNL A   1      35.611  33.240  28.824  1.00  0.00     0.021 C 
BRANCH  26  27
ATOM     27  C   UNL A   1      34.606  32.465  29.659  1.00  0.00     0.116 C 
BRANCH  27  28
ATOM     28  N   UNL A   1      34.397  33.064  30.980  1.00  0.00    -0.352 N 
ATOM     29  C   UNL A   1      34.985  32.707  32.177  1.00  0.00     0.251 C 
ATOM     30  H   UNL A   1      33.759  33.812  31.019  1.00  0.00     0.163 HD
ATOM     31  O   UNL A   1      34.457  33.009  33.250  1.00  0.00    -0.269 OA
BRANCH  29  32
ATOM     32  C   UNL A   1      36.259  31.973  32.148  1.00  0.00     0.039 A 
ATOM     33  C   UNL A   1      36.320  30.579  32.076  1.00  0.00     0.014 A 
ATOM     34  C   UNL A   1      37.424  32.733  32.163  1.00  0.00     0.014 A 
ATOM     35  C   UNL A   1      37.568  29.973  31.948  1.00  0.00     0.010 A 
ATOM     36  C   UNL A   1      38.616  32.158  31.827  1.00  0.00     0.010 A 
ATOM     37  C   UNL A   1      38.713  30.776  31.807  1.00  0.00    -0.014 A 
BRANCH  37  38
ATOM     38  C   UNL A   1      40.024  30.206  31.523  1.00  0.00     0.031 A 
ATOM     39  C   UNL A   1      40.795  29.850  32.742  1.00  0.00     0.074 A 
ATOM     40  C   UNL A   1      40.405  29.822  30.283  1.00  0.00     0.049 A 
ATOM     41  N   UNL A   1      41.836  30.451  33.213  1.00  0.00    -0.248 NA
ATOM     42  C   UNL A   1      40.244  28.827  33.647  1.00  0.00     0.031 C 
ATOM     43  C   UNL A   1      39.627  29.828  29.036  1.00  0.00     0.029 A 
ATOM     44  N   UNL A   1      41.569  29.241  29.890  1.00  0.00    -0.354 N 
ATOM     45  C   UNL A   1      42.227  29.715  34.326  1.00  0.00     0.074 A 
ATOM     46  C   UNL A   1      41.099  28.889  34.670  1.00  0.00     0.031 C 
ATOM     47  C   UNL A   1      40.249  29.073  28.102  1.00  0.00     0.029 A 
ATOM     48  C   UNL A   1      41.546  28.676  28.616  1.00  0.00     0.049 A 
ATOM     49  H   UNL A   1      42.370  29.222  30.462  1.00  0.00     0.167 HD
ATOM     50  C   UNL A   1      43.537  29.653  34.695  1.00  0.00     0.037 A 
ATOM     51  C   UNL A   1      42.526  27.926  28.044  1.00  0.00     0.037 A 
ATOM     52  C   UNL A   1      44.301  30.693  34.046  1.00  0.00     0.049 A 
ATOM     53  C   UNL A   1      43.780  28.241  28.783  1.00  0.00     0.074 A 
ATOM     54  C   UNL A   1      44.220  32.072  34.004  1.00  0.00     0.029 A 
ATOM     55  N   UNL A   1      45.072  30.337  32.963  1.00  0.00    -0.354 N 
ATOM     56  N   UNL A   1      44.356  29.412  28.753  1.00  0.00    -0.248 NA
ATOM     57  C   UNL A   1      44.099  27.416  29.937  1.00  0.00     0.031 C 
ATOM     58  C   UNL A   1      44.497  32.417  32.647  1.00  0.00     0.029 A 
ATOM     59  C   UNL A   1      44.822  31.245  31.964  1.00  0.00     0.049 A 
ATOM     60  H   UNL A   1      45.690  29.573  32.914  1.00  0.00     0.167 HD
ATOM     61  C   UNL A   1      44.749  29.647  30.063  1.00  0.00     0.074 A 
ATOM     62  C   UNL A   1      44.623  28.352  30.733  1.00  0.00     0.031 C 
ATOM     63  C   UNL A   1      44.854  30.918  30.555  1.00  0.00     0.037 A 
BRANCH  50  64
ATOM     64  C   UNL A   1      44.196  28.440  35.316  1.00  0.00     0.058 A 
ATOM     65  C   UNL A   1      44.976  28.609  36.479  1.00  0.00     0.135 A 
ATOM     66  C   UNL A   1      44.330  27.189  34.674  1.00  0.00     0.135 A 
ATOM     67  F   UNL A   1      44.929  29.757  37.174  1.00  0.00    -0.206 F 
ATOM     68  C   UNL A   1      45.881  27.643  36.921  1.00  0.00     0.059 A 
ATOM     69  C   UNL A   1      45.186  26.192  35.128  1.00  0.00     0.059 A 
ATOM     70  F   UNL A   1      43.713  26.897  33.523  1.00  0.00    -0.206 F 
ATOM     71  C   UNL A   1      45.988  26.443  36.227  1.00  0.00     0.060 A 
BRANCH  71  72
ATOM     72  S   UNL A   1      47.219  25.233  36.737  1.00  0.00     0.124 S 
ATOM     73  O   UNL A   1      47.268  25.458  38.177  1.00  0.00    -0.237 OA
ATOM     74  O   UNL A   1      46.606  23.982  36.303  1.00  0.00    -0.237 OA
ATOM     75  O   UNL A   1      48.409  25.633  35.992  1.00  0.00    -0.744 OA
ENDBRANCH  71  72
ENDBRANCH  50  64
BRANCH  51  76
ATOM     76  C   UNL A   1      42.400  26.717  27.182  1.00  0.00     0.058 A 
ATOM     77  C   UNL A   1      43.280  26.504  26.102  1.00  0.00     0.135 A 
ATOM     78  C   UNL A   1      41.640  25.600  27.585  1.00  0.00     0.135 A 
ATOM     79  F   UNL A   1      44.047  27.508  25.650  1.00  0.00    -0.206 F 
ATOM     80  C   UNL A   1      43.461  25.244  25.517  1.00  0.00     0.059 A 
ATOM     81  C   UNL A   1      41.796  24.338  27.010  1.00  0.00     0.059 A 
ATOM     82  F   UNL A   1      40.792  25.677  28.621  1.00  0.00    -0.206 F 
ATOM     83  C   UNL A   1      42.735  24.158  26.002  1.00  0.00     0.060 A 
BRANCH  83  84
ATOM     84  S   UNL A   1      43.127  22.489  25.417  1.00  0.00     0.124 S 
ATOM     85  O   UNL A   1      41.941  21.741  25.820  1.00  0.00    -0.237 OA
ATOM     86  O   UNL A   1      43.294  22.696  23.982  1.00  0.00    -0.237 OA
ATOM     87  O   UNL A   1      44.352  22.159  26.142  1.00  0.00    -0.744 OA
ENDBRANCH  83  84
ENDBRANCH  51  76
BRANCH  63  88
ATOM     88  C   UNL A   1      44.796  32.070  29.581  1.00  0.00     0.058 A 
ATOM     89  C   UNL A   1      45.872  32.511  28.785  1.00  0.00     0.135 A 
ATOM     90  C   UNL A   1      43.550  32.672  29.349  1.00  0.00     0.135 A 
ATOM     91  F   UNL A   1      47.072  31.921  28.860  1.00  0.00    -0.206 F 
ATOM     92  C   UNL A   1      45.725  33.533  27.845  1.00  0.00     0.059 A 
ATOM     93  C   UNL A   1      43.374  33.670  28.395  1.00  0.00     0.059 A 
ATOM     94  F   UNL A   1      42.468  32.257  30.027  1.00  0.00    -0.206 F 
ATOM     95  C   UNL A   1      44.470  34.111  27.659  1.00  0.00     0.060 A 
BRANCH  95  96
ATOM     96  S   UNL A   1      44.267  35.407  26.417  1.00  0.00     0.124 S 
ATOM     97  O   UNL A   1      42.817  35.450  26.254  1.00  0.00    -0.237 OA
ATOM     98  O   UNL A   1      44.867  36.567  27.067  1.00  0.00    -0.237 OA
ATOM     99  O   UNL A   1      45.008  34.895  25.267  1.00  0.00    -0.744 OA
ENDBRANCH  95  96
ENDBRANCH  63  88
ENDBRANCH  37  38
ENDBRANCH  29  32
ENDBRANCH  27  28
ENDBRANCH  26  27
ENDBRANCH  25  26
ENDBRANCH   1  25
TORSDOF 20
ENDMDL
MODEL 2
REMARK VINA RESULT:      -9.8      7.946     14.658
REMARK SMILES CC(C)(C)SCC(=O)N1CC(n2cc(C(=O)NCCCCCCNC(=O)c3ccc(-c4c5nc(c(-c6c(F)cc(S(=O)(=O)[O-])cc6F)c6ccc([nH]6)c(-c6c(F)cc(S(=O)(=O)[O-])cc6F)c6nc(c(-c7c(F)cc(S(=O)(=O)[O-])cc7F)c7ccc4[nH]7)C=C6)C=C5)cc3)nn2)C1
REMARK SMILES IDX 20 1 19 2 18 3 17 4 15 5 16 6 14 8 12 9 13 10 94 11 93 12
REMARK SMILES IDX 11 13 7 14 8 15 9 16 10 17 95 18 6 19 5 20 2 21 1 22 3 23
REMARK SMILES IDX 4 24 21 25 22 26 23 27 24 28 25 29 26 31 27 32 28 33 92 34
REMARK SMILES IDX 29 35 91 36 30 37 31 38 32 39 85 40 33 41 90 42 84 43 86 44
REMARK SMILES IDX 34 45 89 46 83 47 82 48 35 50 69 51 48 52 68 53 49 54 52 55
REMARK SMILES IDX 67 56 87 57 50 58 51 59 66 61 88 62 53 63 36 64 37 65 46 66
REMARK SMILES IDX 38 67 39 68 45 69 47 70 40 71 41 72 42 73 43 74 44 75 70 76
REMARK SMILES IDX 71 77 80 78 72 79 73 80 79 81 81 82 74 83 75 84 76 85 77 86
REMARK SMILES IDX 78 87 54 88 55 89 64 90 56 91 57 92 63 93 65 94 58 95 59 96
REMARK SMILES IDX 60 97 61 98 62 99
REMARK H PARENT 17 7 24 30 86 49 52 60
REMARK Flexibility Score: inf
ROOT
ATOM      1  C   UNL A   1      44.221  43.052  30.064  1.00  0.00     0.002 C 
ENDROOT
BRANCH   1   2
ATOM      2  C   UNL A   1      44.546  41.804  29.231  1.00  0.00     0.021 C 
BRANCH   2   3
ATOM      3  C   UNL A   1      44.171  41.933  27.756  1.00  0.00     0.116 C 
BRANCH   3   4
ATOM      4  N   UNL A   1      43.000  41.137  27.443  1.00  0.00    -0.351 N 
ATOM      5  C   UNL A   1      42.353  40.875  26.258  1.00  0.00     0.273 C 
ATOM      6  O   UNL A   1      41.451  40.035  26.297  1.00  0.00    -0.267 OA
ATOM      7  H   UNL A   1      42.590  40.702  28.227  1.00  0.00     0.163 HD
BRANCH   5   8
ATOM      8  C   UNL A   1      42.752  41.519  25.012  1.00  0.00     0.170 A 
ATOM      9  N   UNL A   1      42.920  42.621  23.146  1.00  0.00    -0.245 N 
ATOM     10  C   UNL A   1      41.999  42.075  23.997  1.00  0.00     0.145 A 
ATOM     11  N   UNL A   1      44.169  42.354  23.545  1.00  0.00    -0.066 NA
ATOM     12  N   UNL A   1      44.084  41.647  24.665  1.00  0.00    -0.125 NA
BRANCH   9  13
ATOM     13  C   UNL A   1      42.555  43.488  22.073  1.00  0.00     0.148 C 
ATOM     14  C   UNL A   1      42.683  44.443  18.936  1.00  0.00     0.232 C 
ATOM     15  O   UNL A   1      41.583  44.400  18.374  1.00  0.00    -0.274 OA
ATOM     16  N   UNL A   1      42.889  43.747  20.090  1.00  0.00    -0.338 N 
ATOM     17  C   UNL A   1      41.988  42.842  20.804  1.00  0.00     0.148 C 
ATOM     18  C   UNL A   1      43.800  43.835  21.211  1.00  0.00     0.148 C 
BRANCH  14  19
ATOM     19  C   UNL A   1      43.849  45.111  18.229  1.00  0.00     0.170 C 
BRANCH  19  20
ATOM     20  S   UNL A   1      44.479  46.683  18.869  1.00  0.00    -0.146 SA
BRANCH  20  21
ATOM     21  C   UNL A   1      43.947  47.933  17.608  1.00  0.00     0.008 C 
ATOM     22  C   UNL A   1      45.093  47.972  16.578  1.00  0.00     0.022 C 
ATOM     23  C   UNL A   1      43.793  49.321  18.234  1.00  0.00     0.022 C 
ATOM     24  C   UNL A   1      42.658  47.515  16.894  1.00  0.00     0.022 C 
ENDBRANCH  20  21
ENDBRANCH  19  20
ENDBRANCH  14  19
ENDBRANCH   9  13
ENDBRANCH   5   8
ENDBRANCH   3   4
ENDBRANCH   2   3
ENDBRANCH   1   2
BRANCH   1  25
ATOM     25  C   UNL A   1      43.048  42.911  31.051  1.00  0.00     0.002 C 
BRANCH  25  26
ATOM     26  C   UNL A   1      42.653  41.480  31.448  1.00  0.00     0.021 C 
BRANCH  26  27
ATOM     27  C   UNL A   1      43.180  41.059  32.809  1.00  0.00     0.116 C 
BRANCH  27  28
ATOM     28  N   UNL A   1      44.540  40.518  32.740  1.00  0.00    -0.352 N 
ATOM     29  C   UNL A   1      44.979  39.270  33.131  1.00  0.00     0.251 C 
ATOM     30  H   UNL A   1      45.225  41.119  32.368  1.00  0.00     0.163 HD
ATOM     31  O   UNL A   1      46.170  39.074  33.384  1.00  0.00    -0.269 OA
BRANCH  29  32
ATOM     32  C   UNL A   1      44.002  38.174  33.228  1.00  0.00     0.039 A 
ATOM     33  C   UNL A   1      43.815  37.244  32.201  1.00  0.00     0.014 A 
ATOM     34  C   UNL A   1      43.280  38.076  34.412  1.00  0.00     0.014 A 
ATOM     35  C   UNL A   1      42.943  36.179  32.420  1.00  0.00     0.010 A 
ATOM     36  C   UNL A   1      42.598  36.929  34.701  1.00  0.00     0.010 A 
ATOM     37  C   UNL A   1      42.350  36.021  33.684  1.00  0.00    -0.014 A 
BRANCH  37  38
ATOM     38  C   UNL A   1      41.549  34.852  34.019  1.00  0.00     0.031 A 
ATOM     39  C   UNL A   1      42.030  33.598  33.384  1.00  0.00     0.074 A 
ATOM     40  C   UNL A   1      40.608  34.860  34.993  1.00  0.00     0.049 A 
ATOM     41  N   UNL A   1      41.472  32.945  32.420  1.00  0.00    -0.248 NA
ATOM     42  C   UNL A   1      43.378  33.112  33.725  1.00  0.00     0.031 C 
ATOM     43  C   UNL A   1      40.243  35.945  35.913  1.00  0.00     0.029 A 
ATOM     44  N   UNL A   1      39.829  33.838  35.434  1.00  0.00    -0.354 N 
ATOM     45  C   UNL A   1      42.263  31.819  32.219  1.00  0.00     0.074 A 
ATOM     46  C   UNL A   1      43.516  32.093  32.873  1.00  0.00     0.031 C 
ATOM     47  C   UNL A   1      39.500  35.455  36.931  1.00  0.00     0.029 A 
ATOM     48  C   UNL A   1      39.187  34.067  36.650  1.00  0.00     0.049 A 
ATOM     49  H   UNL A   1      39.724  32.997  34.931  1.00  0.00     0.167 HD
ATOM     50  C   UNL A   1      41.717  30.655  31.767  1.00  0.00     0.037 A 
ATOM     51  C   UNL A   1      38.464  33.166  37.367  1.00  0.00     0.037 A 
ATOM     52  C   UNL A   1      40.403  30.888  31.212  1.00  0.00     0.049 A 
ATOM     53  C   UNL A   1      38.064  32.095  36.413  1.00  0.00     0.074 A 
ATOM     54  C   UNL A   1      39.907  31.692  30.203  1.00  0.00     0.029 A 
ATOM     55  N   UNL A   1      39.315  30.556  31.986  1.00  0.00    -0.354 N 
ATOM     56  N   UNL A   1      37.241  32.290  35.418  1.00  0.00    -0.248 NA
ATOM     57  C   UNL A   1      38.961  30.959  36.270  1.00  0.00     0.031 C 
ATOM     58  C   UNL A   1      38.678  32.208  30.713  1.00  0.00     0.029 A 
ATOM     59  C   UNL A   1      38.449  31.621  31.957  1.00  0.00     0.049 A 
ATOM     60  H   UNL A   1      39.182  29.710  32.470  1.00  0.00     0.167 HD
ATOM     61  C   UNL A   1      37.800  31.595  34.356  1.00  0.00     0.074 A 
ATOM     62  C   UNL A   1      38.824  30.740  34.959  1.00  0.00     0.031 C 
ATOM     63  C   UNL A   1      37.592  31.988  33.063  1.00  0.00     0.037 A 
BRANCH  50  64
ATOM     64  C   UNL A   1      42.183  29.274  32.175  1.00  0.00     0.058 A 
ATOM     65  C   UNL A   1      42.232  28.948  33.546  1.00  0.00     0.135 A 
ATOM     66  C   UNL A   1      42.843  28.368  31.314  1.00  0.00     0.135 A 
ATOM     67  F   UNL A   1      41.638  29.735  34.458  1.00  0.00    -0.206 F 
ATOM     68  C   UNL A   1      42.951  27.855  34.031  1.00  0.00     0.059 A 
ATOM     69  C   UNL A   1      43.520  27.244  31.771  1.00  0.00     0.059 A 
ATOM     70  F   UNL A   1      42.948  28.571  29.995  1.00  0.00    -0.206 F 
ATOM     71  C   UNL A   1      43.604  27.018  33.133  1.00  0.00     0.060 A 
BRANCH  71  72
ATOM     72  S   UNL A   1      44.609  25.663  33.759  1.00  0.00     0.124 S 
ATOM     73  O   UNL A   1      45.451  26.350  34.732  1.00  0.00    -0.237 OA
ATOM     74  O   UNL A   1      43.596  24.768  34.307  1.00  0.00    -0.237 OA
ATOM     75  O   UNL A   1      45.291  25.173  32.565  1.00  0.00    -0.744 OA
ENDBRANCH  71  72
ENDBRANCH  50  64
BRANCH  51  76
ATOM     76  C   UNL A   1      38.411  32.969  38.844  1.00  0.00     0.058 A 
ATOM     77  C   UNL A   1      37.241  32.490  39.467  1.00  0.00     0.135 A 
ATOM     78  C   UNL A   1      39.583  32.932  39.626  1.00  0.00     0.135 A 
ATOM     79  F   UNL A   1      36.077  32.484  38.799  1.00  0.00    -0.206 F 
ATOM     80  C   UNL A   1      37.248  31.929  40.751  1.00  0.00     0.059 A 
ATOM     81  C   UNL A   1      39.612  32.387  40.911  1.00  0.00     0.059 A 
ATOM     82  F   UNL A   1      40.762  33.333  39.127  1.00  0.00    -0.206 F 
ATOM     83  C   UNL A   1      38.450  31.853  41.453  1.00  0.00     0.060 A 
BRANCH  83  84
ATOM     84  S   UNL A   1      38.519  30.924  43.007  1.00  0.00     0.124 S 
ATOM     85  O   UNL A   1      39.862  31.235  43.485  1.00  0.00    -0.237 OA
ATOM     86  O   UNL A   1      37.419  31.511  43.765  1.00  0.00    -0.237 OA
ATOM     87  O   UNL A   1      38.310  29.543  42.581  1.00  0.00    -0.744 OA
ENDBRANCH  83  84
ENDBRANCH  51  76
BRANCH  63  88
ATOM     88  C   UNL A   1      36.530  33.027  32.793  1.00  0.00     0.058 A 
ATOM     89  C   UNL A   1      36.673  34.409  33.023  1.00  0.00     0.135 A 
ATOM     90  C   UNL A   1      35.356  32.613  32.143  1.00  0.00     0.135 A 
ATOM     91  F   UNL A   1      37.804  34.909  33.538  1.00  0.00    -0.206 F 
ATOM     92  C   UNL A   1      35.677  35.324  32.673  1.00  0.00     0.059 A 
ATOM     93  C   UNL A   1      34.366  33.510  31.757  1.00  0.00     0.059 A 
ATOM     94  F   UNL A   1      35.183  31.317  31.835  1.00  0.00    -0.206 F 
ATOM     95  C   UNL A   1      34.522  34.863  32.042  1.00  0.00     0.060 A 
BRANCH  95  96
ATOM     96  S   UNL A   1      33.249  36.047  31.553  1.00  0.00     0.124 S 
ATOM     97  O   UNL A   1      33.767  37.297  32.101  1.00  0.00    -0.237 OA
ATOM     98  O   UNL A   1      33.258  35.941  30.098  1.00  0.00    -0.237 OA
ATOM     99  O   UNL A   1      32.042  35.537  32.199  1.00  0.00    -0.744 OA
ENDBRANCH  95  96
ENDBRANCH  63  88
ENDBRANCH  37  38
ENDBRANCH  29  32
ENDBRANCH  27  28
ENDBRANCH  26  27
ENDBRANCH  25  26
ENDBRANCH   1  25
TORSDOF 20
ENDMDL
MODEL 3
REMARK VINA RESULT:      -9.5      4.947     12.707
REMARK SMILES CC(C)(C)SCC(=O)N1CC(n2cc(C(=O)NCCCCCCNC(=O)c3ccc(-c4c5nc(c(-c6c(F)cc(S(=O)(=O)[O-])cc6F)c6ccc([nH]6)c(-c6c(F)cc(S(=O)(=O)[O-])cc6F)c6nc(c(-c7c(F)cc(S(=O)(=O)[O-])cc7F)c7ccc4[nH]7)C=C6)C=C5)cc3)nn2)C1
REMARK SMILES IDX 20 1 19 2 18 3 17 4 15 5 16 6 14 8 12 9 13 10 94 11 93 12
REMARK SMILES IDX 11 13 7 14 8 15 9 16 10 17 95 18 6 19 5 20 2 21 1 22 3 23
REMARK SMILES IDX 4 24 21 25 22 26 23 27 24 28 25 29 26 31 27 32 28 33 92 34
REMARK SMILES IDX 29 35 91 36 30 37 31 38 32 39 85 40 33 41 90 42 84 43 86 44
REMARK SMILES IDX 34 45 89 46 83 47 82 48 35 50 69 51 48 52 68 53 49 54 52 55
REMARK SMILES IDX 67 56 87 57 50 58 51 59 66 61 88 62 53 63 36 64 37 65 46 66
REMARK SMILES IDX 38 67 39 68 45 69 47 70 40 71 41 72 42 73 43 74 44 75 70 76
REMARK SMILES IDX 71 77 80 78 72 79 73 80 79 81 81 82 74 83 75 84 76 85 77 86
REMARK SMILES IDX 78 87 54 88 55 89 64 90 56 91 57 92 63 93 65 94 58 95 59 96
REMARK SMILES IDX 60 97 61 98 62 99
REMARK H PARENT 17 7 24 30 86 49 52 60
REMARK Flexibility Score: inf
ROOT
ATOM      1  C   UNL A   1      45.587  24.104  26.297  1.00  0.00     0.002 C 
ENDROOT
BRANCH   1   2
ATOM      2  C   UNL A   1      45.159  25.254  25.374  1.00  0.00     0.021 C 
BRANCH   2   3
ATOM      3  C   UNL A   1      46.329  26.015  24.754  1.00  0.00     0.116 C 
BRANCH   3   4
ATOM      4  N   UNL A   1      46.116  27.447  24.823  1.00  0.00    -0.351 N 
ATOM      5  C   UNL A   1      46.850  28.463  25.391  1.00  0.00     0.273 C 
ATOM      6  O   UNL A   1      46.472  29.612  25.157  1.00  0.00    -0.267 OA
ATOM      7  H   UNL A   1      45.290  27.751  24.380  1.00  0.00     0.163 HD
BRANCH   5   8
ATOM      8  C   UNL A   1      48.045  28.191  26.181  1.00  0.00     0.170 A 
ATOM      9  N   UNL A   1      50.041  27.837  26.965  1.00  0.00    -0.245 N 
ATOM     10  C   UNL A   1      49.331  27.864  25.797  1.00  0.00     0.145 A 
ATOM     11  N   UNL A   1      49.247  28.044  28.023  1.00  0.00    -0.066 NA
ATOM     12  N   UNL A   1      48.015  28.226  27.562  1.00  0.00    -0.125 NA
BRANCH   9  13
ATOM     13  C   UNL A   1      51.465  27.753  26.996  1.00  0.00     0.148 C 
ATOM     14  C   UNL A   1      54.383  27.339  25.553  1.00  0.00     0.232 C 
ATOM     15  O   UNL A   1      55.119  28.326  25.661  1.00  0.00    -0.274 OA
ATOM     16  N   UNL A   1      53.040  27.460  25.753  1.00  0.00    -0.338 N 
ATOM     17  C   UNL A   1      52.247  28.657  26.036  1.00  0.00     0.148 C 
ATOM     18  C   UNL A   1      51.957  26.572  26.113  1.00  0.00     0.148 C 
BRANCH  14  19
ATOM     19  C   UNL A   1      54.960  26.044  25.006  1.00  0.00     0.170 C 
BRANCH  19  20
ATOM     20  S   UNL A   1      54.687  24.507  25.922  1.00  0.00    -0.146 SA
BRANCH  20  21
ATOM     21  C   UNL A   1      56.368  24.048  26.552  1.00  0.00     0.008 C 
ATOM     22  C   UNL A   1      56.331  22.515  26.707  1.00  0.00     0.022 C 
ATOM     23  C   UNL A   1      56.640  24.680  27.919  1.00  0.00     0.022 C 
ATOM     24  C   UNL A   1      57.473  24.414  25.556  1.00  0.00     0.022 C 
ENDBRANCH  20  21
ENDBRANCH  19  20
ENDBRANCH  14  19
ENDBRANCH   9  13
ENDBRANCH   5   8
ENDBRANCH   3   4
ENDBRANCH   2   3
ENDBRANCH   1   2
BRANCH   1  25
ATOM     25  C   UNL A   1      45.506  22.692  25.689  1.00  0.00     0.002 C 
BRANCH  25  26
ATOM     26  C   UNL A   1      44.192  21.926  25.908  1.00  0.00     0.021 C 
BRANCH  26  27
ATOM     27  C   UNL A   1      43.033  22.456  25.080  1.00  0.00     0.116 C 
BRANCH  27  28
ATOM     28  N   UNL A   1      41.742  21.919  25.517  1.00  0.00    -0.352 N 
ATOM     29  C   UNL A   1      40.926  22.387  26.526  1.00  0.00     0.251 C 
ATOM     30  H   UNL A   1      41.417  21.128  25.031  1.00  0.00     0.163 HD
ATOM     31  O   UNL A   1      40.086  21.650  27.047  1.00  0.00    -0.269 OA
BRANCH  29  32
ATOM     32  C   UNL A   1      41.067  23.786  26.959  1.00  0.00     0.039 A 
ATOM     33  C   UNL A   1      40.233  24.805  26.487  1.00  0.00     0.014 A 
ATOM     34  C   UNL A   1      42.057  24.059  27.897  1.00  0.00     0.014 A 
ATOM     35  C   UNL A   1      40.370  26.081  27.030  1.00  0.00     0.010 A 
ATOM     36  C   UNL A   1      42.046  25.246  28.572  1.00  0.00     0.010 A 
ATOM     37  C   UNL A   1      41.273  26.288  28.087  1.00  0.00    -0.014 A 
BRANCH  37  38
ATOM     38  C   UNL A   1      41.355  27.560  28.792  1.00  0.00     0.031 A 
ATOM     39  C   UNL A   1      42.441  28.446  28.298  1.00  0.00     0.074 A 
ATOM     40  C   UNL A   1      40.398  27.990  29.646  1.00  0.00     0.049 A 
ATOM     41  N   UNL A   1      43.546  28.739  28.898  1.00  0.00    -0.248 NA
ATOM     42  C   UNL A   1      42.386  28.911  26.901  1.00  0.00     0.031 C 
ATOM     43  C   UNL A   1      39.117  27.357  29.992  1.00  0.00     0.029 A 
ATOM     44  N   UNL A   1      40.329  29.164  30.329  1.00  0.00    -0.354 N 
ATOM     45  C   UNL A   1      44.200  29.641  28.067  1.00  0.00     0.074 A 
ATOM     46  C   UNL A   1      43.565  29.526  26.780  1.00  0.00     0.031 C 
ATOM     47  C   UNL A   1      38.317  28.249  30.618  1.00  0.00     0.029 A 
ATOM     48  C   UNL A   1      39.080  29.455  30.877  1.00  0.00     0.049 A 
ATOM     49  H   UNL A   1      41.103  29.764  30.429  1.00  0.00     0.167 HD
ATOM     50  C   UNL A   1      45.024  30.595  28.584  1.00  0.00     0.037 A 
ATOM     51  C   UNL A   1      38.713  30.614  31.487  1.00  0.00     0.037 A 
ATOM     52  C   UNL A   1      45.374  30.282  29.951  1.00  0.00     0.049 A 
ATOM     53  C   UNL A   1      39.975  31.284  31.907  1.00  0.00     0.074 A 
ATOM     54  C   UNL A   1      45.977  29.205  30.574  1.00  0.00     0.029 A 
ATOM     55  N   UNL A   1      44.720  30.966  30.951  1.00  0.00    -0.354 N 
ATOM     56  N   UNL A   1      40.774  30.803  32.819  1.00  0.00    -0.248 NA
ATOM     57  C   UNL A   1      40.585  32.208  30.964  1.00  0.00     0.031 C 
ATOM     58  C   UNL A   1      45.241  29.018  31.782  1.00  0.00     0.029 A 
ATOM     59  C   UNL A   1      44.297  30.041  31.873  1.00  0.00     0.049 A 
ATOM     60  H   UNL A   1      44.582  31.939  30.996  1.00  0.00     0.167 HD
ATOM     61  C   UNL A   1      42.050  31.007  32.315  1.00  0.00     0.074 A 
ATOM     62  C   UNL A   1      41.872  31.936  31.199  1.00  0.00     0.031 C 
ATOM     63  C   UNL A   1      43.087  30.181  32.653  1.00  0.00     0.037 A 
BRANCH  50  64
ATOM     64  C   UNL A   1      45.192  31.985  28.011  1.00  0.00     0.058 A 
ATOM     65  C   UNL A   1      46.476  32.403  27.601  1.00  0.00     0.135 A 
ATOM     66  C   UNL A   1      44.225  33.011  28.106  1.00  0.00     0.135 A 
ATOM     67  F   UNL A   1      47.476  31.516  27.473  1.00  0.00    -0.206 F 
ATOM     68  C   UNL A   1      46.794  33.744  27.386  1.00  0.00     0.059 A 
ATOM     69  C   UNL A   1      44.506  34.346  27.844  1.00  0.00     0.059 A 
ATOM     70  F   UNL A   1      42.980  32.791  28.547  1.00  0.00    -0.206 F 
ATOM     71  C   UNL A   1      45.803  34.709  27.526  1.00  0.00     0.060 A 
BRANCH  71  72
ATOM     72  S   UNL A   1      46.229  36.448  27.340  1.00  0.00     0.124 S 
ATOM     73  O   UNL A   1      46.707  36.485  25.963  1.00  0.00    -0.237 OA
ATOM     74  O   UNL A   1      44.948  37.099  27.593  1.00  0.00    -0.237 OA
ATOM     75  O   UNL A   1      47.245  36.655  28.369  1.00  0.00    -0.744 OA
ENDBRANCH  71  72
ENDBRANCH  50  64
BRANCH  51  76
ATOM     76  C   UNL A   1      37.418  31.347  31.404  1.00  0.00     0.058 A 
ATOM     77  C   UNL A   1      36.474  31.265  32.448  1.00  0.00     0.135 A 
ATOM     78  C   UNL A   1      37.216  32.385  30.473  1.00  0.00     0.135 A 
ATOM     79  F   UNL A   1      36.586  30.310  33.384  1.00  0.00    -0.206 F 
ATOM     80  C   UNL A   1      35.447  32.204  32.608  1.00  0.00     0.059 A 
ATOM     81  C   UNL A   1      36.194  33.326  30.607  1.00  0.00     0.059 A 
ATOM     82  F   UNL A   1      38.069  32.578  29.455  1.00  0.00    -0.206 F 
ATOM     83  C   UNL A   1      35.336  33.253  31.697  1.00  0.00     0.060 A 
BRANCH  83  84
ATOM     84  S   UNL A   1      34.167  34.598  32.021  1.00  0.00     0.124 S 
ATOM     85  O   UNL A   1      33.279  33.996  33.010  1.00  0.00    -0.237 OA
ATOM     86  O   UNL A   1      35.044  35.657  32.511  1.00  0.00    -0.237 OA
ATOM     87  O   UNL A   1      33.570  34.846  30.711  1.00  0.00    -0.744 OA
ENDBRANCH  83  84
ENDBRANCH  51  76
BRANCH  63  88
ATOM     88  C   UNL A   1      42.886  29.207  33.789  1.00  0.00     0.058 A 
ATOM     89  C   UNL A   1      43.030  29.518  35.155  1.00  0.00     0.135 A 
ATOM     90  C   UNL A   1      42.394  27.930  33.480  1.00  0.00     0.135 A 
ATOM     91  F   UNL A   1      43.388  30.746  35.550  1.00  0.00    -0.206 F 
ATOM     92  C   UNL A   1      42.749  28.587  36.159  1.00  0.00     0.059 A 
ATOM     93  C   UNL A   1      42.078  26.998  34.463  1.00  0.00     0.059 A 
ATOM     94  F   UNL A   1      42.173  27.589  32.200  1.00  0.00    -0.206 F 
ATOM     95  C   UNL A   1      42.276  27.324  35.802  1.00  0.00     0.060 A 
BRANCH  95  96
ATOM     96  S   UNL A   1      41.875  26.131  37.097  1.00  0.00     0.124 S 
ATOM     97  O   UNL A   1      40.504  26.499  37.437  1.00  0.00    -0.237 OA
ATOM     98  O   UNL A   1      42.037  24.853  36.412  1.00  0.00    -0.237 OA
ATOM     99  O   UNL A   1      42.868  26.404  38.132  1.00  0.00    -0.744 OA
ENDBRANCH  95  96
ENDBRANCH  63  88
ENDBRANCH  37  38
ENDBRANCH  29  32
ENDBRANCH  27  28
ENDBRANCH  26  27
ENDBRANCH  25  26
ENDBRANCH   1  25
TORSDOF 20
ENDMDL
