MODEL 1
REMARK VINA RESULT:     -11.9      0.000      0.000
REMARK SMILES CC(C)C[C@H](NC(=O)[C@H]1N2C(=O)c3ccccc3[C@@H]2SC1(C)C)C(=O)N[C@@H](C)C(=O)NCCCCCCNC(=O)c1ccc(-c2c3nc(c(-c4c(F)cc(S(=O)(=O)[O-])cc4F)c4ccc([nH]4)c(-c4c(F)cc(S(=O)(=O)[O-])cc4F)c4nc(c(-c5c(F)cc(S(=O)(=O)[O-])cc5F)c5ccc2[nH]5)C=C4)C=C3)cc1
REMARK SMILES IDX 34 1 33 2 32 3 31 4 29 5 30 6 27 8 28 9 26 10 24 11 25 12
REMARK SMILES IDX 5 14 4 15 2 16 1 17 3 18 6 19 7 20 8 22 9 23 10 24 21 25
REMARK SMILES IDX 11 26 19 27 20 28 22 29 23 30 12 31 13 32 18 33 14 34 17 35
REMARK SMILES IDX 15 36 16 37 35 38 36 39 37 40 38 41 39 42 40 44 41 45 42 46
REMARK SMILES IDX 106 47 43 48 105 49 44 50 45 51 46 52 99 53 47 54 104 55
REMARK SMILES IDX 98 56 100 57 48 58 103 59 97 60 96 61 49 63 83 64 62 65
REMARK SMILES IDX 82 66 63 67 66 68 81 69 101 70 64 71 65 72 80 74 102 75
REMARK SMILES IDX 67 76 50 77 51 78 60 79 52 80 53 81 59 82 61 83 54 84 55 85
REMARK SMILES IDX 56 86 57 87 58 88 84 89 85 90 94 91 86 92 87 93 93 94 95 95
REMARK SMILES IDX 88 96 89 97 90 98 91 99 92 100 68 101 69 102 78 103 70 104
REMARK SMILES IDX 71 105 77 106 79 107 72 108 73 109 74 110 75 111 76 112
REMARK H PARENT 31 7 26 13 6 21 38 43 100 62 66 73
REMARK Flexibility Score: inf
ROOT
ATOM      1  C   UNL A   1      31.911  29.457  27.080  1.00  0.00     0.002 C 
ENDROOT
BRANCH   1   2
ATOM      2  C   UNL A   1      31.600  28.055  27.620  1.00  0.00     0.021 C 
BRANCH   2   3
ATOM      3  C   UNL A   1      32.081  26.899  26.743  1.00  0.00     0.116 C 
BRANCH   3   4
ATOM      4  N   UNL A   1      31.229  25.728  26.859  1.00  0.00    -0.354 N 
ATOM      5  C   UNL A   1      30.336  25.162  25.999  1.00  0.00     0.242 C 
ATOM      6  O   UNL A   1      29.850  24.072  26.320  1.00  0.00    -0.273 OA
ATOM      7  H   UNL A   1      31.314  25.256  27.718  1.00  0.00     0.163 HD
BRANCH   5   8
ATOM      8  C   UNL A   1      29.973  25.800  24.641  1.00  0.00     0.168 C 
ATOM      9  C   UNL A   1      28.548  26.334  24.618  1.00  0.00     0.041 C 
BRANCH   8  10
ATOM     10  N   UNL A   1      30.243  24.850  23.565  1.00  0.00    -0.343 N 
ATOM     11  C   UNL A   1      31.449  24.406  23.114  1.00  0.00     0.243 C 
ATOM     12  O   UNL A   1      31.488  23.232  22.737  1.00  0.00    -0.273 OA
ATOM     13  H   UNL A   1      29.452  24.485  23.107  1.00  0.00     0.164 HD
BRANCH  11  14
ATOM     14  C   UNL A   1      32.728  25.271  23.164  1.00  0.00     0.171 C 
BRANCH  14  15
ATOM     15  C   UNL A   1      32.499  26.612  22.445  1.00  0.00     0.038 C 
BRANCH  15  16
ATOM     16  C   UNL A   1      32.910  27.813  23.329  1.00  0.00    -0.015 C 
ATOM     17  C   UNL A   1      34.123  28.549  22.752  1.00  0.00     0.007 C 
ATOM     18  C   UNL A   1      31.744  28.790  23.480  1.00  0.00     0.007 C 
ENDBRANCH  15  16
ENDBRANCH  14  15
BRANCH  14  19
ATOM     19  N   UNL A   1      33.904  24.564  22.658  1.00  0.00    -0.342 N 
ATOM     20  C   UNL A   1      34.584  23.489  23.157  1.00  0.00     0.244 C 
ATOM     21  H   UNL A   1      34.266  24.921  21.815  1.00  0.00     0.164 HD
ATOM     22  O   UNL A   1      35.653  23.258  22.580  1.00  0.00    -0.273 OA
BRANCH  20  23
ATOM     23  C   UNL A   1      34.197  22.762  24.487  1.00  0.00     0.191 C 
ATOM     24  N   UNL A   1      34.028  21.325  24.355  1.00  0.00    -0.309 N 
ATOM     25  C   UNL A   1      35.182  22.929  25.698  1.00  0.00     0.042 C 
ATOM     26  C   UNL A   1      32.867  20.604  24.559  1.00  0.00     0.256 C 
ATOM     27  C   UNL A   1      35.214  20.527  24.494  1.00  0.00     0.176 C 
ATOM     28  S   UNL A   1      36.083  21.297  25.856  1.00  0.00    -0.123 SA
ATOM     29  C   UNL A   1      36.255  24.016  25.600  1.00  0.00     0.026 C 
ATOM     30  C   UNL A   1      34.385  23.131  26.998  1.00  0.00     0.026 C 
ATOM     31  O   UNL A   1      31.731  21.030  24.644  1.00  0.00    -0.269 OA
ATOM     32  C   UNL A   1      33.274  19.198  24.681  1.00  0.00     0.046 A 
ATOM     33  C   UNL A   1      34.672  19.156  24.693  1.00  0.00    -0.002 A 
ATOM     34  C   UNL A   1      32.485  18.066  24.709  1.00  0.00     0.014 A 
ATOM     35  C   UNL A   1      35.326  17.938  24.744  1.00  0.00     0.007 A 
ATOM     36  C   UNL A   1      33.143  16.834  24.744  1.00  0.00     0.001 A 
ATOM     37  C   UNL A   1      34.549  16.773  24.767  1.00  0.00     0.000 A 
ENDBRANCH  20  23
ENDBRANCH  14  19
ENDBRANCH  11  14
ENDBRANCH   8  10
ENDBRANCH   5   8
ENDBRANCH   3   4
ENDBRANCH   2   3
ENDBRANCH   1   2
BRANCH   1  38
ATOM     38  C   UNL A   1      33.393  29.776  26.854  1.00  0.00     0.002 C 
BRANCH  38  39
ATOM     39  C   UNL A   1      33.921  31.028  27.557  1.00  0.00     0.021 C 
BRANCH  39  40
ATOM     40  C   UNL A   1      35.303  30.890  28.185  1.00  0.00     0.116 C 
BRANCH  40  41
ATOM     41  N   UNL A   1      35.313  31.156  29.615  1.00  0.00    -0.352 N 
ATOM     42  C   UNL A   1      36.282  30.853  30.544  1.00  0.00     0.251 C 
ATOM     43  H   UNL A   1      34.517  31.616  29.966  1.00  0.00     0.163 HD
ATOM     44  O   UNL A   1      36.073  31.043  31.739  1.00  0.00    -0.269 OA
BRANCH  42  45
ATOM     45  C   UNL A   1      37.562  30.255  30.099  1.00  0.00     0.039 A 
ATOM     46  C   UNL A   1      38.336  29.494  30.977  1.00  0.00     0.014 A 
ATOM     47  C   UNL A   1      38.014  30.496  28.797  1.00  0.00     0.014 A 
ATOM     48  C   UNL A   1      39.632  29.136  30.618  1.00  0.00     0.010 A 
ATOM     49  C   UNL A   1      39.286  30.060  28.411  1.00  0.00     0.010 A 
ATOM     50  C   UNL A   1      40.130  29.430  29.337  1.00  0.00    -0.014 A 
BRANCH  50  51
ATOM     51  C   UNL A   1      41.542  29.092  29.016  1.00  0.00     0.031 A 
ATOM     52  C   UNL A   1      41.913  27.720  28.513  1.00  0.00     0.074 A 
ATOM     53  C   UNL A   1      42.486  30.048  29.108  1.00  0.00     0.049 A 
ATOM     54  N   UNL A   1      43.075  27.284  28.094  1.00  0.00    -0.248 NA
ATOM     55  C   UNL A   1      40.849  26.704  28.479  1.00  0.00     0.031 C 
ATOM     56  C   UNL A   1      42.256  31.410  29.594  1.00  0.00     0.029 A 
ATOM     57  N   UNL A   1      43.816  30.037  28.768  1.00  0.00    -0.354 N 
ATOM     58  C   UNL A   1      42.888  25.945  27.770  1.00  0.00     0.074 A 
ATOM     59  C   UNL A   1      41.507  25.630  28.067  1.00  0.00     0.031 C 
ATOM     60  C   UNL A   1      43.387  32.120  29.466  1.00  0.00     0.029 A 
ATOM     61  C   UNL A   1      44.436  31.252  28.935  1.00  0.00     0.049 A 
ATOM     62  H   UNL A   1      44.281  29.235  28.435  1.00  0.00     0.167 HD
ATOM     63  C   UNL A   1      43.779  25.064  27.257  1.00  0.00     0.037 A 
ATOM     64  C   UNL A   1      45.705  31.632  28.694  1.00  0.00     0.037 A 
ATOM     65  C   UNL A   1      45.142  25.389  26.927  1.00  0.00     0.049 A 
ATOM     66  C   UNL A   1      46.680  30.636  28.136  1.00  0.00     0.074 A 
ATOM     67  C   UNL A   1      46.097  24.585  26.331  1.00  0.00     0.029 A 
ATOM     68  N   UNL A   1      45.746  26.613  27.171  1.00  0.00    -0.354 N 
ATOM     69  N   UNL A   1      46.467  29.392  27.783  1.00  0.00    -0.248 NA
ATOM     70  C   UNL A   1      48.067  31.087  27.958  1.00  0.00     0.031 C 
ATOM     71  C   UNL A   1      47.292  25.307  26.257  1.00  0.00     0.029 A 
ATOM     72  C   UNL A   1      47.071  26.575  26.772  1.00  0.00     0.049 A 
ATOM     73  H   UNL A   1      45.298  27.395  27.570  1.00  0.00     0.167 HD
ATOM     74  C   UNL A   1      47.695  28.905  27.348  1.00  0.00     0.074 A 
ATOM     75  C   UNL A   1      48.640  29.998  27.460  1.00  0.00     0.031 C 
ATOM     76  C   UNL A   1      48.007  27.664  26.906  1.00  0.00     0.037 A 
BRANCH  63  77
ATOM     77  C   UNL A   1      43.312  23.654  27.023  1.00  0.00     0.058 A 
ATOM     78  C   UNL A   1      43.143  22.748  28.081  1.00  0.00     0.135 A 
ATOM     79  C   UNL A   1      42.998  23.214  25.727  1.00  0.00     0.135 A 
ATOM     80  F   UNL A   1      43.441  23.111  29.339  1.00  0.00    -0.206 F 
ATOM     81  C   UNL A   1      42.706  21.445  27.859  1.00  0.00     0.059 A 
ATOM     82  C   UNL A   1      42.538  21.923  25.484  1.00  0.00     0.059 A 
ATOM     83  F   UNL A   1      43.140  24.043  24.680  1.00  0.00    -0.206 F 
ATOM     84  C   UNL A   1      42.410  21.041  26.556  1.00  0.00     0.060 A 
BRANCH  84  85
ATOM     85  S   UNL A   1      41.861  19.343  26.285  1.00  0.00     0.124 S 
ATOM     86  O   UNL A   1      40.424  19.527  26.115  1.00  0.00    -0.237 OA
ATOM     87  O   UNL A   1      42.597  18.965  25.082  1.00  0.00    -0.237 OA
ATOM     88  O   UNL A   1      42.266  18.654  27.507  1.00  0.00    -0.744 OA
ENDBRANCH  84  85
ENDBRANCH  63  77
BRANCH  64  89
ATOM     89  C   UNL A   1      46.105  33.034  28.978  1.00  0.00     0.058 A 
ATOM     90  C   UNL A   1      46.685  33.384  30.204  1.00  0.00     0.135 A 
ATOM     91  C   UNL A   1      45.994  34.029  27.993  1.00  0.00     0.135 A 
ATOM     92  F   UNL A   1      46.804  32.468  31.176  1.00  0.00    -0.206 F 
ATOM     93  C   UNL A   1      47.161  34.670  30.440  1.00  0.00     0.059 A 
ATOM     94  C   UNL A   1      46.482  35.315  28.198  1.00  0.00     0.059 A 
ATOM     95  F   UNL A   1      45.457  33.736  26.799  1.00  0.00    -0.206 F 
ATOM     96  C   UNL A   1      47.067  35.625  29.425  1.00  0.00     0.060 A 
BRANCH  96  97
ATOM     97  S   UNL A   1      47.792  37.256  29.701  1.00  0.00     0.124 S 
ATOM     98  O   UNL A   1      48.244  37.608  28.360  1.00  0.00    -0.237 OA
ATOM     99  O   UNL A   1      46.652  38.014  30.211  1.00  0.00    -0.237 OA
ATOM    100  O   UNL A   1      48.846  36.995  30.676  1.00  0.00    -0.744 OA
ENDBRANCH  96  97
ENDBRANCH  64  89
BRANCH  76 101
ATOM    101  C   UNL A   1      49.437  27.393  26.533  1.00  0.00     0.058 A 
ATOM    102  C   UNL A   1      50.374  27.007  27.503  1.00  0.00     0.135 A 
ATOM    103  C   UNL A   1      49.847  27.415  25.192  1.00  0.00     0.135 A 
ATOM    104  F   UNL A   1      50.032  26.982  28.802  1.00  0.00    -0.206 F 
ATOM    105  C   UNL A   1      51.670  26.643  27.155  1.00  0.00     0.059 A 
ATOM    106  C   UNL A   1      51.133  27.036  24.818  1.00  0.00     0.059 A 
ATOM    107  F   UNL A   1      48.984  27.772  24.227  1.00  0.00    -0.206 F 
ATOM    108  C   UNL A   1      52.037  26.650  25.806  1.00  0.00     0.060 A 
BRANCH 108 109
ATOM    109  S   UNL A   1      53.696  26.095  25.362  1.00  0.00     0.124 S 
ATOM    110  O   UNL A   1      53.951  25.082  26.383  1.00  0.00    -0.237 OA
ATOM    111  O   UNL A   1      53.505  25.593  24.006  1.00  0.00    -0.237 OA
ATOM    112  O   UNL A   1      54.501  27.308  25.468  1.00  0.00    -0.744 OA
ENDBRANCH 108 109
ENDBRANCH  76 101
ENDBRANCH  50  51
ENDBRANCH  42  45
ENDBRANCH  40  41
ENDBRANCH  39  40
ENDBRANCH  38  39
ENDBRANCH   1  38
TORSDOF 22
ENDMDL
MODEL 2
REMARK VINA RESULT:     -11.6      0.917      7.798
REMARK SMILES CC(C)C[C@H](NC(=O)[C@H]1N2C(=O)c3ccccc3[C@@H]2SC1(C)C)C(=O)N[C@@H](C)C(=O)NCCCCCCNC(=O)c1ccc(-c2c3nc(c(-c4c(F)cc(S(=O)(=O)[O-])cc4F)c4ccc([nH]4)c(-c4c(F)cc(S(=O)(=O)[O-])cc4F)c4nc(c(-c5c(F)cc(S(=O)(=O)[O-])cc5F)c5ccc2[nH]5)C=C4)C=C3)cc1
REMARK SMILES IDX 34 1 33 2 32 3 31 4 29 5 30 6 27 8 28 9 26 10 24 11 25 12
REMARK SMILES IDX 5 14 4 15 2 16 1 17 3 18 6 19 7 20 8 22 9 23 10 24 21 25
REMARK SMILES IDX 11 26 19 27 20 28 22 29 23 30 12 31 13 32 18 33 14 34 17 35
REMARK SMILES IDX 15 36 16 37 35 38 36 39 37 40 38 41 39 42 40 44 41 45 42 46
REMARK SMILES IDX 106 47 43 48 105 49 44 50 45 51 46 52 99 53 47 54 104 55
REMARK SMILES IDX 98 56 100 57 48 58 103 59 97 60 96 61 49 63 83 64 62 65
REMARK SMILES IDX 82 66 63 67 66 68 81 69 101 70 64 71 65 72 80 74 102 75
REMARK SMILES IDX 67 76 50 77 51 78 60 79 52 80 53 81 59 82 61 83 54 84 55 85
REMARK SMILES IDX 56 86 57 87 58 88 84 89 85 90 94 91 86 92 87 93 93 94 95 95
REMARK SMILES IDX 88 96 89 97 90 98 91 99 92 100 68 101 69 102 78 103 70 104
REMARK SMILES IDX 71 105 77 106 79 107 72 108 73 109 74 110 75 111 76 112
REMARK H PARENT 31 7 26 13 6 21 38 43 100 62 66 73
REMARK Flexibility Score: inf
ROOT
ATOM      1  C   UNL A   1      34.010  29.845  26.925  1.00  0.00     0.002 C 
ENDROOT
BRANCH   1   2
ATOM      2  C   UNL A   1      33.607  28.426  27.346  1.00  0.00     0.021 C 
BRANCH   2   3
ATOM      3  C   UNL A   1      32.104  28.195  27.495  1.00  0.00     0.116 C 
BRANCH   3   4
ATOM      4  N   UNL A   1      31.393  28.362  26.239  1.00  0.00    -0.354 N 
ATOM      5  C   UNL A   1      30.675  27.491  25.475  1.00  0.00     0.242 C 
ATOM      6  O   UNL A   1      30.057  27.956  24.511  1.00  0.00    -0.273 OA
ATOM      7  H   UNL A   1      31.438  29.274  25.873  1.00  0.00     0.163 HD
BRANCH   5   8
ATOM      8  C   UNL A   1      30.565  25.988  25.811  1.00  0.00     0.168 C 
ATOM      9  C   UNL A   1      31.809  25.463  26.512  1.00  0.00     0.041 C 
BRANCH   8  10
ATOM     10  N   UNL A   1      30.234  25.239  24.601  1.00  0.00    -0.343 N 
ATOM     11  C   UNL A   1      31.082  24.716  23.673  1.00  0.00     0.243 C 
ATOM     12  O   UNL A   1      30.736  23.647  23.164  1.00  0.00    -0.273 OA
ATOM     13  H   UNL A   1      29.274  25.094  24.436  1.00  0.00     0.164 HD
BRANCH  11  14
ATOM     14  C   UNL A   1      32.450  25.352  23.342  1.00  0.00     0.171 C 
BRANCH  14  15
ATOM     15  C   UNL A   1      32.258  26.710  22.644  1.00  0.00     0.038 C 
BRANCH  15  16
ATOM     16  C   UNL A   1      33.260  27.768  23.162  1.00  0.00    -0.015 C 
ATOM     17  C   UNL A   1      34.144  27.208  24.280  1.00  0.00     0.007 C 
ATOM     18  C   UNL A   1      34.140  28.277  22.020  1.00  0.00     0.007 C 
ENDBRANCH  15  16
ENDBRANCH  14  15
BRANCH  14  19
ATOM     19  N   UNL A   1      33.317  24.455  22.579  1.00  0.00    -0.342 N 
ATOM     20  C   UNL A   1      33.929  23.286  22.936  1.00  0.00     0.244 C 
ATOM     21  H   UNL A   1      33.488  24.739  21.652  1.00  0.00     0.164 HD
ATOM     22  O   UNL A   1      34.750  22.875  22.109  1.00  0.00    -0.273 OA
BRANCH  20  23
ATOM     23  C   UNL A   1      33.808  22.646  24.358  1.00  0.00     0.191 C 
ATOM     24  N   UNL A   1      33.662  21.201  24.353  1.00  0.00    -0.309 N 
ATOM     25  C   UNL A   1      34.988  22.915  25.358  1.00  0.00     0.042 C 
ATOM     26  C   UNL A   1      32.579  20.474  24.809  1.00  0.00     0.256 C 
ATOM     27  C   UNL A   1      34.878  20.436  24.327  1.00  0.00     0.176 C 
ATOM     28  S   UNL A   1      35.952  21.315  25.457  1.00  0.00    -0.123 SA
ATOM     29  C   UNL A   1      35.993  24.011  24.999  1.00  0.00     0.026 C 
ATOM     30  C   UNL A   1      34.431  23.191  26.766  1.00  0.00     0.026 C 
ATOM     31  O   UNL A   1      31.464  20.884  25.070  1.00  0.00    -0.269 OA
ATOM     32  C   UNL A   1      33.044  19.088  24.947  1.00  0.00     0.046 A 
ATOM     33  C   UNL A   1      34.422  19.072  24.709  1.00  0.00    -0.002 A 
ATOM     34  C   UNL A   1      32.308  17.946  25.190  1.00  0.00     0.014 A 
ATOM     35  C   UNL A   1      35.112  17.872  24.720  1.00  0.00     0.007 A 
ATOM     36  C   UNL A   1      32.998  16.732  25.186  1.00  0.00     0.001 A 
ATOM     37  C   UNL A   1      34.387  16.698  24.959  1.00  0.00     0.000 A 
ENDBRANCH  20  23
ENDBRANCH  14  19
ENDBRANCH  11  14
ENDBRANCH   8  10
ENDBRANCH   5   8
ENDBRANCH   3   4
ENDBRANCH   2   3
ENDBRANCH   1   2
BRANCH   1  38
ATOM     38  C   UNL A   1      33.653  30.965  27.909  1.00  0.00     0.002 C 
BRANCH  38  39
ATOM     39  C   UNL A   1      34.595  32.170  27.919  1.00  0.00     0.021 C 
BRANCH  39  40
ATOM     40  C   UNL A   1      35.815  32.037  28.823  1.00  0.00     0.116 C 
BRANCH  40  41
ATOM     41  N   UNL A   1      35.602  31.137  29.945  1.00  0.00    -0.352 N 
ATOM     42  C   UNL A   1      36.462  30.205  30.481  1.00  0.00     0.251 C 
ATOM     43  H   UNL A   1      34.722  31.203  30.380  1.00  0.00     0.163 HD
ATOM     44  O   UNL A   1      36.073  29.439  31.358  1.00  0.00    -0.269 OA
BRANCH  42  45
ATOM     45  C   UNL A   1      37.846  30.102  29.963  1.00  0.00     0.039 A 
ATOM     46  C   UNL A   1      38.090  30.065  28.588  1.00  0.00     0.014 A 
ATOM     47  C   UNL A   1      38.908  29.997  30.865  1.00  0.00     0.014 A 
ATOM     48  C   UNL A   1      39.360  29.740  28.124  1.00  0.00     0.010 A 
ATOM     49  C   UNL A   1      40.202  29.754  30.390  1.00  0.00     0.010 A 
ATOM     50  C   UNL A   1      40.429  29.562  29.020  1.00  0.00    -0.014 A 
BRANCH  50  51
ATOM     51  C   UNL A   1      41.755  29.147  28.488  1.00  0.00     0.031 A 
ATOM     52  C   UNL A   1      42.913  30.112  28.465  1.00  0.00     0.074 A 
ATOM     53  C   UNL A   1      41.937  27.873  28.093  1.00  0.00     0.049 A 
ATOM     54  N   UNL A   1      44.160  29.891  28.128  1.00  0.00    -0.248 NA
ATOM     55  C   UNL A   1      42.642  31.502  28.863  1.00  0.00     0.031 C 
ATOM     56  C   UNL A   1      40.892  26.848  28.057  1.00  0.00     0.029 A 
ATOM     57  N   UNL A   1      43.066  27.211  27.681  1.00  0.00    -0.354 N 
ATOM     58  C   UNL A   1      44.812  31.113  28.253  1.00  0.00     0.074 A 
ATOM     59  C   UNL A   1      43.819  32.079  28.668  1.00  0.00     0.031 C 
ATOM     60  C   UNL A   1      41.438  25.676  27.702  1.00  0.00     0.029 A 
ATOM     61  C   UNL A   1      42.861  25.873  27.439  1.00  0.00     0.049 A 
ATOM     62  H   UNL A   1      43.940  27.652  27.570  1.00  0.00     0.167 HD
ATOM     63  C   UNL A   1      46.121  31.400  28.055  1.00  0.00     0.037 A 
ATOM     64  C   UNL A   1      43.717  24.910  27.047  1.00  0.00     0.037 A 
ATOM     65  C   UNL A   1      47.115  30.429  27.678  1.00  0.00     0.049 A 
ATOM     66  C   UNL A   1      45.161  25.252  26.822  1.00  0.00     0.074 A 
ATOM     67  C   UNL A   1      48.478  30.610  27.530  1.00  0.00     0.029 A 
ATOM     68  N   UNL A   1      46.853  29.100  27.382  1.00  0.00    -0.354 N 
ATOM     69  N   UNL A   1      45.768  26.400  27.001  1.00  0.00    -0.248 NA
ATOM     70  C   UNL A   1      46.033  24.177  26.329  1.00  0.00     0.031 C 
ATOM     71  C   UNL A   1      49.035  29.401  27.100  1.00  0.00     0.029 A 
ATOM     72  C   UNL A   1      48.024  28.457  27.016  1.00  0.00     0.049 A 
ATOM     73  H   UNL A   1      45.965  28.676  27.425  1.00  0.00     0.167 HD
ATOM     74  C   UNL A   1      47.092  26.190  26.635  1.00  0.00     0.074 A 
ATOM     75  C   UNL A   1      47.203  24.798  26.247  1.00  0.00     0.031 C 
ATOM     76  C   UNL A   1      48.117  27.075  26.614  1.00  0.00     0.037 A 
BRANCH  63  77
ATOM     77  C   UNL A   1      46.558  32.827  28.237  1.00  0.00     0.058 A 
ATOM     78  C   UNL A   1      46.426  33.776  27.212  1.00  0.00     0.135 A 
ATOM     79  C   UNL A   1      47.086  33.258  29.465  1.00  0.00     0.135 A 
ATOM     80  F   UNL A   1      45.939  33.415  26.014  1.00  0.00    -0.206 F 
ATOM     81  C   UNL A   1      46.828  35.096  27.387  1.00  0.00     0.059 A 
ATOM     82  C   UNL A   1      47.475  34.579  29.670  1.00  0.00     0.059 A 
ATOM     83  F   UNL A   1      47.232  32.390  30.479  1.00  0.00    -0.206 F 
ATOM     84  C   UNL A   1      47.356  35.487  28.619  1.00  0.00     0.060 A 
BRANCH  84  85
ATOM     85  S   UNL A   1      47.889  37.199  28.823  1.00  0.00     0.124 S 
ATOM     86  O   UNL A   1      47.650  37.409  30.247  1.00  0.00    -0.237 OA
ATOM     87  O   UNL A   1      49.291  37.140  28.420  1.00  0.00    -0.237 OA
ATOM     88  O   UNL A   1      47.011  37.940  27.923  1.00  0.00    -0.744 OA
ENDBRANCH  84  85
ENDBRANCH  63  77
BRANCH  64  89
ATOM     89  C   UNL A   1      43.208  23.527  26.857  1.00  0.00     0.058 A 
ATOM     90  C   UNL A   1      43.039  22.991  25.574  1.00  0.00     0.135 A 
ATOM     91  C   UNL A   1      42.966  22.690  27.958  1.00  0.00     0.135 A 
ATOM     92  F   UNL A   1      43.252  23.756  24.493  1.00  0.00    -0.206 F 
ATOM     93  C   UNL A   1      42.667  21.663  25.386  1.00  0.00     0.059 A 
ATOM     94  C   UNL A   1      42.614  21.355  27.796  1.00  0.00     0.059 A 
ATOM     95  F   UNL A   1      43.128  23.157  29.206  1.00  0.00    -0.206 F 
ATOM     96  C   UNL A   1      42.470  20.850  26.504  1.00  0.00     0.060 A 
BRANCH  96  97
ATOM     97  S   UNL A   1      42.099  19.101  26.247  1.00  0.00     0.124 S 
ATOM     98  O   UNL A   1      42.348  18.549  27.574  1.00  0.00    -0.237 OA
ATOM     99  O   UNL A   1      40.702  19.144  25.824  1.00  0.00    -0.237 OA
ATOM    100  O   UNL A   1      43.047  18.706  25.209  1.00  0.00    -0.744 OA
ENDBRANCH  96  97
ENDBRANCH  64  89
BRANCH  76 101
ATOM    101  C   UNL A   1      49.453  26.588  26.130  1.00  0.00     0.058 A 
ATOM    102  C   UNL A   1      49.919  26.918  24.848  1.00  0.00     0.135 A 
ATOM    103  C   UNL A   1      50.314  25.881  26.983  1.00  0.00     0.135 A 
ATOM    104  F   UNL A   1      49.128  27.584  23.992  1.00  0.00    -0.206 F 
ATOM    105  C   UNL A   1      51.199  26.571  24.432  1.00  0.00     0.059 A 
ATOM    106  C   UNL A   1      51.606  25.541  26.594  1.00  0.00     0.059 A 
ATOM    107  F   UNL A   1      49.914  25.548  28.221  1.00  0.00    -0.206 F 
ATOM    108  C   UNL A   1      52.040  25.891  25.317  1.00  0.00     0.060 A 
BRANCH 108 109
ATOM    109  S   UNL A   1      53.727  25.521  24.790  1.00  0.00     0.124 S 
ATOM    110  O   UNL A   1      53.927  24.190  25.356  1.00  0.00    -0.237 OA
ATOM    111  O   UNL A   1      53.620  25.582  23.336  1.00  0.00    -0.237 OA
ATOM    112  O   UNL A   1      54.515  26.587  25.400  1.00  0.00    -0.744 OA
ENDBRANCH 108 109
ENDBRANCH  76 101
ENDBRANCH  50  51
ENDBRANCH  42  45
ENDBRANCH  40  41
ENDBRANCH  39  40
ENDBRANCH  38  39
ENDBRANCH   1  38
TORSDOF 22
ENDMDL
MODEL 3
REMARK VINA RESULT:     -11.5      6.052     10.183
REMARK SMILES CC(C)C[C@H](NC(=O)[C@H]1N2C(=O)c3ccccc3[C@@H]2SC1(C)C)C(=O)N[C@@H](C)C(=O)NCCCCCCNC(=O)c1ccc(-c2c3nc(c(-c4c(F)cc(S(=O)(=O)[O-])cc4F)c4ccc([nH]4)c(-c4c(F)cc(S(=O)(=O)[O-])cc4F)c4nc(c(-c5c(F)cc(S(=O)(=O)[O-])cc5F)c5ccc2[nH]5)C=C4)C=C3)cc1
REMARK SMILES IDX 34 1 33 2 32 3 31 4 29 5 30 6 27 8 28 9 26 10 24 11 25 12
REMARK SMILES IDX 5 14 4 15 2 16 1 17 3 18 6 19 7 20 8 22 9 23 10 24 21 25
REMARK SMILES IDX 11 26 19 27 20 28 22 29 23 30 12 31 13 32 18 33 14 34 17 35
REMARK SMILES IDX 15 36 16 37 35 38 36 39 37 40 38 41 39 42 40 44 41 45 42 46
REMARK SMILES IDX 106 47 43 48 105 49 44 50 45 51 46 52 99 53 47 54 104 55
REMARK SMILES IDX 98 56 100 57 48 58 103 59 97 60 96 61 49 63 83 64 62 65
REMARK SMILES IDX 82 66 63 67 66 68 81 69 101 70 64 71 65 72 80 74 102 75
REMARK SMILES IDX 67 76 50 77 51 78 60 79 52 80 53 81 59 82 61 83 54 84 55 85
REMARK SMILES IDX 56 86 57 87 58 88 84 89 85 90 94 91 86 92 87 93 93 94 95 95
REMARK SMILES IDX 88 96 89 97 90 98 91 99 92 100 68 101 69 102 78 103 70 104
REMARK SMILES IDX 71 105 77 106 79 107 72 108 73 109 74 110 75 111 76 112
REMARK H PARENT 31 7 26 13 6 21 38 43 100 62 66 73
REMARK Flexibility Score: inf
ROOT
ATOM      1  C   UNL A   1      35.874  32.354  29.005  1.00  0.00     0.002 C 
ENDROOT
BRANCH   1   2
ATOM      2  C   UNL A   1      36.168  31.452  27.799  1.00  0.00     0.021 C 
BRANCH   2   3
ATOM      3  C   UNL A   1      35.302  30.198  27.698  1.00  0.00     0.116 C 
BRANCH   3   4
ATOM      4  N   UNL A   1      33.932  30.503  27.321  1.00  0.00    -0.354 N 
ATOM      5  C   UNL A   1      32.846  29.706  27.113  1.00  0.00     0.242 C 
ATOM      6  O   UNL A   1      31.758  30.264  26.932  1.00  0.00    -0.273 OA
ATOM      7  H   UNL A   1      33.757  31.462  27.192  1.00  0.00     0.163 HD
BRANCH   5   8
ATOM      8  C   UNL A   1      32.925  28.165  27.159  1.00  0.00     0.168 C 
ATOM      9  C   UNL A   1      33.679  27.592  25.967  1.00  0.00     0.041 C 
BRANCH   8  10
ATOM     10  N   UNL A   1      31.582  27.609  27.305  1.00  0.00    -0.343 N 
ATOM     11  C   UNL A   1      30.874  26.867  26.408  1.00  0.00     0.243 C 
ATOM     12  O   UNL A   1      30.148  25.990  26.885  1.00  0.00    -0.273 OA
ATOM     13  H   UNL A   1      31.131  27.795  28.160  1.00  0.00     0.164 HD
BRANCH  11  14
ATOM     14  C   UNL A   1      31.037  27.026  24.881  1.00  0.00     0.171 C 
BRANCH  14  15
ATOM     15  C   UNL A   1      30.709  28.467  24.451  1.00  0.00     0.038 C 
BRANCH  15  16
ATOM     16  C   UNL A   1      30.924  28.676  22.934  1.00  0.00    -0.015 C 
ATOM     17  C   UNL A   1      30.001  29.766  22.379  1.00  0.00     0.007 C 
ATOM     18  C   UNL A   1      32.380  29.043  22.645  1.00  0.00     0.007 C 
ENDBRANCH  15  16
ENDBRANCH  14  15
BRANCH  14  19
ATOM     19  N   UNL A   1      30.269  26.035  24.128  1.00  0.00    -0.342 N 
ATOM     20  C   UNL A   1      30.595  24.771  23.723  1.00  0.00     0.244 C 
ATOM     21  H   UNL A   1      29.364  26.326  23.871  1.00  0.00     0.164 HD
ATOM     22  O   UNL A   1      29.784  24.270  22.937  1.00  0.00    -0.273 OA
BRANCH  20  23
ATOM     23  C   UNL A   1      31.980  24.101  24.010  1.00  0.00     0.191 C 
ATOM     24  N   UNL A   1      31.936  22.652  24.098  1.00  0.00    -0.309 N 
ATOM     25  C   UNL A   1      33.134  24.395  22.987  1.00  0.00     0.042 C 
ATOM     26  C   UNL A   1      32.232  21.879  25.204  1.00  0.00     0.256 C 
ATOM     27  C   UNL A   1      32.065  21.933  22.861  1.00  0.00     0.176 C 
ATOM     28  S   UNL A   1      33.342  22.830  21.984  1.00  0.00    -0.123 SA
ATOM     29  C   UNL A   1      32.928  25.534  21.986  1.00  0.00     0.026 C 
ATOM     30  C   UNL A   1      34.456  24.626  23.740  1.00  0.00     0.026 C 
ATOM     31  O   UNL A   1      32.344  22.243  26.359  1.00  0.00    -0.269 OA
ATOM     32  C   UNL A   1      32.413  20.508  24.709  1.00  0.00     0.046 A 
ATOM     33  C   UNL A   1      32.364  20.547  23.311  1.00  0.00    -0.002 A 
ATOM     34  C   UNL A   1      32.539  19.336  25.427  1.00  0.00     0.014 A 
ATOM     35  C   UNL A   1      32.453  19.373  22.584  1.00  0.00     0.007 A 
ATOM     36  C   UNL A   1      32.613  18.148  24.695  1.00  0.00     0.001 A 
ATOM     37  C   UNL A   1      32.576  18.169  23.288  1.00  0.00     0.000 A 
ENDBRANCH  20  23
ENDBRANCH  14  19
ENDBRANCH  11  14
ENDBRANCH   8  10
ENDBRANCH   5   8
ENDBRANCH   3   4
ENDBRANCH   2   3
ENDBRANCH   1   2
BRANCH   1  38
ATOM     38  C   UNL A   1      36.109  33.854  28.796  1.00  0.00     0.002 C 
BRANCH  38  39
ATOM     39  C   UNL A   1      34.854  34.702  28.584  1.00  0.00     0.021 C 
BRANCH  39  40
ATOM     40  C   UNL A   1      33.561  34.101  29.121  1.00  0.00     0.116 C 
BRANCH  40  41
ATOM     41  N   UNL A   1      32.843  34.993  30.018  1.00  0.00    -0.352 N 
ATOM     42  C   UNL A   1      33.085  35.262  31.346  1.00  0.00     0.251 C 
ATOM     43  H   UNL A   1      32.077  35.468  29.621  1.00  0.00     0.163 HD
ATOM     44  O   UNL A   1      32.300  35.954  31.988  1.00  0.00    -0.269 OA
BRANCH  42  45
ATOM     45  C   UNL A   1      34.274  34.677  32.007  1.00  0.00     0.039 A 
ATOM     46  C   UNL A   1      35.446  35.422  32.154  1.00  0.00     0.014 A 
ATOM     47  C   UNL A   1      34.230  33.350  32.446  1.00  0.00     0.014 A 
ATOM     48  C   UNL A   1      36.615  34.791  32.564  1.00  0.00     0.010 A 
ATOM     49  C   UNL A   1      35.389  32.741  32.938  1.00  0.00     0.010 A 
ATOM     50  C   UNL A   1      36.606  33.438  32.944  1.00  0.00    -0.014 A 
BRANCH  50  51
ATOM     51  C   UNL A   1      37.891  32.782  33.309  1.00  0.00     0.031 A 
ATOM     52  C   UNL A   1      38.576  33.101  34.614  1.00  0.00     0.074 A 
ATOM     53  C   UNL A   1      38.404  31.839  32.496  1.00  0.00     0.049 A 
ATOM     54  N   UNL A   1      39.646  32.554  35.135  1.00  0.00    -0.248 NA
ATOM     55  C   UNL A   1      37.994  34.172  35.437  1.00  0.00     0.031 C 
ATOM     56  C   UNL A   1      37.841  31.451  31.201  1.00  0.00     0.029 A 
ATOM     57  N   UNL A   1      39.490  31.014  32.648  1.00  0.00    -0.354 N 
ATOM     58  C   UNL A   1      39.876  33.225  36.330  1.00  0.00     0.074 A 
ATOM     59  C   UNL A   1      38.852  34.241  36.446  1.00  0.00     0.031 C 
ATOM     60  C   UNL A   1      38.549  30.426  30.705  1.00  0.00     0.029 A 
ATOM     61  C   UNL A   1      39.644  30.114  31.620  1.00  0.00     0.049 A 
ATOM     62  H   UNL A   1      40.100  31.061  33.420  1.00  0.00     0.167 HD
ATOM     63  C   UNL A   1      40.842  33.006  37.255  1.00  0.00     0.037 A 
ATOM     64  C   UNL A   1      40.562  29.147  31.428  1.00  0.00     0.037 A 
ATOM     65  C   UNL A   1      41.837  31.971  37.156  1.00  0.00     0.049 A 
ATOM     66  C   UNL A   1      41.630  28.929  32.460  1.00  0.00     0.074 A 
ATOM     67  C   UNL A   1      42.807  31.622  38.079  1.00  0.00     0.029 A 
ATOM     68  N   UNL A   1      41.995  31.124  36.070  1.00  0.00    -0.354 N 
ATOM     69  N   UNL A   1      41.795  29.537  33.609  1.00  0.00    -0.248 NA
ATOM     70  C   UNL A   1      42.644  27.908  32.164  1.00  0.00     0.031 C 
ATOM     71  C   UNL A   1      43.582  30.594  37.531  1.00  0.00     0.029 A 
ATOM     72  C   UNL A   1      43.070  30.277  36.283  1.00  0.00     0.049 A 
ATOM     73  H   UNL A   1      41.427  31.124  35.265  1.00  0.00     0.167 HD
ATOM     74  C   UNL A   1      42.937  28.979  34.173  1.00  0.00     0.074 A 
ATOM     75  C   UNL A   1      43.408  27.967  33.249  1.00  0.00     0.031 C 
ATOM     76  C   UNL A   1      43.541  29.286  35.346  1.00  0.00     0.037 A 
BRANCH  63  77
ATOM     77  C   UNL A   1      40.875  33.908  38.457  1.00  0.00     0.058 A 
ATOM     78  C   UNL A   1      41.632  35.090  38.472  1.00  0.00     0.135 A 
ATOM     79  C   UNL A   1      40.114  33.603  39.597  1.00  0.00     0.135 A 
ATOM     80  F   UNL A   1      42.388  35.423  37.414  1.00  0.00    -0.206 F 
ATOM     81  C   UNL A   1      41.656  35.923  39.586  1.00  0.00     0.059 A 
ATOM     82  C   UNL A   1      40.106  34.433  40.715  1.00  0.00     0.059 A 
ATOM     83  F   UNL A   1      39.371  32.485  39.633  1.00  0.00    -0.206 F 
ATOM     84  C   UNL A   1      40.893  35.583  40.705  1.00  0.00     0.060 A 
BRANCH  84  85
ATOM     85  S   UNL A   1      40.950  36.667  42.147  1.00  0.00     0.124 S 
ATOM     86  O   UNL A   1      41.071  35.699  43.232  1.00  0.00    -0.237 OA
ATOM     87  O   UNL A   1      42.138  37.474  41.884  1.00  0.00    -0.237 OA
ATOM     88  O   UNL A   1      39.680  37.385  42.086  1.00  0.00    -0.744 OA
ENDBRANCH  84  85
ENDBRANCH  63  77
BRANCH  64  89
ATOM     89  C   UNL A   1      40.485  28.314  30.201  1.00  0.00     0.058 A 
ATOM     90  C   UNL A   1      41.361  28.528  29.129  1.00  0.00     0.135 A 
ATOM     91  C   UNL A   1      39.593  27.233  30.118  1.00  0.00     0.135 A 
ATOM     92  F   UNL A   1      42.225  29.553  29.161  1.00  0.00    -0.206 F 
ATOM     93  C   UNL A   1      41.369  27.685  28.021  1.00  0.00     0.059 A 
ATOM     94  C   UNL A   1      39.597  26.365  29.031  1.00  0.00     0.059 A 
ATOM     95  F   UNL A   1      38.745  26.982  31.127  1.00  0.00    -0.206 F 
ATOM     96  C   UNL A   1      40.493  26.599  27.989  1.00  0.00     0.060 A 
BRANCH  96  97
ATOM     97  S   UNL A   1      40.593  25.447  26.600  1.00  0.00     0.124 S 
ATOM     98  O   UNL A   1      41.573  24.484  27.087  1.00  0.00    -0.237 OA
ATOM     99  O   UNL A   1      39.218  24.967  26.503  1.00  0.00    -0.237 OA
ATOM    100  O   UNL A   1      41.032  26.293  25.494  1.00  0.00    -0.744 OA
ENDBRANCH  96  97
ENDBRANCH  64  89
BRANCH  76 101
ATOM    101  C   UNL A   1      44.800  28.549  35.698  1.00  0.00     0.058 A 
ATOM    102  C   UNL A   1      44.751  27.321  36.376  1.00  0.00     0.135 A 
ATOM    103  C   UNL A   1      46.051  29.013  35.265  1.00  0.00     0.135 A 
ATOM    104  F   UNL A   1      43.579  26.840  36.820  1.00  0.00    -0.206 F 
ATOM    105  C   UNL A   1      45.901  26.574  36.606  1.00  0.00     0.059 A 
ATOM    106  C   UNL A   1      47.212  28.273  35.467  1.00  0.00     0.059 A 
ATOM    107  F   UNL A   1      46.148  30.180  34.607  1.00  0.00    -0.206 F 
ATOM    108  C   UNL A   1      47.126  27.054  36.138  1.00  0.00     0.060 A 
BRANCH 108 109
ATOM    109  S   UNL A   1      48.597  26.032  36.370  1.00  0.00     0.124 S 
ATOM    110  O   UNL A   1      49.406  26.412  35.216  1.00  0.00    -0.237 OA
ATOM    111  O   UNL A   1      49.090  26.486  37.666  1.00  0.00    -0.237 OA
ATOM    112  O   UNL A   1      48.073  24.670  36.348  1.00  0.00    -0.744 OA
ENDBRANCH 108 109
ENDBRANCH  76 101
ENDBRANCH  50  51
ENDBRANCH  42  45
ENDBRANCH  40  41
ENDBRANCH  39  40
ENDBRANCH  38  39
ENDBRANCH   1  38
TORSDOF 22
ENDMDL
