MODEL 1
REMARK VINA RESULT:     -11.1      0.000      0.000
REMARK SMILES Cc1nc(C)c(C(=O)N[C@@H](CCS(C)(=O)=O)C(=O)NCCCCCCNC(=O)c2ccc(-c3c4nc(c(-c5c(F)cc(S(=O)(=O)[O-])cc5F)c5ccc([nH]5)c(-c5c(F)cc(S(=O)(=O)[O-])cc5F)c5nc(c(-c6c(F)cc(S(=O)(=O)[O-])cc6F)c6ccc3[nH]6)C=C5)C=C4)cc2)s1
REMARK SMILES IDX 22 1 21 2 20 3 19 4 17 5 18 6 10 8 9 9 7 10 8 11 6 13 1 14
REMARK SMILES IDX 2 15 3 16 95 17 4 18 5 19 11 20 12 21 13 22 14 23 15 24
REMARK SMILES IDX 16 25 23 26 24 27 25 28 26 29 27 30 28 32 29 33 30 34 94 35
REMARK SMILES IDX 31 36 93 37 32 38 33 39 34 40 87 41 35 42 92 43 86 44 88 45
REMARK SMILES IDX 36 46 91 47 85 48 84 49 37 51 71 52 50 53 70 54 51 55 54 56
REMARK SMILES IDX 69 57 89 58 52 59 53 60 68 62 90 63 55 64 38 65 39 66 48 67
REMARK SMILES IDX 40 68 41 69 47 70 49 71 42 72 43 73 44 74 45 75 46 76 72 77
REMARK SMILES IDX 73 78 82 79 74 80 75 81 81 82 83 83 76 84 77 85 78 86 79 87
REMARK SMILES IDX 80 88 56 89 57 90 66 91 58 92 59 93 65 94 67 95 60 96 61 97
REMARK SMILES IDX 62 98 63 99 64 100
REMARK H PARENT 19 7 9 12 26 31 88 50 54 61
REMARK Flexibility Score: inf
ROOT
ATOM      1  C   UNL A   1      33.591  29.978  27.510  1.00  0.00     0.002 C 
ENDROOT
BRANCH   1   2
ATOM      2  C   UNL A   1      32.430  30.765  26.886  1.00  0.00     0.021 C 
BRANCH   2   3
ATOM      3  C   UNL A   1      31.846  30.183  25.603  1.00  0.00     0.116 C 
BRANCH   3   4
ATOM      4  N   UNL A   1      32.853  29.711  24.675  1.00  0.00    -0.354 N 
ATOM      5  C   UNL A   1      32.805  28.764  23.700  1.00  0.00     0.242 C 
ATOM      6  O   UNL A   1      33.697  28.774  22.844  1.00  0.00    -0.273 OA
ATOM      7  H   UNL A   1      33.728  30.154  24.766  1.00  0.00     0.163 HD
BRANCH   5   8
ATOM      8  C   UNL A   1      31.659  27.743  23.567  1.00  0.00     0.172 C 
BRANCH   8   9
ATOM      9  N   UNL A   1      31.255  27.158  24.845  1.00  0.00    -0.339 N 
ATOM     10  C   UNL A   1      31.721  26.077  25.571  1.00  0.00     0.263 C 
ATOM     11  O   UNL A   1      31.415  26.141  26.767  1.00  0.00    -0.268 OA
ATOM     12  H   UNL A   1      30.502  27.626  25.274  1.00  0.00     0.164 HD
BRANCH  10  13
ATOM     13  C   UNL A   1      32.450  24.927  25.029  1.00  0.00     0.115 A 
ATOM     14  C   UNL A   1      35.305  22.453  24.020  1.00  0.00     0.079 C 
ATOM     15  C   UNL A   1      34.075  23.252  24.271  1.00  0.00     0.091 A 
ATOM     16  N   UNL A   1      32.915  23.020  23.710  1.00  0.00    -0.246 NA
ATOM     17  S   UNL A   1      34.115  24.606  25.297  1.00  0.00    -0.113 S 
ATOM     18  C   UNL A   1      31.983  23.976  24.113  1.00  0.00     0.061 A 
ATOM     19  C   UNL A   1      30.646  23.871  23.461  1.00  0.00     0.068 C 
ENDBRANCH  10  13
ENDBRANCH   8   9
BRANCH   8  20
ATOM     20  C   UNL A   1      30.465  28.075  22.645  1.00  0.00     0.051 C 
BRANCH  20  21
ATOM     21  C   UNL A   1      29.052  28.225  23.186  1.00  0.00     0.139 C 
BRANCH  21  22
ATOM     22  S   UNL A   1      28.167  29.721  22.736  1.00  0.00     0.147 S 
ATOM     23  C   UNL A   1      29.130  31.076  23.354  1.00  0.00     0.158 C 
ATOM     24  O   UNL A   1      28.190  29.801  21.285  1.00  0.00    -0.229 OA
ATOM     25  O   UNL A   1      26.908  29.765  23.437  1.00  0.00    -0.229 OA
ENDBRANCH  21  22
ENDBRANCH  20  21
ENDBRANCH   8  20
ENDBRANCH   5   8
ENDBRANCH   3   4
ENDBRANCH   2   3
ENDBRANCH   1   2
BRANCH   1  26
ATOM     26  C   UNL A   1      34.963  30.657  27.530  1.00  0.00     0.002 C 
BRANCH  26  27
ATOM     27  C   UNL A   1      35.037  32.038  28.175  1.00  0.00     0.021 C 
BRANCH  27  28
ATOM     28  C   UNL A   1      36.150  32.209  29.196  1.00  0.00     0.116 C 
BRANCH  28  29
ATOM     29  N   UNL A   1      35.857  31.569  30.467  1.00  0.00    -0.352 N 
ATOM     30  C   UNL A   1      36.550  30.579  31.117  1.00  0.00     0.251 C 
ATOM     31  H   UNL A   1      35.048  31.890  30.926  1.00  0.00     0.163 HD
ATOM     32  O   UNL A   1      36.080  30.062  32.126  1.00  0.00    -0.269 OA
BRANCH  30  33
ATOM     33  C   UNL A   1      37.849  30.120  30.580  1.00  0.00     0.039 A 
ATOM     34  C   UNL A   1      38.044  30.125  29.197  1.00  0.00     0.014 A 
ATOM     35  C   UNL A   1      38.872  29.693  31.431  1.00  0.00     0.014 A 
ATOM     36  C   UNL A   1      39.281  29.746  28.673  1.00  0.00     0.010 A 
ATOM     37  C   UNL A   1      40.131  29.407  30.914  1.00  0.00     0.010 A 
ATOM     38  C   UNL A   1      40.344  29.413  29.528  1.00  0.00    -0.014 A 
BRANCH  38  39
ATOM     39  C   UNL A   1      41.677  29.043  28.988  1.00  0.00     0.031 A 
ATOM     40  C   UNL A   1      42.759  30.084  28.877  1.00  0.00     0.074 A 
ATOM     41  C   UNL A   1      41.897  27.784  28.558  1.00  0.00     0.049 A 
ATOM     42  N   UNL A   1      43.971  29.968  28.398  1.00  0.00    -0.248 NA
ATOM     43  C   UNL A   1      42.428  31.443  29.338  1.00  0.00     0.031 C 
ATOM     44  C   UNL A   1      40.909  26.703  28.568  1.00  0.00     0.029 A 
ATOM     45  N   UNL A   1      43.020  27.202  28.027  1.00  0.00    -0.354 N 
ATOM     46  C   UNL A   1      44.538  31.234  28.491  1.00  0.00     0.074 A 
ATOM     47  C   UNL A   1      43.519  32.117  29.010  1.00  0.00     0.031 C 
ATOM     48  C   UNL A   1      41.478  25.582  28.096  1.00  0.00     0.029 A 
ATOM     49  C   UNL A   1      42.856  25.873  27.712  1.00  0.00     0.049 A 
ATOM     50  H   UNL A   1      43.862  27.689  27.884  1.00  0.00     0.167 HD
ATOM     51  C   UNL A   1      45.804  31.618  28.198  1.00  0.00     0.037 A 
ATOM     52  C   UNL A   1      43.718  24.990  27.170  1.00  0.00     0.037 A 
ATOM     53  C   UNL A   1      46.818  30.725  27.702  1.00  0.00     0.049 A 
ATOM     54  C   UNL A   1      45.118  25.443  26.851  1.00  0.00     0.074 A 
ATOM     55  C   UNL A   1      48.144  31.001  27.421  1.00  0.00     0.029 A 
ATOM     56  N   UNL A   1      46.619  29.383  27.412  1.00  0.00    -0.354 N 
ATOM     57  N   UNL A   1      45.657  26.630  27.003  1.00  0.00    -0.248 NA
ATOM     58  C   UNL A   1      46.031  24.435  26.294  1.00  0.00     0.031 C 
ATOM     59  C   UNL A   1      48.733  29.840  26.909  1.00  0.00     0.029 A 
ATOM     60  C   UNL A   1      47.793  28.822  26.934  1.00  0.00     0.049 A 
ATOM     61  H   UNL A   1      45.770  28.900  27.529  1.00  0.00     0.167 HD
ATOM     62  C   UNL A   1      46.980  26.502  26.596  1.00  0.00     0.074 A 
ATOM     63  C   UNL A   1      47.162  25.119  26.202  1.00  0.00     0.031 C 
ATOM     64  C   UNL A   1      47.959  27.441  26.554  1.00  0.00     0.037 A 
BRANCH  51  65
ATOM     65  C   UNL A   1      46.162  33.066  28.408  1.00  0.00     0.058 A 
ATOM     66  C   UNL A   1      46.007  34.022  27.390  1.00  0.00     0.135 A 
ATOM     67  C   UNL A   1      46.632  33.512  29.654  1.00  0.00     0.135 A 
ATOM     68  F   UNL A   1      45.577  33.651  26.173  1.00  0.00    -0.206 F 
ATOM     69  C   UNL A   1      46.332  35.360  27.590  1.00  0.00     0.059 A 
ATOM     70  C   UNL A   1      46.931  34.852  29.887  1.00  0.00     0.059 A 
ATOM     71  F   UNL A   1      46.802  32.644  30.662  1.00  0.00    -0.206 F 
ATOM     72  C   UNL A   1      46.791  35.766  28.843  1.00  0.00     0.060 A 
BRANCH  72  73
ATOM     73  S   UNL A   1      47.195  37.508  29.089  1.00  0.00     0.124 S 
ATOM     74  O   UNL A   1      46.216  37.893  30.101  1.00  0.00    -0.237 OA
ATOM     75  O   UNL A   1      48.581  37.444  29.540  1.00  0.00    -0.237 OA
ATOM     76  O   UNL A   1      46.993  38.095  27.768  1.00  0.00    -0.744 OA
ENDBRANCH  72  73
ENDBRANCH  51  65
BRANCH  52  77
ATOM     77  C   UNL A   1      43.290  23.587  26.921  1.00  0.00     0.058 A 
ATOM     78  C   UNL A   1      43.158  22.671  27.977  1.00  0.00     0.135 A 
ATOM     79  C   UNL A   1      43.001  23.133  25.624  1.00  0.00     0.135 A 
ATOM     80  F   UNL A   1      43.427  23.053  29.234  1.00  0.00    -0.206 F 
ATOM     81  C   UNL A   1      42.777  21.350  27.754  1.00  0.00     0.059 A 
ATOM     82  C   UNL A   1      42.590  21.826  25.381  1.00  0.00     0.059 A 
ATOM     83  F   UNL A   1      43.095  23.972  24.581  1.00  0.00    -0.206 F 
ATOM     84  C   UNL A   1      42.494  20.939  26.451  1.00  0.00     0.060 A 
BRANCH  84  85
ATOM     85  S   UNL A   1      41.965  19.233  26.179  1.00  0.00     0.124 S 
ATOM     86  O   UNL A   1      42.295  18.615  27.457  1.00  0.00    -0.237 OA
ATOM     87  O   UNL A   1      40.543  19.394  25.895  1.00  0.00    -0.237 OA
ATOM     88  O   UNL A   1      42.779  18.807  25.043  1.00  0.00    -0.744 OA
ENDBRANCH  84  85
ENDBRANCH  52  77
BRANCH  64  89
ATOM     89  C   UNL A   1      49.328  26.996  26.114  1.00  0.00     0.058 A 
ATOM     90  C   UNL A   1      50.226  26.371  26.993  1.00  0.00     0.135 A 
ATOM     91  C   UNL A   1      49.729  27.165  24.779  1.00  0.00     0.135 A 
ATOM     92  F   UNL A   1      49.895  26.189  28.281  1.00  0.00    -0.206 F 
ATOM     93  C   UNL A   1      51.486  25.961  26.572  1.00  0.00     0.059 A 
ATOM     94  C   UNL A   1      50.971  26.731  24.327  1.00  0.00     0.059 A 
ATOM     95  F   UNL A   1      48.903  27.745  23.891  1.00  0.00    -0.206 F 
ATOM     96  C   UNL A   1      51.849  26.145  25.236  1.00  0.00     0.060 A 
BRANCH  96  97
ATOM     97  S   UNL A   1      53.481  25.591  24.699  1.00  0.00     0.124 S 
ATOM     98  O   UNL A   1      54.356  26.353  25.583  1.00  0.00    -0.237 OA
ATOM     99  O   UNL A   1      53.421  24.154  24.950  1.00  0.00    -0.237 OA
ATOM    100  O   UNL A   1      53.525  25.973  23.291  1.00  0.00    -0.744 OA
ENDBRANCH  96  97
ENDBRANCH  64  89
ENDBRANCH  38  39
ENDBRANCH  30  33
ENDBRANCH  28  29
ENDBRANCH  27  28
ENDBRANCH  26  27
ENDBRANCH   1  26
TORSDOF 21
ENDMDL
MODEL 2
REMARK VINA RESULT:     -10.9      6.573     12.047
REMARK SMILES Cc1nc(C)c(C(=O)N[C@@H](CCS(C)(=O)=O)C(=O)NCCCCCCNC(=O)c2ccc(-c3c4nc(c(-c5c(F)cc(S(=O)(=O)[O-])cc5F)c5ccc([nH]5)c(-c5c(F)cc(S(=O)(=O)[O-])cc5F)c5nc(c(-c6c(F)cc(S(=O)(=O)[O-])cc6F)c6ccc3[nH]6)C=C5)C=C4)cc2)s1
REMARK SMILES IDX 22 1 21 2 20 3 19 4 17 5 18 6 10 8 9 9 7 10 8 11 6 13 1 14
REMARK SMILES IDX 2 15 3 16 95 17 4 18 5 19 11 20 12 21 13 22 14 23 15 24
REMARK SMILES IDX 16 25 23 26 24 27 25 28 26 29 27 30 28 32 29 33 30 34 94 35
REMARK SMILES IDX 31 36 93 37 32 38 33 39 34 40 87 41 35 42 92 43 86 44 88 45
REMARK SMILES IDX 36 46 91 47 85 48 84 49 37 51 71 52 50 53 70 54 51 55 54 56
REMARK SMILES IDX 69 57 89 58 52 59 53 60 68 62 90 63 55 64 38 65 39 66 48 67
REMARK SMILES IDX 40 68 41 69 47 70 49 71 42 72 43 73 44 74 45 75 46 76 72 77
REMARK SMILES IDX 73 78 82 79 74 80 75 81 81 82 83 83 76 84 77 85 78 86 79 87
REMARK SMILES IDX 80 88 56 89 57 90 66 91 58 92 59 93 65 94 67 95 60 96 61 97
REMARK SMILES IDX 62 98 63 99 64 100
REMARK H PARENT 19 7 9 12 26 31 88 50 54 61
REMARK Flexibility Score: inf
ROOT
ATOM      1  C   UNL A   1      35.939  21.151  25.385  1.00  0.00     0.002 C 
ENDROOT
BRANCH   1   2
ATOM      2  C   UNL A   1      34.654  21.714  26.005  1.00  0.00     0.021 C 
BRANCH   2   3
ATOM      3  C   UNL A   1      33.351  21.298  25.329  1.00  0.00     0.116 C 
BRANCH   3   4
ATOM      4  N   UNL A   1      32.169  21.762  26.025  1.00  0.00    -0.354 N 
ATOM      5  C   UNL A   1      31.328  22.802  25.774  1.00  0.00     0.242 C 
ATOM      6  O   UNL A   1      30.221  22.792  26.326  1.00  0.00    -0.273 OA
ATOM      7  H   UNL A   1      31.930  21.231  26.819  1.00  0.00     0.163 HD
BRANCH   5   8
ATOM      8  C   UNL A   1      31.653  23.934  24.783  1.00  0.00     0.172 C 
BRANCH   8   9
ATOM      9  N   UNL A   1      32.620  24.899  25.306  1.00  0.00    -0.339 N 
ATOM     10  C   UNL A   1      32.568  26.268  25.499  1.00  0.00     0.263 C 
ATOM     11  O   UNL A   1      33.399  26.661  26.326  1.00  0.00    -0.268 OA
ATOM     12  H   UNL A   1      33.477  24.495  25.572  1.00  0.00     0.164 HD
BRANCH  10  13
ATOM     13  C   UNL A   1      31.692  27.205  24.792  1.00  0.00     0.115 A 
ATOM     14  C   UNL A   1      28.609  28.803  22.995  1.00  0.00     0.079 C 
ATOM     15  C   UNL A   1      29.903  28.392  23.605  1.00  0.00     0.091 A 
ATOM     16  N   UNL A   1      31.028  29.046  23.465  1.00  0.00    -0.246 NA
ATOM     17  S   UNL A   1      30.016  26.958  24.510  1.00  0.00    -0.113 S 
ATOM     18  C   UNL A   1      32.062  28.374  24.115  1.00  0.00     0.061 A 
ATOM     19  C   UNL A   1      33.416  28.975  23.943  1.00  0.00     0.068 C 
ENDBRANCH  10  13
ENDBRANCH   8   9
BRANCH   8  20
ATOM     20  C   UNL A   1      31.886  23.584  23.297  1.00  0.00     0.051 C 
BRANCH  20  21
ATOM     21  C   UNL A   1      33.177  23.947  22.580  1.00  0.00     0.139 C 
BRANCH  21  22
ATOM     22  S   UNL A   1      33.086  25.272  21.371  1.00  0.00     0.147 S 
ATOM     23  C   UNL A   1      31.443  25.930  21.474  1.00  0.00     0.158 C 
ATOM     24  O   UNL A   1      33.997  26.311  21.820  1.00  0.00    -0.229 OA
ATOM     25  O   UNL A   1      33.222  24.723  20.044  1.00  0.00    -0.229 OA
ENDBRANCH  21  22
ENDBRANCH  20  21
ENDBRANCH   8  20
ENDBRANCH   5   8
ENDBRANCH   3   4
ENDBRANCH   2   3
ENDBRANCH   1   2
BRANCH   1  26
ATOM     26  C   UNL A   1      37.247  21.880  25.706  1.00  0.00     0.002 C 
BRANCH  26  27
ATOM     27  C   UNL A   1      37.222  23.404  25.619  1.00  0.00     0.021 C 
BRANCH  27  28
ATOM     28  C   UNL A   1      38.181  24.115  26.561  1.00  0.00     0.116 C 
BRANCH  28  29
ATOM     29  N   UNL A   1      39.572  23.977  26.165  1.00  0.00    -0.352 N 
ATOM     30  C   UNL A   1      40.657  24.726  26.543  1.00  0.00     0.251 C 
ATOM     31  H   UNL A   1      39.762  23.242  25.538  1.00  0.00     0.163 HD
ATOM     32  O   UNL A   1      41.744  24.548  26.002  1.00  0.00    -0.269 OA
BRANCH  30  33
ATOM     33  C   UNL A   1      40.504  25.767  27.581  1.00  0.00     0.039 A 
ATOM     34  C   UNL A   1      39.542  25.586  28.578  1.00  0.00     0.014 A 
ATOM     35  C   UNL A   1      41.306  26.912  27.580  1.00  0.00     0.014 A 
ATOM     36  C   UNL A   1      39.418  26.531  29.598  1.00  0.00     0.010 A 
ATOM     37  C   UNL A   1      41.244  27.803  28.647  1.00  0.00     0.010 A 
ATOM     38  C   UNL A   1      40.288  27.632  29.658  1.00  0.00    -0.014 A 
BRANCH  38  39
ATOM     39  C   UNL A   1      40.193  28.626  30.756  1.00  0.00     0.031 A 
ATOM     40  C   UNL A   1      41.075  28.493  31.970  1.00  0.00     0.074 A 
ATOM     41  C   UNL A   1      39.286  29.620  30.680  1.00  0.00     0.049 A 
ATOM     42  N   UNL A   1      41.114  29.234  33.047  1.00  0.00    -0.248 NA
ATOM     43  C   UNL A   1      42.016  27.361  31.990  1.00  0.00     0.031 C 
ATOM     44  C   UNL A   1      38.343  29.821  29.577  1.00  0.00     0.029 A 
ATOM     45  N   UNL A   1      39.005  30.646  31.546  1.00  0.00    -0.354 N 
ATOM     46  C   UNL A   1      42.071  28.654  33.872  1.00  0.00     0.074 A 
ATOM     47  C   UNL A   1      42.542  27.464  33.200  1.00  0.00     0.031 C 
ATOM     48  C   UNL A   1      37.610  30.920  29.819  1.00  0.00     0.029 A 
ATOM     49  C   UNL A   1      38.001  31.478  31.110  1.00  0.00     0.049 A 
ATOM     50  H   UNL A   1      39.477  30.774  32.400  1.00  0.00     0.167 HD
ATOM     51  C   UNL A   1      42.537  29.091  35.066  1.00  0.00     0.037 A 
ATOM     52  C   UNL A   1      37.452  32.565  31.688  1.00  0.00     0.037 A 
ATOM     53  C   UNL A   1      42.077  30.290  35.715  1.00  0.00     0.049 A 
ATOM     54  C   UNL A   1      37.986  33.029  33.017  1.00  0.00     0.074 A 
ATOM     55  C   UNL A   1      42.517  30.849  36.902  1.00  0.00     0.029 A 
ATOM     56  N   UNL A   1      41.071  31.116  35.234  1.00  0.00    -0.354 N 
ATOM     57  N   UNL A   1      38.936  32.503  33.754  1.00  0.00    -0.248 NA
ATOM     58  C   UNL A   1      37.380  34.239  33.590  1.00  0.00     0.031 C 
ATOM     59  C   UNL A   1      41.741  31.982  37.166  1.00  0.00     0.029 A 
ATOM     60  C   UNL A   1      40.861  32.168  36.111  1.00  0.00     0.049 A 
ATOM     61  H   UNL A   1      40.578  30.975  34.394  1.00  0.00     0.167 HD
ATOM     62  C   UNL A   1      39.066  33.337  34.859  1.00  0.00     0.074 A 
ATOM     63  C   UNL A   1      38.105  34.409  34.686  1.00  0.00     0.031 C 
ATOM     64  C   UNL A   1      39.906  33.231  35.919  1.00  0.00     0.037 A 
BRANCH  51  65
ATOM     65  C   UNL A   1      43.599  28.268  35.746  1.00  0.00     0.058 A 
ATOM     66  C   UNL A   1      44.967  28.482  35.507  1.00  0.00     0.135 A 
ATOM     67  C   UNL A   1      43.249  27.277  36.678  1.00  0.00     0.135 A 
ATOM     68  F   UNL A   1      45.362  29.404  34.614  1.00  0.00    -0.206 F 
ATOM     69  C   UNL A   1      45.946  27.725  36.143  1.00  0.00     0.059 A 
ATOM     70  C   UNL A   1      44.212  26.531  37.351  1.00  0.00     0.059 A 
ATOM     71  F   UNL A   1      41.958  27.028  36.945  1.00  0.00    -0.206 F 
ATOM     72  C   UNL A   1      45.559  26.753  37.066  1.00  0.00     0.060 A 
BRANCH  72  73
ATOM     73  S   UNL A   1      46.843  25.790  37.892  1.00  0.00     0.124 S 
ATOM     74  O   UNL A   1      46.170  25.410  39.131  1.00  0.00    -0.237 OA
ATOM     75  O   UNL A   1      47.078  24.707  36.942  1.00  0.00    -0.237 OA
ATOM     76  O   UNL A   1      47.940  26.740  38.041  1.00  0.00    -0.744 OA
ENDBRANCH  72  73
ENDBRANCH  51  65
BRANCH  52  77
ATOM     77  C   UNL A   1      36.358  33.303  31.001  1.00  0.00     0.058 A 
ATOM     78  C   UNL A   1      36.610  34.075  29.857  1.00  0.00     0.135 A 
ATOM     79  C   UNL A   1      35.036  33.249  31.472  1.00  0.00     0.135 A 
ATOM     80  F   UNL A   1      37.856  34.165  29.369  1.00  0.00    -0.206 F 
ATOM     81  C   UNL A   1      35.598  34.785  29.217  1.00  0.00     0.059 A 
ATOM     82  C   UNL A   1      34.002  33.925  30.832  1.00  0.00     0.059 A 
ATOM     83  F   UNL A   1      34.736  32.510  32.552  1.00  0.00    -0.206 F 
ATOM     84  C   UNL A   1      34.296  34.701  29.713  1.00  0.00     0.060 A 
BRANCH  84  85
ATOM     85  S   UNL A   1      32.984  35.597  28.854  1.00  0.00     0.124 S 
ATOM     86  O   UNL A   1      32.386  34.541  28.046  1.00  0.00    -0.237 OA
ATOM     87  O   UNL A   1      32.173  36.092  29.962  1.00  0.00    -0.237 OA
ATOM     88  O   UNL A   1      33.710  36.625  28.111  1.00  0.00    -0.744 OA
ENDBRANCH  84  85
ENDBRANCH  52  77
BRANCH  64  89
ATOM     89  C   UNL A   1      39.861  34.326  36.952  1.00  0.00     0.058 A 
ATOM     90  C   UNL A   1      40.583  35.520  36.802  1.00  0.00     0.135 A 
ATOM     91  C   UNL A   1      39.050  34.189  38.090  1.00  0.00     0.135 A 
ATOM     92  F   UNL A   1      41.376  35.701  35.735  1.00  0.00    -0.206 F 
ATOM     93  C   UNL A   1      40.528  36.526  37.761  1.00  0.00     0.059 A 
ATOM     94  C   UNL A   1      38.954  35.196  39.045  1.00  0.00     0.059 A 
ATOM     95  F   UNL A   1      38.327  33.072  38.277  1.00  0.00    -0.206 F 
ATOM     96  C   UNL A   1      39.710  36.354  38.879  1.00  0.00     0.060 A 
BRANCH  96  97
ATOM     97  S   UNL A   1      39.635  37.675  40.108  1.00  0.00     0.124 S 
ATOM     98  O   UNL A   1      38.580  38.523  39.563  1.00  0.00    -0.237 OA
ATOM     99  O   UNL A   1      39.296  36.947  41.328  1.00  0.00    -0.237 OA
ATOM    100  O   UNL A   1      40.978  38.245  40.078  1.00  0.00    -0.744 OA
ENDBRANCH  96  97
ENDBRANCH  64  89
ENDBRANCH  38  39
ENDBRANCH  30  33
ENDBRANCH  28  29
ENDBRANCH  27  28
ENDBRANCH  26  27
ENDBRANCH   1  26
TORSDOF 21
ENDMDL
MODEL 3
REMARK VINA RESULT:     -10.9      6.564     12.216
REMARK SMILES Cc1nc(C)c(C(=O)N[C@@H](CCS(C)(=O)=O)C(=O)NCCCCCCNC(=O)c2ccc(-c3c4nc(c(-c5c(F)cc(S(=O)(=O)[O-])cc5F)c5ccc([nH]5)c(-c5c(F)cc(S(=O)(=O)[O-])cc5F)c5nc(c(-c6c(F)cc(S(=O)(=O)[O-])cc6F)c6ccc3[nH]6)C=C5)C=C4)cc2)s1
REMARK SMILES IDX 22 1 21 2 20 3 19 4 17 5 18 6 10 8 9 9 7 10 8 11 6 13 1 14
REMARK SMILES IDX 2 15 3 16 95 17 4 18 5 19 11 20 12 21 13 22 14 23 15 24
REMARK SMILES IDX 16 25 23 26 24 27 25 28 26 29 27 30 28 32 29 33 30 34 94 35
REMARK SMILES IDX 31 36 93 37 32 38 33 39 34 40 87 41 35 42 92 43 86 44 88 45
REMARK SMILES IDX 36 46 91 47 85 48 84 49 37 51 71 52 50 53 70 54 51 55 54 56
REMARK SMILES IDX 69 57 89 58 52 59 53 60 68 62 90 63 55 64 38 65 39 66 48 67
REMARK SMILES IDX 40 68 41 69 47 70 49 71 42 72 43 73 44 74 45 75 46 76 72 77
REMARK SMILES IDX 73 78 82 79 74 80 75 81 81 82 83 83 76 84 77 85 78 86 79 87
REMARK SMILES IDX 80 88 56 89 57 90 66 91 58 92 59 93 65 94 67 95 60 96 61 97
REMARK SMILES IDX 62 98 63 99 64 100
REMARK H PARENT 19 7 9 12 26 31 88 50 54 61
REMARK Flexibility Score: inf
ROOT
ATOM      1  C   UNL A   1      35.982  21.574  25.448  1.00  0.00     0.002 C 
ENDROOT
BRANCH   1   2
ATOM      2  C   UNL A   1      35.076  22.079  26.579  1.00  0.00     0.021 C 
BRANCH   2   3
ATOM      3  C   UNL A   1      33.818  21.258  26.840  1.00  0.00     0.116 C 
BRANCH   3   4
ATOM      4  N   UNL A   1      32.597  22.033  26.749  1.00  0.00    -0.354 N 
ATOM      5  C   UNL A   1      31.940  22.553  25.678  1.00  0.00     0.242 C 
ATOM      6  O   UNL A   1      30.762  22.896  25.836  1.00  0.00    -0.273 OA
ATOM      7  H   UNL A   1      32.166  22.214  27.615  1.00  0.00     0.163 HD
BRANCH   5   8
ATOM      8  C   UNL A   1      32.561  22.659  24.272  1.00  0.00     0.172 C 
BRANCH   8   9
ATOM      9  N   UNL A   1      33.568  23.715  24.164  1.00  0.00    -0.339 N 
ATOM     10  C   UNL A   1      33.476  25.092  24.073  1.00  0.00     0.263 C 
ATOM     11  O   UNL A   1      34.521  25.660  24.409  1.00  0.00    -0.268 OA
ATOM     12  H   UNL A   1      34.493  23.380  24.153  1.00  0.00     0.164 HD
BRANCH  10  13
ATOM     13  C   UNL A   1      32.319  25.848  23.585  1.00  0.00     0.115 A 
ATOM     14  C   UNL A   1      28.886  27.709  23.391  1.00  0.00     0.079 C 
ATOM     15  C   UNL A   1      30.200  27.030  23.224  1.00  0.00     0.091 A 
ATOM     16  N   UNL A   1      30.765  26.784  22.069  1.00  0.00    -0.246 NA
ATOM     17  S   UNL A   1      31.057  26.457  24.576  1.00  0.00    -0.113 S 
ATOM     18  C   UNL A   1      31.961  26.092  22.253  1.00  0.00     0.061 A 
ATOM     19  C   UNL A   1      32.648  25.670  20.999  1.00  0.00     0.068 C 
ENDBRANCH  10  13
ENDBRANCH   8   9
BRANCH   8  20
ATOM     20  C   UNL A   1      32.956  21.364  23.530  1.00  0.00     0.051 C 
BRANCH  20  21
ATOM     21  C   UNL A   1      32.104  20.106  23.602  1.00  0.00     0.139 C 
BRANCH  21  22
ATOM     22  S   UNL A   1      32.918  18.608  24.165  1.00  0.00     0.147 S 
ATOM     23  C   UNL A   1      32.910  17.489  22.789  1.00  0.00     0.158 C 
ATOM     24  O   UNL A   1      34.303  18.958  24.430  1.00  0.00    -0.229 OA
ATOM     25  O   UNL A   1      32.125  17.988  25.198  1.00  0.00    -0.229 OA
ENDBRANCH  21  22
ENDBRANCH  20  21
ENDBRANCH   8  20
ENDBRANCH   5   8
ENDBRANCH   3   4
ENDBRANCH   2   3
ENDBRANCH   1   2
BRANCH   1  26
ATOM     26  C   UNL A   1      37.398  22.152  25.377  1.00  0.00     0.002 C 
BRANCH  26  27
ATOM     27  C   UNL A   1      37.532  23.664  25.545  1.00  0.00     0.021 C 
BRANCH  27  28
ATOM     28  C   UNL A   1      38.536  24.104  26.599  1.00  0.00     0.116 C 
BRANCH  28  29
ATOM     29  N   UNL A   1      39.905  24.104  26.111  1.00  0.00    -0.352 N 
ATOM     30  C   UNL A   1      40.936  24.952  26.429  1.00  0.00     0.251 C 
ATOM     31  H   UNL A   1      40.123  23.396  25.463  1.00  0.00     0.163 HD
ATOM     32  O   UNL A   1      41.997  24.883  25.817  1.00  0.00    -0.269 OA
BRANCH  30  33
ATOM     33  C   UNL A   1      40.751  25.965  27.490  1.00  0.00     0.039 A 
ATOM     34  C   UNL A   1      39.781  25.743  28.470  1.00  0.00     0.014 A 
ATOM     35  C   UNL A   1      41.533  27.124  27.525  1.00  0.00     0.014 A 
ATOM     36  C   UNL A   1      39.628  26.662  29.510  1.00  0.00     0.010 A 
ATOM     37  C   UNL A   1      41.443  27.988  28.611  1.00  0.00     0.010 A 
ATOM     38  C   UNL A   1      40.478  27.776  29.606  1.00  0.00    -0.014 A 
BRANCH  38  39
ATOM     39  C   UNL A   1      40.352  28.743  30.726  1.00  0.00     0.031 A 
ATOM     40  C   UNL A   1      41.224  28.599  31.945  1.00  0.00     0.074 A 
ATOM     41  C   UNL A   1      39.426  29.720  30.663  1.00  0.00     0.049 A 
ATOM     42  N   UNL A   1      41.238  29.316  33.039  1.00  0.00    -0.248 NA
ATOM     43  C   UNL A   1      42.188  27.486  31.949  1.00  0.00     0.031 C 
ATOM     44  C   UNL A   1      38.490  29.928  29.555  1.00  0.00     0.029 A 
ATOM     45  N   UNL A   1      39.116  30.720  31.550  1.00  0.00    -0.354 N 
ATOM     46  C   UNL A   1      42.199  28.735  33.860  1.00  0.00     0.074 A 
ATOM     47  C   UNL A   1      42.700  27.571  33.167  1.00  0.00     0.031 C 
ATOM     48  C   UNL A   1      37.733  31.006  29.815  1.00  0.00     0.029 A 
ATOM     49  C   UNL A   1      38.100  31.542  31.123  1.00  0.00     0.049 A 
ATOM     50  H   UNL A   1      39.577  30.837  32.411  1.00  0.00     0.167 HD
ATOM     51  C   UNL A   1      42.644  29.154  35.069  1.00  0.00     0.037 A 
ATOM     52  C   UNL A   1      37.524  32.604  31.720  1.00  0.00     0.037 A 
ATOM     53  C   UNL A   1      42.154  30.328  35.741  1.00  0.00     0.049 A 
ATOM     54  C   UNL A   1      38.035  33.047  33.065  1.00  0.00     0.074 A 
ATOM     55  C   UNL A   1      42.571  30.869  36.945  1.00  0.00     0.029 A 
ATOM     56  N   UNL A   1      41.136  31.145  35.269  1.00  0.00    -0.354 N 
ATOM     57  N   UNL A   1      38.988  32.523  33.799  1.00  0.00    -0.248 NA
ATOM     58  C   UNL A   1      37.400  34.232  33.659  1.00  0.00     0.031 C 
ATOM     59  C   UNL A   1      41.770  31.979  37.227  1.00  0.00     0.029 A 
ATOM     60  C   UNL A   1      40.897  32.172  36.167  1.00  0.00     0.049 A 
ATOM     61  H   UNL A   1      40.655  31.014  34.421  1.00  0.00     0.167 HD
ATOM     62  C   UNL A   1      39.090  33.334  34.924  1.00  0.00     0.074 A 
ATOM     63  C   UNL A   1      38.110  34.390  34.766  1.00  0.00     0.031 C 
ATOM     64  C   UNL A   1      39.923  33.220  35.990  1.00  0.00     0.037 A 
BRANCH  51  65
ATOM     65  C   UNL A   1      43.716  28.337  35.741  1.00  0.00     0.058 A 
ATOM     66  C   UNL A   1      45.082  28.587  35.525  1.00  0.00     0.135 A 
ATOM     67  C   UNL A   1      43.376  27.314  36.642  1.00  0.00     0.135 A 
ATOM     68  F   UNL A   1      45.467  29.540  34.662  1.00  0.00    -0.206 F 
ATOM     69  C   UNL A   1      46.069  27.835  36.153  1.00  0.00     0.059 A 
ATOM     70  C   UNL A   1      44.348  26.571  37.308  1.00  0.00     0.059 A 
ATOM     71  F   UNL A   1      42.088  27.030  36.886  1.00  0.00    -0.206 F 
ATOM     72  C   UNL A   1      45.692  26.831  37.045  1.00  0.00     0.060 A 
BRANCH  72  73
ATOM     73  S   UNL A   1      46.987  25.874  37.862  1.00  0.00     0.124 S 
ATOM     74  O   UNL A   1      46.865  24.585  37.188  1.00  0.00    -0.237 OA
ATOM     75  O   UNL A   1      48.187  26.643  37.547  1.00  0.00    -0.237 OA
ATOM     76  O   UNL A   1      46.587  25.887  39.266  1.00  0.00    -0.744 OA
ENDBRANCH  72  73
ENDBRANCH  51  65
BRANCH  52  77
ATOM     77  C   UNL A   1      36.421  33.336  31.039  1.00  0.00     0.058 A 
ATOM     78  C   UNL A   1      35.093  33.216  31.476  1.00  0.00     0.135 A 
ATOM     79  C   UNL A   1      36.673  34.172  29.939  1.00  0.00     0.135 A 
ATOM     80  F   UNL A   1      34.799  32.426  32.520  1.00  0.00    -0.206 F 
ATOM     81  C   UNL A   1      34.051  33.880  30.836  1.00  0.00     0.059 A 
ATOM     82  C   UNL A   1      35.652  34.869  29.302  1.00  0.00     0.059 A 
ATOM     83  F   UNL A   1      37.927  34.336  29.491  1.00  0.00    -0.206 F 
ATOM     84  C   UNL A   1      34.342  34.706  29.749  1.00  0.00     0.060 A 
BRANCH  84  85
ATOM     85  S   UNL A   1      32.987  35.592  28.948  1.00  0.00     0.124 S 
ATOM     86  O   UNL A   1      32.431  34.558  28.083  1.00  0.00    -0.237 OA
ATOM     87  O   UNL A   1      32.162  35.984  30.087  1.00  0.00    -0.237 OA
ATOM     88  O   UNL A   1      33.662  36.692  28.264  1.00  0.00    -0.744 OA
ENDBRANCH  84  85
ENDBRANCH  52  77
BRANCH  64  89
ATOM     89  C   UNL A   1      39.845  34.289  37.047  1.00  0.00     0.058 A 
ATOM     90  C   UNL A   1      39.133  34.104  38.243  1.00  0.00     0.135 A 
ATOM     91  C   UNL A   1      40.529  35.504  36.874  1.00  0.00     0.135 A 
ATOM     92  F   UNL A   1      38.459  32.965  38.458  1.00  0.00    -0.206 F 
ATOM     93  C   UNL A   1      39.074  35.099  39.213  1.00  0.00     0.059 A 
ATOM     94  C   UNL A   1      40.512  36.499  37.846  1.00  0.00     0.059 A 
ATOM     95  F   UNL A   1      41.237  35.728  35.755  1.00  0.00    -0.206 F 
ATOM     96  C   UNL A   1      39.767  36.293  39.005  1.00  0.00     0.060 A 
BRANCH  96  97
ATOM     97  S   UNL A   1      39.696  37.569  40.280  1.00  0.00     0.124 S 
ATOM     98  O   UNL A   1      41.109  37.740  40.604  1.00  0.00    -0.237 OA
ATOM     99  O   UNL A   1      39.068  38.681  39.574  1.00  0.00    -0.237 OA
ATOM    100  O   UNL A   1      38.882  36.960  41.327  1.00  0.00    -0.744 OA
ENDBRANCH  96  97
ENDBRANCH  64  89
ENDBRANCH  38  39
ENDBRANCH  30  33
ENDBRANCH  28  29
ENDBRANCH  27  28
ENDBRANCH  26  27
ENDBRANCH   1  26
TORSDOF 21
ENDMDL
