MODEL 1
REMARK VINA RESULT:     -11.2      0.000      0.000
REMARK SMILES CCC[NH2+][C@]1(C(=O)NCCCCCCNC(=O)c2ccc(-c3c4nc(c(-c5c(F)cc(S(=O)(=O)[O-])cc5F)c5ccc([nH]5)c(-c5c(F)cc(S(=O)(=O)[O-])cc5F)c5nc(c(-c6c(F)cc(S(=O)(=O)[O-])cc6F)c6ccc3[nH]6)C=C5)C=C4)cc2)CC[C@H](n2nc(C)c(CC)c2C)C1
REMARK SMILES IDX 11 1 10 2 9 3 8 4 6 5 7 6 5 8 84 9 96 10 85 11 86 12 4 13
REMARK SMILES IDX 3 16 2 17 1 18 87 19 88 20 94 21 89 22 91 23 95 24 90 25
REMARK SMILES IDX 92 26 93 27 12 28 13 29 14 30 15 31 16 32 17 34 18 35 19 36
REMARK SMILES IDX 83 37 20 38 82 39 21 40 22 41 23 42 76 43 24 44 81 45 75 46
REMARK SMILES IDX 77 47 25 48 80 49 74 50 73 51 26 53 60 54 39 55 59 56 40 57
REMARK SMILES IDX 43 58 58 59 78 60 41 61 42 62 57 64 79 65 44 66 27 67 28 68
REMARK SMILES IDX 37 69 29 70 30 71 36 72 38 73 31 74 32 75 33 76 34 77 35 78
REMARK SMILES IDX 61 79 62 80 71 81 63 82 64 83 70 84 72 85 65 86 66 87 67 88
REMARK SMILES IDX 68 89 69 90 45 91 46 92 55 93 47 94 48 95 54 96 56 97 49 98
REMARK SMILES IDX 50 99 51 100 52 101 53 102
REMARK H PARENT 8 7 4 14 4 15 15 33 77 52 43 63
REMARK Flexibility Score: inf
ROOT
ATOM      1  C   UNL A   1      36.617  22.291  23.961  1.00  0.00     0.002 C 
ENDROOT
BRANCH   1   2
ATOM      2  C   UNL A   1      36.492  21.009  24.791  1.00  0.00     0.021 C 
BRANCH   2   3
ATOM      3  C   UNL A   1      35.043  20.648  25.116  1.00  0.00     0.116 C 
BRANCH   3   4
ATOM      4  N   UNL A   1      34.735  21.020  26.474  1.00  0.00    -0.351 N 
ATOM      5  C   UNL A   1      33.917  21.981  26.957  1.00  0.00     0.281 C 
ATOM      6  O   UNL A   1      33.953  22.145  28.187  1.00  0.00    -0.268 OA
ATOM      7  H   UNL A   1      35.195  20.486  27.161  1.00  0.00     0.163 HD
BRANCH   5   8
ATOM      8  C   UNL A   1      32.865  22.762  26.101  1.00  0.00     0.177 C 
ATOM      9  C   UNL A   1      31.806  22.099  25.211  1.00  0.00     0.081 C 
ATOM     10  C   UNL A   1      31.917  23.457  27.107  1.00  0.00     0.106 C 
ATOM     11  C   UNL A   1      30.757  23.204  24.998  1.00  0.00     0.034 C 
ATOM     12  C   UNL A   1      30.830  24.111  26.258  1.00  0.00     0.114 C 
BRANCH   8  13
ATOM     13  N   UNL A   1      33.624  23.780  25.304  1.00  0.00    -0.334 N 
ATOM     14  H   UNL A   1      33.261  24.704  25.539  1.00  0.00     0.347 HD
ATOM     15  H   UNL A   1      34.608  23.667  25.548  1.00  0.00     0.347 HD
BRANCH  13  16
ATOM     16  C   UNL A   1      33.527  23.603  23.850  1.00  0.00     0.261 C 
BRANCH  16  17
ATOM     17  C   UNL A   1      33.699  24.932  23.106  1.00  0.00     0.058 C 
ATOM     18  C   UNL A   1      34.059  26.102  24.008  1.00  0.00     0.010 C 
ENDBRANCH  16  17
ENDBRANCH  13  16
ENDBRANCH   8  13
BRANCH  12  19
ATOM     19  N   UNL A   1      30.917  25.525  25.911  1.00  0.00    -0.266 N 
ATOM     20  N   UNL A   1      31.499  26.293  26.868  1.00  0.00    -0.178 NA
ATOM     21  C   UNL A   1      30.597  26.266  24.789  1.00  0.00     0.039 A 
ATOM     22  C   UNL A   1      31.444  27.539  26.406  1.00  0.00     0.063 A 
ATOM     23  C   UNL A   1      30.885  27.587  25.112  1.00  0.00    -0.004 A 
ATOM     24  C   UNL A   1      30.052  25.803  23.485  1.00  0.00     0.066 C 
ATOM     25  C   UNL A   1      31.940  28.650  27.252  1.00  0.00     0.069 C 
BRANCH  23  26
ATOM     26  C   UNL A   1      30.652  28.791  24.260  1.00  0.00     0.036 C 
ATOM     27  C   UNL A   1      31.758  28.988  23.235  1.00  0.00     0.009 C 
ENDBRANCH  23  26
ENDBRANCH  12  19
ENDBRANCH   5   8
ENDBRANCH   3   4
ENDBRANCH   2   3
ENDBRANCH   1   2
BRANCH   1  28
ATOM     28  C   UNL A   1      37.521  23.362  24.582  1.00  0.00     0.002 C 
BRANCH  28  29
ATOM     29  C   UNL A   1      37.172  23.731  26.026  1.00  0.00     0.021 C 
BRANCH  29  30
ATOM     30  C   UNL A   1      38.379  24.129  26.871  1.00  0.00     0.116 C 
BRANCH  30  31
ATOM     31  N   UNL A   1      39.560  24.326  26.044  1.00  0.00    -0.352 N 
ATOM     32  C   UNL A   1      40.509  25.311  26.120  1.00  0.00     0.251 C 
ATOM     33  H   UNL A   1      39.696  23.659  25.332  1.00  0.00     0.163 HD
ATOM     34  O   UNL A   1      41.282  25.498  25.179  1.00  0.00    -0.269 OA
BRANCH  32  35
ATOM     35  C   UNL A   1      40.589  26.153  27.329  1.00  0.00     0.039 A 
ATOM     36  C   UNL A   1      41.569  27.146  27.407  1.00  0.00     0.014 A 
ATOM     37  C   UNL A   1      39.685  25.966  28.380  1.00  0.00     0.014 A 
ATOM     38  C   UNL A   1      41.594  28.000  28.511  1.00  0.00     0.010 A 
ATOM     39  C   UNL A   1      39.672  26.859  29.446  1.00  0.00     0.010 A 
ATOM     40  C   UNL A   1      40.619  27.891  29.516  1.00  0.00    -0.014 A 
BRANCH  40  41
ATOM     41  C   UNL A   1      40.539  28.876  30.623  1.00  0.00     0.031 A 
ATOM     42  C   UNL A   1      41.404  28.722  31.843  1.00  0.00     0.074 A 
ATOM     43  C   UNL A   1      39.622  29.863  30.559  1.00  0.00     0.049 A 
ATOM     44  N   UNL A   1      41.408  29.427  32.945  1.00  0.00    -0.248 NA
ATOM     45  C   UNL A   1      42.376  27.617  31.833  1.00  0.00     0.031 C 
ATOM     46  C   UNL A   1      38.698  30.085  29.444  1.00  0.00     0.029 A 
ATOM     47  N   UNL A   1      39.303  30.851  31.455  1.00  0.00    -0.354 N 
ATOM     48  C   UNL A   1      42.372  28.850  33.762  1.00  0.00     0.074 A 
ATOM     49  C   UNL A   1      42.900  27.708  33.047  1.00  0.00     0.031 C 
ATOM     50  C   UNL A   1      37.927  31.148  29.717  1.00  0.00     0.029 A 
ATOM     51  C   UNL A   1      38.266  31.656  31.042  1.00  0.00     0.049 A 
ATOM     52  H   UNL A   1      39.771  30.973  32.314  1.00  0.00     0.167 HD
ATOM     53  C   UNL A   1      42.789  29.249  34.987  1.00  0.00     0.037 A 
ATOM     54  C   UNL A   1      37.644  32.674  31.669  1.00  0.00     0.037 A 
ATOM     55  C   UNL A   1      42.264  30.397  35.682  1.00  0.00     0.049 A 
ATOM     56  C   UNL A   1      38.101  33.075  33.044  1.00  0.00     0.074 A 
ATOM     57  C   UNL A   1      42.667  30.925  36.895  1.00  0.00     0.029 A 
ATOM     58  N   UNL A   1      41.212  31.184  35.234  1.00  0.00    -0.354 N 
ATOM     59  N   UNL A   1      39.069  32.568  33.769  1.00  0.00    -0.248 NA
ATOM     60  C   UNL A   1      37.382  34.182  33.689  1.00  0.00     0.031 C 
ATOM     61  C   UNL A   1      41.825  31.997  37.208  1.00  0.00     0.029 A 
ATOM     62  C   UNL A   1      40.928  32.170  36.165  1.00  0.00     0.049 A 
ATOM     63  H   UNL A   1      40.739  31.060  34.380  1.00  0.00     0.167 HD
ATOM     64  C   UNL A   1      39.082  33.300  34.951  1.00  0.00     0.074 A 
ATOM     65  C   UNL A   1      38.041  34.300  34.833  1.00  0.00     0.031 C 
ATOM     66  C   UNL A   1      39.881  33.153  36.037  1.00  0.00     0.037 A 
BRANCH  53  67
ATOM     67  C   UNL A   1      43.867  28.442  35.659  1.00  0.00     0.058 A 
ATOM     68  C   UNL A   1      45.229  28.712  35.448  1.00  0.00     0.135 A 
ATOM     69  C   UNL A   1      43.535  27.417  36.559  1.00  0.00     0.135 A 
ATOM     70  F   UNL A   1      45.604  29.672  34.589  1.00  0.00    -0.206 F 
ATOM     71  C   UNL A   1      46.223  27.977  36.086  1.00  0.00     0.059 A 
ATOM     72  C   UNL A   1      44.512  26.687  37.230  1.00  0.00     0.059 A 
ATOM     73  F   UNL A   1      42.249  27.117  36.797  1.00  0.00    -0.206 F 
ATOM     74  C   UNL A   1      45.854  26.967  36.976  1.00  0.00     0.060 A 
BRANCH  74  75
ATOM     75  S   UNL A   1      47.159  26.029  37.800  1.00  0.00     0.124 S 
ATOM     76  O   UNL A   1      47.998  27.100  38.329  1.00  0.00    -0.237 OA
ATOM     77  O   UNL A   1      46.412  25.262  38.792  1.00  0.00    -0.237 OA
ATOM     78  O   UNL A   1      47.750  25.245  36.720  1.00  0.00    -0.744 OA
ENDBRANCH  74  75
ENDBRANCH  53  67
BRANCH  54  79
ATOM     79  C   UNL A   1      36.518  33.378  30.999  1.00  0.00     0.058 A 
ATOM     80  C   UNL A   1      35.196  33.195  31.427  1.00  0.00     0.135 A 
ATOM     81  C   UNL A   1      36.743  34.261  29.931  1.00  0.00     0.135 A 
ATOM     82  F   UNL A   1      34.929  32.355  32.440  1.00  0.00    -0.206 F 
ATOM     83  C   UNL A   1      34.134  33.854  30.816  1.00  0.00     0.059 A 
ATOM     84  C   UNL A   1      35.701  34.951  29.320  1.00  0.00     0.059 A 
ATOM     85  F   UNL A   1      37.992  34.483  29.492  1.00  0.00    -0.206 F 
ATOM     86  C   UNL A   1      34.398  34.734  29.765  1.00  0.00     0.060 A 
BRANCH  86  87
ATOM     87  S   UNL A   1      33.018  35.627  29.016  1.00  0.00     0.124 S 
ATOM     88  O   UNL A   1      32.267  36.046  30.193  1.00  0.00    -0.237 OA
ATOM     89  O   UNL A   1      33.703  36.688  28.283  1.00  0.00    -0.237 OA
ATOM     90  O   UNL A   1      32.376  34.615  28.182  1.00  0.00    -0.744 OA
ENDBRANCH  86  87
ENDBRANCH  54  79
BRANCH  66  91
ATOM     91  C   UNL A   1      39.662  34.094  37.189  1.00  0.00     0.058 A 
ATOM     92  C   UNL A   1      38.904  33.716  38.308  1.00  0.00     0.135 A 
ATOM     93  C   UNL A   1      40.271  35.360  37.206  1.00  0.00     0.135 A 
ATOM     94  F   UNL A   1      38.291  32.523  38.337  1.00  0.00    -0.206 F 
ATOM     95  C   UNL A   1      38.746  34.565  39.399  1.00  0.00     0.059 A 
ATOM     96  C   UNL A   1      40.150  36.214  38.298  1.00  0.00     0.059 A 
ATOM     97  F   UNL A   1      41.013  35.768  36.164  1.00  0.00    -0.206 F 
ATOM     98  C   UNL A   1      39.380  35.809  39.387  1.00  0.00     0.060 A 
BRANCH  98  99
ATOM     99  S   UNL A   1      39.213  36.876  40.834  1.00  0.00     0.124 S 
ATOM    100  O   UNL A   1      38.339  37.927  40.325  1.00  0.00    -0.237 OA
ATOM    101  O   UNL A   1      38.615  35.976  41.817  1.00  0.00    -0.237 OA
ATOM    102  O   UNL A   1      40.585  37.282  41.119  1.00  0.00    -0.744 OA
ENDBRANCH  98  99
ENDBRANCH  66  91
ENDBRANCH  40  41
ENDBRANCH  32  35
ENDBRANCH  30  31
ENDBRANCH  29  30
ENDBRANCH  28  29
ENDBRANCH   1  28
TORSDOF 21
ENDMDL
MODEL 2
REMARK VINA RESULT:     -11.1      0.844      2.005
REMARK SMILES CCC[NH2+][C@]1(C(=O)NCCCCCCNC(=O)c2ccc(-c3c4nc(c(-c5c(F)cc(S(=O)(=O)[O-])cc5F)c5ccc([nH]5)c(-c5c(F)cc(S(=O)(=O)[O-])cc5F)c5nc(c(-c6c(F)cc(S(=O)(=O)[O-])cc6F)c6ccc3[nH]6)C=C5)C=C4)cc2)CC[C@H](n2nc(C)c(CC)c2C)C1
REMARK SMILES IDX 11 1 10 2 9 3 8 4 6 5 7 6 5 8 84 9 96 10 85 11 86 12 4 13
REMARK SMILES IDX 3 16 2 17 1 18 87 19 88 20 94 21 89 22 91 23 95 24 90 25
REMARK SMILES IDX 92 26 93 27 12 28 13 29 14 30 15 31 16 32 17 34 18 35 19 36
REMARK SMILES IDX 83 37 20 38 82 39 21 40 22 41 23 42 76 43 24 44 81 45 75 46
REMARK SMILES IDX 77 47 25 48 80 49 74 50 73 51 26 53 60 54 39 55 59 56 40 57
REMARK SMILES IDX 43 58 58 59 78 60 41 61 42 62 57 64 79 65 44 66 27 67 28 68
REMARK SMILES IDX 37 69 29 70 30 71 36 72 38 73 31 74 32 75 33 76 34 77 35 78
REMARK SMILES IDX 61 79 62 80 71 81 63 82 64 83 70 84 72 85 65 86 66 87 67 88
REMARK SMILES IDX 68 89 69 90 45 91 46 92 55 93 47 94 48 95 54 96 56 97 49 98
REMARK SMILES IDX 50 99 51 100 52 101 53 102
REMARK H PARENT 8 7 4 14 4 15 15 33 77 52 43 63
REMARK Flexibility Score: inf
ROOT
ATOM      1  C   UNL A   1      35.624  22.598  23.890  1.00  0.00     0.002 C 
ENDROOT
BRANCH   1   2
ATOM      2  C   UNL A   1      35.174  21.434  24.780  1.00  0.00     0.021 C 
BRANCH   2   3
ATOM      3  C   UNL A   1      33.670  21.179  24.712  1.00  0.00     0.116 C 
BRANCH   3   4
ATOM      4  N   UNL A   1      33.054  21.522  25.969  1.00  0.00    -0.351 N 
ATOM      5  C   UNL A   1      32.325  22.604  26.323  1.00  0.00     0.281 C 
ATOM      6  O   UNL A   1      32.031  22.679  27.527  1.00  0.00    -0.268 OA
ATOM      7  H   UNL A   1      33.187  20.861  26.686  1.00  0.00     0.163 HD
BRANCH   5   8
ATOM      8  C   UNL A   1      31.734  23.643  25.313  1.00  0.00     0.177 C 
ATOM      9  C   UNL A   1      30.842  23.281  24.119  1.00  0.00     0.081 C 
ATOM     10  C   UNL A   1      30.715  24.491  26.112  1.00  0.00     0.106 C 
ATOM     11  C   UNL A   1      30.147  24.605  23.761  1.00  0.00     0.034 C 
ATOM     12  C   UNL A   1      30.062  25.415  25.086  1.00  0.00     0.114 C 
BRANCH   8  13
ATOM     13  N   UNL A   1      32.876  24.494  24.847  1.00  0.00    -0.334 N 
ATOM     14  H   UNL A   1      33.511  23.907  24.306  1.00  0.00     0.347 HD
ATOM     15  H   UNL A   1      32.471  25.252  24.297  1.00  0.00     0.347 HD
BRANCH  13  16
ATOM     16  C   UNL A   1      33.642  25.122  25.931  1.00  0.00     0.261 C 
BRANCH  16  17
ATOM     17  C   UNL A   1      34.494  26.288  25.418  1.00  0.00     0.058 C 
ATOM     18  C   UNL A   1      34.082  26.796  24.046  1.00  0.00     0.010 C 
ENDBRANCH  16  17
ENDBRANCH  13  16
ENDBRANCH   8  13
BRANCH  12  19
ATOM     19  N   UNL A   1      30.534  26.785  24.922  1.00  0.00    -0.266 N 
ATOM     20  N   UNL A   1      30.323  27.296  23.682  1.00  0.00    -0.178 NA
ATOM     21  C   UNL A   1      31.097  27.720  25.769  1.00  0.00     0.039 A 
ATOM     22  C   UNL A   1      30.856  28.514  23.704  1.00  0.00     0.063 A 
ATOM     23  C   UNL A   1      31.361  28.836  24.982  1.00  0.00    -0.004 A 
ATOM     24  C   UNL A   1      31.387  27.612  27.224  1.00  0.00     0.066 C 
ATOM     25  C   UNL A   1      30.857  29.330  22.467  1.00  0.00     0.069 C 
BRANCH  23  26
ATOM     26  C   UNL A   1      32.033  30.098  25.409  1.00  0.00     0.036 C 
ATOM     27  C   UNL A   1      33.276  29.828  26.244  1.00  0.00     0.009 C 
ENDBRANCH  23  26
ENDBRANCH  12  19
ENDBRANCH   5   8
ENDBRANCH   3   4
ENDBRANCH   2   3
ENDBRANCH   1   2
BRANCH   1  28
ATOM     28  C   UNL A   1      36.974  23.210  24.280  1.00  0.00     0.002 C 
BRANCH  28  29
ATOM     29  C   UNL A   1      37.290  23.156  25.777  1.00  0.00     0.021 C 
BRANCH  29  30
ATOM     30  C   UNL A   1      38.193  24.287  26.260  1.00  0.00     0.116 C 
BRANCH  30  31
ATOM     31  N   UNL A   1      39.597  23.921  26.157  1.00  0.00    -0.352 N 
ATOM     32  C   UNL A   1      40.700  24.614  26.584  1.00  0.00     0.251 C 
ATOM     33  H   UNL A   1      39.780  23.058  25.721  1.00  0.00     0.163 HD
ATOM     34  O   UNL A   1      41.820  24.306  26.173  1.00  0.00    -0.269 OA
BRANCH  32  35
ATOM     35  C   UNL A   1      40.534  25.736  27.527  1.00  0.00     0.039 A 
ATOM     36  C   UNL A   1      39.597  25.631  28.558  1.00  0.00     0.014 A 
ATOM     37  C   UNL A   1      41.317  26.888  27.397  1.00  0.00     0.014 A 
ATOM     38  C   UNL A   1      39.498  26.653  29.503  1.00  0.00     0.010 A 
ATOM     39  C   UNL A   1      41.261  27.875  28.376  1.00  0.00     0.010 A 
ATOM     40  C   UNL A   1      40.359  27.761  29.444  1.00  0.00    -0.014 A 
BRANCH  40  41
ATOM     41  C   UNL A   1      40.369  28.788  30.516  1.00  0.00     0.031 A 
ATOM     42  C   UNL A   1      41.298  28.653  31.689  1.00  0.00     0.074 A 
ATOM     43  C   UNL A   1      39.477  29.798  30.466  1.00  0.00     0.049 A 
ATOM     44  N   UNL A   1      41.384  29.397  32.762  1.00  0.00    -0.248 NA
ATOM     45  C   UNL A   1      42.238  27.520  31.667  1.00  0.00     0.031 C 
ATOM     46  C   UNL A   1      38.497  30.006  29.397  1.00  0.00     0.029 A 
ATOM     47  N   UNL A   1      39.237  30.827  31.341  1.00  0.00    -0.354 N 
ATOM     48  C   UNL A   1      42.378  28.822  33.545  1.00  0.00     0.074 A 
ATOM     49  C   UNL A   1      42.833  27.640  32.845  1.00  0.00     0.031 C 
ATOM     50  C   UNL A   1      37.772  31.101  29.672  1.00  0.00     0.029 A 
ATOM     51  C   UNL A   1      38.200  31.646  30.956  1.00  0.00     0.049 A 
ATOM     52  H   UNL A   1      39.756  30.966  32.166  1.00  0.00     0.167 HD
ATOM     53  C   UNL A   1      42.875  29.253  34.729  1.00  0.00     0.037 A 
ATOM     54  C   UNL A   1      37.643  32.704  31.578  1.00  0.00     0.037 A 
ATOM     55  C   UNL A   1      42.421  30.440  35.408  1.00  0.00     0.049 A 
ATOM     56  C   UNL A   1      38.189  33.141  32.909  1.00  0.00     0.074 A 
ATOM     57  C   UNL A   1      42.908  30.999  36.576  1.00  0.00     0.029 A 
ATOM     58  N   UNL A   1      41.368  31.240  34.990  1.00  0.00    -0.354 N 
ATOM     59  N   UNL A   1      39.183  32.632  33.598  1.00  0.00    -0.248 NA
ATOM     60  C   UNL A   1      37.538  34.291  33.551  1.00  0.00     0.031 C 
ATOM     61  C   UNL A   1      42.114  32.106  36.895  1.00  0.00     0.029 A 
ATOM     62  C   UNL A   1      41.164  32.267  35.898  1.00  0.00     0.049 A 
ATOM     63  H   UNL A   1      40.843  31.100  34.170  1.00  0.00     0.167 HD
ATOM     64  C   UNL A   1      39.283  33.406  34.749  1.00  0.00     0.074 A 
ATOM     65  C   UNL A   1      38.265  34.431  34.651  1.00  0.00     0.031 C 
ATOM     66  C   UNL A   1      40.138  33.275  35.793  1.00  0.00     0.037 A 
BRANCH  53  67
ATOM     67  C   UNL A   1      43.967  28.439  35.369  1.00  0.00     0.058 A 
ATOM     68  C   UNL A   1      43.680  27.419  36.291  1.00  0.00     0.135 A 
ATOM     69  C   UNL A   1      45.311  28.649  35.023  1.00  0.00     0.135 A 
ATOM     70  F   UNL A   1      42.415  27.183  36.669  1.00  0.00    -0.206 F 
ATOM     71  C   UNL A   1      44.690  26.655  36.866  1.00  0.00     0.059 A 
ATOM     72  C   UNL A   1      46.335  27.877  35.564  1.00  0.00     0.059 A 
ATOM     73  F   UNL A   1      45.641  29.611  34.147  1.00  0.00    -0.206 F 
ATOM     74  C   UNL A   1      46.015  26.891  36.495  1.00  0.00     0.060 A 
BRANCH  74  75
ATOM     75  S   UNL A   1      47.311  25.883  37.247  1.00  0.00     0.124 S 
ATOM     76  O   UNL A   1      47.665  26.686  38.414  1.00  0.00    -0.237 OA
ATOM     77  O   UNL A   1      46.611  24.633  37.526  1.00  0.00    -0.237 OA
ATOM     78  O   UNL A   1      48.332  25.807  36.205  1.00  0.00    -0.744 OA
ENDBRANCH  74  75
ENDBRANCH  53  67
BRANCH  54  79
ATOM     79  C   UNL A   1      36.500  33.416  30.946  1.00  0.00     0.058 A 
ATOM     80  C   UNL A   1      36.689  34.222  29.815  1.00  0.00     0.135 A 
ATOM     81  C   UNL A   1      35.195  33.291  31.449  1.00  0.00     0.135 A 
ATOM     82  F   UNL A   1      37.919  34.379  29.302  1.00  0.00    -0.206 F 
ATOM     83  C   UNL A   1      35.628  34.887  29.208  1.00  0.00     0.059 A 
ATOM     84  C   UNL A   1      34.114  33.924  30.845  1.00  0.00     0.059 A 
ATOM     85  F   UNL A   1      34.957  32.519  32.521  1.00  0.00    -0.206 F 
ATOM     86  C   UNL A   1      34.342  34.728  29.729  1.00  0.00     0.060 A 
BRANCH  86  87
ATOM     87  S   UNL A   1      32.965  35.550  28.900  1.00  0.00     0.124 S 
ATOM     88  O   UNL A   1      32.102  35.885  30.027  1.00  0.00    -0.237 OA
ATOM     89  O   UNL A   1      33.628  36.674  28.247  1.00  0.00    -0.237 OA
ATOM     90  O   UNL A   1      32.456  34.522  27.997  1.00  0.00    -0.744 OA
ENDBRANCH  86  87
ENDBRANCH  54  79
BRANCH  66  91
ATOM     91  C   UNL A   1      40.012  34.264  36.918  1.00  0.00     0.058 A 
ATOM     92  C   UNL A   1      40.695  35.489  36.895  1.00  0.00     0.135 A 
ATOM     93  C   UNL A   1      39.149  34.013  37.999  1.00  0.00     0.135 A 
ATOM     94  F   UNL A   1      41.540  35.773  35.892  1.00  0.00    -0.206 F 
ATOM     95  C   UNL A   1      40.536  36.429  37.909  1.00  0.00     0.059 A 
ATOM     96  C   UNL A   1      38.953  34.951  39.009  1.00  0.00     0.059 A 
ATOM     97  F   UNL A   1      38.466  32.859  38.066  1.00  0.00    -0.206 F 
ATOM     98  C   UNL A   1      39.657  36.153  38.957  1.00  0.00     0.060 A 
BRANCH  98  99
ATOM     99  S   UNL A   1      39.418  37.405  40.235  1.00  0.00     0.124 S 
ATOM    100  O   UNL A   1      38.530  38.347  39.563  1.00  0.00    -0.237 OA
ATOM    101  O   UNL A   1      38.819  36.633  41.320  1.00  0.00    -0.237 OA
ATOM    102  O   UNL A   1      40.770  37.891  40.493  1.00  0.00    -0.744 OA
ENDBRANCH  98  99
ENDBRANCH  66  91
ENDBRANCH  40  41
ENDBRANCH  32  35
ENDBRANCH  30  31
ENDBRANCH  29  30
ENDBRANCH  28  29
ENDBRANCH   1  28
TORSDOF 21
ENDMDL
MODEL 3
REMARK VINA RESULT:     -10.9      1.091      2.221
REMARK SMILES CCC[NH2+][C@]1(C(=O)NCCCCCCNC(=O)c2ccc(-c3c4nc(c(-c5c(F)cc(S(=O)(=O)[O-])cc5F)c5ccc([nH]5)c(-c5c(F)cc(S(=O)(=O)[O-])cc5F)c5nc(c(-c6c(F)cc(S(=O)(=O)[O-])cc6F)c6ccc3[nH]6)C=C5)C=C4)cc2)CC[C@H](n2nc(C)c(CC)c2C)C1
REMARK SMILES IDX 11 1 10 2 9 3 8 4 6 5 7 6 5 8 84 9 96 10 85 11 86 12 4 13
REMARK SMILES IDX 3 16 2 17 1 18 87 19 88 20 94 21 89 22 91 23 95 24 90 25
REMARK SMILES IDX 92 26 93 27 12 28 13 29 14 30 15 31 16 32 17 34 18 35 19 36
REMARK SMILES IDX 83 37 20 38 82 39 21 40 22 41 23 42 76 43 24 44 81 45 75 46
REMARK SMILES IDX 77 47 25 48 80 49 74 50 73 51 26 53 60 54 39 55 59 56 40 57
REMARK SMILES IDX 43 58 58 59 78 60 41 61 42 62 57 64 79 65 44 66 27 67 28 68
REMARK SMILES IDX 37 69 29 70 30 71 36 72 38 73 31 74 32 75 33 76 34 77 35 78
REMARK SMILES IDX 61 79 62 80 71 81 63 82 64 83 70 84 72 85 65 86 66 87 67 88
REMARK SMILES IDX 68 89 69 90 45 91 46 92 55 93 47 94 48 95 54 96 56 97 49 98
REMARK SMILES IDX 50 99 51 100 52 101 53 102
REMARK H PARENT 8 7 4 14 4 15 15 33 77 52 43 63
REMARK Flexibility Score: inf
ROOT
ATOM      1  C   UNL A   1      36.789  21.204  25.587  1.00  0.00     0.002 C 
ENDROOT
BRANCH   1   2
ATOM      2  C   UNL A   1      35.738  20.976  24.495  1.00  0.00     0.021 C 
BRANCH   2   3
ATOM      3  C   UNL A   1      34.311  20.939  25.039  1.00  0.00     0.116 C 
BRANCH   3   4
ATOM      4  N   UNL A   1      33.368  20.902  23.950  1.00  0.00    -0.351 N 
ATOM      5  C   UNL A   1      32.631  21.889  23.394  1.00  0.00     0.281 C 
ATOM      6  O   UNL A   1      31.806  21.524  22.541  1.00  0.00    -0.268 OA
ATOM      7  H   UNL A   1      33.240  20.014  23.546  1.00  0.00     0.163 HD
BRANCH   5   8
ATOM      8  C   UNL A   1      32.857  23.416  23.650  1.00  0.00     0.177 C 
ATOM      9  C   UNL A   1      34.218  24.051  23.965  1.00  0.00     0.081 C 
ATOM     10  C   UNL A   1      32.577  24.127  22.305  1.00  0.00     0.106 C 
ATOM     11  C   UNL A   1      34.013  25.541  23.646  1.00  0.00     0.034 C 
ATOM     12  C   UNL A   1      32.919  25.597  22.542  1.00  0.00     0.114 C 
BRANCH   8  13
ATOM     13  N   UNL A   1      31.856  23.835  24.685  1.00  0.00    -0.334 N 
ATOM     14  H   UNL A   1      31.780  24.852  24.662  1.00  0.00     0.347 HD
ATOM     15  H   UNL A   1      30.981  23.367  24.451  1.00  0.00     0.347 HD
BRANCH  13  16
ATOM     16  C   UNL A   1      32.199  23.430  26.054  1.00  0.00     0.261 C 
BRANCH  16  17
ATOM     17  C   UNL A   1      32.360  24.641  26.978  1.00  0.00     0.058 C 
ATOM     18  C   UNL A   1      31.669  25.898  26.474  1.00  0.00     0.010 C 
ENDBRANCH  16  17
ENDBRANCH  13  16
ENDBRANCH   8  13
BRANCH  12  19
ATOM     19  N   UNL A   1      31.869  26.557  22.859  1.00  0.00    -0.266 N 
ATOM     20  N   UNL A   1      30.681  25.986  23.186  1.00  0.00    -0.178 NA
ATOM     21  C   UNL A   1      31.819  27.933  22.967  1.00  0.00     0.039 A 
ATOM     22  C   UNL A   1      29.844  26.999  23.389  1.00  0.00     0.063 A 
ATOM     23  C   UNL A   1      30.496  28.244  23.262  1.00  0.00    -0.004 A 
ATOM     24  C   UNL A   1      32.916  28.926  22.810  1.00  0.00     0.066 C 
ATOM     25  C   UNL A   1      28.422  26.717  23.700  1.00  0.00     0.069 C 
BRANCH  23  26
ATOM     26  C   UNL A   1      29.905  29.606  23.411  1.00  0.00     0.036 C 
ATOM     27  C   UNL A   1      29.526  30.213  22.068  1.00  0.00     0.009 C 
ENDBRANCH  23  26
ENDBRANCH  12  19
ENDBRANCH   5   8
ENDBRANCH   3   4
ENDBRANCH   2   3
ENDBRANCH   1   2
BRANCH   1  28
ATOM     28  C   UNL A   1      37.759  22.356  25.303  1.00  0.00     0.002 C 
BRANCH  28  29
ATOM     29  C   UNL A   1      37.344  23.701  25.905  1.00  0.00     0.021 C 
BRANCH  29  30
ATOM     30  C   UNL A   1      38.438  24.374  26.729  1.00  0.00     0.116 C 
BRANCH  30  31
ATOM     31  N   UNL A   1      39.671  24.498  25.968  1.00  0.00    -0.352 N 
ATOM     32  C   UNL A   1      40.674  25.422  26.100  1.00  0.00     0.251 C 
ATOM     33  H   UNL A   1      39.802  23.827  25.260  1.00  0.00     0.163 HD
ATOM     34  O   UNL A   1      41.507  25.562  25.203  1.00  0.00    -0.269 OA
BRANCH  32  35
ATOM     35  C   UNL A   1      40.743  26.252  27.317  1.00  0.00     0.039 A 
ATOM     36  C   UNL A   1      41.654  27.309  27.373  1.00  0.00     0.014 A 
ATOM     37  C   UNL A   1      39.894  25.991  28.399  1.00  0.00     0.014 A 
ATOM     38  C   UNL A   1      41.663  28.151  28.487  1.00  0.00     0.010 A 
ATOM     39  C   UNL A   1      39.861  26.868  29.478  1.00  0.00     0.010 A 
ATOM     40  C   UNL A   1      40.737  27.962  29.527  1.00  0.00    -0.014 A 
BRANCH  40  41
ATOM     41  C   UNL A   1      40.632  28.927  30.651  1.00  0.00     0.031 A 
ATOM     42  C   UNL A   1      41.485  28.761  31.877  1.00  0.00     0.074 A 
ATOM     43  C   UNL A   1      39.704  29.903  30.593  1.00  0.00     0.049 A 
ATOM     44  N   UNL A   1      41.467  29.446  32.991  1.00  0.00    -0.248 NA
ATOM     45  C   UNL A   1      42.470  27.668  31.859  1.00  0.00     0.031 C 
ATOM     46  C   UNL A   1      38.790  30.134  29.471  1.00  0.00     0.029 A 
ATOM     47  N   UNL A   1      39.362  30.871  31.503  1.00  0.00    -0.354 N 
ATOM     48  C   UNL A   1      42.429  28.866  33.810  1.00  0.00     0.074 A 
ATOM     49  C   UNL A   1      42.979  27.744  33.081  1.00  0.00     0.031 C 
ATOM     50  C   UNL A   1      38.003  31.182  29.754  1.00  0.00     0.029 A 
ATOM     51  C   UNL A   1      38.320  31.670  31.092  1.00  0.00     0.049 A 
ATOM     52  H   UNL A   1      39.819  30.983  32.368  1.00  0.00     0.167 HD
ATOM     53  C   UNL A   1      42.827  29.249  35.046  1.00  0.00     0.037 A 
ATOM     54  C   UNL A   1      37.678  32.669  31.729  1.00  0.00     0.037 A 
ATOM     55  C   UNL A   1      42.279  30.377  35.755  1.00  0.00     0.049 A 
ATOM     56  C   UNL A   1      38.114  33.051  33.116  1.00  0.00     0.074 A 
ATOM     57  C   UNL A   1      42.662  30.888  36.983  1.00  0.00     0.029 A 
ATOM     58  N   UNL A   1      41.223  31.159  35.309  1.00  0.00    -0.354 N 
ATOM     59  N   UNL A   1      39.081  32.543  33.844  1.00  0.00    -0.248 NA
ATOM     60  C   UNL A   1      37.374  34.138  33.772  1.00  0.00     0.031 C 
ATOM     61  C   UNL A   1      41.803  31.944  37.304  1.00  0.00     0.029 A 
ATOM     62  C   UNL A   1      40.916  32.125  36.254  1.00  0.00     0.049 A 
ATOM     63  H   UNL A   1      40.761  31.045  34.447  1.00  0.00     0.167 HD
ATOM     64  C   UNL A   1      39.071  33.254  35.039  1.00  0.00     0.074 A 
ATOM     65  C   UNL A   1      38.019  34.244  34.926  1.00  0.00     0.031 C 
ATOM     66  C   UNL A   1      39.858  33.097  36.132  1.00  0.00     0.037 A 
BRANCH  53  67
ATOM     67  C   UNL A   1      43.906  28.443  35.716  1.00  0.00     0.058 A 
ATOM     68  C   UNL A   1      43.601  27.374  36.575  1.00  0.00     0.135 A 
ATOM     69  C   UNL A   1      45.261  28.710  35.462  1.00  0.00     0.135 A 
ATOM     70  F   UNL A   1      42.324  27.080  36.864  1.00  0.00    -0.206 F 
ATOM     71  C   UNL A   1      44.601  26.617  37.177  1.00  0.00     0.059 A 
ATOM     72  C   UNL A   1      46.277  27.949  36.031  1.00  0.00     0.059 A 
ATOM     73  F   UNL A   1      45.608  29.721  34.650  1.00  0.00    -0.206 F 
ATOM     74  C   UNL A   1      45.936  26.912  36.898  1.00  0.00     0.060 A 
BRANCH  74  75
ATOM     75  S   UNL A   1      47.220  25.913  37.683  1.00  0.00     0.124 S 
ATOM     76  O   UNL A   1      48.262  25.921  36.661  1.00  0.00    -0.237 OA
ATOM     77  O   UNL A   1      47.512  26.677  38.892  1.00  0.00    -0.237 OA
ATOM     78  O   UNL A   1      46.565  24.626  37.901  1.00  0.00    -0.744 OA
ENDBRANCH  74  75
ENDBRANCH  53  67
BRANCH  54  79
ATOM     79  C   UNL A   1      36.552  33.372  31.059  1.00  0.00     0.058 A 
ATOM     80  C   UNL A   1      36.783  34.251  29.991  1.00  0.00     0.135 A 
ATOM     81  C   UNL A   1      35.222  33.165  31.458  1.00  0.00     0.135 A 
ATOM     82  F   UNL A   1      38.038  34.488  29.577  1.00  0.00    -0.206 F 
ATOM     83  C   UNL A   1      35.738  34.908  29.348  1.00  0.00     0.059 A 
ATOM     84  C   UNL A   1      34.158  33.789  30.815  1.00  0.00     0.059 A 
ATOM     85  F   UNL A   1      34.945  32.321  32.465  1.00  0.00    -0.206 F 
ATOM     86  C   UNL A   1      34.428  34.667  29.766  1.00  0.00     0.060 A 
BRANCH  86  87
ATOM     87  S   UNL A   1      33.076  35.481  28.888  1.00  0.00     0.124 S 
ATOM     88  O   UNL A   1      32.506  34.372  28.134  1.00  0.00    -0.237 OA
ATOM     89  O   UNL A   1      32.262  35.992  29.987  1.00  0.00    -0.237 OA
ATOM     90  O   UNL A   1      33.757  36.502  28.097  1.00  0.00    -0.744 OA
ENDBRANCH  86  87
ENDBRANCH  54  79
BRANCH  66  91
ATOM     91  C   UNL A   1      39.615  34.015  37.297  1.00  0.00     0.058 A 
ATOM     92  C   UNL A   1      38.802  33.629  38.374  1.00  0.00     0.135 A 
ATOM     93  C   UNL A   1      40.252  35.265  37.371  1.00  0.00     0.135 A 
ATOM     94  F   UNL A   1      38.161  32.450  38.348  1.00  0.00    -0.206 F 
ATOM     95  C   UNL A   1      38.620  34.454  39.479  1.00  0.00     0.059 A 
ATOM     96  C   UNL A   1      40.107  36.094  38.479  1.00  0.00     0.059 A 
ATOM     97  F   UNL A   1      41.046  35.680  36.370  1.00  0.00    -0.206 F 
ATOM     98  C   UNL A   1      39.283  35.682  39.525  1.00  0.00     0.060 A 
BRANCH  98  99
ATOM     99  S   UNL A   1      39.081  36.716  40.991  1.00  0.00     0.124 S 
ATOM    100  O   UNL A   1      38.171  35.911  41.797  1.00  0.00    -0.237 OA
ATOM    101  O   UNL A   1      40.449  36.817  41.491  1.00  0.00    -0.237 OA
ATOM    102  O   UNL A   1      38.522  37.955  40.460  1.00  0.00    -0.744 OA
ENDBRANCH  98  99
ENDBRANCH  66  91
ENDBRANCH  40  41
ENDBRANCH  32  35
ENDBRANCH  30  31
ENDBRANCH  29  30
ENDBRANCH  28  29
ENDBRANCH   1  28
TORSDOF 21
ENDMDL
