MODEL 1
REMARK VINA RESULT:     -10.7      0.000      0.000
REMARK SMILES C[C@H]1[C@@H]([NH2+]C[C@H]2CC[C@@H](C(=O)NCCCCCCNC(=O)c3ccc(-c4c5nc(c(-c6c(F)cc(S(=O)(=O)[O-])cc6F)c6ccc([nH]6)c(-c6c(F)cc(S(=O)(=O)[O-])cc6F)c6nc(c(-c7c(F)cc(S(=O)(=O)[O-])cc7F)c7ccc4[nH]7)C=C6)C=C5)cc3)CC2)CCC[C@@H]1C
REMARK SMILES IDX 15 1 14 2 13 3 12 4 10 5 11 6 9 8 6 9 7 10 89 11 8 12 88 13
REMARK SMILES IDX 5 14 4 15 3 18 1 19 2 20 93 21 90 22 92 23 94 24 91 25 16 26
REMARK SMILES IDX 17 27 18 28 19 29 20 30 21 32 22 33 23 34 87 35 24 36 86 37
REMARK SMILES IDX 25 38 26 39 27 40 80 41 28 42 85 43 79 44 81 45 29 46 84 47
REMARK SMILES IDX 78 48 77 49 30 51 64 52 43 53 63 54 44 55 47 56 62 57 82 58
REMARK SMILES IDX 45 59 46 60 61 62 83 63 48 64 31 65 32 66 41 67 33 68 34 69
REMARK SMILES IDX 40 70 42 71 35 72 36 73 37 74 38 75 39 76 65 77 66 78 75 79
REMARK SMILES IDX 67 80 68 81 74 82 76 83 69 84 70 85 71 86 72 87 73 88 49 89
REMARK SMILES IDX 50 90 59 91 51 92 52 93 58 94 60 95 53 96 54 97 55 98 56 99
REMARK SMILES IDX 57 100
REMARK H PARENT 12 7 4 16 4 17 19 31 81 50 47 61
REMARK Flexibility Score: inf
ROOT
ATOM      1  C   UNL A   1      33.396  27.715  23.641  1.00  0.00     0.002 C 
ENDROOT
BRANCH   1   2
ATOM      2  C   UNL A   1      32.980  27.525  22.183  1.00  0.00     0.021 C 
BRANCH   2   3
ATOM      3  C   UNL A   1      31.963  26.414  21.951  1.00  0.00     0.116 C 
BRANCH   3   4
ATOM      4  N   UNL A   1      32.568  25.215  21.405  1.00  0.00    -0.356 N 
ATOM      5  C   UNL A   1      32.976  24.073  22.024  1.00  0.00     0.223 C 
ATOM      6  O   UNL A   1      33.447  23.178  21.315  1.00  0.00    -0.275 OA
ATOM      7  H   UNL A   1      32.707  25.229  20.430  1.00  0.00     0.163 HD
BRANCH   5   8
ATOM      8  C   UNL A   1      32.881  23.880  23.539  1.00  0.00     0.078 C 
ATOM      9  C   UNL A   1      33.662  22.613  26.141  1.00  0.00     0.044 C 
ATOM     10  C   UNL A   1      34.078  24.042  25.768  1.00  0.00     0.010 C 
ATOM     11  C   UNL A   1      32.367  22.211  25.416  1.00  0.00     0.010 C 
ATOM     12  C   UNL A   1      34.161  24.297  24.271  1.00  0.00     0.014 C 
ATOM     13  C   UNL A   1      32.346  22.493  23.911  1.00  0.00     0.014 C 
BRANCH   9  14
ATOM     14  C   UNL A   1      34.812  21.568  26.080  1.00  0.00     0.264 C 
BRANCH  14  15
ATOM     15  N   UNL A   1      36.123  22.026  26.518  1.00  0.00    -0.343 N 
ATOM     16  H   UNL A   1      35.967  22.801  27.162  1.00  0.00     0.346 HD
ATOM     17  H   UNL A   1      36.555  21.187  26.906  1.00  0.00     0.346 HD
BRANCH  15  18
ATOM     18  C   UNL A   1      37.099  22.491  25.509  1.00  0.00     0.185 C 
ATOM     19  C   UNL A   1      37.918  20.116  24.899  1.00  0.00     0.014 C 
ATOM     20  C   UNL A   1      38.321  21.536  25.316  1.00  0.00     0.047 C 
ATOM     21  C   UNL A   1      39.251  21.606  26.548  1.00  0.00    -0.006 C 
ATOM     22  C   UNL A   1      37.619  23.934  25.633  1.00  0.00     0.065 C 
ATOM     23  C   UNL A   1      39.782  23.045  26.699  1.00  0.00     0.004 C 
ATOM     24  C   UNL A   1      40.429  20.631  26.478  1.00  0.00     0.008 C 
ATOM     25  C   UNL A   1      38.707  24.134  26.688  1.00  0.00     0.006 C 
ENDBRANCH  15  18
ENDBRANCH  14  15
ENDBRANCH   9  14
ENDBRANCH   5   8
ENDBRANCH   3   4
ENDBRANCH   2   3
ENDBRANCH   1   2
BRANCH   1  26
ATOM     26  C   UNL A   1      32.258  27.602  24.664  1.00  0.00     0.002 C 
BRANCH  26  27
ATOM     27  C   UNL A   1      32.682  27.464  26.131  1.00  0.00     0.021 C 
BRANCH  27  28
ATOM     28  C   UNL A   1      34.001  28.140  26.501  1.00  0.00     0.116 C 
BRANCH  28  29
ATOM     29  N   UNL A   1      33.867  29.584  26.609  1.00  0.00    -0.352 N 
ATOM     30  C   UNL A   1      34.590  30.489  27.344  1.00  0.00     0.251 C 
ATOM     31  H   UNL A   1      33.143  29.973  26.068  1.00  0.00     0.163 HD
ATOM     32  O   UNL A   1      34.185  31.644  27.445  1.00  0.00    -0.269 OA
BRANCH  30  33
ATOM     33  C   UNL A   1      35.842  30.086  28.025  1.00  0.00     0.039 A 
ATOM     34  C   UNL A   1      37.042  30.144  27.311  1.00  0.00     0.014 A 
ATOM     35  C   UNL A   1      35.837  29.609  29.339  1.00  0.00     0.014 A 
ATOM     36  C   UNL A   1      38.241  29.778  27.928  1.00  0.00     0.010 A 
ATOM     37  C   UNL A   1      37.040  29.299  29.973  1.00  0.00     0.010 A 
ATOM     38  C   UNL A   1      38.255  29.380  29.275  1.00  0.00    -0.014 A 
BRANCH  38  39
ATOM     39  C   UNL A   1      39.531  29.061  29.967  1.00  0.00     0.031 A 
ATOM     40  C   UNL A   1      39.954  29.834  31.187  1.00  0.00     0.074 A 
ATOM     41  C   UNL A   1      40.341  28.112  29.458  1.00  0.00     0.049 A 
ATOM     42  N   UNL A   1      41.058  29.737  31.884  1.00  0.00    -0.248 NA
ATOM     43  C   UNL A   1      39.025  30.864  31.676  1.00  0.00     0.031 C 
ATOM     44  C   UNL A   1      40.066  27.323  28.254  1.00  0.00     0.029 A 
ATOM     45  N   UNL A   1      41.566  27.655  29.879  1.00  0.00    -0.354 N 
ATOM     46  C   UNL A   1      40.965  30.700  32.882  1.00  0.00     0.074 A 
ATOM     47  C   UNL A   1      39.714  31.399  32.674  1.00  0.00     0.031 C 
ATOM     48  C   UNL A   1      41.082  26.472  28.044  1.00  0.00     0.029 A 
ATOM     49  C   UNL A   1      42.096  26.674  29.075  1.00  0.00     0.049 A 
ATOM     50  H   UNL A   1      42.020  27.997  30.682  1.00  0.00     0.167 HD
ATOM     51  C   UNL A   1      41.831  30.964  33.890  1.00  0.00     0.037 A 
ATOM     52  C   UNL A   1      43.269  26.016  29.153  1.00  0.00     0.037 A 
ATOM     53  C   UNL A   1      43.062  30.249  34.107  1.00  0.00     0.049 A 
ATOM     54  C   UNL A   1      44.211  26.321  30.285  1.00  0.00     0.074 A 
ATOM     55  C   UNL A   1      43.977  30.403  35.136  1.00  0.00     0.029 A 
ATOM     56  N   UNL A   1      43.553  29.245  33.285  1.00  0.00    -0.354 N 
ATOM     57  N   UNL A   1      44.077  27.194  31.254  1.00  0.00    -0.248 NA
ATOM     58  C   UNL A   1      45.460  25.548  30.338  1.00  0.00     0.031 C 
ATOM     59  C   UNL A   1      45.040  29.520  34.913  1.00  0.00     0.029 A 
ATOM     60  C   UNL A   1      44.766  28.785  33.770  1.00  0.00     0.049 A 
ATOM     61  H   UNL A   1      43.105  28.910  32.475  1.00  0.00     0.167 HD
ATOM     62  C   UNL A   1      45.212  27.059  32.046  1.00  0.00     0.074 A 
ATOM     63  C   UNL A   1      46.016  26.013  31.448  1.00  0.00     0.031 C 
ATOM     64  C   UNL A   1      45.556  27.740  33.167  1.00  0.00     0.037 A 
BRANCH  51  65
ATOM     65  C   UNL A   1      41.477  32.076  34.839  1.00  0.00     0.058 A 
ATOM     66  C   UNL A   1      40.681  31.850  35.974  1.00  0.00     0.135 A 
ATOM     67  C   UNL A   1      41.969  33.375  34.635  1.00  0.00     0.135 A 
ATOM     68  F   UNL A   1      40.174  30.630  36.210  1.00  0.00    -0.206 F 
ATOM     69  C   UNL A   1      40.357  32.878  36.853  1.00  0.00     0.059 A 
ATOM     70  C   UNL A   1      41.681  34.414  35.516  1.00  0.00     0.059 A 
ATOM     71  F   UNL A   1      42.737  33.647  33.567  1.00  0.00    -0.206 F 
ATOM     72  C   UNL A   1      40.860  34.159  36.614  1.00  0.00     0.060 A 
BRANCH  72  73
ATOM     73  S   UNL A   1      40.430  35.483  37.763  1.00  0.00     0.124 S 
ATOM     74  O   UNL A   1      40.013  36.538  36.845  1.00  0.00    -0.237 OA
ATOM     75  O   UNL A   1      39.368  34.877  38.558  1.00  0.00    -0.237 OA
ATOM     76  O   UNL A   1      41.679  35.731  38.477  1.00  0.00    -0.744 OA
ENDBRANCH  72  73
ENDBRANCH  51  65
BRANCH  52  77
ATOM     77  C   UNL A   1      43.606  24.986  28.136  1.00  0.00     0.058 A 
ATOM     78  C   UNL A   1      43.169  23.661  28.281  1.00  0.00     0.135 A 
ATOM     79  C   UNL A   1      44.351  25.307  26.991  1.00  0.00     0.135 A 
ATOM     80  F   UNL A   1      42.459  23.303  29.362  1.00  0.00    -0.206 F 
ATOM     81  C   UNL A   1      43.468  22.686  27.334  1.00  0.00     0.059 A 
ATOM     82  C   UNL A   1      44.644  24.357  26.018  1.00  0.00     0.059 A 
ATOM     83  F   UNL A   1      44.778  26.566  26.799  1.00  0.00    -0.206 F 
ATOM     84  C   UNL A   1      44.204  23.046  26.203  1.00  0.00     0.060 A 
BRANCH  84  85
ATOM     85  S   UNL A   1      44.541  21.789  24.951  1.00  0.00     0.124 S 
ATOM     86  O   UNL A   1      44.259  22.518  23.721  1.00  0.00    -0.237 OA
ATOM     87  O   UNL A   1      45.944  21.475  25.201  1.00  0.00    -0.237 OA
ATOM     88  O   UNL A   1      43.600  20.724  25.285  1.00  0.00    -0.744 OA
ENDBRANCH  84  85
ENDBRANCH  52  77
BRANCH  64  89
ATOM     89  C   UNL A   1      46.844  27.357  33.840  1.00  0.00     0.058 A 
ATOM     90  C   UNL A   1      46.895  26.348  34.814  1.00  0.00     0.135 A 
ATOM     91  C   UNL A   1      48.051  27.974  33.472  1.00  0.00     0.135 A 
ATOM     92  F   UNL A   1      45.769  25.732  35.207  1.00  0.00    -0.206 F 
ATOM     93  C   UNL A   1      48.093  25.978  35.415  1.00  0.00     0.059 A 
ATOM     94  C   UNL A   1      49.264  27.603  34.041  1.00  0.00     0.059 A 
ATOM     95  F   UNL A   1      48.059  28.939  32.538  1.00  0.00    -0.206 F 
ATOM     96  C   UNL A   1      49.274  26.611  35.021  1.00  0.00     0.060 A 
BRANCH  96  97
ATOM     97  S   UNL A   1      50.828  26.100  35.784  1.00  0.00     0.124 S 
ATOM     98  O   UNL A   1      50.654  26.576  37.152  1.00  0.00    -0.237 OA
ATOM     99  O   UNL A   1      50.803  24.652  35.609  1.00  0.00    -0.237 OA
ATOM    100  O   UNL A   1      51.838  26.803  34.999  1.00  0.00    -0.744 OA
ENDBRANCH  96  97
ENDBRANCH  64  89
ENDBRANCH  38  39
ENDBRANCH  30  33
ENDBRANCH  28  29
ENDBRANCH  27  28
ENDBRANCH  26  27
ENDBRANCH   1  26
TORSDOF 19
ENDMDL
MODEL 2
REMARK VINA RESULT:     -10.3      3.064      9.553
REMARK SMILES C[C@H]1[C@@H]([NH2+]C[C@H]2CC[C@@H](C(=O)NCCCCCCNC(=O)c3ccc(-c4c5nc(c(-c6c(F)cc(S(=O)(=O)[O-])cc6F)c6ccc([nH]6)c(-c6c(F)cc(S(=O)(=O)[O-])cc6F)c6nc(c(-c7c(F)cc(S(=O)(=O)[O-])cc7F)c7ccc4[nH]7)C=C6)C=C5)cc3)CC2)CCC[C@@H]1C
REMARK SMILES IDX 15 1 14 2 13 3 12 4 10 5 11 6 9 8 6 9 7 10 89 11 8 12 88 13
REMARK SMILES IDX 5 14 4 15 3 18 1 19 2 20 93 21 90 22 92 23 94 24 91 25 16 26
REMARK SMILES IDX 17 27 18 28 19 29 20 30 21 32 22 33 23 34 87 35 24 36 86 37
REMARK SMILES IDX 25 38 26 39 27 40 80 41 28 42 85 43 79 44 81 45 29 46 84 47
REMARK SMILES IDX 78 48 77 49 30 51 64 52 43 53 63 54 44 55 47 56 62 57 82 58
REMARK SMILES IDX 45 59 46 60 61 62 83 63 48 64 31 65 32 66 41 67 33 68 34 69
REMARK SMILES IDX 40 70 42 71 35 72 36 73 37 74 38 75 39 76 65 77 66 78 75 79
REMARK SMILES IDX 67 80 68 81 74 82 76 83 69 84 70 85 71 86 72 87 73 88 49 89
REMARK SMILES IDX 50 90 59 91 51 92 52 93 58 94 60 95 53 96 54 97 55 98 56 99
REMARK SMILES IDX 57 100
REMARK H PARENT 12 7 4 16 4 17 19 31 81 50 47 61
REMARK Flexibility Score: inf
ROOT
ATOM      1  C   UNL A   1      38.444  23.467  26.529  1.00  0.00     0.002 C 
ENDROOT
BRANCH   1   2
ATOM      2  C   UNL A   1      37.319  23.695  25.520  1.00  0.00     0.021 C 
BRANCH   2   3
ATOM      3  C   UNL A   1      36.821  22.433  24.826  1.00  0.00     0.116 C 
BRANCH   3   4
ATOM      4  N   UNL A   1      36.066  22.723  23.623  1.00  0.00    -0.356 N 
ATOM      5  C   UNL A   1      34.731  22.929  23.449  1.00  0.00     0.223 C 
ATOM      6  O   UNL A   1      34.339  23.184  22.306  1.00  0.00    -0.275 OA
ATOM      7  H   UNL A   1      36.604  22.779  22.801  1.00  0.00     0.163 HD
BRANCH   5   8
ATOM      8  C   UNL A   1      33.728  22.841  24.601  1.00  0.00     0.078 C 
ATOM      9  C   UNL A   1      31.263  23.678  26.088  1.00  0.00     0.044 C 
ATOM     10  C   UNL A   1      31.332  22.373  25.283  1.00  0.00     0.010 C 
ATOM     11  C   UNL A   1      32.663  24.105  26.561  1.00  0.00     0.010 C 
ATOM     12  C   UNL A   1      32.335  22.396  24.141  1.00  0.00     0.014 C 
ATOM     13  C   UNL A   1      33.748  24.095  25.480  1.00  0.00     0.014 C 
BRANCH   9  14
ATOM     14  C   UNL A   1      30.410  24.799  25.431  1.00  0.00     0.264 C 
BRANCH  14  15
ATOM     15  N   UNL A   1      30.857  26.166  25.659  1.00  0.00    -0.343 N 
ATOM     16  H   UNL A   1      30.026  26.721  25.865  1.00  0.00     0.346 HD
ATOM     17  H   UNL A   1      31.543  26.074  26.409  1.00  0.00     0.346 HD
BRANCH  15  18
ATOM     18  C   UNL A   1      31.595  26.873  24.590  1.00  0.00     0.185 C 
ATOM     19  C   UNL A   1      33.493  27.684  26.146  1.00  0.00     0.014 C 
ATOM     20  C   UNL A   1      32.448  28.081  25.094  1.00  0.00     0.047 C 
ATOM     21  C   UNL A   1      31.525  29.247  25.512  1.00  0.00    -0.006 C 
ATOM     22  C   UNL A   1      30.799  27.318  23.351  1.00  0.00     0.065 C 
ATOM     23  C   UNL A   1      30.711  29.710  24.287  1.00  0.00     0.004 C 
ATOM     24  C   UNL A   1      32.281  30.440  26.102  1.00  0.00     0.008 C 
ATOM     25  C   UNL A   1      29.978  28.593  23.541  1.00  0.00     0.006 C 
ENDBRANCH  15  18
ENDBRANCH  14  15
ENDBRANCH   9  14
ENDBRANCH   5   8
ENDBRANCH   3   4
ENDBRANCH   2   3
ENDBRANCH   1   2
BRANCH   1  26
ATOM     26  C   UNL A   1      39.444  22.367  26.153  1.00  0.00     0.002 C 
BRANCH  26  27
ATOM     27  C   UNL A   1      40.455  21.977  27.238  1.00  0.00     0.021 C 
BRANCH  27  28
ATOM     28  C   UNL A   1      41.506  23.035  27.568  1.00  0.00     0.116 C 
BRANCH  28  29
ATOM     29  N   UNL A   1      41.928  23.778  26.391  1.00  0.00    -0.352 N 
ATOM     30  C   UNL A   1      41.957  25.130  26.159  1.00  0.00     0.251 C 
ATOM     31  H   UNL A   1      42.241  23.222  25.642  1.00  0.00     0.163 HD
ATOM     32  O   UNL A   1      42.163  25.541  25.021  1.00  0.00    -0.269 OA
BRANCH  30  33
ATOM     33  C   UNL A   1      41.731  26.094  27.260  1.00  0.00     0.039 A 
ATOM     34  C   UNL A   1      40.638  25.898  28.110  1.00  0.00     0.014 A 
ATOM     35  C   UNL A   1      42.554  27.211  27.432  1.00  0.00     0.014 A 
ATOM     36  C   UNL A   1      40.403  26.786  29.162  1.00  0.00     0.010 A 
ATOM     37  C   UNL A   1      42.353  28.064  28.517  1.00  0.00     0.010 A 
ATOM     38  C   UNL A   1      41.276  27.862  29.394  1.00  0.00    -0.014 A 
BRANCH  38  39
ATOM     39  C   UNL A   1      41.082  28.770  30.554  1.00  0.00     0.031 A 
ATOM     40  C   UNL A   1      41.934  28.629  31.786  1.00  0.00     0.074 A 
ATOM     41  C   UNL A   1      40.094  29.686  30.520  1.00  0.00     0.049 A 
ATOM     42  N   UNL A   1      41.868  29.289  32.916  1.00  0.00    -0.248 NA
ATOM     43  C   UNL A   1      42.983  27.599  31.756  1.00  0.00     0.031 C 
ATOM     44  C   UNL A   1      39.169  29.891  29.403  1.00  0.00     0.029 A 
ATOM     45  N   UNL A   1      39.691  30.608  31.455  1.00  0.00    -0.354 N 
ATOM     46  C   UNL A   1      42.853  28.747  33.732  1.00  0.00     0.074 A 
ATOM     47  C   UNL A   1      43.474  27.674  32.984  1.00  0.00     0.031 C 
ATOM     48  C   UNL A   1      38.321  30.884  29.709  1.00  0.00     0.029 A 
ATOM     49  C   UNL A   1      38.616  31.366  31.056  1.00  0.00     0.049 A 
ATOM     50  H   UNL A   1      40.132  30.717  32.328  1.00  0.00     0.167 HD
ATOM     51  C   UNL A   1      43.220  29.120  34.982  1.00  0.00     0.037 A 
ATOM     52  C   UNL A   1      37.937  32.333  31.702  1.00  0.00     0.037 A 
ATOM     53  C   UNL A   1      42.615  30.205  35.712  1.00  0.00     0.049 A 
ATOM     54  C   UNL A   1      38.368  32.737  33.085  1.00  0.00     0.074 A 
ATOM     55  C   UNL A   1      42.958  30.698  36.961  1.00  0.00     0.029 A 
ATOM     56  N   UNL A   1      41.545  30.965  35.265  1.00  0.00    -0.354 N 
ATOM     57  N   UNL A   1      39.341  32.252  33.818  1.00  0.00    -0.248 NA
ATOM     58  C   UNL A   1      37.612  33.821  33.728  1.00  0.00     0.031 C 
ATOM     59  C   UNL A   1      42.069  31.729  37.284  1.00  0.00     0.029 A 
ATOM     60  C   UNL A   1      41.201  31.909  36.218  1.00  0.00     0.049 A 
ATOM     61  H   UNL A   1      41.095  30.849  34.397  1.00  0.00     0.167 HD
ATOM     62  C   UNL A   1      39.331  32.988  34.998  1.00  0.00     0.074 A 
ATOM     63  C   UNL A   1      38.261  33.957  34.876  1.00  0.00     0.031 C 
ATOM     64  C   UNL A   1      40.135  32.871  36.083  1.00  0.00     0.037 A 
BRANCH  51  65
ATOM     65  C   UNL A   1      44.330  28.350  35.642  1.00  0.00     0.058 A 
ATOM     66  C   UNL A   1      44.070  27.226  36.444  1.00  0.00     0.135 A 
ATOM     67  C   UNL A   1      45.671  28.714  35.442  1.00  0.00     0.135 A 
ATOM     68  F   UNL A   1      42.806  26.842  36.680  1.00  0.00    -0.206 F 
ATOM     69  C   UNL A   1      45.098  26.512  37.051  1.00  0.00     0.059 A 
ATOM     70  C   UNL A   1      46.718  27.998  36.017  1.00  0.00     0.059 A 
ATOM     71  F   UNL A   1      45.977  29.778  34.683  1.00  0.00    -0.206 F 
ATOM     72  C   UNL A   1      46.420  26.907  36.834  1.00  0.00     0.060 A 
BRANCH  72  73
ATOM     73  S   UNL A   1      47.743  25.971  37.630  1.00  0.00     0.124 S 
ATOM     74  O   UNL A   1      46.983  24.978  38.381  1.00  0.00    -0.237 OA
ATOM     75  O   UNL A   1      48.498  25.464  36.489  1.00  0.00    -0.237 OA
ATOM     76  O   UNL A   1      48.431  26.976  38.436  1.00  0.00    -0.744 OA
ENDBRANCH  72  73
ENDBRANCH  51  65
BRANCH  52  77
ATOM     77  C   UNL A   1      36.791  33.004  31.034  1.00  0.00     0.058 A 
ATOM     78  C   UNL A   1      37.000  33.921  29.993  1.00  0.00     0.135 A 
ATOM     79  C   UNL A   1      35.467  32.727  31.406  1.00  0.00     0.135 A 
ATOM     80  F   UNL A   1      38.249  34.223  29.606  1.00  0.00    -0.206 F 
ATOM     81  C   UNL A   1      35.937  34.550  29.351  1.00  0.00     0.059 A 
ATOM     82  C   UNL A   1      34.387  33.325  30.764  1.00  0.00     0.059 A 
ATOM     83  F   UNL A   1      35.214  31.844  32.385  1.00  0.00    -0.206 F 
ATOM     84  C   UNL A   1      34.633  34.242  29.743  1.00  0.00     0.060 A 
BRANCH  84  85
ATOM     85  S   UNL A   1      33.258  35.020  28.868  1.00  0.00     0.124 S 
ATOM     86  O   UNL A   1      32.828  33.944  27.983  1.00  0.00    -0.237 OA
ATOM     87  O   UNL A   1      32.349  35.353  29.959  1.00  0.00    -0.237 OA
ATOM     88  O   UNL A   1      33.884  36.165  28.213  1.00  0.00    -0.744 OA
ENDBRANCH  84  85
ENDBRANCH  52  77
BRANCH  64  89
ATOM     89  C   UNL A   1      39.911  33.833  37.216  1.00  0.00     0.058 A 
ATOM     90  C   UNL A   1      38.934  33.602  38.197  1.00  0.00     0.135 A 
ATOM     91  C   UNL A   1      40.717  34.976  37.350  1.00  0.00     0.135 A 
ATOM     92  F   UNL A   1      38.133  32.528  38.111  1.00  0.00    -0.206 F 
ATOM     93  C   UNL A   1      38.747  34.481  39.258  1.00  0.00     0.059 A 
ATOM     94  C   UNL A   1      40.565  35.855  38.417  1.00  0.00     0.059 A 
ATOM     95  F   UNL A   1      41.673  35.238  36.445  1.00  0.00    -0.206 F 
ATOM     96  C   UNL A   1      39.569  35.605  39.360  1.00  0.00     0.060 A 
BRANCH  96  97
ATOM     97  S   UNL A   1      39.341  36.722  40.760  1.00  0.00     0.124 S 
ATOM     98  O   UNL A   1      38.637  35.865  41.708  1.00  0.00    -0.237 OA
ATOM     99  O   UNL A   1      40.714  37.065  41.115  1.00  0.00    -0.237 OA
ATOM    100  O   UNL A   1      38.554  37.815  40.197  1.00  0.00    -0.744 OA
ENDBRANCH  96  97
ENDBRANCH  64  89
ENDBRANCH  38  39
ENDBRANCH  30  33
ENDBRANCH  28  29
ENDBRANCH  27  28
ENDBRANCH  26  27
ENDBRANCH   1  26
TORSDOF 19
ENDMDL
MODEL 3
REMARK VINA RESULT:     -10.2      3.264      8.922
REMARK SMILES C[C@H]1[C@@H]([NH2+]C[C@H]2CC[C@@H](C(=O)NCCCCCCNC(=O)c3ccc(-c4c5nc(c(-c6c(F)cc(S(=O)(=O)[O-])cc6F)c6ccc([nH]6)c(-c6c(F)cc(S(=O)(=O)[O-])cc6F)c6nc(c(-c7c(F)cc(S(=O)(=O)[O-])cc7F)c7ccc4[nH]7)C=C6)C=C5)cc3)CC2)CCC[C@@H]1C
REMARK SMILES IDX 15 1 14 2 13 3 12 4 10 5 11 6 9 8 6 9 7 10 89 11 8 12 88 13
REMARK SMILES IDX 5 14 4 15 3 18 1 19 2 20 93 21 90 22 92 23 94 24 91 25 16 26
REMARK SMILES IDX 17 27 18 28 19 29 20 30 21 32 22 33 23 34 87 35 24 36 86 37
REMARK SMILES IDX 25 38 26 39 27 40 80 41 28 42 85 43 79 44 81 45 29 46 84 47
REMARK SMILES IDX 78 48 77 49 30 51 64 52 43 53 63 54 44 55 47 56 62 57 82 58
REMARK SMILES IDX 45 59 46 60 61 62 83 63 48 64 31 65 32 66 41 67 33 68 34 69
REMARK SMILES IDX 40 70 42 71 35 72 36 73 37 74 38 75 39 76 65 77 66 78 75 79
REMARK SMILES IDX 67 80 68 81 74 82 76 83 69 84 70 85 71 86 72 87 73 88 49 89
REMARK SMILES IDX 50 90 59 91 51 92 52 93 58 94 60 95 53 96 54 97 55 98 56 99
REMARK SMILES IDX 57 100
REMARK H PARENT 12 7 4 16 4 17 19 31 81 50 47 61
REMARK Flexibility Score: inf
ROOT
ATOM      1  C   UNL A   1      38.411  21.614  25.500  1.00  0.00     0.002 C 
ENDROOT
BRANCH   1   2
ATOM      2  C   UNL A   1      37.348  20.626  25.021  1.00  0.00     0.021 C 
BRANCH   2   3
ATOM      3  C   UNL A   1      35.931  21.185  24.982  1.00  0.00     0.116 C 
BRANCH   3   4
ATOM      4  N   UNL A   1      35.906  22.612  24.729  1.00  0.00    -0.356 N 
ATOM      5  C   UNL A   1      34.871  23.497  24.775  1.00  0.00     0.223 C 
ATOM      6  O   UNL A   1      35.125  24.682  24.534  1.00  0.00    -0.275 OA
ATOM      7  H   UNL A   1      36.775  23.004  24.484  1.00  0.00     0.163 HD
BRANCH   5   8
ATOM      8  C   UNL A   1      33.438  23.071  25.097  1.00  0.00     0.078 C 
ATOM      9  C   UNL A   1      30.611  23.580  25.954  1.00  0.00     0.044 C 
ATOM     10  C   UNL A   1      30.985  23.289  24.495  1.00  0.00     0.010 C 
ATOM     11  C   UNL A   1      31.636  22.960  26.918  1.00  0.00     0.010 C 
ATOM     12  C   UNL A   1      32.411  23.668  24.128  1.00  0.00     0.014 C 
ATOM     13  C   UNL A   1      33.103  23.245  26.581  1.00  0.00     0.014 C 
BRANCH   9  14
ATOM     14  C   UNL A   1      30.235  25.061  26.243  1.00  0.00     0.264 C 
BRANCH  14  15
ATOM     15  N   UNL A   1      31.331  25.941  26.621  1.00  0.00    -0.343 N 
ATOM     16  H   UNL A   1      31.467  25.833  27.626  1.00  0.00     0.346 HD
ATOM     17  H   UNL A   1      32.100  25.643  26.020  1.00  0.00     0.346 HD
BRANCH  15  18
ATOM     18  C   UNL A   1      31.217  27.392  26.354  1.00  0.00     0.185 C 
ATOM     19  C   UNL A   1      31.092  27.123  23.786  1.00  0.00     0.014 C 
ATOM     20  C   UNL A   1      31.778  27.830  24.963  1.00  0.00     0.047 C 
ATOM     21  C   UNL A   1      33.320  27.741  24.958  1.00  0.00    -0.006 C 
ATOM     22  C   UNL A   1      31.754  28.357  27.425  1.00  0.00     0.065 C 
ATOM     23  C   UNL A   1      33.884  28.697  26.028  1.00  0.00     0.004 C 
ATOM     24  C   UNL A   1      33.945  28.070  23.599  1.00  0.00     0.008 C 
ATOM     25  C   UNL A   1      33.272  28.538  27.421  1.00  0.00     0.006 C 
ENDBRANCH  15  18
ENDBRANCH  14  15
ENDBRANCH   9  14
ENDBRANCH   5   8
ENDBRANCH   3   4
ENDBRANCH   2   3
ENDBRANCH   1   2
BRANCH   1  26
ATOM     26  C   UNL A   1      39.664  20.978  26.113  1.00  0.00     0.002 C 
BRANCH  26  27
ATOM     27  C   UNL A   1      40.522  21.894  26.994  1.00  0.00     0.021 C 
BRANCH  27  28
ATOM     28  C   UNL A   1      40.121  23.368  26.998  1.00  0.00     0.116 C 
BRANCH  28  29
ATOM     29  N   UNL A   1      40.876  24.147  26.030  1.00  0.00    -0.352 N 
ATOM     30  C   UNL A   1      41.273  25.459  26.064  1.00  0.00     0.251 C 
ATOM     31  H   UNL A   1      41.145  23.653  25.222  1.00  0.00     0.163 HD
ATOM     32  O   UNL A   1      41.735  25.976  25.049  1.00  0.00    -0.269 OA
BRANCH  30  33
ATOM     33  C   UNL A   1      41.140  26.261  27.302  1.00  0.00     0.039 A 
ATOM     34  C   UNL A   1      41.976  27.368  27.477  1.00  0.00     0.014 A 
ATOM     35  C   UNL A   1      40.238  25.905  28.308  1.00  0.00     0.014 A 
ATOM     36  C   UNL A   1      41.869  28.148  28.631  1.00  0.00     0.010 A 
ATOM     37  C   UNL A   1      40.091  26.717  29.432  1.00  0.00     0.010 A 
ATOM     38  C   UNL A   1      40.905  27.847  29.607  1.00  0.00    -0.014 A 
BRANCH  38  39
ATOM     39  C   UNL A   1      40.728  28.712  30.803  1.00  0.00     0.031 A 
ATOM     40  C   UNL A   1      39.671  29.782  30.823  1.00  0.00     0.074 A 
ATOM     41  C   UNL A   1      41.565  28.572  31.850  1.00  0.00     0.049 A 
ATOM     42  N   UNL A   1      39.411  30.669  31.751  1.00  0.00    -0.248 NA
ATOM     43  C   UNL A   1      38.805  29.884  29.639  1.00  0.00     0.031 C 
ATOM     44  C   UNL A   1      42.660  27.603  31.934  1.00  0.00     0.029 A 
ATOM     45  N   UNL A   1      41.634  29.253  33.041  1.00  0.00    -0.354 N 
ATOM     46  C   UNL A   1      38.366  31.441  31.259  1.00  0.00     0.074 A 
ATOM     47  C   UNL A   1      38.066  30.945  29.932  1.00  0.00     0.031 C 
ATOM     48  C   UNL A   1      43.280  27.740  33.116  1.00  0.00     0.029 A 
ATOM     49  C   UNL A   1      42.652  28.827  33.861  1.00  0.00     0.049 A 
ATOM     50  H   UNL A   1      41.013  29.976  33.284  1.00  0.00     0.167 HD
ATOM     51  C   UNL A   1      37.702  32.456  31.864  1.00  0.00     0.037 A 
ATOM     52  C   UNL A   1      43.042  29.266  35.074  1.00  0.00     0.037 A 
ATOM     53  C   UNL A   1      37.987  32.928  33.195  1.00  0.00     0.049 A 
ATOM     54  C   UNL A   1      42.285  30.388  35.729  1.00  0.00     0.074 A 
ATOM     55  C   UNL A   1      37.330  33.911  33.917  1.00  0.00     0.029 A 
ATOM     56  N   UNL A   1      39.009  32.455  34.004  1.00  0.00    -0.354 N 
ATOM     57  N   UNL A   1      41.260  31.067  35.272  1.00  0.00    -0.248 NA
ATOM     58  C   UNL A   1      42.734  30.802  37.066  1.00  0.00     0.031 C 
ATOM     59  C   UNL A   1      37.981  34.059  35.147  1.00  0.00     0.029 A 
ATOM     60  C   UNL A   1      39.015  33.138  35.209  1.00  0.00     0.049 A 
ATOM     61  H   UNL A   1      39.638  31.740  33.757  1.00  0.00     0.167 HD
ATOM     62  C   UNL A   1      40.926  31.970  36.275  1.00  0.00     0.074 A 
ATOM     63  C   UNL A   1      41.851  31.744  37.366  1.00  0.00     0.031 C 
ATOM     64  C   UNL A   1      39.941  32.902  36.289  1.00  0.00     0.037 A 
BRANCH  51  65
ATOM     65  C   UNL A   1      36.599  33.126  31.091  1.00  0.00     0.058 A 
ATOM     66  C   UNL A   1      35.250  32.972  31.451  1.00  0.00     0.135 A 
ATOM     67  C   UNL A   1      36.894  33.961  30.003  1.00  0.00     0.135 A 
ATOM     68  F   UNL A   1      34.911  32.174  32.475  1.00  0.00    -0.206 F 
ATOM     69  C   UNL A   1      34.231  33.595  30.737  1.00  0.00     0.059 A 
ATOM     70  C   UNL A   1      35.893  34.617  29.291  1.00  0.00     0.059 A 
ATOM     71  F   UNL A   1      38.167  34.146  29.617  1.00  0.00    -0.206 F 
ATOM     72  C   UNL A   1      34.563  34.414  29.656  1.00  0.00     0.060 A 
BRANCH  72  73
ATOM     73  S   UNL A   1      33.229  35.215  28.740  1.00  0.00     0.124 S 
ATOM     74  O   UNL A   1      32.392  35.716  29.825  1.00  0.00    -0.237 OA
ATOM     75  O   UNL A   1      33.942  36.228  27.969  1.00  0.00    -0.237 OA
ATOM     76  O   UNL A   1      32.655  34.125  27.956  1.00  0.00    -0.744 OA
ENDBRANCH  72  73
ENDBRANCH  51  65
BRANCH  52  77
ATOM     77  C   UNL A   1      44.195  28.622  35.756  1.00  0.00     0.058 A 
ATOM     78  C   UNL A   1      45.505  29.073  35.535  1.00  0.00     0.135 A 
ATOM     79  C   UNL A   1      44.010  27.563  36.657  1.00  0.00     0.135 A 
ATOM     80  F   UNL A   1      45.733  30.079  34.678  1.00  0.00    -0.206 F 
ATOM     81  C   UNL A   1      46.594  28.487  36.173  1.00  0.00     0.059 A 
ATOM     82  C   UNL A   1      45.080  26.976  37.325  1.00  0.00     0.059 A 
ATOM     83  F   UNL A   1      42.773  27.108  36.915  1.00  0.00    -0.206 F 
ATOM     84  C   UNL A   1      46.370  27.440  37.070  1.00  0.00     0.060 A 
BRANCH  84  85
ATOM     85  S   UNL A   1      47.783  26.722  37.936  1.00  0.00     0.124 S 
ATOM     86  O   UNL A   1      48.551  27.913  38.282  1.00  0.00    -0.237 OA
ATOM     87  O   UNL A   1      47.142  26.030  39.049  1.00  0.00    -0.237 OA
ATOM     88  O   UNL A   1      48.385  25.852  36.930  1.00  0.00    -0.744 OA
ENDBRANCH  84  85
ENDBRANCH  52  77
BRANCH  64  89
ATOM     89  C   UNL A   1      39.791  33.730  37.535  1.00  0.00     0.058 A 
ATOM     90  C   UNL A   1      40.485  34.938  37.704  1.00  0.00     0.135 A 
ATOM     91  C   UNL A   1      38.906  33.335  38.551  1.00  0.00     0.135 A 
ATOM     92  F   UNL A   1      41.349  35.358  36.765  1.00  0.00    -0.206 F 
ATOM     93  C   UNL A   1      40.325  35.715  38.846  1.00  0.00     0.059 A 
ATOM     94  C   UNL A   1      38.711  34.109  39.690  1.00  0.00     0.059 A 
ATOM     95  F   UNL A   1      38.211  32.193  38.434  1.00  0.00    -0.206 F 
ATOM     96  C   UNL A   1      39.433  35.292  39.834  1.00  0.00     0.060 A 
BRANCH  96  97
ATOM     97  S   UNL A   1      39.207  36.325  41.298  1.00  0.00     0.124 S 
ATOM     98  O   UNL A   1      38.005  35.742  41.885  1.00  0.00    -0.237 OA
ATOM     99  O   UNL A   1      40.446  36.100  42.035  1.00  0.00    -0.237 OA
ATOM    100  O   UNL A   1      39.049  37.666  40.745  1.00  0.00    -0.744 OA
ENDBRANCH  96  97
ENDBRANCH  64  89
ENDBRANCH  38  39
ENDBRANCH  30  33
ENDBRANCH  28  29
ENDBRANCH  27  28
ENDBRANCH  26  27
ENDBRANCH   1  26
TORSDOF 19
ENDMDL
