MODEL 1
REMARK VINA RESULT:     -10.6      0.000      0.000
REMARK SMILES O=C(CNc1nc(-c2ccccc2)c(-c2ccccc2)s1)NCCCCCCNC(=O)c1ccc(-c2c3nc(c(-c4c(F)cc(S(=O)(=O)[O-])cc4F)c4ccc([nH]4)c(-c4c(F)cc(S(=O)(=O)[O-])cc4F)c4nc(c(-c5c(F)cc(S(=O)(=O)[O-])cc5F)c5ccc2[nH]5)C=C4)C=C3)cc1
REMARK SMILES IDX 25 1 24 2 23 3 22 4 1 5 2 6 3 8 4 9 5 11 6 12 21 13 7 14
REMARK SMILES IDX 14 15 8 16 9 17 13 18 10 19 12 20 11 21 15 22 16 23 20 24
REMARK SMILES IDX 17 25 19 26 18 27 26 28 27 29 28 30 29 31 30 32 31 34 32 35
REMARK SMILES IDX 33 36 97 37 34 38 96 39 35 40 36 41 37 42 90 43 38 44 95 45
REMARK SMILES IDX 89 46 91 47 39 48 94 49 88 50 87 51 40 53 74 54 53 55 73 56
REMARK SMILES IDX 54 57 57 58 72 59 92 60 55 61 56 62 71 64 93 65 58 66 41 67
REMARK SMILES IDX 42 68 51 69 43 70 44 71 50 72 52 73 45 74 46 75 47 76 48 77
REMARK SMILES IDX 49 78 75 79 76 80 85 81 77 82 78 83 84 84 86 85 79 86 80 87
REMARK SMILES IDX 81 88 82 89 83 90 59 91 60 92 69 93 61 94 62 95 68 96 70 97
REMARK SMILES IDX 63 98 64 99 65 100 66 101 67 102
REMARK H PARENT 22 7 4 10 29 33 91 52 57 63
REMARK Flexibility Score: inf
ROOT
ATOM      1  C   UNL A   1      42.028  20.047  26.982  1.00  0.00     0.002 C 
ENDROOT
BRANCH   1   2
ATOM      2  C   UNL A   1      42.264  19.007  25.876  1.00  0.00     0.021 C 
BRANCH   2   3
ATOM      3  C   UNL A   1      43.526  18.162  26.049  1.00  0.00     0.116 C 
BRANCH   3   4
ATOM      4  N   UNL A   1      44.725  18.938  25.817  1.00  0.00    -0.355 N 
ATOM      5  O   UNL A   1      44.899  18.572  23.549  1.00  0.00    -0.273 OA
ATOM      6  C   UNL A   1      45.322  19.086  24.579  1.00  0.00     0.239 C 
ATOM      7  H   UNL A   1      45.140  19.390  26.588  1.00  0.00     0.163 HD
BRANCH   6   8
ATOM      8  C   UNL A   1      46.607  19.929  24.625  1.00  0.00     0.215 C 
BRANCH   8   9
ATOM      9  N   UNL A   1      46.325  21.270  24.130  1.00  0.00    -0.352 N 
ATOM     10  H   UNL A   1      46.206  21.409  23.163  1.00  0.00     0.163 HD
BRANCH   9  11
ATOM     11  C   UNL A   1      46.223  22.323  24.959  1.00  0.00     0.184 A 
ATOM     12  N   UNL A   1      45.616  22.330  26.121  1.00  0.00    -0.220 NA
ATOM     13  S   UNL A   1      46.902  23.828  24.477  1.00  0.00    -0.096 S 
ATOM     14  C   UNL A   1      45.646  23.605  26.664  1.00  0.00     0.091 A 
ATOM     15  C   UNL A   1      46.261  24.572  25.883  1.00  0.00     0.064 A 
BRANCH  14  16
ATOM     16  C   UNL A   1      45.080  23.882  27.975  1.00  0.00     0.002 A 
ATOM     17  C   UNL A   1      45.651  24.847  28.815  1.00  0.00     0.010 A 
ATOM     18  C   UNL A   1      43.995  23.126  28.433  1.00  0.00     0.010 A 
ATOM     19  C   UNL A   1      45.165  25.026  30.112  1.00  0.00     0.001 A 
ATOM     20  C   UNL A   1      43.514  23.303  29.732  1.00  0.00     0.001 A 
ATOM     21  C   UNL A   1      44.103  24.248  30.572  1.00  0.00     0.000 A 
ENDBRANCH  14  16
BRANCH  15  22
ATOM     22  C   UNL A   1      46.447  26.005  26.098  1.00  0.00    -0.006 A 
ATOM     23  C   UNL A   1      47.636  26.487  26.665  1.00  0.00     0.009 A 
ATOM     24  C   UNL A   1      45.466  26.920  25.692  1.00  0.00     0.009 A 
ATOM     25  C   UNL A   1      47.840  27.859  26.822  1.00  0.00     0.001 A 
ATOM     26  C   UNL A   1      45.671  28.292  25.851  1.00  0.00     0.001 A 
ATOM     27  C   UNL A   1      46.857  28.760  26.414  1.00  0.00     0.000 A 
ENDBRANCH  15  22
ENDBRANCH   9  11
ENDBRANCH   8   9
ENDBRANCH   6   8
ENDBRANCH   3   4
ENDBRANCH   2   3
ENDBRANCH   1   2
BRANCH   1  28
ATOM     28  C   UNL A   1      40.704  20.813  26.898  1.00  0.00     0.002 C 
BRANCH  28  29
ATOM     29  C   UNL A   1      40.607  22.053  27.788  1.00  0.00     0.021 C 
BRANCH  29  30
ATOM     30  C   UNL A   1      40.138  23.322  27.083  1.00  0.00     0.116 C 
BRANCH  30  31
ATOM     31  N   UNL A   1      41.144  23.863  26.180  1.00  0.00    -0.352 N 
ATOM     32  C   UNL A   1      41.821  25.057  26.240  1.00  0.00     0.251 C 
ATOM     33  H   UNL A   1      41.373  23.288  25.415  1.00  0.00     0.163 HD
ATOM     34  O   UNL A   1      42.509  25.416  25.287  1.00  0.00    -0.269 OA
BRANCH  32  35
ATOM     35  C   UNL A   1      41.704  25.919  27.438  1.00  0.00     0.039 A 
ATOM     36  C   UNL A   1      42.704  26.862  27.695  1.00  0.00     0.014 A 
ATOM     37  C   UNL A   1      40.617  25.800  28.307  1.00  0.00     0.014 A 
ATOM     38  C   UNL A   1      42.577  27.729  28.783  1.00  0.00     0.010 A 
ATOM     39  C   UNL A   1      40.454  26.715  29.346  1.00  0.00     0.010 A 
ATOM     40  C   UNL A   1      41.433  27.688  29.597  1.00  0.00    -0.014 A 
BRANCH  40  41
ATOM     41  C   UNL A   1      41.238  28.662  30.706  1.00  0.00     0.031 A 
ATOM     42  C   UNL A   1      42.109  28.600  31.932  1.00  0.00     0.074 A 
ATOM     43  C   UNL A   1      40.237  29.561  30.635  1.00  0.00     0.049 A 
ATOM     44  N   UNL A   1      42.057  29.325  33.020  1.00  0.00    -0.248 NA
ATOM     45  C   UNL A   1      43.162  27.572  31.948  1.00  0.00     0.031 C 
ATOM     46  C   UNL A   1      39.298  29.695  29.519  1.00  0.00     0.029 A 
ATOM     47  N   UNL A   1      39.835  30.529  31.522  1.00  0.00    -0.354 N 
ATOM     48  C   UNL A   1      43.056  28.834  33.853  1.00  0.00     0.074 A 
ATOM     49  C   UNL A   1      43.661  27.713  33.167  1.00  0.00     0.031 C 
ATOM     50  C   UNL A   1      38.451  30.706  29.774  1.00  0.00     0.029 A 
ATOM     51  C   UNL A   1      38.755  31.264  31.088  1.00  0.00     0.049 A 
ATOM     52  H   UNL A   1      40.278  30.684  32.387  1.00  0.00     0.167 HD
ATOM     53  C   UNL A   1      43.449  29.289  35.068  1.00  0.00     0.037 A 
ATOM     54  C   UNL A   1      38.082  32.267  31.684  1.00  0.00     0.037 A 
ATOM     55  C   UNL A   1      42.850  30.415  35.738  1.00  0.00     0.049 A 
ATOM     56  C   UNL A   1      38.520  32.738  33.045  1.00  0.00     0.074 A 
ATOM     57  C   UNL A   1      43.213  30.990  36.944  1.00  0.00     0.029 A 
ATOM     58  N   UNL A   1      41.758  31.131  35.268  1.00  0.00    -0.354 N 
ATOM     59  N   UNL A   1      39.512  32.308  33.788  1.00  0.00    -0.248 NA
ATOM     60  C   UNL A   1      37.747  33.832  33.649  1.00  0.00     0.031 C 
ATOM     61  C   UNL A   1      42.304  32.015  37.230  1.00  0.00     0.029 A 
ATOM     62  C   UNL A   1      41.415  32.122  36.173  1.00  0.00     0.049 A 
ATOM     63  H   UNL A   1      41.295  30.959  34.416  1.00  0.00     0.167 HD
ATOM     64  C   UNL A   1      39.506  33.103  34.928  1.00  0.00     0.074 A 
ATOM     65  C   UNL A   1      38.416  34.044  34.775  1.00  0.00     0.031 C 
ATOM     66  C   UNL A   1      40.330  33.059  36.006  1.00  0.00     0.037 A 
BRANCH  53  67
ATOM     67  C   UNL A   1      44.577  28.562  35.753  1.00  0.00     0.058 A 
ATOM     68  C   UNL A   1      45.923  28.876  35.503  1.00  0.00     0.135 A 
ATOM     69  C   UNL A   1      44.307  27.550  36.691  1.00  0.00     0.135 A 
ATOM     70  F   UNL A   1      46.241  29.826  34.609  1.00  0.00    -0.206 F 
ATOM     71  C   UNL A   1      46.960  28.187  36.123  1.00  0.00     0.059 A 
ATOM     72  C   UNL A   1      45.330  26.871  37.348  1.00  0.00     0.059 A 
ATOM     73  F   UNL A   1      43.041  27.209  36.973  1.00  0.00    -0.206 F 
ATOM     74  C   UNL A   1      46.653  27.183  37.042  1.00  0.00     0.060 A 
BRANCH  74  75
ATOM     75  S   UNL A   1      48.011  26.289  37.826  1.00  0.00     0.124 S 
ATOM     76  O   UNL A   1      47.838  24.950  37.268  1.00  0.00    -0.237 OA
ATOM     77  O   UNL A   1      49.181  27.023  37.356  1.00  0.00    -0.237 OA
ATOM     78  O   UNL A   1      47.725  26.415  39.252  1.00  0.00    -0.744 OA
ENDBRANCH  74  75
ENDBRANCH  53  67
BRANCH  54  79
ATOM     79  C   UNL A   1      36.939  32.916  30.984  1.00  0.00     0.058 A 
ATOM     80  C   UNL A   1      37.157  33.781  29.901  1.00  0.00     0.135 A 
ATOM     81  C   UNL A   1      35.611  32.681  31.374  1.00  0.00     0.135 A 
ATOM     82  F   UNL A   1      38.408  34.043  29.494  1.00  0.00    -0.206 F 
ATOM     83  C   UNL A   1      36.103  34.402  29.240  1.00  0.00     0.059 A 
ATOM     84  C   UNL A   1      34.539  33.271  30.711  1.00  0.00     0.059 A 
ATOM     85  F   UNL A   1      35.346  31.852  32.395  1.00  0.00    -0.206 F 
ATOM     86  C   UNL A   1      34.796  34.138  29.650  1.00  0.00     0.060 A 
BRANCH  86  87
ATOM     87  S   UNL A   1      33.434  34.914  28.753  1.00  0.00     0.124 S 
ATOM     88  O   UNL A   1      34.060  36.141  28.274  1.00  0.00    -0.237 OA
ATOM     89  O   UNL A   1      33.128  33.913  27.736  1.00  0.00    -0.237 OA
ATOM     90  O   UNL A   1      32.411  35.087  29.780  1.00  0.00    -0.744 OA
ENDBRANCH  86  87
ENDBRANCH  54  79
BRANCH  66  91
ATOM     91  C   UNL A   1      40.116  34.084  37.087  1.00  0.00     0.058 A 
ATOM     92  C   UNL A   1      39.252  33.852  38.169  1.00  0.00     0.135 A 
ATOM     93  C   UNL A   1      40.826  35.296  37.065  1.00  0.00     0.135 A 
ATOM     94  F   UNL A   1      38.543  32.715  38.238  1.00  0.00    -0.206 F 
ATOM     95  C   UNL A   1      39.081  34.797  39.178  1.00  0.00     0.059 A 
ATOM     96  C   UNL A   1      40.694  36.240  38.078  1.00  0.00     0.059 A 
ATOM     97  F   UNL A   1      41.673  35.566  36.059  1.00  0.00    -0.206 F 
ATOM     98  C   UNL A   1      39.810  35.987  39.124  1.00  0.00     0.060 A 
BRANCH  98  99
ATOM     99  S   UNL A   1      39.605  37.187  40.458  1.00  0.00     0.124 S 
ATOM    100  O   UNL A   1      40.605  38.190  40.107  1.00  0.00    -0.237 OA
ATOM    101  O   UNL A   1      38.213  37.596  40.298  1.00  0.00    -0.237 OA
ATOM    102  O   UNL A   1      39.890  36.410  41.661  1.00  0.00    -0.744 OA
ENDBRANCH  98  99
ENDBRANCH  66  91
ENDBRANCH  40  41
ENDBRANCH  32  35
ENDBRANCH  30  31
ENDBRANCH  29  30
ENDBRANCH  28  29
ENDBRANCH   1  28
TORSDOF 20
ENDMDL
MODEL 2
REMARK VINA RESULT:     -10.1      1.340      2.747
REMARK SMILES O=C(CNc1nc(-c2ccccc2)c(-c2ccccc2)s1)NCCCCCCNC(=O)c1ccc(-c2c3nc(c(-c4c(F)cc(S(=O)(=O)[O-])cc4F)c4ccc([nH]4)c(-c4c(F)cc(S(=O)(=O)[O-])cc4F)c4nc(c(-c5c(F)cc(S(=O)(=O)[O-])cc5F)c5ccc2[nH]5)C=C4)C=C3)cc1
REMARK SMILES IDX 25 1 24 2 23 3 22 4 1 5 2 6 3 8 4 9 5 11 6 12 21 13 7 14
REMARK SMILES IDX 14 15 8 16 9 17 13 18 10 19 12 20 11 21 15 22 16 23 20 24
REMARK SMILES IDX 17 25 19 26 18 27 26 28 27 29 28 30 29 31 30 32 31 34 32 35
REMARK SMILES IDX 33 36 97 37 34 38 96 39 35 40 36 41 37 42 90 43 38 44 95 45
REMARK SMILES IDX 89 46 91 47 39 48 94 49 88 50 87 51 40 53 74 54 53 55 73 56
REMARK SMILES IDX 54 57 57 58 72 59 92 60 55 61 56 62 71 64 93 65 58 66 41 67
REMARK SMILES IDX 42 68 51 69 43 70 44 71 50 72 52 73 45 74 46 75 47 76 48 77
REMARK SMILES IDX 49 78 75 79 76 80 85 81 77 82 78 83 84 84 86 85 79 86 80 87
REMARK SMILES IDX 81 88 82 89 83 90 59 91 60 92 69 93 61 94 62 95 68 96 70 97
REMARK SMILES IDX 63 98 64 99 65 100 66 101 67 102
REMARK H PARENT 22 7 4 10 29 33 91 52 57 63
REMARK Flexibility Score: inf
ROOT
ATOM      1  C   UNL A   1      42.368  19.422  27.223  1.00  0.00     0.002 C 
ENDROOT
BRANCH   1   2
ATOM      2  C   UNL A   1      42.757  18.399  26.145  1.00  0.00     0.021 C 
BRANCH   2   3
ATOM      3  C   UNL A   1      44.143  18.608  25.534  1.00  0.00     0.116 C 
BRANCH   3   4
ATOM      4  N   UNL A   1      44.560  19.991  25.616  1.00  0.00    -0.355 N 
ATOM      5  O   UNL A   1      44.529  20.460  23.360  1.00  0.00    -0.273 OA
ATOM      6  C   UNL A   1      44.720  20.816  24.517  1.00  0.00     0.239 C 
ATOM      7  H   UNL A   1      44.739  20.369  26.508  1.00  0.00     0.163 HD
BRANCH   6   8
ATOM      8  C   UNL A   1      45.211  22.225  24.888  1.00  0.00     0.215 C 
BRANCH   8   9
ATOM      9  N   UNL A   1      45.233  22.366  26.338  1.00  0.00    -0.352 N 
ATOM     10  H   UNL A   1      44.738  21.719  26.890  1.00  0.00     0.163 HD
BRANCH   9  11
ATOM     11  C   UNL A   1      45.915  23.355  26.942  1.00  0.00     0.184 A 
ATOM     12  N   UNL A   1      47.121  23.760  26.627  1.00  0.00    -0.220 NA
ATOM     13  S   UNL A   1      45.193  24.165  28.277  1.00  0.00    -0.096 S 
ATOM     14  C   UNL A   1      47.535  24.748  27.509  1.00  0.00     0.091 A 
ATOM     15  C   UNL A   1      46.633  25.065  28.514  1.00  0.00     0.064 A 
BRANCH  14  16
ATOM     16  C   UNL A   1      48.823  25.405  27.357  1.00  0.00     0.002 A 
ATOM     17  C   UNL A   1      49.893  25.093  28.206  1.00  0.00     0.010 A 
ATOM     18  C   UNL A   1      48.976  26.413  26.399  1.00  0.00     0.010 A 
ATOM     19  C   UNL A   1      51.090  25.807  28.119  1.00  0.00     0.001 A 
ATOM     20  C   UNL A   1      50.172  27.130  26.317  1.00  0.00     0.001 A 
ATOM     21  C   UNL A   1      51.225  26.831  27.182  1.00  0.00     0.000 A 
ENDBRANCH  14  16
BRANCH  15  22
ATOM     22  C   UNL A   1      46.729  26.007  29.627  1.00  0.00    -0.006 A 
ATOM     23  C   UNL A   1      47.235  25.590  30.866  1.00  0.00     0.009 A 
ATOM     24  C   UNL A   1      46.368  27.350  29.456  1.00  0.00     0.009 A 
ATOM     25  C   UNL A   1      47.378  26.499  31.915  1.00  0.00     0.001 A 
ATOM     26  C   UNL A   1      46.511  28.259  30.506  1.00  0.00     0.001 A 
ATOM     27  C   UNL A   1      47.016  27.833  31.734  1.00  0.00     0.000 A 
ENDBRANCH  15  22
ENDBRANCH   9  11
ENDBRANCH   8   9
ENDBRANCH   6   8
ENDBRANCH   3   4
ENDBRANCH   2   3
ENDBRANCH   1   2
BRANCH   1  28
ATOM     28  C   UNL A   1      41.191  20.339  26.869  1.00  0.00     0.002 C 
BRANCH  28  29
ATOM     29  C   UNL A   1      41.102  21.632  27.681  1.00  0.00     0.021 C 
BRANCH  29  30
ATOM     30  C   UNL A   1      40.640  22.857  26.899  1.00  0.00     0.116 C 
BRANCH  30  31
ATOM     31  N   UNL A   1      41.671  23.370  26.006  1.00  0.00    -0.352 N 
ATOM     32  C   UNL A   1      42.233  24.622  25.949  1.00  0.00     0.251 C 
ATOM     33  H   UNL A   1      42.015  22.723  25.348  1.00  0.00     0.163 HD
ATOM     34  O   UNL A   1      42.969  24.917  25.009  1.00  0.00    -0.269 OA
BRANCH  32  35
ATOM     35  C   UNL A   1      41.938  25.619  27.001  1.00  0.00     0.039 A 
ATOM     36  C   UNL A   1      40.859  25.396  27.863  1.00  0.00     0.014 A 
ATOM     37  C   UNL A   1      42.714  26.772  27.140  1.00  0.00     0.014 A 
ATOM     38  C   UNL A   1      40.605  26.293  28.904  1.00  0.00     0.010 A 
ATOM     39  C   UNL A   1      42.507  27.624  28.223  1.00  0.00     0.010 A 
ATOM     40  C   UNL A   1      41.450  27.395  29.116  1.00  0.00    -0.014 A 
BRANCH  40  41
ATOM     41  C   UNL A   1      41.248  28.311  30.271  1.00  0.00     0.031 A 
ATOM     42  C   UNL A   1      42.104  28.180  31.503  1.00  0.00     0.074 A 
ATOM     43  C   UNL A   1      40.254  29.221  30.236  1.00  0.00     0.049 A 
ATOM     44  N   UNL A   1      42.043  28.847  32.627  1.00  0.00    -0.248 NA
ATOM     45  C   UNL A   1      43.149  27.144  31.479  1.00  0.00     0.031 C 
ATOM     46  C   UNL A   1      39.330  29.420  29.117  1.00  0.00     0.029 A 
ATOM     47  N   UNL A   1      39.849  30.145  31.166  1.00  0.00    -0.354 N 
ATOM     48  C   UNL A   1      43.029  28.307  33.445  1.00  0.00     0.074 A 
ATOM     49  C   UNL A   1      43.634  27.218  32.710  1.00  0.00     0.031 C 
ATOM     50  C   UNL A   1      38.488  30.423  29.414  1.00  0.00     0.029 A 
ATOM     51  C   UNL A   1      38.780  30.909  30.759  1.00  0.00     0.049 A 
ATOM     52  H   UNL A   1      40.283  30.251  32.044  1.00  0.00     0.167 HD
ATOM     53  C   UNL A   1      43.410  28.695  34.687  1.00  0.00     0.037 A 
ATOM     54  C   UNL A   1      38.106  31.886  31.397  1.00  0.00     0.037 A 
ATOM     55  C   UNL A   1      42.811  29.790  35.407  1.00  0.00     0.049 A 
ATOM     56  C   UNL A   1      38.531  32.282  32.786  1.00  0.00     0.074 A 
ATOM     57  C   UNL A   1      43.163  30.299  36.645  1.00  0.00     0.029 A 
ATOM     58  N   UNL A   1      41.730  30.538  34.961  1.00  0.00    -0.354 N 
ATOM     59  N   UNL A   1      39.511  31.807  33.517  1.00  0.00    -0.248 NA
ATOM     60  C   UNL A   1      37.759  33.350  33.437  1.00  0.00     0.031 C 
ATOM     61  C   UNL A   1      42.258  31.315  36.973  1.00  0.00     0.029 A 
ATOM     62  C   UNL A   1      41.382  31.483  35.913  1.00  0.00     0.049 A 
ATOM     63  H   UNL A   1      41.277  30.414  34.096  1.00  0.00     0.167 HD
ATOM     64  C   UNL A   1      39.496  32.542  34.697  1.00  0.00     0.074 A 
ATOM     65  C   UNL A   1      38.415  33.499  34.580  1.00  0.00     0.031 C 
ATOM     66  C   UNL A   1      40.307  32.436  35.781  1.00  0.00     0.037 A 
BRANCH  53  67
ATOM     67  C   UNL A   1      44.524  27.925  35.347  1.00  0.00     0.058 A 
ATOM     68  C   UNL A   1      44.277  26.782  36.125  1.00  0.00     0.135 A 
ATOM     69  C   UNL A   1      45.861  28.325  35.183  1.00  0.00     0.135 A 
ATOM     70  F   UNL A   1      43.018  26.360  36.326  1.00  0.00    -0.206 F 
ATOM     71  C   UNL A   1      45.307  26.088  36.750  1.00  0.00     0.059 A 
ATOM     72  C   UNL A   1      46.912  27.625  35.771  1.00  0.00     0.059 A 
ATOM     73  F   UNL A   1      46.159  29.407  34.449  1.00  0.00    -0.206 F 
ATOM     74  C   UNL A   1      46.622  26.519  36.569  1.00  0.00     0.060 A 
BRANCH  74  75
ATOM     75  S   UNL A   1      47.946  25.616  37.400  1.00  0.00     0.124 S 
ATOM     76  O   UNL A   1      48.552  26.669  38.211  1.00  0.00    -0.237 OA
ATOM     77  O   UNL A   1      47.212  24.593  38.136  1.00  0.00    -0.237 OA
ATOM     78  O   UNL A   1      48.767  25.124  36.297  1.00  0.00    -0.744 OA
ENDBRANCH  74  75
ENDBRANCH  53  67
BRANCH  54  79
ATOM     79  C   UNL A   1      36.977  32.579  30.719  1.00  0.00     0.058 A 
ATOM     80  C   UNL A   1      35.647  32.256  31.026  1.00  0.00     0.135 A 
ATOM     81  C   UNL A   1      37.199  33.580  29.760  1.00  0.00     0.135 A 
ATOM     82  F   UNL A   1      35.380  31.301  31.931  1.00  0.00    -0.206 F 
ATOM     83  C   UNL A   1      34.578  32.886  30.398  1.00  0.00     0.059 A 
ATOM     84  C   UNL A   1      36.147  34.244  29.138  1.00  0.00     0.059 A 
ATOM     85  F   UNL A   1      38.452  33.938  29.439  1.00  0.00    -0.206 F 
ATOM     86  C   UNL A   1      34.839  33.883  29.457  1.00  0.00     0.060 A 
BRANCH  86  87
ATOM     87  S   UNL A   1      33.442  34.728  28.683  1.00  0.00     0.124 S 
ATOM     88  O   UNL A   1      34.088  35.909  28.122  1.00  0.00    -0.237 OA
ATOM     89  O   UNL A   1      32.981  33.734  27.719  1.00  0.00    -0.237 OA
ATOM     90  O   UNL A   1      32.537  34.973  29.801  1.00  0.00    -0.744 OA
ENDBRANCH  86  87
ENDBRANCH  54  79
BRANCH  66  91
ATOM     91  C   UNL A   1      40.087  33.406  36.911  1.00  0.00     0.058 A 
ATOM     92  C   UNL A   1      40.823  34.597  37.021  1.00  0.00     0.135 A 
ATOM     93  C   UNL A   1      39.090  33.163  37.870  1.00  0.00     0.135 A 
ATOM     94  F   UNL A   1      41.794  34.876  36.137  1.00  0.00    -0.206 F 
ATOM     95  C   UNL A   1      40.594  35.499  38.056  1.00  0.00     0.059 A 
ATOM     96  C   UNL A   1      38.823  34.066  38.894  1.00  0.00     0.059 A 
ATOM     97  F   UNL A   1      38.349  32.044  37.808  1.00  0.00    -0.206 F 
ATOM     98  C   UNL A   1      39.589  35.226  38.986  1.00  0.00     0.060 A 
BRANCH  98  99
ATOM     99  S   UNL A   1      39.280  36.423  40.301  1.00  0.00     0.124 S 
ATOM    100  O   UNL A   1      40.623  36.623  40.838  1.00  0.00    -0.237 OA
ATOM    101  O   UNL A   1      38.715  37.552  39.569  1.00  0.00    -0.237 OA
ATOM    102  O   UNL A   1      38.350  35.726  41.184  1.00  0.00    -0.744 OA
ENDBRANCH  98  99
ENDBRANCH  66  91
ENDBRANCH  40  41
ENDBRANCH  32  35
ENDBRANCH  30  31
ENDBRANCH  29  30
ENDBRANCH  28  29
ENDBRANCH   1  28
TORSDOF 20
ENDMDL
MODEL 3
REMARK VINA RESULT:     -10.0      4.067     11.486
REMARK SMILES O=C(CNc1nc(-c2ccccc2)c(-c2ccccc2)s1)NCCCCCCNC(=O)c1ccc(-c2c3nc(c(-c4c(F)cc(S(=O)(=O)[O-])cc4F)c4ccc([nH]4)c(-c4c(F)cc(S(=O)(=O)[O-])cc4F)c4nc(c(-c5c(F)cc(S(=O)(=O)[O-])cc5F)c5ccc2[nH]5)C=C4)C=C3)cc1
REMARK SMILES IDX 25 1 24 2 23 3 22 4 1 5 2 6 3 8 4 9 5 11 6 12 21 13 7 14
REMARK SMILES IDX 14 15 8 16 9 17 13 18 10 19 12 20 11 21 15 22 16 23 20 24
REMARK SMILES IDX 17 25 19 26 18 27 26 28 27 29 28 30 29 31 30 32 31 34 32 35
REMARK SMILES IDX 33 36 97 37 34 38 96 39 35 40 36 41 37 42 90 43 38 44 95 45
REMARK SMILES IDX 89 46 91 47 39 48 94 49 88 50 87 51 40 53 74 54 53 55 73 56
REMARK SMILES IDX 54 57 57 58 72 59 92 60 55 61 56 62 71 64 93 65 58 66 41 67
REMARK SMILES IDX 42 68 51 69 43 70 44 71 50 72 52 73 45 74 46 75 47 76 48 77
REMARK SMILES IDX 49 78 75 79 76 80 85 81 77 82 78 83 84 84 86 85 79 86 80 87
REMARK SMILES IDX 81 88 82 89 83 90 59 91 60 92 69 93 61 94 62 95 68 96 70 97
REMARK SMILES IDX 63 98 64 99 65 100 66 101 67 102
REMARK H PARENT 22 7 4 10 29 33 91 52 57 63
REMARK Flexibility Score: inf
ROOT
ATOM      1  C   UNL A   1      34.991  33.083  33.085  1.00  0.00     0.002 C 
ENDROOT
BRANCH   1   2
ATOM      2  C   UNL A   1      36.459  33.211  33.518  1.00  0.00     0.021 C 
BRANCH   2   3
ATOM      3  C   UNL A   1      37.414  32.225  32.844  1.00  0.00     0.116 C 
BRANCH   3   4
ATOM      4  N   UNL A   1      38.511  31.864  33.716  1.00  0.00    -0.355 N 
ATOM      5  O   UNL A   1      38.079  29.603  33.840  1.00  0.00    -0.273 OA
ATOM      6  C   UNL A   1      38.762  30.574  34.148  1.00  0.00     0.239 C 
ATOM      7  H   UNL A   1      39.117  32.579  34.018  1.00  0.00     0.163 HD
BRANCH   6   8
ATOM      8  C   UNL A   1      39.966  30.481  35.099  1.00  0.00     0.215 C 
BRANCH   8   9
ATOM      9  N   UNL A   1      41.144  30.060  34.351  1.00  0.00    -0.352 N 
ATOM     10  H   UNL A   1      41.436  30.593  33.578  1.00  0.00     0.163 HD
BRANCH   9  11
ATOM     11  C   UNL A   1      41.842  28.963  34.691  1.00  0.00     0.184 A 
ATOM     12  N   UNL A   1      42.634  28.847  35.730  1.00  0.00    -0.220 NA
ATOM     13  S   UNL A   1      41.750  27.574  33.681  1.00  0.00    -0.096 S 
ATOM     14  C   UNL A   1      43.245  27.602  35.725  1.00  0.00     0.091 A 
ATOM     15  C   UNL A   1      42.924  26.786  34.650  1.00  0.00     0.064 A 
BRANCH  14  16
ATOM     16  C   UNL A   1      44.142  27.196  36.795  1.00  0.00     0.002 A 
ATOM     17  C   UNL A   1      45.494  27.561  36.777  1.00  0.00     0.010 A 
ATOM     18  C   UNL A   1      43.665  26.370  37.819  1.00  0.00     0.010 A 
ATOM     19  C   UNL A   1      46.366  27.074  37.752  1.00  0.00     0.001 A 
ATOM     20  C   UNL A   1      44.540  25.880  38.792  1.00  0.00     0.001 A 
ATOM     21  C   UNL A   1      45.891  26.228  38.753  1.00  0.00     0.000 A 
ENDBRANCH  14  16
BRANCH  15  22
ATOM     22  C   UNL A   1      43.389  25.449  34.289  1.00  0.00    -0.006 A 
ATOM     23  C   UNL A   1      42.972  24.330  35.024  1.00  0.00     0.009 A 
ATOM     24  C   UNL A   1      44.213  25.260  33.171  1.00  0.00     0.009 A 
ATOM     25  C   UNL A   1      43.371  23.047  34.648  1.00  0.00     0.001 A 
ATOM     26  C   UNL A   1      44.612  23.975  32.796  1.00  0.00     0.001 A 
ATOM     27  C   UNL A   1      44.190  22.871  33.535  1.00  0.00     0.000 A 
ENDBRANCH  15  22
ENDBRANCH   9  11
ENDBRANCH   8   9
ENDBRANCH   6   8
ENDBRANCH   3   4
ENDBRANCH   2   3
ENDBRANCH   1   2
BRANCH   1  28
ATOM     28  C   UNL A   1      34.759  32.433  31.717  1.00  0.00     0.002 C 
BRANCH  28  29
ATOM     29  C   UNL A   1      34.597  33.406  30.548  1.00  0.00     0.021 C 
BRANCH  29  30
ATOM     30  C   UNL A   1      35.125  32.902  29.208  1.00  0.00     0.116 C 
BRANCH  30  31
ATOM     31  N   UNL A   1      34.301  31.839  28.649  1.00  0.00    -0.352 N 
ATOM     32  C   UNL A   1      34.658  30.573  28.254  1.00  0.00     0.251 C 
ATOM     33  H   UNL A   1      33.348  32.062  28.538  1.00  0.00     0.163 HD
ATOM     34  O   UNL A   1      33.852  29.875  27.641  1.00  0.00    -0.269 OA
BRANCH  32  35
ATOM     35  C   UNL A   1      36.015  30.058  28.544  1.00  0.00     0.039 A 
ATOM     36  C   UNL A   1      36.983  30.091  27.535  1.00  0.00     0.014 A 
ATOM     37  C   UNL A   1      36.337  29.543  29.802  1.00  0.00     0.014 A 
ATOM     38  C   UNL A   1      38.286  29.671  27.809  1.00  0.00     0.010 A 
ATOM     39  C   UNL A   1      37.654  29.197  30.095  1.00  0.00     0.010 A 
ATOM     40  C   UNL A   1      38.644  29.256  29.103  1.00  0.00    -0.014 A 
BRANCH  40  41
ATOM     41  C   UNL A   1      40.047  28.890  29.437  1.00  0.00     0.031 A 
ATOM     42  C   UNL A   1      40.931  29.863  30.171  1.00  0.00     0.074 A 
ATOM     43  C   UNL A   1      40.544  27.707  29.025  1.00  0.00     0.049 A 
ATOM     44  N   UNL A   1      42.192  29.746  30.502  1.00  0.00    -0.248 NA
ATOM     45  C   UNL A   1      40.327  31.146  30.562  1.00  0.00     0.031 C 
ATOM     46  C   UNL A   1      39.801  26.695  28.270  1.00  0.00     0.029 A 
ATOM     47  N   UNL A   1      41.792  27.155  29.175  1.00  0.00    -0.354 N 
ATOM     48  C   UNL A   1      42.534  30.941  31.127  1.00  0.00     0.074 A 
ATOM     49  C   UNL A   1      41.363  31.790  31.077  1.00  0.00     0.031 C 
ATOM     50  C   UNL A   1      40.597  25.636  28.051  1.00  0.00     0.029 A 
ATOM     51  C   UNL A   1      41.918  25.908  28.609  1.00  0.00     0.049 A 
ATOM     52  H   UNL A   1      42.528  27.610  29.645  1.00  0.00     0.167 HD
ATOM     53  C   UNL A   1      43.707  31.290  31.708  1.00  0.00     0.037 A 
ATOM     54  C   UNL A   1      42.979  25.080  28.539  1.00  0.00     0.037 A 
ATOM     55  C   UNL A   1      44.864  30.432  31.766  1.00  0.00     0.049 A 
ATOM     56  C   UNL A   1      44.280  25.501  29.169  1.00  0.00     0.074 A 
ATOM     57  C   UNL A   1      46.080  30.670  32.381  1.00  0.00     0.029 A 
ATOM     58  N   UNL A   1      44.953  29.178  31.178  1.00  0.00    -0.354 N 
ATOM     59  N   UNL A   1      44.565  26.605  29.817  1.00  0.00    -0.248 NA
ATOM     60  C   UNL A   1      45.405  24.561  29.060  1.00  0.00     0.031 C 
ATOM     61  C   UNL A   1      46.924  29.585  32.116  1.00  0.00     0.029 A 
ATOM     62  C   UNL A   1      46.213  28.643  31.391  1.00  0.00     0.049 A 
ATOM     63  H   UNL A   1      44.226  28.734  30.683  1.00  0.00     0.167 HD
ATOM     64  C   UNL A   1      45.888  26.477  30.224  1.00  0.00     0.074 A 
ATOM     65  C   UNL A   1      46.346  25.186  29.756  1.00  0.00     0.031 C 
ATOM     66  C   UNL A   1      46.655  27.351  30.925  1.00  0.00     0.037 A 
BRANCH  53  67
ATOM     67  C   UNL A   1      43.800  32.662  32.323  1.00  0.00     0.058 A 
ATOM     68  C   UNL A   1      43.667  32.866  33.706  1.00  0.00     0.135 A 
ATOM     69  C   UNL A   1      44.045  33.788  31.519  1.00  0.00     0.135 A 
ATOM     70  F   UNL A   1      43.420  31.829  34.522  1.00  0.00    -0.206 F 
ATOM     71  C   UNL A   1      43.732  34.138  34.265  1.00  0.00     0.059 A 
ATOM     72  C   UNL A   1      44.148  35.066  32.061  1.00  0.00     0.059 A 
ATOM     73  F   UNL A   1      44.184  33.655  30.191  1.00  0.00    -0.206 F 
ATOM     74  C   UNL A   1      43.970  35.233  33.434  1.00  0.00     0.060 A 
BRANCH  74  75
ATOM     75  S   UNL A   1      44.036  36.878  34.174  1.00  0.00     0.124 S 
ATOM     76  O   UNL A   1      45.234  37.431  33.548  1.00  0.00    -0.237 OA
ATOM     77  O   UNL A   1      42.771  37.464  33.746  1.00  0.00    -0.237 OA
ATOM     78  O   UNL A   1      44.147  36.604  35.604  1.00  0.00    -0.744 OA
ENDBRANCH  74  75
ENDBRANCH  53  67
BRANCH  54  79
ATOM     79  C   UNL A   1      42.848  23.756  27.872  1.00  0.00     0.058 A 
ATOM     80  C   UNL A   1      42.592  22.597  28.620  1.00  0.00     0.135 A 
ATOM     81  C   UNL A   1      42.967  23.620  26.480  1.00  0.00     0.135 A 
ATOM     82  F   UNL A   1      42.477  22.672  29.955  1.00  0.00    -0.206 F 
ATOM     83  C   UNL A   1      42.475  21.349  28.016  1.00  0.00     0.059 A 
ATOM     84  C   UNL A   1      42.827  22.387  25.850  1.00  0.00     0.059 A 
ATOM     85  F   UNL A   1      43.198  24.699  25.716  1.00  0.00    -0.206 F 
ATOM     86  C   UNL A   1      42.590  21.255  26.629  1.00  0.00     0.060 A 
BRANCH  86  87
ATOM     87  S   UNL A   1      42.388  19.637  25.852  1.00  0.00     0.124 S 
ATOM     88  O   UNL A   1      42.692  18.740  26.960  1.00  0.00    -0.237 OA
ATOM     89  O   UNL A   1      40.993  19.676  25.425  1.00  0.00    -0.237 OA
ATOM     90  O   UNL A   1      43.368  19.660  24.771  1.00  0.00    -0.744 OA
ENDBRANCH  86  87
ENDBRANCH  54  79
BRANCH  66  91
ATOM     91  C   UNL A   1      48.057  26.924  31.268  1.00  0.00     0.058 A 
ATOM     92  C   UNL A   1      48.356  26.250  32.464  1.00  0.00     0.135 A 
ATOM     93  C   UNL A   1      49.108  27.147  30.364  1.00  0.00     0.135 A 
ATOM     94  F   UNL A   1      47.392  26.017  33.368  1.00  0.00    -0.206 F 
ATOM     95  C   UNL A   1      49.652  25.837  32.761  1.00  0.00     0.059 A 
ATOM     96  C   UNL A   1      50.404  26.715  30.626  1.00  0.00     0.059 A 
ATOM     97  F   UNL A   1      48.877  27.778  29.201  1.00  0.00    -0.206 F 
ATOM     98  C   UNL A   1      50.669  26.071  31.833  1.00  0.00     0.060 A 
BRANCH  98  99
ATOM     99  S   UNL A   1      52.337  25.497  32.216  1.00  0.00     0.124 S 
ATOM    100  O   UNL A   1      52.590  26.160  33.491  1.00  0.00    -0.237 OA
ATOM    101  O   UNL A   1      52.162  24.050  32.276  1.00  0.00    -0.237 OA
ATOM    102  O   UNL A   1      53.130  25.981  31.090  1.00  0.00    -0.744 OA
ENDBRANCH  98  99
ENDBRANCH  66  91
ENDBRANCH  40  41
ENDBRANCH  32  35
ENDBRANCH  30  31
ENDBRANCH  29  30
ENDBRANCH  28  29
ENDBRANCH   1  28
TORSDOF 20
ENDMDL
