MODEL 1
REMARK VINA RESULT:     -11.7      0.000      0.000
REMARK SMILES CCOc1cc2nccc(Nc3ccc(C(=O)NCCCCCCNC(=O)c4ccc(-c5c6nc(c(-c7c(F)cc(S(=O)(=O)[O-])cc7F)c7ccc([nH]7)c(-c7c(F)cc(S(=O)(=O)[O-])cc7F)c7nc(c(-c8c(F)cc(S(=O)(=O)[O-])cc8F)c8ccc5[nH]8)C=C7)C=C6)cc4)cc3)c2cc1OCC
REMARK SMILES IDX 21 1 20 2 19 3 18 4 16 5 17 6 15 8 12 9 13 10 95 11 14 12
REMARK SMILES IDX 94 13 11 14 10 16 4 17 5 18 98 19 6 20 97 21 7 22 96 23 8 24
REMARK SMILES IDX 9 25 3 26 2 27 1 28 99 29 100 30 101 31 22 32 23 33 24 34
REMARK SMILES IDX 25 35 26 36 27 38 28 39 29 40 93 41 30 42 92 43 31 44 32 45
REMARK SMILES IDX 33 46 86 47 34 48 91 49 85 50 87 51 35 52 90 53 84 54 83 55
REMARK SMILES IDX 36 57 70 58 49 59 69 60 50 61 53 62 68 63 88 64 51 65 52 66
REMARK SMILES IDX 67 68 89 69 54 70 37 71 38 72 47 73 39 74 40 75 46 76 48 77
REMARK SMILES IDX 41 78 42 79 43 80 44 81 45 82 71 83 72 84 81 85 73 86 74 87
REMARK SMILES IDX 80 88 82 89 75 90 76 91 77 92 78 93 79 94 55 95 56 96 65 97
REMARK SMILES IDX 57 98 58 99 64 100 66 101 59 102 60 103 61 104 62 105 63 106
REMARK H PARENT 18 7 11 15 25 37 87 56 53 67
REMARK Flexibility Score: inf
ROOT
ATOM      1  C   UNL A   1      32.929  28.766  27.378  1.00  0.00     0.002 C 
ENDROOT
BRANCH   1   2
ATOM      2  C   UNL A   1      31.772  29.376  26.576  1.00  0.00     0.021 C 
BRANCH   2   3
ATOM      3  C   UNL A   1      32.123  29.585  25.102  1.00  0.00     0.116 C 
BRANCH   3   4
ATOM      4  N   UNL A   1      31.203  28.828  24.276  1.00  0.00    -0.352 N 
ATOM      5  C   UNL A   1      31.065  27.485  24.057  1.00  0.00     0.251 C 
ATOM      6  O   UNL A   1      30.214  27.112  23.250  1.00  0.00    -0.269 OA
ATOM      7  H   UNL A   1      30.558  29.384  23.780  1.00  0.00     0.163 HD
BRANCH   5   8
ATOM      8  C   UNL A   1      31.833  26.468  24.821  1.00  0.00     0.039 A 
ATOM      9  C   UNL A   1      33.423  24.486  26.032  1.00  0.00     0.038 A 
ATOM     10  C   UNL A   1      33.975  25.369  25.100  1.00  0.00     0.027 A 
ATOM     11  C   UNL A   1      32.080  24.625  26.383  1.00  0.00     0.027 A 
ATOM     12  C   UNL A   1      33.187  26.344  24.492  1.00  0.00     0.016 A 
ATOM     13  C   UNL A   1      31.302  25.645  25.819  1.00  0.00     0.016 A 
BRANCH   9  14
ATOM     14  N   UNL A   1      34.234  23.479  26.561  1.00  0.00    -0.355 N 
ATOM     15  H   UNL A   1      33.933  23.142  27.437  1.00  0.00     0.167 HD
BRANCH  14  16
ATOM     16  C   UNL A   1      35.406  22.853  26.078  1.00  0.00     0.050 A 
ATOM     17  C   UNL A   1      35.173  18.919  24.557  1.00  0.00     0.163 A 
ATOM     18  C   UNL A   1      36.411  19.555  24.733  1.00  0.00     0.079 A 
ATOM     19  C   UNL A   1      34.000  19.626  24.807  1.00  0.00     0.161 A 
ATOM     20  C   UNL A   1      36.504  20.872  25.187  1.00  0.00     0.076 A 
ATOM     21  C   UNL A   1      34.080  20.923  25.297  1.00  0.00     0.063 A 
ATOM     22  N   UNL A   1      37.710  21.449  25.324  1.00  0.00    -0.256 NA
ATOM     23  C   UNL A   1      35.316  21.554  25.520  1.00  0.00     0.028 A 
ATOM     24  C   UNL A   1      37.762  22.723  25.781  1.00  0.00     0.114 A 
ATOM     25  C   UNL A   1      36.654  23.460  26.158  1.00  0.00     0.047 A 
BRANCH  17  26
ATOM     26  O   UNL A   1      35.076  17.587  24.268  1.00  0.00    -0.490 OA
BRANCH  26  27
ATOM     27  C   UNL A   1      34.691  16.752  25.361  1.00  0.00     0.226 C 
ATOM     28  C   UNL A   1      35.552  15.499  25.286  1.00  0.00     0.049 C 
ENDBRANCH  26  27
ENDBRANCH  17  26
BRANCH  19  29
ATOM     29  O   UNL A   1      32.716  19.185  24.646  1.00  0.00    -0.490 OA
BRANCH  29  30
ATOM     30  C   UNL A   1      32.143  19.313  23.346  1.00  0.00     0.226 C 
ATOM     31  C   UNL A   1      32.333  18.091  22.452  1.00  0.00     0.049 C 
ENDBRANCH  29  30
ENDBRANCH  19  29
ENDBRANCH  14  16
ENDBRANCH   9  14
ENDBRANCH   5   8
ENDBRANCH   3   4
ENDBRANCH   2   3
ENDBRANCH   1   2
BRANCH   1  32
ATOM     32  C   UNL A   1      34.290  29.432  27.132  1.00  0.00     0.002 C 
BRANCH  32  33
ATOM     33  C   UNL A   1      34.387  30.887  27.598  1.00  0.00     0.021 C 
BRANCH  33  34
ATOM     34  C   UNL A   1      35.684  31.228  28.327  1.00  0.00     0.116 C 
BRANCH  34  35
ATOM     35  N   UNL A   1      35.569  31.000  29.758  1.00  0.00    -0.352 N 
ATOM     36  C   UNL A   1      36.376  30.271  30.593  1.00  0.00     0.251 C 
ATOM     37  H   UNL A   1      34.797  31.433  30.191  1.00  0.00     0.163 HD
ATOM     38  O   UNL A   1      35.987  29.990  31.722  1.00  0.00    -0.269 OA
BRANCH  36  39
ATOM     39  C   UNL A   1      37.705  29.817  30.130  1.00  0.00     0.039 A 
ATOM     40  C   UNL A   1      37.978  29.823  28.761  1.00  0.00     0.014 A 
ATOM     41  C   UNL A   1      38.667  29.360  31.037  1.00  0.00     0.014 A 
ATOM     42  C   UNL A   1      39.233  29.416  28.305  1.00  0.00     0.010 A 
ATOM     43  C   UNL A   1      39.941  29.020  30.586  1.00  0.00     0.010 A 
ATOM     44  C   UNL A   1      40.234  29.038  29.216  1.00  0.00    -0.014 A 
BRANCH  44  45
ATOM     45  C   UNL A   1      41.594  28.682  28.739  1.00  0.00     0.031 A 
ATOM     46  C   UNL A   1      42.684  29.717  28.680  1.00  0.00     0.074 A 
ATOM     47  C   UNL A   1      41.835  27.424  28.321  1.00  0.00     0.049 A 
ATOM     48  N   UNL A   1      43.931  29.581  28.310  1.00  0.00    -0.248 NA
ATOM     49  C   UNL A   1      42.318  31.089  29.063  1.00  0.00     0.031 C 
ATOM     50  C   UNL A   1      40.842  26.347  28.274  1.00  0.00     0.029 A 
ATOM     51  N   UNL A   1      42.985  26.835  27.862  1.00  0.00    -0.354 N 
ATOM     52  C   UNL A   1      44.498  30.847  28.409  1.00  0.00     0.074 A 
ATOM     53  C   UNL A   1      43.442  31.748  28.819  1.00  0.00     0.031 C 
ATOM     54  C   UNL A   1      41.436  25.222  27.848  1.00  0.00     0.029 A 
ATOM     55  C   UNL A   1      42.840  25.501  27.564  1.00  0.00     0.049 A 
ATOM     56  H   UNL A   1      43.833  27.322  27.755  1.00  0.00     0.167 HD
ATOM     57  C   UNL A   1      45.784  31.218  28.201  1.00  0.00     0.037 A 
ATOM     58  C   UNL A   1      43.739  24.602  27.121  1.00  0.00     0.037 A 
ATOM     59  C   UNL A   1      46.832  30.313  27.804  1.00  0.00     0.049 A 
ATOM     60  C   UNL A   1      45.162  25.033  26.908  1.00  0.00     0.074 A 
ATOM     61  C   UNL A   1      48.179  30.576  27.629  1.00  0.00     0.029 A 
ATOM     62  N   UNL A   1      46.648  28.968  27.513  1.00  0.00    -0.354 N 
ATOM     63  N   UNL A   1      45.699  26.218  27.080  1.00  0.00    -0.248 NA
ATOM     64  C   UNL A   1      46.103  24.005  26.447  1.00  0.00     0.031 C 
ATOM     65  C   UNL A   1      48.801  29.400  27.189  1.00  0.00     0.029 A 
ATOM     66  C   UNL A   1      47.851  28.393  27.134  1.00  0.00     0.049 A 
ATOM     67  H   UNL A   1      45.788  28.492  27.566  1.00  0.00     0.167 HD
ATOM     68  C   UNL A   1      47.045  26.075  26.763  1.00  0.00     0.074 A 
ATOM     69  C   UNL A   1      47.242  24.683  26.410  1.00  0.00     0.031 C 
ATOM     70  C   UNL A   1      48.028  27.010  26.766  1.00  0.00     0.037 A 
BRANCH  57  71
ATOM     71  C   UNL A   1      46.123  32.673  28.398  1.00  0.00     0.058 A 
ATOM     72  C   UNL A   1      46.101  33.586  27.331  1.00  0.00     0.135 A 
ATOM     73  C   UNL A   1      46.471  33.162  29.667  1.00  0.00     0.135 A 
ATOM     74  F   UNL A   1      45.788  33.171  26.093  1.00  0.00    -0.206 F 
ATOM     75  C   UNL A   1      46.455  34.919  27.505  1.00  0.00     0.059 A 
ATOM     76  C   UNL A   1      46.800  34.499  29.870  1.00  0.00     0.059 A 
ATOM     77  F   UNL A   1      46.505  32.336  30.725  1.00  0.00    -0.206 F 
ATOM     78  C   UNL A   1      46.812  35.366  28.778  1.00  0.00     0.060 A 
BRANCH  78  79
ATOM     79  S   UNL A   1      47.295  37.093  28.985  1.00  0.00     0.124 S 
ATOM     80  O   UNL A   1      48.688  37.057  28.551  1.00  0.00    -0.237 OA
ATOM     81  O   UNL A   1      46.372  37.787  28.092  1.00  0.00    -0.237 OA
ATOM     82  O   UNL A   1      47.088  37.336  30.408  1.00  0.00    -0.744 OA
ENDBRANCH  78  79
ENDBRANCH  57  71
BRANCH  58  83
ATOM     83  C   UNL A   1      43.319  23.194  26.899  1.00  0.00     0.058 A 
ATOM     84  C   UNL A   1      43.176  22.684  25.601  1.00  0.00     0.135 A 
ATOM     85  C   UNL A   1      43.102  22.319  27.975  1.00  0.00     0.135 A 
ATOM     86  F   UNL A   1      43.368  23.484  24.541  1.00  0.00    -0.206 F 
ATOM     87  C   UNL A   1      42.830  21.356  25.375  1.00  0.00     0.059 A 
ATOM     88  C   UNL A   1      42.777  20.982  27.774  1.00  0.00     0.059 A 
ATOM     89  F   UNL A   1      43.244  22.755  29.236  1.00  0.00    -0.206 F 
ATOM     90  C   UNL A   1      42.640  20.510  26.468  1.00  0.00     0.060 A 
BRANCH  90  91
ATOM     91  S   UNL A   1      42.271  18.769  26.163  1.00  0.00     0.124 S 
ATOM     92  O   UNL A   1      40.872  18.832  25.755  1.00  0.00    -0.237 OA
ATOM     93  O   UNL A   1      43.228  18.433  25.112  1.00  0.00    -0.237 OA
ATOM     94  O   UNL A   1      42.525  18.141  27.455  1.00  0.00    -0.744 OA
ENDBRANCH  90  91
ENDBRANCH  58  83
BRANCH  70  95
ATOM     95  C   UNL A   1      49.406  26.551  26.378  1.00  0.00     0.058 A 
ATOM     96  C   UNL A   1      50.293  26.008  27.322  1.00  0.00     0.135 A 
ATOM     97  C   UNL A   1      49.841  26.640  25.046  1.00  0.00     0.135 A 
ATOM     98  F   UNL A   1      49.929  25.906  28.610  1.00  0.00    -0.206 F 
ATOM     99  C   UNL A   1      51.576  25.604  26.966  1.00  0.00     0.059 A 
ATOM    100  C   UNL A   1      51.111  26.217  24.662  1.00  0.00     0.059 A 
ATOM    101  F   UNL A   1      49.029  27.140  24.101  1.00  0.00    -0.206 F 
ATOM    102  C   UNL A   1      51.978  25.717  25.634  1.00  0.00     0.060 A 
BRANCH 102 103
ATOM    103  S   UNL A   1      53.643  25.187  25.182  1.00  0.00     0.124 S 
ATOM    104  O   UNL A   1      53.847  25.901  23.926  1.00  0.00    -0.237 OA
ATOM    105  O   UNL A   1      54.439  25.654  26.313  1.00  0.00    -0.237 OA
ATOM    106  O   UNL A   1      53.518  23.738  25.068  1.00  0.00    -0.744 OA
ENDBRANCH 102 103
ENDBRANCH  70  95
ENDBRANCH  44  45
ENDBRANCH  36  39
ENDBRANCH  34  35
ENDBRANCH  33  34
ENDBRANCH  32  33
ENDBRANCH   1  32
TORSDOF 22
ENDMDL
MODEL 2
REMARK VINA RESULT:     -11.3      1.439      2.516
REMARK SMILES CCOc1cc2nccc(Nc3ccc(C(=O)NCCCCCCNC(=O)c4ccc(-c5c6nc(c(-c7c(F)cc(S(=O)(=O)[O-])cc7F)c7ccc([nH]7)c(-c7c(F)cc(S(=O)(=O)[O-])cc7F)c7nc(c(-c8c(F)cc(S(=O)(=O)[O-])cc8F)c8ccc5[nH]8)C=C7)C=C6)cc4)cc3)c2cc1OCC
REMARK SMILES IDX 21 1 20 2 19 3 18 4 16 5 17 6 15 8 12 9 13 10 95 11 14 12
REMARK SMILES IDX 94 13 11 14 10 16 4 17 5 18 98 19 6 20 97 21 7 22 96 23 8 24
REMARK SMILES IDX 9 25 3 26 2 27 1 28 99 29 100 30 101 31 22 32 23 33 24 34
REMARK SMILES IDX 25 35 26 36 27 38 28 39 29 40 93 41 30 42 92 43 31 44 32 45
REMARK SMILES IDX 33 46 86 47 34 48 91 49 85 50 87 51 35 52 90 53 84 54 83 55
REMARK SMILES IDX 36 57 70 58 49 59 69 60 50 61 53 62 68 63 88 64 51 65 52 66
REMARK SMILES IDX 67 68 89 69 54 70 37 71 38 72 47 73 39 74 40 75 46 76 48 77
REMARK SMILES IDX 41 78 42 79 43 80 44 81 45 82 71 83 72 84 81 85 73 86 74 87
REMARK SMILES IDX 80 88 82 89 75 90 76 91 77 92 78 93 79 94 55 95 56 96 65 97
REMARK SMILES IDX 57 98 58 99 64 100 66 101 59 102 60 103 61 104 62 105 63 106
REMARK H PARENT 18 7 11 15 25 37 87 56 53 67
REMARK Flexibility Score: inf
ROOT
ATOM      1  C   UNL A   1      32.920  29.772  27.085  1.00  0.00     0.002 C 
ENDROOT
BRANCH   1   2
ATOM      2  C   UNL A   1      32.002  29.982  25.874  1.00  0.00     0.021 C 
BRANCH   2   3
ATOM      3  C   UNL A   1      31.462  28.667  25.309  1.00  0.00     0.116 C 
BRANCH   3   4
ATOM      4  N   UNL A   1      30.732  28.934  24.085  1.00  0.00    -0.352 N 
ATOM      5  C   UNL A   1      30.509  28.172  22.970  1.00  0.00     0.251 C 
ATOM      6  O   UNL A   1      29.883  28.677  22.038  1.00  0.00    -0.269 OA
ATOM      7  H   UNL A   1      30.320  29.828  24.049  1.00  0.00     0.163 HD
BRANCH   5   8
ATOM      8  C   UNL A   1      30.909  26.744  22.885  1.00  0.00     0.039 A 
ATOM      9  C   UNL A   1      31.708  24.080  22.451  1.00  0.00     0.038 A 
ATOM     10  C   UNL A   1      32.365  25.134  21.808  1.00  0.00     0.027 A 
ATOM     11  C   UNL A   1      30.675  24.371  23.341  1.00  0.00     0.027 A 
ATOM     12  C   UNL A   1      31.965  26.452  22.015  1.00  0.00     0.016 A 
ATOM     13  C   UNL A   1      30.312  25.700  23.597  1.00  0.00     0.016 A 
BRANCH   9  14
ATOM     14  N   UNL A   1      32.099  22.771  22.159  1.00  0.00    -0.355 N 
ATOM     15  H   UNL A   1      32.081  22.553  21.198  1.00  0.00     0.167 HD
BRANCH  14  16
ATOM     16  C   UNL A   1      32.515  21.700  22.982  1.00  0.00     0.050 A 
ATOM     17  C   UNL A   1      35.696  22.291  25.698  1.00  0.00     0.163 A 
ATOM     18  C   UNL A   1      35.150  21.016  25.489  1.00  0.00     0.079 A 
ATOM     19  C   UNL A   1      35.124  23.392  25.065  1.00  0.00     0.161 A 
ATOM     20  C   UNL A   1      34.067  20.810  24.633  1.00  0.00     0.076 A 
ATOM     21  C   UNL A   1      34.072  23.195  24.180  1.00  0.00     0.063 A 
ATOM     22  N   UNL A   1      33.563  19.574  24.476  1.00  0.00    -0.256 NA
ATOM     23  C   UNL A   1      33.546  21.915  23.929  1.00  0.00     0.028 A 
ATOM     24  C   UNL A   1      32.522  19.410  23.627  1.00  0.00     0.114 A 
ATOM     25  C   UNL A   1      31.964  20.428  22.874  1.00  0.00     0.047 A 
BRANCH  17  26
ATOM     26  O   UNL A   1      36.851  22.481  26.405  1.00  0.00    -0.490 OA
BRANCH  26  27
ATOM     27  C   UNL A   1      38.054  22.166  25.704  1.00  0.00     0.226 C 
ATOM     28  C   UNL A   1      39.201  22.774  26.497  1.00  0.00     0.049 C 
ENDBRANCH  26  27
ENDBRANCH  17  26
BRANCH  19  29
ATOM     29  O   UNL A   1      35.493  24.703  25.187  1.00  0.00    -0.490 OA
BRANCH  29  30
ATOM     30  C   UNL A   1      34.557  25.684  24.741  1.00  0.00     0.226 C 
ATOM     31  C   UNL A   1      33.803  26.389  25.864  1.00  0.00     0.049 C 
ENDBRANCH  29  30
ENDBRANCH  19  29
ENDBRANCH  14  16
ENDBRANCH   9  14
ENDBRANCH   5   8
ENDBRANCH   3   4
ENDBRANCH   2   3
ENDBRANCH   1   2
BRANCH   1  32
ATOM     32  C   UNL A   1      33.666  31.032  27.540  1.00  0.00     0.002 C 
BRANCH  32  33
ATOM     33  C   UNL A   1      35.192  30.899  27.575  1.00  0.00     0.021 C 
BRANCH  33  34
ATOM     34  C   UNL A   1      35.888  31.890  28.503  1.00  0.00     0.116 C 
BRANCH  34  35
ATOM     35  N   UNL A   1      35.700  31.537  29.900  1.00  0.00    -0.352 N 
ATOM     36  C   UNL A   1      36.433  30.690  30.693  1.00  0.00     0.251 C 
ATOM     37  H   UNL A   1      34.933  31.968  30.343  1.00  0.00     0.163 HD
ATOM     38  O   UNL A   1      35.982  30.326  31.774  1.00  0.00    -0.269 OA
BRANCH  36  39
ATOM     39  C   UNL A   1      37.755  30.210  30.239  1.00  0.00     0.039 A 
ATOM     40  C   UNL A   1      37.950  29.959  28.880  1.00  0.00     0.014 A 
ATOM     41  C   UNL A   1      38.791  29.980  31.152  1.00  0.00     0.014 A 
ATOM     42  C   UNL A   1      39.197  29.524  28.429  1.00  0.00     0.010 A 
ATOM     43  C   UNL A   1      40.053  29.612  30.693  1.00  0.00     0.010 A 
ATOM     44  C   UNL A   1      40.267  29.374  29.328  1.00  0.00    -0.014 A 
BRANCH  44  45
ATOM     45  C   UNL A   1      41.616  28.989  28.840  1.00  0.00     0.031 A 
ATOM     46  C   UNL A   1      42.728  29.999  28.777  1.00  0.00     0.074 A 
ATOM     47  C   UNL A   1      41.825  27.727  28.417  1.00  0.00     0.049 A 
ATOM     48  N   UNL A   1      43.969  29.836  28.397  1.00  0.00    -0.248 NA
ATOM     49  C   UNL A   1      42.397  31.377  29.167  1.00  0.00     0.031 C 
ATOM     50  C   UNL A   1      40.808  26.673  28.373  1.00  0.00     0.029 A 
ATOM     51  N   UNL A   1      42.958  27.114  27.948  1.00  0.00    -0.354 N 
ATOM     52  C   UNL A   1      44.566  31.088  28.497  1.00  0.00     0.074 A 
ATOM     53  C   UNL A   1      43.534  32.011  28.918  1.00  0.00     0.031 C 
ATOM     54  C   UNL A   1      41.373  25.536  27.939  1.00  0.00     0.029 A 
ATOM     55  C   UNL A   1      42.781  25.784  27.646  1.00  0.00     0.049 A 
ATOM     56  H   UNL A   1      43.816  27.582  27.836  1.00  0.00     0.167 HD
ATOM     57  C   UNL A   1      45.859  31.431  28.282  1.00  0.00     0.037 A 
ATOM     58  C   UNL A   1      43.655  24.867  27.194  1.00  0.00     0.037 A 
ATOM     59  C   UNL A   1      46.883  30.503  27.874  1.00  0.00     0.049 A 
ATOM     60  C   UNL A   1      45.087  25.266  26.972  1.00  0.00     0.074 A 
ATOM     61  C   UNL A   1      48.234  30.736  27.691  1.00  0.00     0.029 A 
ATOM     62  N   UNL A   1      46.666  29.164  27.580  1.00  0.00    -0.354 N 
ATOM     63  N   UNL A   1      45.651  26.438  27.144  1.00  0.00    -0.248 NA
ATOM     64  C   UNL A   1      46.000  24.218  26.501  1.00  0.00     0.031 C 
ATOM     65  C   UNL A   1      48.826  29.548  27.242  1.00  0.00     0.029 A 
ATOM     66  C   UNL A   1      47.853  28.563  27.190  1.00  0.00     0.049 A 
ATOM     67  H   UNL A   1      45.796  28.707  27.637  1.00  0.00     0.167 HD
ATOM     68  C   UNL A   1      46.992  26.265  26.818  1.00  0.00     0.074 A 
ATOM     69  C   UNL A   1      47.155  24.870  26.458  1.00  0.00     0.031 C 
ATOM     70  C   UNL A   1      47.996  27.178  26.816  1.00  0.00     0.037 A 
BRANCH  57  71
ATOM     71  C   UNL A   1      46.232  32.876  28.481  1.00  0.00     0.058 A 
ATOM     72  C   UNL A   1      46.173  33.805  27.428  1.00  0.00     0.135 A 
ATOM     73  C   UNL A   1      46.650  33.342  29.738  1.00  0.00     0.135 A 
ATOM     74  F   UNL A   1      45.792  33.413  26.202  1.00  0.00    -0.206 F 
ATOM     75  C   UNL A   1      46.559  35.130  27.602  1.00  0.00     0.059 A 
ATOM     76  C   UNL A   1      47.012  34.670  29.942  1.00  0.00     0.059 A 
ATOM     77  F   UNL A   1      46.722  32.500  30.781  1.00  0.00    -0.206 F 
ATOM     78  C   UNL A   1      46.985  35.552  28.862  1.00  0.00     0.060 A 
BRANCH  78  79
ATOM     79  S   UNL A   1      47.507  37.267  29.068  1.00  0.00     0.124 S 
ATOM     80  O   UNL A   1      47.735  37.330  30.508  1.00  0.00    -0.237 OA
ATOM     81  O   UNL A   1      48.703  37.334  28.235  1.00  0.00    -0.237 OA
ATOM     82  O   UNL A   1      46.364  38.032  28.580  1.00  0.00    -0.744 OA
ENDBRANCH  78  79
ENDBRANCH  57  71
BRANCH  58  83
ATOM     83  C   UNL A   1      43.202  23.469  26.970  1.00  0.00     0.058 A 
ATOM     84  C   UNL A   1      42.865  23.021  25.685  1.00  0.00     0.135 A 
ATOM     85  C   UNL A   1      43.145  22.543  28.023  1.00  0.00     0.135 A 
ATOM     86  F   UNL A   1      42.899  23.871  24.648  1.00  0.00    -0.206 F 
ATOM     87  C   UNL A   1      42.484  21.704  25.450  1.00  0.00     0.059 A 
ATOM     88  C   UNL A   1      42.789  21.216  27.809  1.00  0.00     0.059 A 
ATOM     89  F   UNL A   1      43.476  22.919  29.268  1.00  0.00    -0.206 F 
ATOM     90  C   UNL A   1      42.456  20.807  26.518  1.00  0.00     0.060 A 
BRANCH  90  91
ATOM     91  S   UNL A   1      42.039  19.080  26.188  1.00  0.00     0.124 S 
ATOM     92  O   UNL A   1      42.973  18.753  25.117  1.00  0.00    -0.237 OA
ATOM     93  O   UNL A   1      42.301  18.450  27.479  1.00  0.00    -0.237 OA
ATOM     94  O   UNL A   1      40.632  19.143  25.804  1.00  0.00    -0.744 OA
ENDBRANCH  90  91
ENDBRANCH  58  83
BRANCH  70  95
ATOM     95  C   UNL A   1      49.360  26.688  26.417  1.00  0.00     0.058 A 
ATOM     96  C   UNL A   1      50.186  25.997  27.318  1.00  0.00     0.135 A 
ATOM     97  C   UNL A   1      49.843  26.899  25.115  1.00  0.00     0.135 A 
ATOM     98  F   UNL A   1      49.775  25.775  28.577  1.00  0.00    -0.206 F 
ATOM     99  C   UNL A   1      51.457  25.565  26.955  1.00  0.00     0.059 A 
ATOM    100  C   UNL A   1      51.101  26.451  24.722  1.00  0.00     0.059 A 
ATOM    101  F   UNL A   1      49.090  27.544  24.210  1.00  0.00    -0.206 F 
ATOM    102  C   UNL A   1      51.908  25.801  25.655  1.00  0.00     0.060 A 
BRANCH 102 103
ATOM    103  S   UNL A   1      53.558  25.233  25.192  1.00  0.00     0.124 S 
ATOM    104  O   UNL A   1      54.387  25.897  26.192  1.00  0.00    -0.237 OA
ATOM    105  O   UNL A   1      53.441  23.785  25.327  1.00  0.00    -0.237 OA
ATOM    106  O   UNL A   1      53.713  25.719  23.825  1.00  0.00    -0.744 OA
ENDBRANCH 102 103
ENDBRANCH  70  95
ENDBRANCH  44  45
ENDBRANCH  36  39
ENDBRANCH  34  35
ENDBRANCH  33  34
ENDBRANCH  32  33
ENDBRANCH   1  32
TORSDOF 22
ENDMDL
MODEL 3
REMARK VINA RESULT:     -11.2      6.463      8.582
REMARK SMILES CCOc1cc2nccc(Nc3ccc(C(=O)NCCCCCCNC(=O)c4ccc(-c5c6nc(c(-c7c(F)cc(S(=O)(=O)[O-])cc7F)c7ccc([nH]7)c(-c7c(F)cc(S(=O)(=O)[O-])cc7F)c7nc(c(-c8c(F)cc(S(=O)(=O)[O-])cc8F)c8ccc5[nH]8)C=C7)C=C6)cc4)cc3)c2cc1OCC
REMARK SMILES IDX 21 1 20 2 19 3 18 4 16 5 17 6 15 8 12 9 13 10 95 11 14 12
REMARK SMILES IDX 94 13 11 14 10 16 4 17 5 18 98 19 6 20 97 21 7 22 96 23 8 24
REMARK SMILES IDX 9 25 3 26 2 27 1 28 99 29 100 30 101 31 22 32 23 33 24 34
REMARK SMILES IDX 25 35 26 36 27 38 28 39 29 40 93 41 30 42 92 43 31 44 32 45
REMARK SMILES IDX 33 46 86 47 34 48 91 49 85 50 87 51 35 52 90 53 84 54 83 55
REMARK SMILES IDX 36 57 70 58 49 59 69 60 50 61 53 62 68 63 88 64 51 65 52 66
REMARK SMILES IDX 67 68 89 69 54 70 37 71 38 72 47 73 39 74 40 75 46 76 48 77
REMARK SMILES IDX 41 78 42 79 43 80 44 81 45 82 71 83 72 84 81 85 73 86 74 87
REMARK SMILES IDX 80 88 82 89 75 90 76 91 77 92 78 93 79 94 55 95 56 96 65 97
REMARK SMILES IDX 57 98 58 99 64 100 66 101 59 102 60 103 61 104 62 105 63 106
REMARK H PARENT 18 7 11 15 25 37 87 56 53 67
REMARK Flexibility Score: inf
ROOT
ATOM      1  C   UNL A   1      35.503  32.479  29.017  1.00  0.00     0.002 C 
ENDROOT
BRANCH   1   2
ATOM      2  C   UNL A   1      35.555  31.655  27.724  1.00  0.00     0.021 C 
BRANCH   2   3
ATOM      3  C   UNL A   1      34.392  30.668  27.607  1.00  0.00     0.116 C 
BRANCH   3   4
ATOM      4  N   UNL A   1      33.150  31.402  27.468  1.00  0.00    -0.352 N 
ATOM      5  C   UNL A   1      32.013  31.146  26.751  1.00  0.00     0.251 C 
ATOM      6  O   UNL A   1      31.110  31.983  26.776  1.00  0.00    -0.269 OA
ATOM      7  H   UNL A   1      33.119  32.240  27.986  1.00  0.00     0.163 HD
BRANCH   5   8
ATOM      8  C   UNL A   1      31.795  29.866  26.030  1.00  0.00     0.039 A 
ATOM      9  C   UNL A   1      31.173  27.568  24.527  1.00  0.00     0.038 A 
ATOM     10  C   UNL A   1      31.151  28.834  23.934  1.00  0.00     0.027 A 
ATOM     11  C   UNL A   1      31.547  27.456  25.866  1.00  0.00     0.027 A 
ATOM     12  C   UNL A   1      31.448  29.973  24.679  1.00  0.00     0.016 A 
ATOM     13  C   UNL A   1      31.907  28.594  26.600  1.00  0.00     0.016 A 
BRANCH   9  14
ATOM     14  N   UNL A   1      30.799  26.463  23.760  1.00  0.00    -0.355 N 
ATOM     15  H   UNL A   1      29.859  26.191  23.881  1.00  0.00     0.167 HD
BRANCH  14  16
ATOM     16  C   UNL A   1      31.514  25.661  22.841  1.00  0.00     0.050 A 
ATOM     17  C   UNL A   1      32.971  21.894  24.078  1.00  0.00     0.163 A 
ATOM     18  C   UNL A   1      33.315  22.428  22.827  1.00  0.00     0.079 A 
ATOM     19  C   UNL A   1      32.069  22.578  24.888  1.00  0.00     0.161 A 
ATOM     20  C   UNL A   1      32.802  23.648  22.381  1.00  0.00     0.076 A 
ATOM     21  C   UNL A   1      31.583  23.811  24.474  1.00  0.00     0.063 A 
ATOM     22  N   UNL A   1      33.143  24.113  21.168  1.00  0.00    -0.256 NA
ATOM     23  C   UNL A   1      31.956  24.377  23.242  1.00  0.00     0.028 A 
ATOM     24  C   UNL A   1      32.639  25.307  20.775  1.00  0.00     0.114 A 
ATOM     25  C   UNL A   1      31.825  26.104  21.560  1.00  0.00     0.047 A 
BRANCH  17  26
ATOM     26  O   UNL A   1      33.587  20.786  24.589  1.00  0.00    -0.490 OA
BRANCH  26  27
ATOM     27  C   UNL A   1      33.075  19.535  24.127  1.00  0.00     0.226 C 
ATOM     28  C   UNL A   1      34.134  18.485  24.428  1.00  0.00     0.049 C 
ENDBRANCH  26  27
ENDBRANCH  17  26
BRANCH  19  29
ATOM     29  O   UNL A   1      31.589  22.188  26.108  1.00  0.00    -0.490 OA
BRANCH  29  30
ATOM     30  C   UNL A   1      32.081  22.884  27.253  1.00  0.00     0.226 C 
ATOM     31  C   UNL A   1      33.298  22.238  27.906  1.00  0.00     0.049 C 
ENDBRANCH  29  30
ENDBRANCH  19  29
ENDBRANCH  14  16
ENDBRANCH   9  14
ENDBRANCH   5   8
ENDBRANCH   3   4
ENDBRANCH   2   3
ENDBRANCH   1   2
BRANCH   1  32
ATOM     32  C   UNL A   1      35.801  33.972  28.828  1.00  0.00     0.002 C 
BRANCH  32  33
ATOM     33  C   UNL A   1      34.569  34.847  28.576  1.00  0.00     0.021 C 
BRANCH  33  34
ATOM     34  C   UNL A   1      33.282  34.315  29.199  1.00  0.00     0.116 C 
BRANCH  34  35
ATOM     35  N   UNL A   1      32.766  35.220  30.213  1.00  0.00    -0.352 N 
ATOM     36  C   UNL A   1      33.116  35.342  31.534  1.00  0.00     0.251 C 
ATOM     37  H   UNL A   1      32.060  35.835  29.907  1.00  0.00     0.163 HD
ATOM     38  O   UNL A   1      32.403  35.989  32.295  1.00  0.00    -0.269 OA
BRANCH  36  39
ATOM     39  C   UNL A   1      34.341  34.687  32.040  1.00  0.00     0.039 A 
ATOM     40  C   UNL A   1      34.262  33.367  32.488  1.00  0.00     0.014 A 
ATOM     41  C   UNL A   1      35.556  35.378  32.100  1.00  0.00     0.014 A 
ATOM     42  C   UNL A   1      35.411  32.724  32.950  1.00  0.00     0.010 A 
ATOM     43  C   UNL A   1      36.715  34.715  32.497  1.00  0.00     0.010 A 
ATOM     44  C   UNL A   1      36.653  33.384  32.933  1.00  0.00    -0.014 A 
BRANCH  44  45
ATOM     45  C   UNL A   1      37.890  32.677  33.349  1.00  0.00     0.031 A 
ATOM     46  C   UNL A   1      38.580  33.030  34.639  1.00  0.00     0.074 A 
ATOM     47  C   UNL A   1      38.414  31.737  32.539  1.00  0.00     0.049 A 
ATOM     48  N   UNL A   1      39.656  32.507  35.168  1.00  0.00    -0.248 NA
ATOM     49  C   UNL A   1      38.000  34.131  35.422  1.00  0.00     0.031 C 
ATOM     50  C   UNL A   1      37.870  31.350  31.234  1.00  0.00     0.029 A 
ATOM     51  N   UNL A   1      39.515  30.934  32.690  1.00  0.00    -0.354 N 
ATOM     52  C   UNL A   1      39.885  33.216  36.342  1.00  0.00     0.074 A 
ATOM     53  C   UNL A   1      38.870  34.244  36.416  1.00  0.00     0.031 C 
ATOM     54  C   UNL A   1      38.616  30.359  30.724  1.00  0.00     0.029 A 
ATOM     55  C   UNL A   1      39.707  30.060  31.647  1.00  0.00     0.049 A 
ATOM     56  H   UNL A   1      40.112  30.980  33.471  1.00  0.00     0.167 HD
ATOM     57  C   UNL A   1      40.839  33.012  37.282  1.00  0.00     0.037 A 
ATOM     58  C   UNL A   1      40.649  29.117  31.458  1.00  0.00     0.037 A 
ATOM     59  C   UNL A   1      41.840  31.978  37.207  1.00  0.00     0.049 A 
ATOM     60  C   UNL A   1      41.692  28.902  32.519  1.00  0.00     0.074 A 
ATOM     61  C   UNL A   1      42.811  31.648  38.135  1.00  0.00     0.029 A 
ATOM     62  N   UNL A   1      42.003  31.111  36.135  1.00  0.00    -0.354 N 
ATOM     63  N   UNL A   1      41.849  29.531  33.659  1.00  0.00    -0.248 NA
ATOM     64  C   UNL A   1      42.679  27.844  32.270  1.00  0.00     0.031 C 
ATOM     65  C   UNL A   1      43.589  30.610  37.606  1.00  0.00     0.029 A 
ATOM     66  C   UNL A   1      43.074  30.262  36.367  1.00  0.00     0.049 A 
ATOM     67  H   UNL A   1      41.440  31.100  35.327  1.00  0.00     0.167 HD
ATOM     68  C   UNL A   1      42.945  28.934  34.273  1.00  0.00     0.074 A 
ATOM     69  C   UNL A   1      43.397  27.882  33.385  1.00  0.00     0.031 C 
ATOM     70  C   UNL A   1      43.524  29.232  35.464  1.00  0.00     0.037 A 
BRANCH  57  71
ATOM     71  C   UNL A   1      40.843  33.935  38.473  1.00  0.00     0.058 A 
ATOM     72  C   UNL A   1      41.665  35.073  38.521  1.00  0.00     0.135 A 
ATOM     73  C   UNL A   1      40.015  33.682  39.578  1.00  0.00     0.135 A 
ATOM     74  F   UNL A   1      42.487  35.357  37.497  1.00  0.00    -0.206 F 
ATOM     75  C   UNL A   1      41.700  35.901  39.637  1.00  0.00     0.059 A 
ATOM     76  C   UNL A   1      40.011  34.514  40.694  1.00  0.00     0.059 A 
ATOM     77  F   UNL A   1      39.206  32.612  39.586  1.00  0.00    -0.206 F 
ATOM     78  C   UNL A   1      40.874  35.609  40.724  1.00  0.00     0.060 A 
BRANCH  78  79
ATOM     79  S   UNL A   1      40.949  36.676  42.178  1.00  0.00     0.124 S 
ATOM     80  O   UNL A   1      41.424  35.745  43.196  1.00  0.00    -0.237 OA
ATOM     81  O   UNL A   1      41.900  37.703  41.766  1.00  0.00    -0.237 OA
ATOM     82  O   UNL A   1      39.571  37.130  42.337  1.00  0.00    -0.744 OA
ENDBRANCH  78  79
ENDBRANCH  57  71
BRANCH  58  83
ATOM     83  C   UNL A   1      40.613  28.278  30.232  1.00  0.00     0.058 A 
ATOM     84  C   UNL A   1      41.582  28.428  29.230  1.00  0.00     0.135 A 
ATOM     85  C   UNL A   1      39.642  27.278  30.061  1.00  0.00     0.135 A 
ATOM     86  F   UNL A   1      42.526  29.374  29.347  1.00  0.00    -0.206 F 
ATOM     87  C   UNL A   1      41.591  27.620  28.099  1.00  0.00     0.059 A 
ATOM     88  C   UNL A   1      39.644  26.443  28.949  1.00  0.00     0.059 A 
ATOM     89  F   UNL A   1      38.704  27.084  31.001  1.00  0.00    -0.206 F 
ATOM     90  C   UNL A   1      40.621  26.625  27.971  1.00  0.00     0.060 A 
BRANCH  90  91
ATOM     91  S   UNL A   1      40.690  25.527  26.538  1.00  0.00     0.124 S 
ATOM     92  O   UNL A   1      39.311  25.057  26.461  1.00  0.00    -0.237 OA
ATOM     93  O   UNL A   1      41.114  26.436  25.476  1.00  0.00    -0.237 OA
ATOM     94  O   UNL A   1      41.679  24.528  26.928  1.00  0.00    -0.744 OA
ENDBRANCH  90  91
ENDBRANCH  58  83
BRANCH  70  95
ATOM     95  C   UNL A   1      44.708  28.399  35.872  1.00  0.00     0.058 A 
ATOM     96  C   UNL A   1      46.019  28.769  35.531  1.00  0.00     0.135 A 
ATOM     97  C   UNL A   1      44.533  27.227  36.624  1.00  0.00     0.135 A 
ATOM     98  F   UNL A   1      46.242  29.878  34.808  1.00  0.00    -0.206 F 
ATOM     99  C   UNL A   1      47.112  27.986  35.890  1.00  0.00     0.059 A 
ATOM    100  C   UNL A   1      45.614  26.443  37.017  1.00  0.00     0.059 A 
ATOM    101  F   UNL A   1      43.301  26.833  36.987  1.00  0.00    -0.206 F 
ATOM    102  C   UNL A   1      46.898  26.821  36.629  1.00  0.00     0.060 A 
BRANCH 102 103
ATOM    103  S   UNL A   1      48.323  25.815  37.092  1.00  0.00     0.124 S 
ATOM    104  O   UNL A   1      47.742  24.477  37.114  1.00  0.00    -0.237 OA
ATOM    105  O   UNL A   1      49.262  26.080  36.007  1.00  0.00    -0.237 OA
ATOM    106  O   UNL A   1      48.710  26.352  38.393  1.00  0.00    -0.744 OA
ENDBRANCH 102 103
ENDBRANCH  70  95
ENDBRANCH  44  45
ENDBRANCH  36  39
ENDBRANCH  34  35
ENDBRANCH  33  34
ENDBRANCH  32  33
ENDBRANCH   1  32
TORSDOF 22
ENDMDL
