MODEL 1
REMARK VINA RESULT:     -11.1      0.000      0.000
REMARK SMILES Cc1cc2c(c(C)c1Cl)C=C(C(=O)NCCCCCCNC(=O)c1ccc(-c3c4nc(c(-c5c(F)cc(S(=O)(=O)[O-])cc5F)c5ccc([nH]5)c(-c5c(F)cc(S(=O)(=O)[O-])cc5F)c5nc(c(-c6c(F)cc(S(=O)(=O)[O-])cc6F)c6ccc3[nH]6)C=C5)C=C4)cc1)[C@@H](C(F)(F)F)O2
REMARK SMILES IDX 18 1 17 2 16 3 15 4 14 5 12 6 13 7 11 9 1 10 2 11 3 12 8 13
REMARK SMILES IDX 4 14 6 15 9 16 5 17 95 18 7 19 10 20 90 21 91 22 92 23 93 24
REMARK SMILES IDX 94 25 19 26 20 27 21 28 22 29 23 31 24 32 25 33 89 34 26 35
REMARK SMILES IDX 88 36 27 37 28 38 29 39 82 40 30 41 87 42 81 43 83 44 31 45
REMARK SMILES IDX 86 46 80 47 79 48 32 50 66 51 45 52 65 53 46 54 49 55 64 56
REMARK SMILES IDX 84 57 47 58 48 59 63 61 85 62 50 63 33 64 34 65 43 66 35 67
REMARK SMILES IDX 36 68 42 69 44 70 37 71 38 72 39 73 40 74 41 75 67 76 68 77
REMARK SMILES IDX 77 78 69 79 70 80 76 81 78 82 71 83 72 84 73 85 74 86 75 87
REMARK SMILES IDX 51 88 52 89 61 90 53 91 54 92 60 93 62 94 55 95 56 96 57 97
REMARK SMILES IDX 58 98 59 99
REMARK H PARENT 14 8 21 30 83 49 49 60
REMARK Flexibility Score: inf
ROOT
ATOM      1  C   UNL A   1      34.404  23.375  26.654  1.00  0.00     0.002 C 
ENDROOT
BRANCH   1   2
ATOM      2  C   UNL A   1      32.916  23.748  26.597  1.00  0.00     0.002 C 
BRANCH   2   3
ATOM      3  C   UNL A   1      32.020  22.733  25.884  1.00  0.00     0.021 C 
BRANCH   3   4
ATOM      4  C   UNL A   1      31.095  23.357  24.845  1.00  0.00     0.116 C 
BRANCH   4   5
ATOM      5  N   UNL A   1      31.825  23.787  23.667  1.00  0.00    -0.352 N 
ATOM      6  C   UNL A   1      32.155  24.961  23.079  1.00  0.00     0.251 C 
ATOM      7  O   UNL A   1      32.832  24.862  22.051  1.00  0.00    -0.270 OA
ATOM      8  H   UNL A   1      32.173  23.020  23.158  1.00  0.00     0.163 HD
BRANCH   6   9
ATOM      9  C   UNL A   1      31.769  26.315  23.580  1.00  0.00     0.067 C 
ATOM     10  C   UNL A   1      31.267  32.165  26.396  1.00  0.00     0.046 C 
ATOM     11  C   UNL A   1      31.663  30.784  25.951  1.00  0.00    -0.028 A 
ATOM     12  C   UNL A   1      30.925  30.181  24.932  1.00  0.00     0.052 A 
ATOM     13  C   UNL A   1      32.757  30.087  26.502  1.00  0.00     0.047 A 
ATOM     14  C   UNL A   1      31.252  28.907  24.482  1.00  0.00     0.128 A 
ATOM     15  C   UNL A   1      33.105  28.789  26.050  1.00  0.00    -0.021 A 
ATOM     16  Cl  UNL A   1      33.684  30.866  27.750  1.00  0.00    -0.084 Cl
ATOM     17  C   UNL A   1      32.334  28.202  25.016  1.00  0.00     0.022 A 
ATOM     18  O   UNL A   1      30.473  28.442  23.467  1.00  0.00    -0.475 OA
ATOM     19  C   UNL A   1      34.269  28.024  26.633  1.00  0.00     0.047 C 
ATOM     20  C   UNL A   1      32.634  26.888  24.438  1.00  0.00     0.026 C 
ATOM     21  C   UNL A   1      30.495  27.017  23.214  1.00  0.00     0.314 C 
BRANCH  21  22
ATOM     22  C   UNL A   1      29.252  26.371  23.851  1.00  0.00     0.429 C 
ATOM     23  F   UNL A   1      28.966  25.193  23.246  1.00  0.00    -0.167 F 
ATOM     24  F   UNL A   1      29.422  26.094  25.165  1.00  0.00    -0.167 F 
ATOM     25  F   UNL A   1      28.156  27.157  23.754  1.00  0.00    -0.167 F 
ENDBRANCH  21  22
ENDBRANCH   6   9
ENDBRANCH   4   5
ENDBRANCH   3   4
ENDBRANCH   2   3
ENDBRANCH   1   2
BRANCH   1  26
ATOM     26  C   UNL A   1      35.153  23.473  25.321  1.00  0.00     0.021 C 
BRANCH  26  27
ATOM     27  C   UNL A   1      36.571  24.023  25.434  1.00  0.00     0.116 C 
BRANCH  27  28
ATOM     28  N   UNL A   1      37.540  22.962  25.646  1.00  0.00    -0.352 N 
ATOM     29  C   UNL A   1      38.802  23.038  26.167  1.00  0.00     0.251 C 
ATOM     30  H   UNL A   1      37.247  22.061  25.376  1.00  0.00     0.163 HD
ATOM     31  O   UNL A   1      39.576  22.085  26.042  1.00  0.00    -0.269 OA
BRANCH  29  32
ATOM     32  C   UNL A   1      39.234  24.257  26.876  1.00  0.00     0.039 A 
ATOM     33  C   UNL A   1      40.012  25.198  26.197  1.00  0.00     0.014 A 
ATOM     34  C   UNL A   1      38.901  24.454  28.220  1.00  0.00     0.014 A 
ATOM     35  C   UNL A   1      40.431  26.354  26.860  1.00  0.00     0.010 A 
ATOM     36  C   UNL A   1      39.260  25.636  28.857  1.00  0.00     0.010 A 
ATOM     37  C   UNL A   1      40.047  26.586  28.190  1.00  0.00    -0.014 A 
BRANCH  37  38
ATOM     38  C   UNL A   1      40.513  27.785  28.928  1.00  0.00     0.031 A 
ATOM     39  C   UNL A   1      41.900  27.798  29.511  1.00  0.00     0.074 A 
ATOM     40  C   UNL A   1      39.687  28.833  29.105  1.00  0.00     0.049 A 
ATOM     41  N   UNL A   1      42.471  28.702  30.265  1.00  0.00    -0.248 NA
ATOM     42  C   UNL A   1      42.750  26.629  29.227  1.00  0.00     0.031 C 
ATOM     43  C   UNL A   1      38.317  28.926  28.596  1.00  0.00     0.029 A 
ATOM     44  N   UNL A   1      39.877  30.019  29.768  1.00  0.00    -0.354 N 
ATOM     45  C   UNL A   1      43.738  28.207  30.550  1.00  0.00     0.074 A 
ATOM     46  C   UNL A   1      43.834  26.902  29.938  1.00  0.00     0.031 C 
ATOM     47  C   UNL A   1      37.799  30.116  28.946  1.00  0.00     0.029 A 
ATOM     48  C   UNL A   1      38.782  30.849  29.738  1.00  0.00     0.049 A 
ATOM     49  H   UNL A   1      40.718  30.253  30.223  1.00  0.00     0.167 HD
ATOM     50  C   UNL A   1      44.743  28.804  31.235  1.00  0.00     0.037 A 
ATOM     51  C   UNL A   1      38.591  32.061  30.297  1.00  0.00     0.037 A 
ATOM     52  C   UNL A   1      44.648  30.115  31.821  1.00  0.00     0.049 A 
ATOM     53  C   UNL A   1      39.709  32.684  31.090  1.00  0.00     0.074 A 
ATOM     54  C   UNL A   1      45.618  30.823  32.505  1.00  0.00     0.029 A 
ATOM     55  N   UNL A   1      43.516  30.917  31.785  1.00  0.00    -0.354 N 
ATOM     56  N   UNL A   1      40.912  32.217  31.327  1.00  0.00    -0.248 NA
ATOM     57  C   UNL A   1      39.442  33.996  31.694  1.00  0.00     0.031 C 
ATOM     58  C   UNL A   1      45.060  32.036  32.922  1.00  0.00     0.029 A 
ATOM     59  C   UNL A   1      43.757  32.104  32.457  1.00  0.00     0.049 A 
ATOM     60  H   UNL A   1      42.668  30.678  31.348  1.00  0.00     0.167 HD
ATOM     61  C   UNL A   1      41.551  33.184  32.095  1.00  0.00     0.074 A 
ATOM     62  C   UNL A   1      40.608  34.271  32.262  1.00  0.00     0.031 C 
ATOM     63  C   UNL A   1      42.801  33.172  32.620  1.00  0.00     0.037 A 
BRANCH  50  64
ATOM     64  C   UNL A   1      46.035  28.048  31.379  1.00  0.00     0.058 A 
ATOM     65  C   UNL A   1      46.259  27.175  32.456  1.00  0.00     0.135 A 
ATOM     66  C   UNL A   1      47.044  28.163  30.410  1.00  0.00     0.135 A 
ATOM     67  F   UNL A   1      45.335  27.042  33.422  1.00  0.00    -0.206 F 
ATOM     68  C   UNL A   1      47.443  26.457  32.577  1.00  0.00     0.059 A 
ATOM     69  C   UNL A   1      48.227  27.433  30.497  1.00  0.00     0.059 A 
ATOM     70  F   UNL A   1      46.886  28.988  29.363  1.00  0.00    -0.206 F 
ATOM     71  C   UNL A   1      48.421  26.591  31.590  1.00  0.00     0.060 A 
BRANCH  71  72
ATOM     72  S   UNL A   1      49.944  25.635  31.757  1.00  0.00     0.124 S 
ATOM     73  O   UNL A   1      50.891  26.667  32.166  1.00  0.00    -0.237 OA
ATOM     74  O   UNL A   1      49.586  24.660  32.781  1.00  0.00    -0.237 OA
ATOM     75  O   UNL A   1      50.152  25.089  30.419  1.00  0.00    -0.744 OA
ENDBRANCH  71  72
ENDBRANCH  50  64
BRANCH  51  76
ATOM     76  C   UNL A   1      37.297  32.771  30.109  1.00  0.00     0.058 A 
ATOM     77  C   UNL A   1      36.215  32.528  30.966  1.00  0.00     0.135 A 
ATOM     78  C   UNL A   1      37.121  33.714  29.085  1.00  0.00     0.135 A 
ATOM     79  F   UNL A   1      36.330  31.628  31.955  1.00  0.00    -0.206 F 
ATOM     80  C   UNL A   1      34.999  33.186  30.810  1.00  0.00     0.059 A 
ATOM     81  C   UNL A   1      35.923  34.405  28.924  1.00  0.00     0.059 A 
ATOM     82  F   UNL A   1      38.129  33.992  28.245  1.00  0.00    -0.206 F 
ATOM     83  C   UNL A   1      34.865  34.128  29.789  1.00  0.00     0.060 A 
BRANCH  83  84
ATOM     84  S   UNL A   1      33.299  35.015  29.633  1.00  0.00     0.124 S 
ATOM     85  O   UNL A   1      32.536  34.117  28.773  1.00  0.00    -0.237 OA
ATOM     86  O   UNL A   1      32.858  35.097  31.022  1.00  0.00    -0.237 OA
ATOM     87  O   UNL A   1      33.690  36.285  29.030  1.00  0.00    -0.744 OA
ENDBRANCH  83  84
ENDBRANCH  51  76
BRANCH  63  88
ATOM     88  C   UNL A   1      43.226  34.370  33.422  1.00  0.00     0.058 A 
ATOM     89  C   UNL A   1      43.864  35.465  32.818  1.00  0.00     0.135 A 
ATOM     90  C   UNL A   1      42.943  34.450  34.795  1.00  0.00     0.135 A 
ATOM     91  F   UNL A   1      44.162  35.437  31.509  1.00  0.00    -0.206 F 
ATOM     92  C   UNL A   1      44.228  36.588  33.553  1.00  0.00     0.059 A 
ATOM     93  C   UNL A   1      43.271  35.577  35.543  1.00  0.00     0.059 A 
ATOM     94  F   UNL A   1      42.324  33.435  35.419  1.00  0.00    -0.206 F 
ATOM     95  C   UNL A   1      43.924  36.636  34.915  1.00  0.00     0.060 A 
BRANCH  95  96
ATOM     96  S   UNL A   1      44.376  38.114  35.846  1.00  0.00     0.124 S 
ATOM     97  O   UNL A   1      43.711  37.873  37.123  1.00  0.00    -0.237 OA
ATOM     98  O   UNL A   1      45.833  38.036  35.865  1.00  0.00    -0.237 OA
ATOM     99  O   UNL A   1      43.822  39.203  35.047  1.00  0.00    -0.744 OA
ENDBRANCH  95  96
ENDBRANCH  63  88
ENDBRANCH  37  38
ENDBRANCH  29  32
ENDBRANCH  27  28
ENDBRANCH  26  27
ENDBRANCH   1  26
TORSDOF 17
ENDMDL
MODEL 2
REMARK VINA RESULT:     -11.0      3.769      9.258
REMARK SMILES Cc1cc2c(c(C)c1Cl)C=C(C(=O)NCCCCCCNC(=O)c1ccc(-c3c4nc(c(-c5c(F)cc(S(=O)(=O)[O-])cc5F)c5ccc([nH]5)c(-c5c(F)cc(S(=O)(=O)[O-])cc5F)c5nc(c(-c6c(F)cc(S(=O)(=O)[O-])cc6F)c6ccc3[nH]6)C=C5)C=C4)cc1)[C@@H](C(F)(F)F)O2
REMARK SMILES IDX 18 1 17 2 16 3 15 4 14 5 12 6 13 7 11 9 1 10 2 11 3 12 8 13
REMARK SMILES IDX 4 14 6 15 9 16 5 17 95 18 7 19 10 20 90 21 91 22 92 23 93 24
REMARK SMILES IDX 94 25 19 26 20 27 21 28 22 29 23 31 24 32 25 33 89 34 26 35
REMARK SMILES IDX 88 36 27 37 28 38 29 39 82 40 30 41 87 42 81 43 83 44 31 45
REMARK SMILES IDX 86 46 80 47 79 48 32 50 66 51 45 52 65 53 46 54 49 55 64 56
REMARK SMILES IDX 84 57 47 58 48 59 63 61 85 62 50 63 33 64 34 65 43 66 35 67
REMARK SMILES IDX 36 68 42 69 44 70 37 71 38 72 39 73 40 74 41 75 67 76 68 77
REMARK SMILES IDX 77 78 69 79 70 80 76 81 78 82 71 83 72 84 73 85 74 86 75 87
REMARK SMILES IDX 51 88 52 89 61 90 53 91 54 92 60 93 62 94 55 95 56 96 57 97
REMARK SMILES IDX 58 98 59 99
REMARK H PARENT 14 8 21 30 83 49 49 60
REMARK Flexibility Score: inf
ROOT
ATOM      1  C   UNL A   1      41.583  21.986  26.472  1.00  0.00     0.002 C 
ENDROOT
BRANCH   1   2
ATOM      2  C   UNL A   1      40.128  22.428  26.678  1.00  0.00     0.002 C 
BRANCH   2   3
ATOM      3  C   UNL A   1      39.084  21.584  25.944  1.00  0.00     0.021 C 
BRANCH   3   4
ATOM      4  C   UNL A   1      37.752  22.297  25.744  1.00  0.00     0.116 C 
BRANCH   4   5
ATOM      5  N   UNL A   1      37.490  22.562  24.341  1.00  0.00    -0.352 N 
ATOM      6  C   UNL A   1      36.422  22.885  23.576  1.00  0.00     0.251 C 
ATOM      7  O   UNL A   1      36.663  23.043  22.375  1.00  0.00    -0.270 OA
ATOM      8  H   UNL A   1      38.310  22.486  23.801  1.00  0.00     0.163 HD
BRANCH   6   9
ATOM      9  C   UNL A   1      35.023  23.059  24.075  1.00  0.00     0.067 C 
ATOM     10  C   UNL A   1      29.298  25.098  26.415  1.00  0.00     0.046 C 
ATOM     11  C   UNL A   1      30.726  24.947  25.965  1.00  0.00    -0.028 A 
ATOM     12  C   UNL A   1      31.099  23.758  25.336  1.00  0.00     0.052 A 
ATOM     13  C   UNL A   1      31.692  25.959  26.134  1.00  0.00     0.047 A 
ATOM     14  C   UNL A   1      32.405  23.570  24.898  1.00  0.00     0.128 A 
ATOM     15  C   UNL A   1      33.026  25.782  25.688  1.00  0.00    -0.021 A 
ATOM     16  Cl  UNL A   1      31.202  27.444  26.893  1.00  0.00    -0.084 Cl
ATOM     17  C   UNL A   1      33.375  24.563  25.056  1.00  0.00     0.022 A 
ATOM     18  O   UNL A   1      32.633  22.381  24.277  1.00  0.00    -0.475 OA
ATOM     19  C   UNL A   1      34.077  26.853  25.865  1.00  0.00     0.047 C 
ATOM     20  C   UNL A   1      34.710  24.293  24.512  1.00  0.00     0.026 C 
ATOM     21  C   UNL A   1      34.011  21.956  24.145  1.00  0.00     0.314 C 
BRANCH  21  22
ATOM     22  C   UNL A   1      34.327  20.922  25.239  1.00  0.00     0.429 C 
ATOM     23  F   UNL A   1      33.244  20.144  25.486  1.00  0.00    -0.167 F 
ATOM     24  F   UNL A   1      35.329  20.081  24.891  1.00  0.00    -0.167 F 
ATOM     25  F   UNL A   1      34.687  21.501  26.408  1.00  0.00    -0.167 F 
ENDBRANCH  21  22
ENDBRANCH   6   9
ENDBRANCH   4   5
ENDBRANCH   3   4
ENDBRANCH   2   3
ENDBRANCH   1   2
BRANCH   1  26
ATOM     26  C   UNL A   1      42.514  22.228  27.665  1.00  0.00     0.021 C 
BRANCH  26  27
ATOM     27  C   UNL A   1      43.367  23.487  27.553  1.00  0.00     0.116 C 
BRANCH  27  28
ATOM     28  N   UNL A   1      43.045  24.245  26.356  1.00  0.00    -0.352 N 
ATOM     29  C   UNL A   1      42.355  25.420  26.239  1.00  0.00     0.251 C 
ATOM     30  H   UNL A   1      43.369  23.858  25.510  1.00  0.00     0.163 HD
ATOM     31  O   UNL A   1      41.958  25.790  25.130  1.00  0.00    -0.269 OA
BRANCH  29  32
ATOM     32  C   UNL A   1      42.087  26.240  27.435  1.00  0.00     0.039 A 
ATOM     33  C   UNL A   1      40.957  25.964  28.209  1.00  0.00     0.014 A 
ATOM     34  C   UNL A   1      42.931  27.302  27.772  1.00  0.00     0.014 A 
ATOM     35  C   UNL A   1      40.691  26.737  29.340  1.00  0.00     0.010 A 
ATOM     36  C   UNL A   1      42.702  28.027  28.936  1.00  0.00     0.010 A 
ATOM     37  C   UNL A   1      41.569  27.765  29.719  1.00  0.00    -0.014 A 
BRANCH  37  38
ATOM     38  C   UNL A   1      41.285  28.626  30.892  1.00  0.00     0.031 A 
ATOM     39  C   UNL A   1      40.170  29.633  30.816  1.00  0.00     0.074 A 
ATOM     40  C   UNL A   1      42.046  28.532  31.999  1.00  0.00     0.049 A 
ATOM     41  N   UNL A   1      39.815  30.541  31.687  1.00  0.00    -0.248 NA
ATOM     42  C   UNL A   1      39.361  29.633  29.585  1.00  0.00     0.031 C 
ATOM     43  C   UNL A   1      43.162  27.601  32.181  1.00  0.00     0.029 A 
ATOM     44  N   UNL A   1      42.000  29.230  33.178  1.00  0.00    -0.354 N 
ATOM     45  C   UNL A   1      38.751  31.222  31.109  1.00  0.00     0.074 A 
ATOM     46  C   UNL A   1      38.554  30.664  29.791  1.00  0.00     0.031 C 
ATOM     47  C   UNL A   1      43.680  27.773  33.410  1.00  0.00     0.029 A 
ATOM     48  C   UNL A   1      42.962  28.850  34.083  1.00  0.00     0.049 A 
ATOM     49  H   UNL A   1      41.341  29.939  33.358  1.00  0.00     0.167 HD
ATOM     50  C   UNL A   1      37.987  32.205  31.642  1.00  0.00     0.037 A 
ATOM     51  C   UNL A   1      43.238  29.326  35.314  1.00  0.00     0.037 A 
ATOM     52  C   UNL A   1      38.175  32.739  32.965  1.00  0.00     0.049 A 
ATOM     53  C   UNL A   1      42.401  30.449  35.867  1.00  0.00     0.074 A 
ATOM     54  C   UNL A   1      37.435  33.711  33.613  1.00  0.00     0.029 A 
ATOM     55  N   UNL A   1      39.171  32.341  33.846  1.00  0.00    -0.354 N 
ATOM     56  N   UNL A   1      41.379  31.064  35.320  1.00  0.00    -0.248 NA
ATOM     57  C   UNL A   1      42.756  30.944  37.204  1.00  0.00     0.031 C 
ATOM     58  C   UNL A   1      38.010  33.933  34.868  1.00  0.00     0.029 A 
ATOM     59  C   UNL A   1      39.080  33.066  35.022  1.00  0.00     0.049 A 
ATOM     60  H   UNL A   1      39.844  31.647  33.660  1.00  0.00     0.167 HD
ATOM     61  C   UNL A   1      40.961  32.009  36.250  1.00  0.00     0.074 A 
ATOM     62  C   UNL A   1      41.825  31.867  37.404  1.00  0.00     0.031 C 
ATOM     63  C   UNL A   1      39.956  32.915  36.157  1.00  0.00     0.037 A 
BRANCH  50  64
ATOM     64  C   UNL A   1      36.872  32.759  30.799  1.00  0.00     0.058 A 
ATOM     65  C   UNL A   1      37.100  33.772  29.853  1.00  0.00     0.135 A 
ATOM     66  C   UNL A   1      35.570  32.244  30.905  1.00  0.00     0.135 A 
ATOM     67  F   UNL A   1      38.323  34.313  29.725  1.00  0.00    -0.206 F 
ATOM     68  C   UNL A   1      36.075  34.268  29.056  1.00  0.00     0.059 A 
ATOM     69  C   UNL A   1      34.534  32.707  30.097  1.00  0.00     0.059 A 
ATOM     70  F   UNL A   1      35.294  31.280  31.796  1.00  0.00    -0.206 F 
ATOM     71  C   UNL A   1      34.795  33.726  29.183  1.00  0.00     0.060 A 
BRANCH  71  72
ATOM     72  S   UNL A   1      33.482  34.371  28.125  1.00  0.00     0.124 S 
ATOM     73  O   UNL A   1      32.865  33.139  27.644  1.00  0.00    -0.237 OA
ATOM     74  O   UNL A   1      32.686  35.155  29.063  1.00  0.00    -0.237 OA
ATOM     75  O   UNL A   1      34.204  35.144  27.118  1.00  0.00    -0.744 OA
ENDBRANCH  71  72
ENDBRANCH  50  64
BRANCH  51  76
ATOM     76  C   UNL A   1      44.343  28.731  36.111  1.00  0.00     0.058 A 
ATOM     77  C   UNL A   1      45.639  29.261  36.050  1.00  0.00     0.135 A 
ATOM     78  C   UNL A   1      44.127  27.634  36.959  1.00  0.00     0.135 A 
ATOM     79  F   UNL A   1      45.900  30.304  35.246  1.00  0.00    -0.206 F 
ATOM     80  C   UNL A   1      46.685  28.721  36.792  1.00  0.00     0.059 A 
ATOM     81  C   UNL A   1      45.150  27.092  37.732  1.00  0.00     0.059 A 
ATOM     82  F   UNL A   1      42.902  27.095  37.064  1.00  0.00    -0.206 F 
ATOM     83  C   UNL A   1      46.428  27.639  37.635  1.00  0.00     0.060 A 
BRANCH  83  84
ATOM     84  S   UNL A   1      47.783  26.985  38.634  1.00  0.00     0.124 S 
ATOM     85  O   UNL A   1      48.188  28.164  39.392  1.00  0.00    -0.237 OA
ATOM     86  O   UNL A   1      47.118  25.933  39.396  1.00  0.00    -0.237 OA
ATOM     87  O   UNL A   1      48.741  26.517  37.637  1.00  0.00    -0.744 OA
ENDBRANCH  83  84
ENDBRANCH  51  76
BRANCH  63  88
ATOM     88  C   UNL A   1      39.733  33.824  37.334  1.00  0.00     0.058 A 
ATOM     89  C   UNL A   1      38.919  33.439  38.411  1.00  0.00     0.135 A 
ATOM     90  C   UNL A   1      40.384  35.065  37.414  1.00  0.00     0.135 A 
ATOM     91  F   UNL A   1      38.270  32.263  38.382  1.00  0.00    -0.206 F 
ATOM     92  C   UNL A   1      38.738  34.264  39.515  1.00  0.00     0.059 A 
ATOM     93  C   UNL A   1      40.242  35.894  38.523  1.00  0.00     0.059 A 
ATOM     94  F   UNL A   1      41.184  35.475  36.417  1.00  0.00    -0.206 F 
ATOM     95  C   UNL A   1      39.407  35.489  39.564  1.00  0.00     0.060 A 
BRANCH  95  96
ATOM     96  S   UNL A   1      39.185  36.534  41.019  1.00  0.00     0.124 S 
ATOM     97  O   UNL A   1      38.662  37.760  40.424  1.00  0.00    -0.237 OA
ATOM     98  O   UNL A   1      38.237  35.761  41.814  1.00  0.00    -0.237 OA
ATOM     99  O   UNL A   1      40.531  36.632  41.576  1.00  0.00    -0.744 OA
ENDBRANCH  95  96
ENDBRANCH  63  88
ENDBRANCH  37  38
ENDBRANCH  29  32
ENDBRANCH  27  28
ENDBRANCH  26  27
ENDBRANCH   1  26
TORSDOF 17
ENDMDL
MODEL 3
REMARK VINA RESULT:     -11.0      3.564      5.122
REMARK SMILES Cc1cc2c(c(C)c1Cl)C=C(C(=O)NCCCCCCNC(=O)c1ccc(-c3c4nc(c(-c5c(F)cc(S(=O)(=O)[O-])cc5F)c5ccc([nH]5)c(-c5c(F)cc(S(=O)(=O)[O-])cc5F)c5nc(c(-c6c(F)cc(S(=O)(=O)[O-])cc6F)c6ccc3[nH]6)C=C5)C=C4)cc1)[C@@H](C(F)(F)F)O2
REMARK SMILES IDX 18 1 17 2 16 3 15 4 14 5 12 6 13 7 11 9 1 10 2 11 3 12 8 13
REMARK SMILES IDX 4 14 6 15 9 16 5 17 95 18 7 19 10 20 90 21 91 22 92 23 93 24
REMARK SMILES IDX 94 25 19 26 20 27 21 28 22 29 23 31 24 32 25 33 89 34 26 35
REMARK SMILES IDX 88 36 27 37 28 38 29 39 82 40 30 41 87 42 81 43 83 44 31 45
REMARK SMILES IDX 86 46 80 47 79 48 32 50 66 51 45 52 65 53 46 54 49 55 64 56
REMARK SMILES IDX 84 57 47 58 48 59 63 61 85 62 50 63 33 64 34 65 43 66 35 67
REMARK SMILES IDX 36 68 42 69 44 70 37 71 38 72 39 73 40 74 41 75 67 76 68 77
REMARK SMILES IDX 77 78 69 79 70 80 76 81 78 82 71 83 72 84 73 85 74 86 75 87
REMARK SMILES IDX 51 88 52 89 61 90 53 91 54 92 60 93 62 94 55 95 56 96 57 97
REMARK SMILES IDX 58 98 59 99
REMARK H PARENT 14 8 21 30 83 49 49 60
REMARK Flexibility Score: inf
ROOT
ATOM      1  C   UNL A   1      36.306  23.670  24.785  1.00  0.00     0.002 C 
ENDROOT
BRANCH   1   2
ATOM      2  C   UNL A   1      35.120  24.476  25.334  1.00  0.00     0.002 C 
BRANCH   2   3
ATOM      3  C   UNL A   1      34.479  25.445  24.338  1.00  0.00     0.021 C 
BRANCH   3   4
ATOM      4  C   UNL A   1      33.356  26.283  24.937  1.00  0.00     0.116 C 
BRANCH   4   5
ATOM      5  N   UNL A   1      32.070  25.959  24.346  1.00  0.00    -0.352 N 
ATOM      6  C   UNL A   1      31.305  24.855  24.182  1.00  0.00     0.251 C 
ATOM      7  O   UNL A   1      30.225  25.043  23.613  1.00  0.00    -0.270 OA
ATOM      8  H   UNL A   1      31.639  26.756  23.960  1.00  0.00     0.163 HD
BRANCH   6   9
ATOM      9  C   UNL A   1      31.670  23.477  24.633  1.00  0.00     0.067 C 
ATOM     10  C   UNL A   1      33.334  17.215  25.283  1.00  0.00     0.046 C 
ATOM     11  C   UNL A   1      32.922  18.577  24.796  1.00  0.00    -0.028 A 
ATOM     12  C   UNL A   1      32.871  19.622  25.719  1.00  0.00     0.052 A 
ATOM     13  C   UNL A   1      32.607  18.844  23.448  1.00  0.00     0.047 A 
ATOM     14  C   UNL A   1      32.500  20.901  25.319  1.00  0.00     0.128 A 
ATOM     15  C   UNL A   1      32.231  20.144  23.026  1.00  0.00    -0.021 A 
ATOM     16  Cl  UNL A   1      32.705  17.537  22.307  1.00  0.00    -0.084 Cl
ATOM     17  C   UNL A   1      32.186  21.184  23.988  1.00  0.00     0.022 A 
ATOM     18  O   UNL A   1      32.516  21.836  26.308  1.00  0.00    -0.475 OA
ATOM     19  C   UNL A   1      31.884  20.449  21.587  1.00  0.00     0.047 C 
ATOM     20  C   UNL A   1      31.859  22.574  23.653  1.00  0.00     0.026 C 
ATOM     21  C   UNL A   1      31.789  23.065  26.070  1.00  0.00     0.314 C 
BRANCH  21  22
ATOM     22  C   UNL A   1      30.430  22.995  26.787  1.00  0.00     0.429 C 
ATOM     23  F   UNL A   1      29.837  24.214  26.802  1.00  0.00    -0.167 F 
ATOM     24  F   UNL A   1      29.560  22.155  26.180  1.00  0.00    -0.167 F 
ATOM     25  F   UNL A   1      30.545  22.582  28.070  1.00  0.00    -0.167 F 
ENDBRANCH  21  22
ENDBRANCH   6   9
ENDBRANCH   4   5
ENDBRANCH   3   4
ENDBRANCH   2   3
ENDBRANCH   1   2
BRANCH   1  26
ATOM     26  C   UNL A   1      37.317  23.199  25.836  1.00  0.00     0.021 C 
BRANCH  26  27
ATOM     27  C   UNL A   1      38.257  24.289  26.339  1.00  0.00     0.116 C 
BRANCH  27  28
ATOM     28  N   UNL A   1      39.650  23.928  26.136  1.00  0.00    -0.352 N 
ATOM     29  C   UNL A   1      40.779  24.568  26.568  1.00  0.00     0.251 C 
ATOM     30  H   UNL A   1      39.802  23.108  25.612  1.00  0.00     0.163 HD
ATOM     31  O   UNL A   1      41.876  24.264  26.093  1.00  0.00    -0.269 OA
BRANCH  29  32
ATOM     32  C   UNL A   1      40.681  25.618  27.599  1.00  0.00     0.039 A 
ATOM     33  C   UNL A   1      41.645  26.628  27.634  1.00  0.00     0.014 A 
ATOM     34  C   UNL A   1      39.658  25.586  28.552  1.00  0.00     0.014 A 
ATOM     35  C   UNL A   1      41.566  27.625  28.609  1.00  0.00     0.010 A 
ATOM     36  C   UNL A   1      39.541  26.616  29.479  1.00  0.00     0.010 A 
ATOM     37  C   UNL A   1      40.505  27.632  29.530  1.00  0.00    -0.014 A 
BRANCH  37  38
ATOM     38  C   UNL A   1      40.422  28.655  30.600  1.00  0.00     0.031 A 
ATOM     39  C   UNL A   1      41.341  28.556  31.787  1.00  0.00     0.074 A 
ATOM     40  C   UNL A   1      39.506  29.639  30.524  1.00  0.00     0.049 A 
ATOM     41  N   UNL A   1      41.371  29.287  32.871  1.00  0.00    -0.248 NA
ATOM     42  C   UNL A   1      42.342  27.477  31.762  1.00  0.00     0.031 C 
ATOM     43  C   UNL A   1      38.555  29.827  29.426  1.00  0.00     0.029 A 
ATOM     44  N   UNL A   1      39.220  30.663  31.390  1.00  0.00    -0.354 N 
ATOM     45  C   UNL A   1      42.386  28.753  33.657  1.00  0.00     0.074 A 
ATOM     46  C   UNL A   1      42.907  27.602  32.954  1.00  0.00     0.031 C 
ATOM     47  C   UNL A   1      37.807  30.915  29.676  1.00  0.00     0.029 A 
ATOM     48  C   UNL A   1      38.195  31.475  30.967  1.00  0.00     0.049 A 
ATOM     49  H   UNL A   1      39.704  30.803  32.236  1.00  0.00     0.167 HD
ATOM     50  C   UNL A   1      42.860  29.200  34.844  1.00  0.00     0.037 A 
ATOM     51  C   UNL A   1      37.627  32.544  31.560  1.00  0.00     0.037 A 
ATOM     52  C   UNL A   1      42.351  30.361  35.524  1.00  0.00     0.049 A 
ATOM     53  C   UNL A   1      38.144  32.995  32.900  1.00  0.00     0.074 A 
ATOM     54  C   UNL A   1      42.784  30.919  36.714  1.00  0.00     0.029 A 
ATOM     55  N   UNL A   1      41.300  31.147  35.073  1.00  0.00    -0.354 N 
ATOM     56  N   UNL A   1      39.123  32.497  33.617  1.00  0.00    -0.248 NA
ATOM     57  C   UNL A   1      37.478  34.153  33.512  1.00  0.00     0.031 C 
ATOM     58  C   UNL A   1      41.966  32.016  37.004  1.00  0.00     0.029 A 
ATOM     59  C   UNL A   1      41.054  32.171  35.973  1.00  0.00     0.049 A 
ATOM     60  H   UNL A   1      40.802  30.998  34.237  1.00  0.00     0.167 HD
ATOM     61  C   UNL A   1      39.199  33.288  34.758  1.00  0.00     0.074 A 
ATOM     62  C   UNL A   1      38.183  34.312  34.623  1.00  0.00     0.031 C 
ATOM     63  C   UNL A   1      40.031  33.176  35.824  1.00  0.00     0.037 A 
BRANCH  50  64
ATOM     64  C   UNL A   1      43.992  28.439  35.475  1.00  0.00     0.058 A 
ATOM     65  C   UNL A   1      43.758  27.396  36.386  1.00  0.00     0.135 A 
ATOM     66  C   UNL A   1      45.325  28.725  35.137  1.00  0.00     0.135 A 
ATOM     67  F   UNL A   1      42.504  27.094  36.759  1.00  0.00    -0.206 F 
ATOM     68  C   UNL A   1      44.804  26.676  36.952  1.00  0.00     0.059 A 
ATOM     69  C   UNL A   1      46.386  27.998  35.671  1.00  0.00     0.059 A 
ATOM     70  F   UNL A   1      45.607  29.716  34.276  1.00  0.00    -0.206 F 
ATOM     71  C   UNL A   1      46.115  26.982  36.586  1.00  0.00     0.060 A 
BRANCH  71  72
ATOM     72  S   UNL A   1      47.457  26.022  37.318  1.00  0.00     0.124 S 
ATOM     73  O   UNL A   1      47.670  26.733  38.576  1.00  0.00    -0.237 OA
ATOM     74  O   UNL A   1      46.861  24.695  37.433  1.00  0.00    -0.237 OA
ATOM     75  O   UNL A   1      48.535  26.142  36.341  1.00  0.00    -0.744 OA
ENDBRANCH  71  72
ENDBRANCH  50  64
BRANCH  51  76
ATOM     76  C   UNL A   1      36.519  33.269  30.882  1.00  0.00     0.058 A 
ATOM     77  C   UNL A   1      35.194  33.120  31.314  1.00  0.00     0.135 A 
ATOM     78  C   UNL A   1      36.761  34.134  29.804  1.00  0.00     0.135 A 
ATOM     79  F   UNL A   1      34.909  32.296  32.335  1.00  0.00    -0.206 F 
ATOM     80  C   UNL A   1      34.145  33.794  30.697  1.00  0.00     0.059 A 
ATOM     81  C   UNL A   1      35.733  34.840  29.186  1.00  0.00     0.059 A 
ATOM     82  F   UNL A   1      38.014  34.321  29.359  1.00  0.00    -0.206 F 
ATOM     83  C   UNL A   1      34.426  34.657  29.636  1.00  0.00     0.060 A 
BRANCH  83  84
ATOM     84  S   UNL A   1      33.062  35.568  28.881  1.00  0.00     0.124 S 
ATOM     85  O   UNL A   1      32.373  34.511  28.147  1.00  0.00    -0.237 OA
ATOM     86  O   UNL A   1      32.364  36.094  30.050  1.00  0.00    -0.237 OA
ATOM     87  O   UNL A   1      33.738  36.567  28.060  1.00  0.00    -0.744 OA
ENDBRANCH  83  84
ENDBRANCH  51  76
BRANCH  63  88
ATOM     88  C   UNL A   1      39.880  34.185  36.928  1.00  0.00     0.058 A 
ATOM     89  C   UNL A   1      40.440  35.468  36.827  1.00  0.00     0.135 A 
ATOM     90  C   UNL A   1      39.122  33.888  38.072  1.00  0.00     0.135 A 
ATOM     91  F   UNL A   1      41.179  35.801  35.756  1.00  0.00    -0.206 F 
ATOM     92  C   UNL A   1      40.274  36.414  37.833  1.00  0.00     0.059 A 
ATOM     93  C   UNL A   1      38.917  34.829  39.076  1.00  0.00     0.059 A 
ATOM     94  F   UNL A   1      38.554  32.679  38.212  1.00  0.00    -0.206 F 
ATOM     95  C   UNL A   1      39.507  36.085  38.953  1.00  0.00     0.060 A 
BRANCH  95  96
ATOM     96  S   UNL A   1      39.276  37.335  40.234  1.00  0.00     0.124 S 
ATOM     97  O   UNL A   1      38.630  36.560  41.289  1.00  0.00    -0.237 OA
ATOM     98  O   UNL A   1      40.646  37.757  40.506  1.00  0.00    -0.237 OA
ATOM     99  O   UNL A   1      38.433  38.336  39.586  1.00  0.00    -0.744 OA
ENDBRANCH  95  96
ENDBRANCH  63  88
ENDBRANCH  37  38
ENDBRANCH  29  32
ENDBRANCH  27  28
ENDBRANCH  26  27
ENDBRANCH   1  26
TORSDOF 17
ENDMDL
