MODEL 1
REMARK VINA RESULT:     -13.0      0.000      0.000
REMARK SMILES O=C(NCCCCCCNC(=O)[C@@H](Cc1ccc(O)cc1)Nc1c2ccccc2nc2ccccc12)c1ccc(-c2c3nc(c(-c4c(F)cc(S(=O)(=O)[O-])cc4F)c4ccc([nH]4)c(-c4c(F)cc(S(=O)(=O)[O-])cc4F)c4nc(c(-c5c(F)cc(S(=O)(=O)[O-])cc5F)c5ccc2[nH]5)C=C4)C=C3)cc1
REMARK SMILES IDX 6 1 5 2 4 3 3 4 1 5 2 6 37 8 38 9 102 10 39 11 101 12 40 13
REMARK SMILES IDX 41 14 42 15 95 16 43 17 100 18 94 19 96 20 44 21 99 22 93 23
REMARK SMILES IDX 92 24 45 26 79 27 58 28 78 29 59 30 62 31 77 32 97 33 60 34
REMARK SMILES IDX 61 35 76 37 98 38 63 39 46 40 47 41 56 42 48 43 49 44 55 45
REMARK SMILES IDX 57 46 50 47 51 48 52 49 53 50 54 51 80 52 81 53 90 54 82 55
REMARK SMILES IDX 83 56 89 57 91 58 84 59 85 60 86 61 87 62 88 63 64 64 65 65
REMARK SMILES IDX 74 66 66 67 67 68 73 69 75 70 68 71 69 72 70 73 71 74 72 75
REMARK SMILES IDX 7 76 8 77 9 78 10 79 11 80 12 82 13 83 14 84 15 85 16 86
REMARK SMILES IDX 21 87 17 88 20 89 18 90 19 91 22 93 23 95 24 96 36 97 25 98
REMARK SMILES IDX 29 99 31 100 35 101 26 102 28 103 30 104 32 105 34 106
REMARK SMILES IDX 27 107 33 108
REMARK H PARENT 3 7 96 25 62 36 10 81 19 92 22 94
REMARK Flexibility Score: inf
ROOT
ATOM      1  C   UNL A   1      37.584  23.905  26.090  1.00  0.00     0.002 C 
ENDROOT
BRANCH   1   2
ATOM      2  C   UNL A   1      38.637  22.856  26.457  1.00  0.00     0.021 C 
BRANCH   2   3
ATOM      3  C   UNL A   1      39.909  23.419  27.079  1.00  0.00     0.116 C 
BRANCH   3   4
ATOM      4  N   UNL A   1      40.737  24.109  26.100  1.00  0.00    -0.352 N 
ATOM      5  O   UNL A   1      41.653  25.881  25.053  1.00  0.00    -0.269 OA
ATOM      6  C   UNL A   1      41.140  25.423  26.065  1.00  0.00     0.251 C 
ATOM      7  H   UNL A   1      41.056  23.551  25.352  1.00  0.00     0.163 HD
BRANCH   6   8
ATOM      8  C   UNL A   1      40.943  26.278  27.258  1.00  0.00     0.039 A 
ATOM      9  C   UNL A   1      41.777  27.374  27.480  1.00  0.00     0.014 A 
ATOM     10  C   UNL A   1      39.908  25.990  28.154  1.00  0.00     0.014 A 
ATOM     11  C   UNL A   1      41.678  28.084  28.668  1.00  0.00     0.010 A 
ATOM     12  C   UNL A   1      39.742  26.778  29.299  1.00  0.00     0.010 A 
ATOM     13  C   UNL A   1      40.642  27.818  29.578  1.00  0.00    -0.014 A 
BRANCH  13  14
ATOM     14  C   UNL A   1      40.487  28.713  30.756  1.00  0.00     0.031 A 
ATOM     15  C   UNL A   1      41.373  28.594  31.965  1.00  0.00     0.074 A 
ATOM     16  C   UNL A   1      39.559  29.689  30.687  1.00  0.00     0.049 A 
ATOM     17  N   UNL A   1      41.400  29.346  33.036  1.00  0.00    -0.248 NA
ATOM     18  C   UNL A   1      42.344  27.490  31.983  1.00  0.00     0.031 C 
ATOM     19  C   UNL A   1      38.619  29.878  29.577  1.00  0.00     0.029 A 
ATOM     20  N   UNL A   1      39.266  30.719  31.543  1.00  0.00    -0.354 N 
ATOM     21  C   UNL A   1      42.389  28.811  33.855  1.00  0.00     0.074 A 
ATOM     22  C   UNL A   1      42.909  27.643  33.175  1.00  0.00     0.031 C 
ATOM     23  C   UNL A   1      37.899  30.988  29.791  1.00  0.00     0.029 A 
ATOM     24  C   UNL A   1      38.270  31.549  31.082  1.00  0.00     0.049 A 
ATOM     25  H   UNL A   1      39.725  30.852  32.404  1.00  0.00     0.167 HD
ATOM     26  C   UNL A   1      42.828  29.263  35.055  1.00  0.00     0.037 A 
ATOM     27  C   UNL A   1      37.702  32.632  31.643  1.00  0.00     0.037 A 
ATOM     28  C   UNL A   1      42.300  30.428  35.724  1.00  0.00     0.049 A 
ATOM     29  C   UNL A   1      38.201  33.100  32.979  1.00  0.00     0.074 A 
ATOM     30  C   UNL A   1      42.684  30.972  36.939  1.00  0.00     0.029 A 
ATOM     31  N   UNL A   1      41.279  31.232  35.237  1.00  0.00    -0.354 N 
ATOM     32  N   UNL A   1      39.154  32.594  33.725  1.00  0.00    -0.248 NA
ATOM     33  C   UNL A   1      37.550  34.286  33.549  1.00  0.00     0.031 C 
ATOM     34  C   UNL A   1      41.866  32.075  37.206  1.00  0.00     0.029 A 
ATOM     35  C   UNL A   1      41.009  32.255  36.134  1.00  0.00     0.049 A 
ATOM     36  H   UNL A   1      40.813  31.094  34.380  1.00  0.00     0.167 HD
ATOM     37  C   UNL A   1      39.224  33.406  34.850  1.00  0.00     0.074 A 
ATOM     38  C   UNL A   1      38.241  34.455  34.667  1.00  0.00     0.031 C 
ATOM     39  C   UNL A   1      40.021  33.288  35.941  1.00  0.00     0.037 A 
BRANCH  26  40
ATOM     40  C   UNL A   1      43.938  28.502  35.733  1.00  0.00     0.058 A 
ATOM     41  C   UNL A   1      43.669  27.450  36.624  1.00  0.00     0.135 A 
ATOM     42  C   UNL A   1      45.284  28.779  35.439  1.00  0.00     0.135 A 
ATOM     43  F   UNL A   1      42.403  27.150  36.954  1.00  0.00    -0.206 F 
ATOM     44  C   UNL A   1      44.693  26.711  37.209  1.00  0.00     0.059 A 
ATOM     45  C   UNL A   1      46.323  28.035  35.994  1.00  0.00     0.059 A 
ATOM     46  F   UNL A   1      45.600  29.773  34.595  1.00  0.00    -0.206 F 
ATOM     47  C   UNL A   1      46.017  27.008  36.886  1.00  0.00     0.060 A 
BRANCH  47  48
ATOM     48  S   UNL A   1      47.330  26.022  37.636  1.00  0.00     0.124 S 
ATOM     49  O   UNL A   1      48.453  26.308  36.748  1.00  0.00    -0.237 OA
ATOM     50  O   UNL A   1      47.422  26.594  38.976  1.00  0.00    -0.237 OA
ATOM     51  O   UNL A   1      46.813  24.659  37.573  1.00  0.00    -0.744 OA
ENDBRANCH  47  48
ENDBRANCH  26  40
BRANCH  27  52
ATOM     52  C   UNL A   1      36.583  33.322  30.950  1.00  0.00     0.058 A 
ATOM     53  C   UNL A   1      36.803  34.133  29.829  1.00  0.00     0.135 A 
ATOM     54  C   UNL A   1      35.259  33.171  31.398  1.00  0.00     0.135 A 
ATOM     55  F   UNL A   1      38.048  34.309  29.362  1.00  0.00    -0.206 F 
ATOM     56  C   UNL A   1      35.757  34.793  29.190  1.00  0.00     0.059 A 
ATOM     57  C   UNL A   1      34.194  33.791  30.756  1.00  0.00     0.059 A 
ATOM     58  F   UNL A   1      34.990  32.387  32.453  1.00  0.00    -0.206 F 
ATOM     59  C   UNL A   1      34.455  34.614  29.663  1.00  0.00     0.060 A 
BRANCH  59  60
ATOM     60  S   UNL A   1      33.100  35.449  28.812  1.00  0.00     0.124 S 
ATOM     61  O   UNL A   1      33.819  36.443  28.022  1.00  0.00    -0.237 OA
ATOM     62  O   UNL A   1      32.487  34.357  28.063  1.00  0.00    -0.237 OA
ATOM     63  O   UNL A   1      32.292  35.977  29.909  1.00  0.00    -0.744 OA
ENDBRANCH  59  60
ENDBRANCH  27  52
BRANCH  39  64
ATOM     64  C   UNL A   1      39.870  34.338  37.008  1.00  0.00     0.058 A 
ATOM     65  C   UNL A   1      38.995  34.164  38.093  1.00  0.00     0.135 A 
ATOM     66  C   UNL A   1      40.608  35.530  36.945  1.00  0.00     0.135 A 
ATOM     67  F   UNL A   1      38.260  33.046  38.198  1.00  0.00    -0.206 F 
ATOM     68  C   UNL A   1      38.826  35.156  39.055  1.00  0.00     0.059 A 
ATOM     69  C   UNL A   1      40.478  36.520  37.914  1.00  0.00     0.059 A 
ATOM     70  F   UNL A   1      41.467  35.742  35.935  1.00  0.00    -0.206 F 
ATOM     71  C   UNL A   1      39.569  36.332  38.953  1.00  0.00     0.060 A 
BRANCH  71  72
ATOM     72  S   UNL A   1      39.336  37.613  40.203  1.00  0.00     0.124 S 
ATOM     73  O   UNL A   1      39.013  36.816  41.383  1.00  0.00    -0.237 OA
ATOM     74  O   UNL A   1      40.638  38.273  40.221  1.00  0.00    -0.237 OA
ATOM     75  O   UNL A   1      38.240  38.415  39.668  1.00  0.00    -0.744 OA
ENDBRANCH  71  72
ENDBRANCH  39  64
ENDBRANCH  13  14
ENDBRANCH   6   8
ENDBRANCH   3   4
ENDBRANCH   2   3
ENDBRANCH   1   2
BRANCH   1  76
ATOM     76  C   UNL A   1      36.130  23.419  26.117  1.00  0.00     0.002 C 
BRANCH  76  77
ATOM     77  C   UNL A   1      35.366  23.605  24.806  1.00  0.00     0.021 C 
BRANCH  77  78
ATOM     78  C   UNL A   1      34.347  24.744  24.808  1.00  0.00     0.116 C 
BRANCH  78  79
ATOM     79  N   UNL A   1      34.393  25.467  23.558  1.00  0.00    -0.354 N 
ATOM     80  C   UNL A   1      33.411  25.846  22.695  1.00  0.00     0.242 C 
ATOM     81  H   UNL A   1      35.298  25.733  23.280  1.00  0.00     0.163 HD
ATOM     82  O   UNL A   1      33.800  26.248  21.589  1.00  0.00    -0.273 OA
BRANCH  80  83
ATOM     83  C   UNL A   1      31.890  25.804  23.012  1.00  0.00     0.173 C 
BRANCH  83  84
ATOM     84  C   UNL A   1      31.221  24.426  22.748  1.00  0.00     0.070 C 
BRANCH  84  85
ATOM     85  C   UNL A   1      31.579  23.180  23.531  1.00  0.00    -0.045 A 
ATOM     86  C   UNL A   1      31.201  23.084  24.882  1.00  0.00     0.007 A 
ATOM     87  C   UNL A   1      32.353  22.144  22.988  1.00  0.00     0.007 A 
ATOM     88  C   UNL A   1      31.468  21.931  25.626  1.00  0.00     0.046 A 
ATOM     89  C   UNL A   1      32.593  20.976  23.718  1.00  0.00     0.046 A 
ATOM     90  C   UNL A   1      32.126  20.867  25.021  1.00  0.00     0.115 A 
BRANCH  90  91
ATOM     91  O   UNL A   1      32.314  19.685  25.669  1.00  0.00    -0.508 OA
ATOM     92  H   UNL A   1      31.761  18.954  25.480  1.00  0.00     0.293 HD
ENDBRANCH  90  91
ENDBRANCH  84  85
ENDBRANCH  83  84
BRANCH  83  93
ATOM     93  N   UNL A   1      31.575  26.404  24.315  1.00  0.00    -0.372 N 
ATOM     94  H   UNL A   1      31.404  25.771  25.049  1.00  0.00     0.161 HD
BRANCH  93  95
ATOM     95  C   UNL A   1      31.487  27.765  24.649  1.00  0.00     0.054 A 
ATOM     96  C   UNL A   1      32.387  28.438  25.544  1.00  0.00     0.024 A 
ATOM     97  C   UNL A   1      30.428  28.531  24.047  1.00  0.00     0.024 A 
ATOM     98  C   UNL A   1      33.488  27.868  26.239  1.00  0.00     0.012 A 
ATOM     99  C   UNL A   1      32.199  29.827  25.725  1.00  0.00     0.073 A 
ATOM    100  C   UNL A   1      30.385  29.913  24.313  1.00  0.00     0.073 A 
ATOM    101  C   UNL A   1      29.406  28.001  23.210  1.00  0.00     0.012 A 
ATOM    102  C   UNL A   1      34.321  28.602  27.088  1.00  0.00     0.001 A 
ATOM    103  C   UNL A   1      33.047  30.549  26.558  1.00  0.00     0.029 A 
ATOM    104  N   UNL A   1      31.243  30.532  25.123  1.00  0.00    -0.248 NA
ATOM    105  C   UNL A   1      29.408  30.705  23.723  1.00  0.00     0.029 A 
ATOM    106  C   UNL A   1      28.422  28.811  22.637  1.00  0.00     0.001 A 
ATOM    107  C   UNL A   1      34.098  29.954  27.247  1.00  0.00     0.002 A 
ATOM    108  C   UNL A   1      28.430  30.173  22.886  1.00  0.00     0.002 A 
ENDBRANCH  93  95
ENDBRANCH  83  93
ENDBRANCH  80  83
ENDBRANCH  78  79
ENDBRANCH  77  78
ENDBRANCH  76  77
ENDBRANCH   1  76
TORSDOF 21
ENDMDL
MODEL 2
REMARK VINA RESULT:     -12.9      0.183      2.309
REMARK SMILES O=C(NCCCCCCNC(=O)[C@@H](Cc1ccc(O)cc1)Nc1c2ccccc2nc2ccccc12)c1ccc(-c2c3nc(c(-c4c(F)cc(S(=O)(=O)[O-])cc4F)c4ccc([nH]4)c(-c4c(F)cc(S(=O)(=O)[O-])cc4F)c4nc(c(-c5c(F)cc(S(=O)(=O)[O-])cc5F)c5ccc2[nH]5)C=C4)C=C3)cc1
REMARK SMILES IDX 6 1 5 2 4 3 3 4 1 5 2 6 37 8 38 9 102 10 39 11 101 12 40 13
REMARK SMILES IDX 41 14 42 15 95 16 43 17 100 18 94 19 96 20 44 21 99 22 93 23
REMARK SMILES IDX 92 24 45 26 79 27 58 28 78 29 59 30 62 31 77 32 97 33 60 34
REMARK SMILES IDX 61 35 76 37 98 38 63 39 46 40 47 41 56 42 48 43 49 44 55 45
REMARK SMILES IDX 57 46 50 47 51 48 52 49 53 50 54 51 80 52 81 53 90 54 82 55
REMARK SMILES IDX 83 56 89 57 91 58 84 59 85 60 86 61 87 62 88 63 64 64 65 65
REMARK SMILES IDX 74 66 66 67 67 68 73 69 75 70 68 71 69 72 70 73 71 74 72 75
REMARK SMILES IDX 7 76 8 77 9 78 10 79 11 80 12 82 13 83 14 84 15 85 16 86
REMARK SMILES IDX 21 87 17 88 20 89 18 90 19 91 22 93 23 95 24 96 36 97 25 98
REMARK SMILES IDX 29 99 31 100 35 101 26 102 28 103 30 104 32 105 34 106
REMARK SMILES IDX 27 107 33 108
REMARK H PARENT 3 7 96 25 62 36 10 81 19 92 22 94
REMARK Flexibility Score: inf
ROOT
ATOM      1  C   UNL A   1      37.653  23.810  25.997  1.00  0.00     0.002 C 
ENDROOT
BRANCH   1   2
ATOM      2  C   UNL A   1      38.667  22.779  26.500  1.00  0.00     0.021 C 
BRANCH   2   3
ATOM      3  C   UNL A   1      39.934  23.372  27.104  1.00  0.00     0.116 C 
BRANCH   3   4
ATOM      4  N   UNL A   1      40.739  24.069  26.111  1.00  0.00    -0.352 N 
ATOM      5  O   UNL A   1      41.614  25.849  25.044  1.00  0.00    -0.269 OA
ATOM      6  C   UNL A   1      41.122  25.388  26.065  1.00  0.00     0.251 C 
ATOM      7  H   UNL A   1      41.056  23.512  25.362  1.00  0.00     0.163 HD
BRANCH   6   8
ATOM      8  C   UNL A   1      40.928  26.246  27.256  1.00  0.00     0.039 A 
ATOM      9  C   UNL A   1      41.765  27.340  27.476  1.00  0.00     0.014 A 
ATOM     10  C   UNL A   1      39.891  25.964  28.152  1.00  0.00     0.014 A 
ATOM     11  C   UNL A   1      41.669  28.053  28.663  1.00  0.00     0.010 A 
ATOM     12  C   UNL A   1      39.728  26.755  29.296  1.00  0.00     0.010 A 
ATOM     13  C   UNL A   1      40.631  27.792  29.573  1.00  0.00    -0.014 A 
BRANCH  13  14
ATOM     14  C   UNL A   1      40.480  28.690  30.749  1.00  0.00     0.031 A 
ATOM     15  C   UNL A   1      41.372  28.577  31.954  1.00  0.00     0.074 A 
ATOM     16  C   UNL A   1      39.548  29.663  30.683  1.00  0.00     0.049 A 
ATOM     17  N   UNL A   1      41.402  29.331  33.023  1.00  0.00    -0.248 NA
ATOM     18  C   UNL A   1      42.346  27.476  31.971  1.00  0.00     0.031 C 
ATOM     19  C   UNL A   1      38.602  29.846  29.576  1.00  0.00     0.029 A 
ATOM     20  N   UNL A   1      39.257  30.694  31.537  1.00  0.00    -0.354 N 
ATOM     21  C   UNL A   1      42.396  28.801  33.839  1.00  0.00     0.074 A 
ATOM     22  C   UNL A   1      42.916  27.633  33.160  1.00  0.00     0.031 C 
ATOM     23  C   UNL A   1      37.880  30.954  29.791  1.00  0.00     0.029 A 
ATOM     24  C   UNL A   1      38.256  31.520  31.079  1.00  0.00     0.049 A 
ATOM     25  H   UNL A   1      39.719  30.831  32.396  1.00  0.00     0.167 HD
ATOM     26  C   UNL A   1      42.840  29.258  35.036  1.00  0.00     0.037 A 
ATOM     27  C   UNL A   1      37.687  32.602  31.640  1.00  0.00     0.037 A 
ATOM     28  C   UNL A   1      42.311  30.423  35.704  1.00  0.00     0.049 A 
ATOM     29  C   UNL A   1      38.191  33.075  32.972  1.00  0.00     0.074 A 
ATOM     30  C   UNL A   1      42.699  30.972  36.916  1.00  0.00     0.029 A 
ATOM     31  N   UNL A   1      41.285  31.223  35.220  1.00  0.00    -0.354 N 
ATOM     32  N   UNL A   1      39.149  32.575  33.715  1.00  0.00    -0.248 NA
ATOM     33  C   UNL A   1      37.540  34.262  33.542  1.00  0.00     0.031 C 
ATOM     34  C   UNL A   1      41.880  32.073  37.184  1.00  0.00     0.029 A 
ATOM     35  C   UNL A   1      41.017  32.248  36.115  1.00  0.00     0.049 A 
ATOM     36  H   UNL A   1      40.816  31.082  34.366  1.00  0.00     0.167 HD
ATOM     37  C   UNL A   1      39.223  33.389  34.838  1.00  0.00     0.074 A 
ATOM     38  C   UNL A   1      38.235  34.436  34.656  1.00  0.00     0.031 C 
ATOM     39  C   UNL A   1      40.025  33.277  35.924  1.00  0.00     0.037 A 
BRANCH  26  40
ATOM     40  C   UNL A   1      43.955  28.502  35.711  1.00  0.00     0.058 A 
ATOM     41  C   UNL A   1      45.302  28.844  35.506  1.00  0.00     0.135 A 
ATOM     42  C   UNL A   1      43.676  27.472  36.624  1.00  0.00     0.135 A 
ATOM     43  F   UNL A   1      45.631  29.811  34.635  1.00  0.00    -0.206 F 
ATOM     44  C   UNL A   1      46.331  28.182  36.171  1.00  0.00     0.059 A 
ATOM     45  C   UNL A   1      44.688  26.814  37.318  1.00  0.00     0.059 A 
ATOM     46  F   UNL A   1      42.407  27.103  36.858  1.00  0.00    -0.206 F 
ATOM     47  C   UNL A   1      46.014  27.170  37.078  1.00  0.00     0.060 A 
BRANCH  47  48
ATOM     48  S   UNL A   1      47.361  26.340  37.947  1.00  0.00     0.124 S 
ATOM     49  O   UNL A   1      47.085  24.939  37.642  1.00  0.00    -0.237 OA
ATOM     50  O   UNL A   1      48.543  26.906  37.305  1.00  0.00    -0.237 OA
ATOM     51  O   UNL A   1      47.161  26.729  39.339  1.00  0.00    -0.744 OA
ENDBRANCH  47  48
ENDBRANCH  26  40
BRANCH  27  52
ATOM     52  C   UNL A   1      36.562  33.287  30.951  1.00  0.00     0.058 A 
ATOM     53  C   UNL A   1      35.231  33.087  31.342  1.00  0.00     0.135 A 
ATOM     54  C   UNL A   1      36.803  34.169  29.884  1.00  0.00     0.135 A 
ATOM     55  F   UNL A   1      34.948  32.255  32.356  1.00  0.00    -0.206 F 
ATOM     56  C   UNL A   1      34.177  33.714  30.686  1.00  0.00     0.059 A 
ATOM     57  C   UNL A   1      35.770  34.835  29.237  1.00  0.00     0.059 A 
ATOM     58  F   UNL A   1      38.061  34.415  29.484  1.00  0.00    -0.206 F 
ATOM     59  C   UNL A   1      34.458  34.588  29.633  1.00  0.00     0.060 A 
BRANCH  59  60
ATOM     60  S   UNL A   1      33.088  35.421  28.806  1.00  0.00     0.124 S 
ATOM     61  O   UNL A   1      32.481  34.321  28.065  1.00  0.00    -0.237 OA
ATOM     62  O   UNL A   1      32.316  35.936  29.933  1.00  0.00    -0.237 OA
ATOM     63  O   UNL A   1      33.755  36.438  27.997  1.00  0.00    -0.744 OA
ENDBRANCH  59  60
ENDBRANCH  27  52
BRANCH  39  64
ATOM     64  C   UNL A   1      39.876  34.329  36.990  1.00  0.00     0.058 A 
ATOM     65  C   UNL A   1      39.021  34.148  38.089  1.00  0.00     0.135 A 
ATOM     66  C   UNL A   1      40.596  35.531  36.910  1.00  0.00     0.135 A 
ATOM     67  F   UNL A   1      38.302  33.020  38.209  1.00  0.00    -0.206 F 
ATOM     68  C   UNL A   1      38.852  35.141  39.049  1.00  0.00     0.059 A 
ATOM     69  C   UNL A   1      40.468  36.524  37.877  1.00  0.00     0.059 A 
ATOM     70  F   UNL A   1      41.436  35.751  35.886  1.00  0.00    -0.206 F 
ATOM     71  C   UNL A   1      39.578  36.328  38.931  1.00  0.00     0.060 A 
BRANCH  71  72
ATOM     72  S   UNL A   1      39.346  37.610  40.180  1.00  0.00     0.124 S 
ATOM     73  O   UNL A   1      40.652  38.260  40.179  1.00  0.00    -0.237 OA
ATOM     74  O   UNL A   1      38.247  38.394  39.624  1.00  0.00    -0.237 OA
ATOM     75  O   UNL A   1      39.022  36.854  41.386  1.00  0.00    -0.744 OA
ENDBRANCH  71  72
ENDBRANCH  39  64
ENDBRANCH  13  14
ENDBRANCH   6   8
ENDBRANCH   3   4
ENDBRANCH   2   3
ENDBRANCH   1   2
BRANCH   1  76
ATOM     76  C   UNL A   1      36.193  23.345  25.977  1.00  0.00     0.002 C 
BRANCH  76  77
ATOM     77  C   UNL A   1      35.470  23.554  24.647  1.00  0.00     0.021 C 
BRANCH  77  78
ATOM     78  C   UNL A   1      34.430  24.673  24.645  1.00  0.00     0.116 C 
BRANCH  78  79
ATOM     79  N   UNL A   1      34.400  25.335  23.361  1.00  0.00    -0.354 N 
ATOM     80  C   UNL A   1      33.364  25.761  22.586  1.00  0.00     0.242 C 
ATOM     81  H   UNL A   1      35.288  25.507  22.975  1.00  0.00     0.163 HD
ATOM     82  O   UNL A   1      33.662  26.079  21.426  1.00  0.00    -0.273 OA
BRANCH  80  83
ATOM     83  C   UNL A   1      31.889  25.868  23.063  1.00  0.00     0.173 C 
BRANCH  83  84
ATOM     84  C   UNL A   1      31.082  24.545  22.941  1.00  0.00     0.070 C 
BRANCH  84  85
ATOM     85  C   UNL A   1      31.436  23.297  23.721  1.00  0.00    -0.045 A 
ATOM     86  C   UNL A   1      32.107  22.246  23.071  1.00  0.00     0.007 A 
ATOM     87  C   UNL A   1      31.045  23.103  25.054  1.00  0.00     0.007 A 
ATOM     88  C   UNL A   1      32.496  21.097  23.766  1.00  0.00     0.046 A 
ATOM     89  C   UNL A   1      31.461  21.971  25.762  1.00  0.00     0.046 A 
ATOM     90  C   UNL A   1      32.205  20.990  25.120  1.00  0.00     0.115 A 
BRANCH  90  91
ATOM     91  O   UNL A   1      32.655  19.942  25.864  1.00  0.00    -0.508 OA
ATOM     92  H   UNL A   1      33.502  19.579  25.697  1.00  0.00     0.293 HD
ENDBRANCH  90  91
ENDBRANCH  84  85
ENDBRANCH  83  84
BRANCH  83  93
ATOM     93  N   UNL A   1      31.769  26.547  24.359  1.00  0.00    -0.372 N 
ATOM     94  H   UNL A   1      31.812  25.968  25.153  1.00  0.00     0.161 HD
BRANCH  93  95
ATOM     95  C   UNL A   1      31.601  27.918  24.612  1.00  0.00     0.054 A 
ATOM     96  C   UNL A   1      30.565  28.728  24.029  1.00  0.00     0.024 A 
ATOM     97  C   UNL A   1      32.524  28.546  25.520  1.00  0.00     0.024 A 
ATOM     98  C   UNL A   1      29.563  28.305  23.114  1.00  0.00     0.012 A 
ATOM     99  C   UNL A   1      30.495  30.078  24.437  1.00  0.00     0.073 A 
ATOM    100  C   UNL A   1      32.310  29.900  25.842  1.00  0.00     0.073 A 
ATOM    101  C   UNL A   1      33.651  27.909  26.113  1.00  0.00     0.012 A 
ATOM    102  C   UNL A   1      28.585  29.163  22.602  1.00  0.00     0.001 A 
ATOM    103  C   UNL A   1      29.506  30.915  23.934  1.00  0.00     0.029 A 
ATOM    104  N   UNL A   1      31.328  30.633  25.316  1.00  0.00    -0.248 NA
ATOM    105  C   UNL A   1      33.147  30.541  26.745  1.00  0.00     0.029 A 
ATOM    106  C   UNL A   1      34.491  28.576  27.009  1.00  0.00     0.001 A 
ATOM    107  C   UNL A   1      28.556  30.477  23.017  1.00  0.00     0.002 A 
ATOM    108  C   UNL A   1      34.231  29.896  27.335  1.00  0.00     0.002 A 
ENDBRANCH  93  95
ENDBRANCH  83  93
ENDBRANCH  80  83
ENDBRANCH  78  79
ENDBRANCH  77  78
ENDBRANCH  76  77
ENDBRANCH   1  76
TORSDOF 21
ENDMDL
MODEL 3
REMARK VINA RESULT:     -12.9      6.728     11.448
REMARK SMILES O=C(NCCCCCCNC(=O)[C@@H](Cc1ccc(O)cc1)Nc1c2ccccc2nc2ccccc12)c1ccc(-c2c3nc(c(-c4c(F)cc(S(=O)(=O)[O-])cc4F)c4ccc([nH]4)c(-c4c(F)cc(S(=O)(=O)[O-])cc4F)c4nc(c(-c5c(F)cc(S(=O)(=O)[O-])cc5F)c5ccc2[nH]5)C=C4)C=C3)cc1
REMARK SMILES IDX 6 1 5 2 4 3 3 4 1 5 2 6 37 8 38 9 102 10 39 11 101 12 40 13
REMARK SMILES IDX 41 14 42 15 95 16 43 17 100 18 94 19 96 20 44 21 99 22 93 23
REMARK SMILES IDX 92 24 45 26 79 27 58 28 78 29 59 30 62 31 77 32 97 33 60 34
REMARK SMILES IDX 61 35 76 37 98 38 63 39 46 40 47 41 56 42 48 43 49 44 55 45
REMARK SMILES IDX 57 46 50 47 51 48 52 49 53 50 54 51 80 52 81 53 90 54 82 55
REMARK SMILES IDX 83 56 89 57 91 58 84 59 85 60 86 61 87 62 88 63 64 64 65 65
REMARK SMILES IDX 74 66 66 67 67 68 73 69 75 70 68 71 69 72 70 73 71 74 72 75
REMARK SMILES IDX 7 76 8 77 9 78 10 79 11 80 12 82 13 83 14 84 15 85 16 86
REMARK SMILES IDX 21 87 17 88 20 89 18 90 19 91 22 93 23 95 24 96 36 97 25 98
REMARK SMILES IDX 29 99 31 100 35 101 26 102 28 103 30 104 32 105 34 106
REMARK SMILES IDX 27 107 33 108
REMARK H PARENT 3 7 96 25 62 36 10 81 19 92 22 94
REMARK Flexibility Score: inf
ROOT
ATOM      1  C   UNL A   1      41.946  20.967  27.922  1.00  0.00     0.002 C 
ENDROOT
BRANCH   1   2
ATOM      2  C   UNL A   1      42.198  19.609  27.262  1.00  0.00     0.021 C 
BRANCH   2   3
ATOM      3  C   UNL A   1      42.085  19.608  25.742  1.00  0.00     0.116 C 
BRANCH   3   4
ATOM      4  N   UNL A   1      43.250  19.009  25.107  1.00  0.00    -0.352 N 
ATOM      5  O   UNL A   1      45.161  18.973  23.914  1.00  0.00    -0.269 OA
ATOM      6  C   UNL A   1      44.382  19.611  24.610  1.00  0.00     0.251 C 
ATOM      7  H   UNL A   1      43.224  18.027  25.022  1.00  0.00     0.163 HD
BRANCH   6   8
ATOM      8  C   UNL A   1      44.645  21.035  24.916  1.00  0.00     0.039 A 
ATOM      9  C   UNL A   1      45.271  21.391  26.111  1.00  0.00     0.014 A 
ATOM     10  C   UNL A   1      44.277  22.022  23.995  1.00  0.00     0.014 A 
ATOM     11  C   UNL A   1      45.386  22.730  26.456  1.00  0.00     0.010 A 
ATOM     12  C   UNL A   1      44.495  23.371  24.299  1.00  0.00     0.010 A 
ATOM     13  C   UNL A   1      45.030  23.738  25.543  1.00  0.00    -0.014 A 
BRANCH  13  14
ATOM     14  C   UNL A   1      45.323  25.151  25.901  1.00  0.00     0.031 A 
ATOM     15  C   UNL A   1      44.274  26.056  26.485  1.00  0.00     0.074 A 
ATOM     16  C   UNL A   1      46.588  25.591  25.744  1.00  0.00     0.049 A 
ATOM     17  N   UNL A   1      44.400  27.289  26.907  1.00  0.00    -0.248 NA
ATOM     18  C   UNL A   1      42.910  25.519  26.603  1.00  0.00     0.031 C 
ATOM     19  C   UNL A   1      47.682  24.811  25.154  1.00  0.00     0.029 A 
ATOM     20  N   UNL A   1      47.181  26.779  26.086  1.00  0.00    -0.354 N 
ATOM     21  C   UNL A   1      43.137  27.676  27.342  1.00  0.00     0.074 A 
ATOM     22  C   UNL A   1      42.248  26.561  27.092  1.00  0.00     0.031 C 
ATOM     23  C   UNL A   1      48.819  25.515  25.230  1.00  0.00     0.029 A 
ATOM     24  C   UNL A   1      48.527  26.822  25.805  1.00  0.00     0.049 A 
ATOM     25  H   UNL A   1      46.691  27.529  26.494  1.00  0.00     0.167 HD
ATOM     26  C   UNL A   1      42.761  28.849  27.911  1.00  0.00     0.037 A 
ATOM     27  C   UNL A   1      49.427  27.808  25.971  1.00  0.00     0.037 A 
ATOM     28  C   UNL A   1      43.658  29.954  28.153  1.00  0.00     0.049 A 
ATOM     29  C   UNL A   1      48.977  29.100  26.589  1.00  0.00     0.074 A 
ATOM     30  C   UNL A   1      43.375  31.181  28.730  1.00  0.00     0.029 A 
ATOM     31  N   UNL A   1      45.009  29.969  27.837  1.00  0.00    -0.354 N 
ATOM     32  N   UNL A   1      47.784  29.436  27.017  1.00  0.00    -0.248 NA
ATOM     33  C   UNL A   1      49.996  30.144  26.752  1.00  0.00     0.031 C 
ATOM     34  C   UNL A   1      44.543  31.952  28.722  1.00  0.00     0.029 A 
ATOM     35  C   UNL A   1      45.568  31.188  28.191  1.00  0.00     0.049 A 
ATOM     36  H   UNL A   1      45.499  29.222  27.421  1.00  0.00     0.167 HD
ATOM     37  C   UNL A   1      47.908  30.730  27.507  1.00  0.00     0.074 A 
ATOM     38  C   UNL A   1      49.302  31.099  27.355  1.00  0.00     0.031 C 
ATOM     39  C   UNL A   1      46.955  31.543  28.026  1.00  0.00     0.037 A 
BRANCH  26  40
ATOM     40  C   UNL A   1      41.318  29.007  28.314  1.00  0.00     0.058 A 
ATOM     41  C   UNL A   1      40.926  28.983  29.662  1.00  0.00     0.135 A 
ATOM     42  C   UNL A   1      40.326  29.255  27.351  1.00  0.00     0.135 A 
ATOM     43  F   UNL A   1      41.828  28.736  30.625  1.00  0.00    -0.206 F 
ATOM     44  C   UNL A   1      39.602  29.184  30.040  1.00  0.00     0.059 A 
ATOM     45  C   UNL A   1      38.999  29.484  27.709  1.00  0.00     0.059 A 
ATOM     46  F   UNL A   1      40.643  29.290  26.048  1.00  0.00    -0.206 F 
ATOM     47  C   UNL A   1      38.645  29.437  29.056  1.00  0.00     0.060 A 
BRANCH  47  48
ATOM     48  S   UNL A   1      36.937  29.719  29.568  1.00  0.00     0.124 S 
ATOM     49  O   UNL A   1      36.866  28.929  30.794  1.00  0.00    -0.237 OA
ATOM     50  O   UNL A   1      36.899  31.167  29.745  1.00  0.00    -0.237 OA
ATOM     51  O   UNL A   1      36.155  29.206  28.447  1.00  0.00    -0.744 OA
ENDBRANCH  47  48
ENDBRANCH  26  40
BRANCH  27  52
ATOM     52  C   UNL A   1      50.829  27.614  25.518  1.00  0.00     0.058 A 
ATOM     53  C   UNL A   1      51.838  27.213  26.404  1.00  0.00     0.135 A 
ATOM     54  C   UNL A   1      51.185  27.820  24.174  1.00  0.00     0.135 A 
ATOM     55  F   UNL A   1      51.550  27.002  27.698  1.00  0.00    -0.206 F 
ATOM     56  C   UNL A   1      53.154  27.048  25.984  1.00  0.00     0.059 A 
ATOM     57  C   UNL A   1      52.484  27.627  23.723  1.00  0.00     0.059 A 
ATOM     58  F   UNL A   1      50.253  28.181  23.278  1.00  0.00    -0.206 F 
ATOM     59  C   UNL A   1      53.466  27.258  24.639  1.00  0.00     0.060 A 
BRANCH  59  60
ATOM     60  S   UNL A   1      55.169  27.013  24.095  1.00  0.00     0.124 S 
ATOM     61  O   UNL A   1      55.819  28.209  24.620  1.00  0.00    -0.237 OA
ATOM     62  O   UNL A   1      55.522  25.755  24.745  1.00  0.00    -0.237 OA
ATOM     63  O   UNL A   1      55.048  26.945  22.641  1.00  0.00    -0.744 OA
ENDBRANCH  59  60
ENDBRANCH  27  52
BRANCH  39  64
ATOM     64  C   UNL A   1      47.402  32.905  28.484  1.00  0.00     0.058 A 
ATOM     65  C   UNL A   1      47.758  33.153  29.820  1.00  0.00     0.135 A 
ATOM     66  C   UNL A   1      47.475  33.973  27.576  1.00  0.00     0.135 A 
ATOM     67  F   UNL A   1      47.698  32.168  30.730  1.00  0.00    -0.206 F 
ATOM     68  C   UNL A   1      48.129  34.424  30.248  1.00  0.00     0.059 A 
ATOM     69  C   UNL A   1      47.875  35.244  27.977  1.00  0.00     0.059 A 
ATOM     70  F   UNL A   1      47.157  33.788  26.285  1.00  0.00    -0.206 F 
ATOM     71  C   UNL A   1      48.179  35.464  29.319  1.00  0.00     0.060 A 
BRANCH  71  72
ATOM     72  S   UNL A   1      48.657  37.109  29.888  1.00  0.00     0.124 S 
ATOM     73  O   UNL A   1      49.516  36.789  31.024  1.00  0.00    -0.237 OA
ATOM     74  O   UNL A   1      49.332  37.662  28.718  1.00  0.00    -0.237 OA
ATOM     75  O   UNL A   1      47.381  37.736  30.222  1.00  0.00    -0.744 OA
ENDBRANCH  71  72
ENDBRANCH  39  64
ENDBRANCH  13  14
ENDBRANCH   6   8
ENDBRANCH   3   4
ENDBRANCH   2   3
ENDBRANCH   1   2
BRANCH   1  76
ATOM     76  C   UNL A   1      41.644  22.123  26.962  1.00  0.00     0.002 C 
BRANCH  76  77
ATOM     77  C   UNL A   1      40.586  23.109  27.456  1.00  0.00     0.021 C 
BRANCH  77  78
ATOM     78  C   UNL A   1      39.313  23.167  26.614  1.00  0.00     0.116 C 
BRANCH  78  79
ATOM     79  N   UNL A   1      39.149  21.944  25.860  1.00  0.00    -0.354 N 
ATOM     80  C   UNL A   1      38.040  21.322  25.375  1.00  0.00     0.242 C 
ATOM     81  H   UNL A   1      39.992  21.477  25.663  1.00  0.00     0.163 HD
ATOM     82  O   UNL A   1      38.212  20.162  24.974  1.00  0.00    -0.273 OA
BRANCH  80  83
ATOM     83  C   UNL A   1      36.627  21.965  25.298  1.00  0.00     0.173 C 
BRANCH  83  84
ATOM     84  C   UNL A   1      36.199  22.395  23.867  1.00  0.00     0.070 C 
BRANCH  84  85
ATOM     85  C   UNL A   1      35.055  23.353  23.609  1.00  0.00    -0.045 A 
ATOM     86  C   UNL A   1      35.014  24.577  24.300  1.00  0.00     0.007 A 
ATOM     87  C   UNL A   1      33.979  23.036  22.768  1.00  0.00     0.007 A 
ATOM     88  C   UNL A   1      34.003  25.512  24.055  1.00  0.00     0.046 A 
ATOM     89  C   UNL A   1      32.985  23.980  22.494  1.00  0.00     0.046 A 
ATOM     90  C   UNL A   1      33.019  25.220  23.119  1.00  0.00     0.115 A 
BRANCH  90  91
ATOM     91  O   UNL A   1      32.077  26.137  22.768  1.00  0.00    -0.508 OA
ATOM     92  H   UNL A   1      31.209  26.074  23.117  1.00  0.00     0.293 HD
ENDBRANCH  90  91
ENDBRANCH  84  85
ENDBRANCH  83  84
BRANCH  83  93
ATOM     93  N   UNL A   1      35.621  21.191  26.037  1.00  0.00    -0.372 N 
ATOM     94  H   UNL A   1      35.922  20.796  26.887  1.00  0.00     0.161 HD
BRANCH  93  95
ATOM     95  C   UNL A   1      34.284  20.942  25.687  1.00  0.00     0.054 A 
ATOM     96  C   UNL A   1      33.188  21.816  26.006  1.00  0.00     0.024 A 
ATOM     97  C   UNL A   1      34.001  19.735  24.958  1.00  0.00     0.024 A 
ATOM     98  C   UNL A   1      33.253  23.045  26.716  1.00  0.00     0.012 A 
ATOM     99  C   UNL A   1      31.911  21.451  25.526  1.00  0.00     0.073 A 
ATOM    100  C   UNL A   1      32.675  19.520  24.532  1.00  0.00     0.073 A 
ATOM    101  C   UNL A   1      34.954  18.726  24.639  1.00  0.00     0.012 A 
ATOM    102  C   UNL A   1      32.133  23.839  26.975  1.00  0.00     0.001 A 
ATOM    103  C   UNL A   1      30.808  22.260  25.774  1.00  0.00     0.029 A 
ATOM    104  N   UNL A   1      31.672  20.353  24.809  1.00  0.00    -0.248 NA
ATOM    105  C   UNL A   1      32.357  18.392  23.789  1.00  0.00     0.029 A 
ATOM    106  C   UNL A   1      34.611  17.589  23.903  1.00  0.00     0.001 A 
ATOM    107  C   UNL A   1      30.901  23.443  26.498  1.00  0.00     0.002 A 
ATOM    108  C   UNL A   1      33.308  17.427  23.465  1.00  0.00     0.002 A 
ENDBRANCH  93  95
ENDBRANCH  83  93
ENDBRANCH  80  83
ENDBRANCH  78  79
ENDBRANCH  77  78
ENDBRANCH  76  77
ENDBRANCH   1  76
TORSDOF 21
ENDMDL
