MODEL 1
REMARK VINA RESULT:     -10.2      0.000      0.000
REMARK SMILES C#CC[N@H+](CC(=O)NCCCCCCNC(=O)c1ccc(-c2c3nc(c(-c4c(F)cc(S(=O)(=O)[O-])cc4F)c4ccc([nH]4)c(-c4c(F)cc(S(=O)(=O)[O-])cc4F)c4nc(c(-c5c(F)cc(S(=O)(=O)[O-])cc5F)c5ccc2[nH]5)C=C4)C=C3)cc1)[C@H](C)c1ccccc1[N+](=O)[O-]
REMARK SMILES IDX 11 1 10 2 9 3 8 4 6 5 7 6 5 8 4 9 3 11 2 12 1 13 84 14 85 15
REMARK SMILES IDX 86 16 87 17 91 18 88 19 90 20 89 21 92 22 93 23 94 24 12 25
REMARK SMILES IDX 13 26 14 27 15 28 16 29 17 31 18 32 19 33 83 34 20 35 82 36
REMARK SMILES IDX 21 37 22 38 23 39 76 40 24 41 81 42 75 43 77 44 25 45 80 46
REMARK SMILES IDX 74 47 73 48 26 50 60 51 39 52 59 53 40 54 43 55 58 56 78 57
REMARK SMILES IDX 41 58 42 59 57 61 79 62 44 63 27 64 28 65 37 66 29 67 30 68
REMARK SMILES IDX 36 69 38 70 31 71 32 72 33 73 34 74 35 75 61 76 62 77 71 78
REMARK SMILES IDX 63 79 64 80 70 81 72 82 65 83 66 84 67 85 68 86 69 87 45 88
REMARK SMILES IDX 46 89 55 90 47 91 48 92 54 93 56 94 49 95 50 96 51 97 52 98
REMARK SMILES IDX 53 99
REMARK H PARENT 8 7 4 10 15 30 77 49 43 60
REMARK Flexibility Score: inf
ROOT
ATOM      1  C   UNL A   1      34.694  32.514  27.785  1.00  0.00     0.002 C 
ENDROOT
BRANCH   1   2
ATOM      2  C   UNL A   1      34.474  31.020  27.981  1.00  0.00     0.021 C 
BRANCH   2   3
ATOM      3  C   UNL A   1      33.497  30.385  26.975  1.00  0.00     0.116 C 
BRANCH   3   4
ATOM      4  N   UNL A   1      32.722  29.336  27.623  1.00  0.00    -0.351 N 
ATOM      5  C   UNL A   1      32.121  28.209  27.120  1.00  0.00     0.275 C 
ATOM      6  O   UNL A   1      31.354  27.597  27.868  1.00  0.00    -0.269 OA
ATOM      7  H   UNL A   1      32.608  29.458  28.593  1.00  0.00     0.163 HD
BRANCH   5   8
ATOM      8  C   UNL A   1      32.482  27.666  25.721  1.00  0.00     0.364 C 
BRANCH   8   9
ATOM      9  N   UNL A   1      31.646  26.527  25.197  1.00  0.00    -0.311 N 
ATOM     10  H   UNL A   1      31.414  25.891  25.959  1.00  0.00     0.349 HD
BRANCH   9  11
ATOM     11  C   UNL A   1      30.375  27.039  24.680  1.00  0.00     0.354 C 
BRANCH  11  12
ATOM     12  C   UNL A   1      30.282  28.301  23.945  1.00  0.00    -0.047 C 
ATOM     13  C   UNL A   1      30.101  29.260  23.240  1.00  0.00     0.010 C 
ENDBRANCH  11  12
ENDBRANCH   9  11
BRANCH   9  14
ATOM     14  C   UNL A   1      32.421  25.693  24.214  1.00  0.00     0.220 C 
ATOM     15  C   UNL A   1      31.503  25.131  23.105  1.00  0.00     0.081 C 
BRANCH  14  16
ATOM     16  C   UNL A   1      33.322  24.668  24.947  1.00  0.00     0.087 A 
ATOM     17  C   UNL A   1      34.692  24.631  24.589  1.00  0.00     0.017 A 
ATOM     18  C   UNL A   1      32.959  23.858  26.043  1.00  0.00     0.278 A 
ATOM     19  C   UNL A   1      35.648  23.997  25.394  1.00  0.00     0.001 A 
ATOM     20  C   UNL A   1      33.912  23.228  26.862  1.00  0.00     0.086 A 
ATOM     21  C   UNL A   1      35.263  23.334  26.555  1.00  0.00     0.007 A 
BRANCH  18  22
ATOM     22  N   UNL A   1      31.579  23.535  26.350  1.00  0.00     0.063 N 
ATOM     23  O   UNL A   1      31.017  24.205  27.225  1.00  0.00    -0.258 OA
ATOM     24  O   UNL A   1      31.080  22.583  25.735  1.00  0.00    -0.258 OA
ENDBRANCH  18  22
ENDBRANCH  14  16
ENDBRANCH   9  14
ENDBRANCH   8   9
ENDBRANCH   5   8
ENDBRANCH   3   4
ENDBRANCH   2   3
ENDBRANCH   1   2
BRANCH   1  25
ATOM     25  C   UNL A   1      36.051  33.005  28.278  1.00  0.00     0.002 C 
BRANCH  25  26
ATOM     26  C   UNL A   1      36.051  33.548  29.711  1.00  0.00     0.021 C 
BRANCH  26  27
ATOM     27  C   UNL A   1      36.981  32.805  30.666  1.00  0.00     0.116 C 
BRANCH  27  28
ATOM     28  N   UNL A   1      36.394  31.550  31.106  1.00  0.00    -0.352 N 
ATOM     29  C   UNL A   1      36.786  30.268  30.815  1.00  0.00     0.251 C 
ATOM     30  H   UNL A   1      35.606  31.631  31.692  1.00  0.00     0.163 HD
ATOM     31  O   UNL A   1      36.018  29.330  31.001  1.00  0.00    -0.269 OA
BRANCH  29  32
ATOM     32  C   UNL A   1      38.140  30.036  30.277  1.00  0.00     0.039 A 
ATOM     33  C   UNL A   1      39.201  29.825  31.159  1.00  0.00     0.014 A 
ATOM     34  C   UNL A   1      38.356  30.029  28.895  1.00  0.00     0.014 A 
ATOM     35  C   UNL A   1      40.472  29.558  30.651  1.00  0.00     0.010 A 
ATOM     36  C   UNL A   1      39.602  29.678  28.392  1.00  0.00     0.010 A 
ATOM     37  C   UNL A   1      40.678  29.451  29.264  1.00  0.00    -0.014 A 
BRANCH  37  38
ATOM     38  C   UNL A   1      42.012  29.115  28.708  1.00  0.00     0.031 A 
ATOM     39  C   UNL A   1      42.306  27.711  28.252  1.00  0.00     0.074 A 
ATOM     40  C   UNL A   1      42.973  30.059  28.666  1.00  0.00     0.049 A 
ATOM     41  N   UNL A   1      43.423  27.209  27.793  1.00  0.00    -0.248 NA
ATOM     42  C   UNL A   1      41.207  26.735  28.350  1.00  0.00     0.031 C 
ATOM     43  C   UNL A   1      42.819  31.443  29.121  1.00  0.00     0.029 A 
ATOM     44  N   UNL A   1      44.272  29.999  28.228  1.00  0.00    -0.354 N 
ATOM     45  C   UNL A   1      43.167  25.864  27.557  1.00  0.00     0.074 A 
ATOM     46  C   UNL A   1      41.807  25.612  27.982  1.00  0.00     0.031 C 
ATOM     47  C   UNL A   1      43.968  32.105  28.913  1.00  0.00     0.029 A 
ATOM     48  C   UNL A   1      44.955  31.185  28.357  1.00  0.00     0.049 A 
ATOM     49  H   UNL A   1      44.677  29.182  27.856  1.00  0.00     0.167 HD
ATOM     50  C   UNL A   1      43.981  24.930  27.012  1.00  0.00     0.037 A 
ATOM     51  C   UNL A   1      46.235  31.494  28.072  1.00  0.00     0.037 A 
ATOM     52  C   UNL A   1      45.330  25.195  26.581  1.00  0.00     0.049 A 
ATOM     53  C   UNL A   1      47.130  30.431  27.492  1.00  0.00     0.074 A 
ATOM     54  C   UNL A   1      46.222  24.332  25.969  1.00  0.00     0.029 A 
ATOM     55  N   UNL A   1      45.984  26.411  26.723  1.00  0.00    -0.354 N 
ATOM     56  N   UNL A   1      46.850  29.180  27.212  1.00  0.00    -0.248 NA
ATOM     57  C   UNL A   1      48.512  30.821  27.183  1.00  0.00     0.031 C 
ATOM     58  C   UNL A   1      47.435  25.005  25.802  1.00  0.00     0.029 A 
ATOM     59  C   UNL A   1      47.278  26.310  26.240  1.00  0.00     0.049 A 
ATOM     60  H   UNL A   1      45.587  27.224  27.110  1.00  0.00     0.167 HD
ATOM     61  C   UNL A   1      48.010  28.645  26.662  1.00  0.00     0.074 A 
ATOM     62  C   UNL A   1      48.989  29.712  26.639  1.00  0.00     0.031 C 
ATOM     63  C   UNL A   1      48.242  27.384  26.215  1.00  0.00     0.037 A 
BRANCH  50  64
ATOM     64  C   UNL A   1      43.442  23.532  26.857  1.00  0.00     0.058 A 
ATOM     65  C   UNL A   1      43.095  23.006  25.601  1.00  0.00     0.135 A 
ATOM     66  C   UNL A   1      43.309  22.691  27.974  1.00  0.00     0.135 A 
ATOM     67  F   UNL A   1      43.186  23.767  24.498  1.00  0.00    -0.206 F 
ATOM     68  C   UNL A   1      42.609  21.710  25.462  1.00  0.00     0.059 A 
ATOM     69  C   UNL A   1      42.859  21.379  27.854  1.00  0.00     0.059 A 
ATOM     70  F   UNL A   1      43.624  23.140  29.199  1.00  0.00    -0.206 F 
ATOM     71  C   UNL A   1      42.498  20.902  26.596  1.00  0.00     0.060 A 
BRANCH  71  72
ATOM     72  S   UNL A   1      41.877  19.220  26.396  1.00  0.00     0.124 S 
ATOM     73  O   UNL A   1      42.175  18.642  27.703  1.00  0.00    -0.237 OA
ATOM     74  O   UNL A   1      40.462  19.444  26.112  1.00  0.00    -0.237 OA
ATOM     75  O   UNL A   1      42.662  18.695  25.285  1.00  0.00    -0.744 OA
ENDBRANCH  71  72
ENDBRANCH  50  64
BRANCH  51  76
ATOM     76  C   UNL A   1      46.743  32.871  28.322  1.00  0.00     0.058 A 
ATOM     77  C   UNL A   1      47.300  33.225  29.560  1.00  0.00     0.135 A 
ATOM     78  C   UNL A   1      46.691  33.858  27.326  1.00  0.00     0.135 A 
ATOM     79  F   UNL A   1      47.369  32.320  30.548  1.00  0.00    -0.206 F 
ATOM     80  C   UNL A   1      47.767  34.511  29.810  1.00  0.00     0.059 A 
ATOM     81  C   UNL A   1      47.180  35.142  27.540  1.00  0.00     0.059 A 
ATOM     82  F   UNL A   1      46.184  33.569  26.117  1.00  0.00    -0.206 F 
ATOM     83  C   UNL A   1      47.707  35.463  28.790  1.00  0.00     0.060 A 
BRANCH  83  84
ATOM     84  S   UNL A   1      48.357  37.116  29.111  1.00  0.00     0.124 S 
ATOM     85  O   UNL A   1      48.454  37.662  27.762  1.00  0.00    -0.237 OA
ATOM     86  O   UNL A   1      47.318  37.691  29.960  1.00  0.00    -0.237 OA
ATOM     87  O   UNL A   1      49.629  36.854  29.779  1.00  0.00    -0.744 OA
ENDBRANCH  83  84
ENDBRANCH  51  76
BRANCH  63  88
ATOM     88  C   UNL A   1      49.593  27.095  25.617  1.00  0.00     0.058 A 
ATOM     89  C   UNL A   1      49.874  27.333  24.263  1.00  0.00     0.135 A 
ATOM     90  C   UNL A   1      50.639  26.624  26.429  1.00  0.00     0.135 A 
ATOM     91  F   UNL A   1      48.911  27.776  23.439  1.00  0.00    -0.206 F 
ATOM     92  C   UNL A   1      51.136  27.090  23.729  1.00  0.00     0.059 A 
ATOM     93  C   UNL A   1      51.917  26.410  25.925  1.00  0.00     0.059 A 
ATOM     94  F   UNL A   1      50.429  26.389  27.733  1.00  0.00    -0.206 F 
ATOM     95  C   UNL A   1      52.153  26.633  24.570  1.00  0.00     0.060 A 
BRANCH  95  96
ATOM     96  S   UNL A   1      53.794  26.360  23.871  1.00  0.00     0.124 S 
ATOM     97  O   UNL A   1      54.433  27.651  24.107  1.00  0.00    -0.237 OA
ATOM     98  O   UNL A   1      54.293  25.249  24.674  1.00  0.00    -0.237 OA
ATOM     99  O   UNL A   1      53.521  26.043  22.472  1.00  0.00    -0.744 OA
ENDBRANCH  95  96
ENDBRANCH  63  88
ENDBRANCH  37  38
ENDBRANCH  29  32
ENDBRANCH  27  28
ENDBRANCH  26  27
ENDBRANCH  25  26
ENDBRANCH   1  25
TORSDOF 22
ENDMDL
MODEL 2
REMARK VINA RESULT:      -9.9      0.934      8.290
REMARK SMILES C#CC[N@H+](CC(=O)NCCCCCCNC(=O)c1ccc(-c2c3nc(c(-c4c(F)cc(S(=O)(=O)[O-])cc4F)c4ccc([nH]4)c(-c4c(F)cc(S(=O)(=O)[O-])cc4F)c4nc(c(-c5c(F)cc(S(=O)(=O)[O-])cc5F)c5ccc2[nH]5)C=C4)C=C3)cc1)[C@H](C)c1ccccc1[N+](=O)[O-]
REMARK SMILES IDX 11 1 10 2 9 3 8 4 6 5 7 6 5 8 4 9 3 11 2 12 1 13 84 14 85 15
REMARK SMILES IDX 86 16 87 17 91 18 88 19 90 20 89 21 92 22 93 23 94 24 12 25
REMARK SMILES IDX 13 26 14 27 15 28 16 29 17 31 18 32 19 33 83 34 20 35 82 36
REMARK SMILES IDX 21 37 22 38 23 39 76 40 24 41 81 42 75 43 77 44 25 45 80 46
REMARK SMILES IDX 74 47 73 48 26 50 60 51 39 52 59 53 40 54 43 55 58 56 78 57
REMARK SMILES IDX 41 58 42 59 57 61 79 62 44 63 27 64 28 65 37 66 29 67 30 68
REMARK SMILES IDX 36 69 38 70 31 71 32 72 33 73 34 74 35 75 61 76 62 77 71 78
REMARK SMILES IDX 63 79 64 80 70 81 72 82 65 83 66 84 67 85 68 86 69 87 45 88
REMARK SMILES IDX 46 89 55 90 47 91 48 92 54 93 56 94 49 95 50 96 51 97 52 98
REMARK SMILES IDX 53 99
REMARK H PARENT 8 7 4 10 15 30 77 49 43 60
REMARK Flexibility Score: inf
ROOT
ATOM      1  C   UNL A   1      33.760  31.681  27.642  1.00  0.00     0.002 C 
ENDROOT
BRANCH   1   2
ATOM      2  C   UNL A   1      34.665  30.458  27.597  1.00  0.00     0.021 C 
BRANCH   2   3
ATOM      3  C   UNL A   1      34.119  29.295  26.749  1.00  0.00     0.116 C 
BRANCH   3   4
ATOM      4  N   UNL A   1      33.095  28.571  27.490  1.00  0.00    -0.351 N 
ATOM      5  C   UNL A   1      31.937  27.960  27.077  1.00  0.00     0.275 C 
ATOM      6  O   UNL A   1      31.151  27.590  27.954  1.00  0.00    -0.269 OA
ATOM      7  H   UNL A   1      33.264  28.509  28.458  1.00  0.00     0.163 HD
BRANCH   5   8
ATOM      8  C   UNL A   1      31.686  27.642  25.589  1.00  0.00     0.364 C 
BRANCH   8   9
ATOM      9  N   UNL A   1      32.049  26.258  25.117  1.00  0.00    -0.311 N 
ATOM     10  H   UNL A   1      32.549  26.316  24.231  1.00  0.00     0.349 HD
BRANCH   9  11
ATOM     11  C   UNL A   1      32.966  25.632  26.072  1.00  0.00     0.354 C 
BRANCH  11  12
ATOM     12  C   UNL A   1      34.186  24.944  25.647  1.00  0.00    -0.047 C 
ATOM     13  C   UNL A   1      35.216  24.508  25.200  1.00  0.00     0.010 C 
ENDBRANCH  11  12
ENDBRANCH   9  11
BRANCH   9  14
ATOM     14  C   UNL A   1      30.818  25.446  24.821  1.00  0.00     0.220 C 
ATOM     15  C   UNL A   1      29.747  25.623  25.921  1.00  0.00     0.081 C 
BRANCH  14  16
ATOM     16  C   UNL A   1      31.192  23.989  24.454  1.00  0.00     0.087 A 
ATOM     17  C   UNL A   1      31.601  23.736  23.121  1.00  0.00     0.017 A 
ATOM     18  C   UNL A   1      31.312  22.900  25.342  1.00  0.00     0.278 A 
ATOM     19  C   UNL A   1      32.266  22.555  22.765  1.00  0.00     0.001 A 
ATOM     20  C   UNL A   1      31.987  21.716  24.995  1.00  0.00     0.086 A 
ATOM     21  C   UNL A   1      32.498  21.564  23.712  1.00  0.00     0.007 A 
BRANCH  18  22
ATOM     22  N   UNL A   1      30.667  22.878  26.640  1.00  0.00     0.063 N 
ATOM     23  O   UNL A   1      31.283  23.371  27.593  1.00  0.00    -0.258 OA
ATOM     24  O   UNL A   1      29.557  22.330  26.702  1.00  0.00    -0.258 OA
ENDBRANCH  18  22
ENDBRANCH  14  16
ENDBRANCH   9  14
ENDBRANCH   8   9
ENDBRANCH   5   8
ENDBRANCH   3   4
ENDBRANCH   2   3
ENDBRANCH   1   2
BRANCH   1  25
ATOM     25  C   UNL A   1      34.345  32.849  28.428  1.00  0.00     0.002 C 
BRANCH  25  26
ATOM     26  C   UNL A   1      35.837  33.098  28.185  1.00  0.00     0.021 C 
BRANCH  26  27
ATOM     27  C   UNL A   1      36.684  33.133  29.455  1.00  0.00     0.116 C 
BRANCH  27  28
ATOM     28  N   UNL A   1      36.220  32.156  30.426  1.00  0.00    -0.352 N 
ATOM     29  C   UNL A   1      36.719  30.906  30.696  1.00  0.00     0.251 C 
ATOM     30  H   UNL A   1      35.441  32.428  30.965  1.00  0.00     0.163 HD
ATOM     31  O   UNL A   1      36.041  30.091  31.312  1.00  0.00    -0.269 OA
BRANCH  29  32
ATOM     32  C   UNL A   1      38.076  30.560  30.233  1.00  0.00     0.039 A 
ATOM     33  C   UNL A   1      39.119  30.498  31.158  1.00  0.00     0.014 A 
ATOM     34  C   UNL A   1      38.312  30.297  28.879  1.00  0.00     0.014 A 
ATOM     35  C   UNL A   1      40.394  30.124  30.729  1.00  0.00     0.010 A 
ATOM     36  C   UNL A   1      39.559  29.842  28.471  1.00  0.00     0.010 A 
ATOM     37  C   UNL A   1      40.618  29.762  29.389  1.00  0.00    -0.014 A 
BRANCH  37  38
ATOM     38  C   UNL A   1      41.953  29.310  28.928  1.00  0.00     0.031 A 
ATOM     39  C   UNL A   1      43.087  30.294  28.823  1.00  0.00     0.074 A 
ATOM     40  C   UNL A   1      42.129  28.028  28.552  1.00  0.00     0.049 A 
ATOM     41  N   UNL A   1      44.306  30.105  28.389  1.00  0.00    -0.248 NA
ATOM     42  C   UNL A   1      42.807  31.680  29.234  1.00  0.00     0.031 C 
ATOM     43  C   UNL A   1      41.092  26.993  28.567  1.00  0.00     0.029 A 
ATOM     44  N   UNL A   1      43.239  27.376  28.075  1.00  0.00    -0.354 N 
ATOM     45  C   UNL A   1      44.933  31.344  28.466  1.00  0.00     0.074 A 
ATOM     46  C   UNL A   1      43.943  32.291  28.929  1.00  0.00     0.031 C 
ATOM     47  C   UNL A   1      41.622  25.833  28.148  1.00  0.00     0.029 A 
ATOM     48  C   UNL A   1      43.020  26.049  27.787  1.00  0.00     0.049 A 
ATOM     49  H   UNL A   1      44.110  27.817  27.952  1.00  0.00     0.167 HD
ATOM     50  C   UNL A   1      46.223  31.657  28.200  1.00  0.00     0.037 A 
ATOM     51  C   UNL A   1      43.847  25.116  27.277  1.00  0.00     0.037 A 
ATOM     52  C   UNL A   1      47.204  30.703  27.752  1.00  0.00     0.049 A 
ATOM     53  C   UNL A   1      45.269  25.496  26.964  1.00  0.00     0.074 A 
ATOM     54  C   UNL A   1      48.550  30.907  27.503  1.00  0.00     0.029 A 
ATOM     55  N   UNL A   1      46.945  29.367  27.477  1.00  0.00    -0.354 N 
ATOM     56  N   UNL A   1      45.864  26.656  27.107  1.00  0.00    -0.248 NA
ATOM     57  C   UNL A   1      46.137  24.439  26.426  1.00  0.00     0.031 C 
ATOM     58  C   UNL A   1      49.089  29.714  27.015  1.00  0.00     0.029 A 
ATOM     59  C   UNL A   1      48.099  28.745  27.030  1.00  0.00     0.049 A 
ATOM     60  H   UNL A   1      46.071  28.928  27.582  1.00  0.00     0.167 HD
ATOM     61  C   UNL A   1      47.182  26.460  26.710  1.00  0.00     0.074 A 
ATOM     62  C   UNL A   1      47.300  25.067  26.333  1.00  0.00     0.031 C 
ATOM     63  C   UNL A   1      48.204  27.353  26.664  1.00  0.00     0.037 A 
BRANCH  50  64
ATOM     64  C   UNL A   1      46.649  33.091  28.380  1.00  0.00     0.058 A 
ATOM     65  C   UNL A   1      47.178  33.562  29.593  1.00  0.00     0.135 A 
ATOM     66  C   UNL A   1      46.565  33.998  27.310  1.00  0.00     0.135 A 
ATOM     67  F   UNL A   1      47.268  32.746  30.656  1.00  0.00    -0.206 F 
ATOM     68  C   UNL A   1      47.581  34.885  29.749  1.00  0.00     0.059 A 
ATOM     69  C   UNL A   1      46.995  35.317  27.433  1.00  0.00     0.059 A 
ATOM     70  F   UNL A   1      46.067  33.605  26.128  1.00  0.00    -0.206 F 
ATOM     71  C   UNL A   1      47.488  35.754  28.660  1.00  0.00     0.060 A 
BRANCH  71  72
ATOM     72  S   UNL A   1      48.026  37.463  28.877  1.00  0.00     0.124 S 
ATOM     73  O   UNL A   1      47.417  37.800  30.160  1.00  0.00    -0.237 OA
ATOM     74  O   UNL A   1      49.480  37.332  28.882  1.00  0.00    -0.237 OA
ATOM     75  O   UNL A   1      47.464  38.148  27.718  1.00  0.00    -0.744 OA
ENDBRANCH  71  72
ENDBRANCH  50  64
BRANCH  51  76
ATOM     76  C   UNL A   1      43.353  23.732  27.040  1.00  0.00     0.058 A 
ATOM     77  C   UNL A   1      43.180  22.832  28.103  1.00  0.00     0.135 A 
ATOM     78  C   UNL A   1      43.034  23.282  25.749  1.00  0.00     0.135 A 
ATOM     79  F   UNL A   1      43.475  23.209  29.356  1.00  0.00    -0.206 F 
ATOM     80  C   UNL A   1      42.731  21.532  27.893  1.00  0.00     0.059 A 
ATOM     81  C   UNL A   1      42.553  21.998  25.517  1.00  0.00     0.059 A 
ATOM     82  F   UNL A   1      43.165  24.108  24.698  1.00  0.00    -0.206 F 
ATOM     83  C   UNL A   1      42.415  21.126  26.596  1.00  0.00     0.060 A 
BRANCH  83  84
ATOM     84  S   UNL A   1      41.790  19.452  26.341  1.00  0.00     0.124 S 
ATOM     85  O   UNL A   1      42.474  19.064  25.114  1.00  0.00    -0.237 OA
ATOM     86  O   UNL A   1      42.229  18.776  27.559  1.00  0.00    -0.237 OA
ATOM     87  O   UNL A   1      40.347  19.645  26.227  1.00  0.00    -0.744 OA
ENDBRANCH  83  84
ENDBRANCH  51  76
BRANCH  63  88
ATOM     88  C   UNL A   1      49.554  26.845  26.234  1.00  0.00     0.058 A 
ATOM     89  C   UNL A   1      50.057  27.069  24.943  1.00  0.00     0.135 A 
ATOM     90  C   UNL A   1      50.380  26.171  27.150  1.00  0.00     0.135 A 
ATOM     91  F   UNL A   1      49.309  27.701  24.025  1.00  0.00    -0.206 F 
ATOM     92  C   UNL A   1      51.320  26.620  24.568  1.00  0.00     0.059 A 
ATOM     93  C   UNL A   1      51.659  25.747  26.807  1.00  0.00     0.059 A 
ATOM     94  F   UNL A   1      49.954  25.938  28.401  1.00  0.00    -0.206 F 
ATOM     95  C   UNL A   1      52.116  25.964  25.509  1.00  0.00     0.060 A 
BRANCH  95  96
ATOM     96  S   UNL A   1      53.766  25.424  25.017  1.00  0.00     0.124 S 
ATOM     97  O   UNL A   1      53.752  24.024  25.429  1.00  0.00    -0.237 OA
ATOM     98  O   UNL A   1      53.755  25.661  23.578  1.00  0.00    -0.237 OA
ATOM     99  O   UNL A   1      54.653  26.294  25.784  1.00  0.00    -0.744 OA
ENDBRANCH  95  96
ENDBRANCH  63  88
ENDBRANCH  37  38
ENDBRANCH  29  32
ENDBRANCH  27  28
ENDBRANCH  26  27
ENDBRANCH  25  26
ENDBRANCH   1  25
TORSDOF 22
ENDMDL
MODEL 3
REMARK VINA RESULT:      -9.9      6.829     12.111
REMARK SMILES C#CC[N@H+](CC(=O)NCCCCCCNC(=O)c1ccc(-c2c3nc(c(-c4c(F)cc(S(=O)(=O)[O-])cc4F)c4ccc([nH]4)c(-c4c(F)cc(S(=O)(=O)[O-])cc4F)c4nc(c(-c5c(F)cc(S(=O)(=O)[O-])cc5F)c5ccc2[nH]5)C=C4)C=C3)cc1)[C@H](C)c1ccccc1[N+](=O)[O-]
REMARK SMILES IDX 11 1 10 2 9 3 8 4 6 5 7 6 5 8 4 9 3 11 2 12 1 13 84 14 85 15
REMARK SMILES IDX 86 16 87 17 91 18 88 19 90 20 89 21 92 22 93 23 94 24 12 25
REMARK SMILES IDX 13 26 14 27 15 28 16 29 17 31 18 32 19 33 83 34 20 35 82 36
REMARK SMILES IDX 21 37 22 38 23 39 76 40 24 41 81 42 75 43 77 44 25 45 80 46
REMARK SMILES IDX 74 47 73 48 26 50 60 51 39 52 59 53 40 54 43 55 58 56 78 57
REMARK SMILES IDX 41 58 42 59 57 61 79 62 44 63 27 64 28 65 37 66 29 67 30 68
REMARK SMILES IDX 36 69 38 70 31 71 32 72 33 73 34 74 35 75 61 76 62 77 71 78
REMARK SMILES IDX 63 79 64 80 70 81 72 82 65 83 66 84 67 85 68 86 69 87 45 88
REMARK SMILES IDX 46 89 55 90 47 91 48 92 54 93 56 94 49 95 50 96 51 97 52 98
REMARK SMILES IDX 53 99
REMARK H PARENT 8 7 4 10 15 30 77 49 43 60
REMARK Flexibility Score: inf
ROOT
ATOM      1  C   UNL A   1      35.531  22.731  24.635  1.00  0.00     0.002 C 
ENDROOT
BRANCH   1   2
ATOM      2  C   UNL A   1      35.208  23.142  23.205  1.00  0.00     0.021 C 
BRANCH   2   3
ATOM      3  C   UNL A   1      33.868  23.882  23.044  1.00  0.00     0.116 C 
BRANCH   3   4
ATOM      4  N   UNL A   1      34.101  25.260  22.636  1.00  0.00    -0.351 N 
ATOM      5  C   UNL A   1      33.278  26.181  22.037  1.00  0.00     0.275 C 
ATOM      6  O   UNL A   1      33.802  27.219  21.621  1.00  0.00    -0.269 OA
ATOM      7  H   UNL A   1      35.010  25.590  22.825  1.00  0.00     0.163 HD
BRANCH   5   8
ATOM      8  C   UNL A   1      31.749  25.980  21.992  1.00  0.00     0.364 C 
BRANCH   8   9
ATOM      9  N   UNL A   1      30.952  26.575  23.123  1.00  0.00    -0.311 N 
ATOM     10  H   UNL A   1      31.580  26.875  23.868  1.00  0.00     0.349 HD
BRANCH   9  11
ATOM     11  C   UNL A   1      30.251  27.775  22.661  1.00  0.00     0.354 C 
BRANCH  11  12
ATOM     12  C   UNL A   1      30.264  29.028  23.418  1.00  0.00    -0.047 C 
ATOM     13  C   UNL A   1      30.159  30.110  23.935  1.00  0.00     0.010 C 
ENDBRANCH  11  12
ENDBRANCH   9  11
BRANCH   9  14
ATOM     14  C   UNL A   1      30.058  25.544  23.758  1.00  0.00     0.220 C 
ATOM     15  C   UNL A   1      28.680  26.141  24.121  1.00  0.00     0.081 C 
BRANCH  14  16
ATOM     16  C   UNL A   1      30.800  24.788  24.888  1.00  0.00     0.087 A 
ATOM     17  C   UNL A   1      30.683  23.377  24.914  1.00  0.00     0.017 A 
ATOM     18  C   UNL A   1      31.706  25.340  25.818  1.00  0.00     0.278 A 
ATOM     19  C   UNL A   1      31.555  22.578  25.667  1.00  0.00     0.001 A 
ATOM     20  C   UNL A   1      32.591  24.546  26.569  1.00  0.00     0.086 A 
ATOM     21  C   UNL A   1      32.538  23.162  26.459  1.00  0.00     0.007 A 
BRANCH  18  22
ATOM     22  N   UNL A   1      31.726  26.753  26.142  1.00  0.00     0.063 N 
ATOM     23  O   UNL A   1      30.952  27.149  27.022  1.00  0.00    -0.258 OA
ATOM     24  O   UNL A   1      32.497  27.465  25.483  1.00  0.00    -0.258 OA
ENDBRANCH  18  22
ENDBRANCH  14  16
ENDBRANCH   9  14
ENDBRANCH   8   9
ENDBRANCH   5   8
ENDBRANCH   3   4
ENDBRANCH   2   3
ENDBRANCH   1   2
BRANCH   1  25
ATOM     25  C   UNL A   1      36.389  23.743  25.386  1.00  0.00     0.002 C 
BRANCH  25  26
ATOM     26  C   UNL A   1      37.812  23.267  25.697  1.00  0.00     0.021 C 
BRANCH  26  27
ATOM     27  C   UNL A   1      38.636  24.247  26.529  1.00  0.00     0.116 C 
BRANCH  27  28
ATOM     28  N   UNL A   1      39.927  24.506  25.913  1.00  0.00    -0.352 N 
ATOM     29  C   UNL A   1      40.766  25.577  26.093  1.00  0.00     0.251 C 
ATOM     30  H   UNL A   1      40.243  23.820  25.281  1.00  0.00     0.163 HD
ATOM     31  O   UNL A   1      41.659  25.805  25.283  1.00  0.00    -0.269 OA
BRANCH  29  32
ATOM     32  C   UNL A   1      40.578  26.447  27.269  1.00  0.00     0.039 A 
ATOM     33  C   UNL A   1      39.957  25.933  28.408  1.00  0.00     0.014 A 
ATOM     34  C   UNL A   1      41.018  27.775  27.239  1.00  0.00     0.014 A 
ATOM     35  C   UNL A   1      39.821  26.741  29.538  1.00  0.00     0.010 A 
ATOM     36  C   UNL A   1      40.959  28.548  28.392  1.00  0.00     0.010 A 
ATOM     37  C   UNL A   1      40.349  28.044  29.550  1.00  0.00    -0.014 A 
BRANCH  37  38
ATOM     38  C   UNL A   1      40.261  28.898  30.761  1.00  0.00     0.031 A 
ATOM     39  C   UNL A   1      39.264  30.024  30.818  1.00  0.00     0.074 A 
ATOM     40  C   UNL A   1      41.115  28.693  31.783  1.00  0.00     0.049 A 
ATOM     41  N   UNL A   1      39.075  30.911  31.760  1.00  0.00    -0.248 NA
ATOM     42  C   UNL A   1      38.382  30.193  29.652  1.00  0.00     0.031 C 
ATOM     43  C   UNL A   1      42.154  27.661  31.823  1.00  0.00     0.029 A 
ATOM     44  N   UNL A   1      41.254  29.346  32.983  1.00  0.00    -0.354 N 
ATOM     45  C   UNL A   1      38.063  31.745  31.299  1.00  0.00     0.074 A 
ATOM     46  C   UNL A   1      37.721  31.297  29.967  1.00  0.00     0.031 C 
ATOM     47  C   UNL A   1      42.802  27.733  32.996  1.00  0.00     0.029 A 
ATOM     48  C   UNL A   1      42.261  28.845  33.773  1.00  0.00     0.049 A 
ATOM     49  H   UNL A   1      40.683  30.102  33.252  1.00  0.00     0.167 HD
ATOM     50  C   UNL A   1      37.457  32.774  31.938  1.00  0.00     0.037 A 
ATOM     51  C   UNL A   1      42.709  29.244  34.979  1.00  0.00     0.037 A 
ATOM     52  C   UNL A   1      37.798  33.203  33.270  1.00  0.00     0.049 A 
ATOM     53  C   UNL A   1      42.036  30.407  35.657  1.00  0.00     0.074 A 
ATOM     54  C   UNL A   1      37.210  34.201  34.027  1.00  0.00     0.029 A 
ATOM     55  N   UNL A   1      38.821  32.667  34.040  1.00  0.00    -0.354 N 
ATOM     56  N   UNL A   1      41.035  31.142  35.235  1.00  0.00    -0.248 NA
ATOM     57  C   UNL A   1      42.549  30.793  36.979  1.00  0.00     0.031 C 
ATOM     58  C   UNL A   1      37.920  34.313  35.226  1.00  0.00     0.029 A 
ATOM     59  C   UNL A   1      38.901  33.335  35.250  1.00  0.00     0.049 A 
ATOM     60  H   UNL A   1      39.403  31.922  33.765  1.00  0.00     0.167 HD
ATOM     61  C   UNL A   1      40.776  32.054  36.253  1.00  0.00     0.074 A 
ATOM     62  C   UNL A   1      41.718  31.769  37.315  1.00  0.00     0.031 C 
ATOM     63  C   UNL A   1      39.841  33.036  36.303  1.00  0.00     0.037 A 
BRANCH  50  64
ATOM     64  C   UNL A   1      36.368  33.512  31.204  1.00  0.00     0.058 A 
ATOM     65  C   UNL A   1      36.641  34.314  30.082  1.00  0.00     0.135 A 
ATOM     66  C   UNL A   1      35.027  33.384  31.601  1.00  0.00     0.135 A 
ATOM     67  F   UNL A   1      37.906  34.488  29.664  1.00  0.00    -0.206 F 
ATOM     68  C   UNL A   1      35.630  34.984  29.402  1.00  0.00     0.059 A 
ATOM     69  C   UNL A   1      33.995  34.016  30.913  1.00  0.00     0.059 A 
ATOM     70  F   UNL A   1      34.707  32.632  32.667  1.00  0.00    -0.206 F 
ATOM     71  C   UNL A   1      34.308  34.825  29.824  1.00  0.00     0.060 A 
BRANCH  71  72
ATOM     72  S   UNL A   1      33.008  35.692  28.921  1.00  0.00     0.124 S 
ATOM     73  O   UNL A   1      32.175  36.187  30.014  1.00  0.00    -0.237 OA
ATOM     74  O   UNL A   1      33.761  36.707  28.191  1.00  0.00    -0.237 OA
ATOM     75  O   UNL A   1      32.407  34.648  28.100  1.00  0.00    -0.744 OA
ENDBRANCH  71  72
ENDBRANCH  50  64
BRANCH  51  76
ATOM     76  C   UNL A   1      43.844  28.531  35.626  1.00  0.00     0.058 A 
ATOM     77  C   UNL A   1      43.622  27.472  36.519  1.00  0.00     0.135 A 
ATOM     78  C   UNL A   1      45.176  28.886  35.358  1.00  0.00     0.135 A 
ATOM     79  F   UNL A   1      42.368  27.096  36.814  1.00  0.00    -0.206 F 
ATOM     80  C   UNL A   1      44.674  26.806  37.139  1.00  0.00     0.059 A 
ATOM     81  C   UNL A   1      46.245  28.215  35.940  1.00  0.00     0.059 A 
ATOM     82  F   UNL A   1      45.446  29.881  34.498  1.00  0.00    -0.206 F 
ATOM     83  C   UNL A   1      45.984  27.182  36.838  1.00  0.00     0.060 A 
BRANCH  83  84
ATOM     84  S   UNL A   1      47.342  26.281  37.614  1.00  0.00     0.124 S 
ATOM     85  O   UNL A   1      46.935  26.282  39.014  1.00  0.00    -0.237 OA
ATOM     86  O   UNL A   1      47.280  24.992  36.931  1.00  0.00    -0.237 OA
ATOM     87  O   UNL A   1      48.511  27.096  37.296  1.00  0.00    -0.744 OA
ENDBRANCH  83  84
ENDBRANCH  51  76
BRANCH  63  88
ATOM     88  C   UNL A   1      39.754  33.850  37.567  1.00  0.00     0.058 A 
ATOM     89  C   UNL A   1      40.421  35.077  37.709  1.00  0.00     0.135 A 
ATOM     90  C   UNL A   1      38.944  33.420  38.631  1.00  0.00     0.135 A 
ATOM     91  F   UNL A   1      41.214  35.534  36.728  1.00  0.00    -0.206 F 
ATOM     92  C   UNL A   1      40.308  35.835  38.871  1.00  0.00     0.059 A 
ATOM     93  C   UNL A   1      38.787  34.179  39.785  1.00  0.00     0.059 A 
ATOM     94  F   UNL A   1      38.275  32.259  38.545  1.00  0.00    -0.206 F 
ATOM     95  C   UNL A   1      39.483  35.380  39.902  1.00  0.00     0.060 A 
BRANCH  95  96
ATOM     96  S   UNL A   1      39.317  36.393  41.386  1.00  0.00     0.124 S 
ATOM     97  O   UNL A   1      38.158  35.784  42.030  1.00  0.00    -0.237 OA
ATOM     98  O   UNL A   1      40.598  36.180  42.052  1.00  0.00    -0.237 OA
ATOM     99  O   UNL A   1      39.106  37.738  40.859  1.00  0.00    -0.744 OA
ENDBRANCH  95  96
ENDBRANCH  63  88
ENDBRANCH  37  38
ENDBRANCH  29  32
ENDBRANCH  27  28
ENDBRANCH  26  27
ENDBRANCH  25  26
ENDBRANCH   1  25
TORSDOF 22
ENDMDL
