MODEL 1
REMARK VINA RESULT:     -11.4      0.000      0.000
REMARK SMILES CO[C@@H]1C[C@H](C(=O)NCCCCCCNC(=O)c2ccc(-c3c4nc(c(-c5c(F)cc(S(=O)(=O)[O-])cc5F)c5ccc([nH]5)c(-c5c(F)cc(S(=O)(=O)[O-])cc5F)c5nc(c(-c6c(F)cc(S(=O)(=O)[O-])cc6F)c6ccc3[nH]6)C=C5)C=C4)cc2)N(C(=O)c2ccc([N+](=O)[O-])s2)C1
REMARK SMILES IDX 11 1 10 2 9 3 8 4 6 5 7 6 5 8 3 9 4 10 95 11 84 12 2 13 1 14
REMARK SMILES IDX 85 15 86 16 87 17 88 18 94 19 89 20 90 21 91 22 92 23 93 24
REMARK SMILES IDX 12 25 13 26 14 27 15 28 16 29 17 31 18 32 19 33 83 34 20 35
REMARK SMILES IDX 82 36 21 37 22 38 23 39 76 40 24 41 81 42 75 43 77 44 25 45
REMARK SMILES IDX 80 46 74 47 73 48 26 50 60 51 39 52 59 53 40 54 43 55 58 56
REMARK SMILES IDX 78 57 41 58 42 59 57 61 79 62 44 63 27 64 28 65 37 66 29 67
REMARK SMILES IDX 30 68 36 69 38 70 31 71 32 72 33 73 34 74 35 75 61 76 62 77
REMARK SMILES IDX 71 78 63 79 64 80 70 81 72 82 65 83 66 84 67 85 68 86 69 87
REMARK SMILES IDX 45 88 46 89 55 90 47 91 48 92 54 93 56 94 49 95 50 96 51 97
REMARK SMILES IDX 52 98 53 99
REMARK H PARENT 8 7 15 30 77 49 43 60
REMARK Flexibility Score: inf
ROOT
ATOM      1  C   UNL A   1      32.948  28.595  25.593  1.00  0.00     0.002 C 
ENDROOT
BRANCH   1   2
ATOM      2  C   UNL A   1      31.440  28.542  25.325  1.00  0.00     0.021 C 
BRANCH   2   3
ATOM      3  C   UNL A   1      30.742  27.245  25.755  1.00  0.00     0.116 C 
BRANCH   3   4
ATOM      4  N   UNL A   1      30.549  26.362  24.617  1.00  0.00    -0.354 N 
ATOM      5  C   UNL A   1      31.196  25.261  24.166  1.00  0.00     0.242 C 
ATOM      6  O   UNL A   1      30.888  24.898  23.019  1.00  0.00    -0.273 OA
ATOM      7  H   UNL A   1      29.785  26.620  24.052  1.00  0.00     0.163 HD
BRANCH   5   8
ATOM      8  C   UNL A   1      32.331  24.487  24.886  1.00  0.00     0.177 C 
ATOM      9  C   UNL A   1      31.735  23.646  27.058  1.00  0.00     0.139 C 
ATOM     10  C   UNL A   1      32.457  24.804  26.372  1.00  0.00     0.069 C 
ATOM     11  C   UNL A   1      32.020  22.448  26.130  1.00  0.00     0.152 C 
ATOM     12  N   UNL A   1      32.402  23.031  24.847  1.00  0.00    -0.323 N 
BRANCH   9  13
ATOM     13  O   UNL A   1      30.332  23.868  27.167  1.00  0.00    -0.380 OA
ATOM     14  C   UNL A   1      29.552  22.680  27.059  1.00  0.00     0.195 C 
ENDBRANCH   9  13
BRANCH  12  15
ATOM     15  C   UNL A   1      33.090  22.266  23.910  1.00  0.00     0.264 C 
ATOM     16  O   UNL A   1      32.504  21.574  23.090  1.00  0.00    -0.268 OA
BRANCH  15  17
ATOM     17  C   UNL A   1      34.533  22.205  24.094  1.00  0.00     0.099 A 
ATOM     18  C   UNL A   1      35.474  23.071  23.561  1.00  0.00     0.033 A 
ATOM     19  S   UNL A   1      35.256  20.975  25.029  1.00  0.00    -0.058 S 
ATOM     20  C   UNL A   1      36.807  22.654  23.839  1.00  0.00     0.099 A 
ATOM     21  C   UNL A   1      36.819  21.521  24.625  1.00  0.00     0.324 A 
BRANCH  21  22
ATOM     22  N   UNL A   1      37.991  20.817  25.075  1.00  0.00     0.074 N 
ATOM     23  O   UNL A   1      37.957  19.581  24.979  1.00  0.00    -0.258 OA
ATOM     24  O   UNL A   1      38.941  21.473  25.518  1.00  0.00    -0.258 OA
ENDBRANCH  21  22
ENDBRANCH  15  17
ENDBRANCH  12  15
ENDBRANCH   5   8
ENDBRANCH   3   4
ENDBRANCH   2   3
ENDBRANCH   1   2
BRANCH   1  25
ATOM     25  C   UNL A   1      33.367  29.295  26.889  1.00  0.00     0.002 C 
BRANCH  25  26
ATOM     26  C   UNL A   1      34.841  29.155  27.283  1.00  0.00     0.021 C 
BRANCH  26  27
ATOM     27  C   UNL A   1      35.505  30.415  27.836  1.00  0.00     0.116 C 
BRANCH  27  28
ATOM     28  N   UNL A   1      35.418  30.499  29.284  1.00  0.00    -0.352 N 
ATOM     29  C   UNL A   1      36.326  30.110  30.239  1.00  0.00     0.251 C 
ATOM     30  H   UNL A   1      34.586  30.893  29.633  1.00  0.00     0.163 HD
ATOM     31  O   UNL A   1      35.999  30.095  31.422  1.00  0.00    -0.269 OA
BRANCH  29  32
ATOM     32  C   UNL A   1      37.690  29.693  29.845  1.00  0.00     0.039 A 
ATOM     33  C   UNL A   1      38.078  29.829  28.508  1.00  0.00     0.014 A 
ATOM     34  C   UNL A   1      38.573  29.140  30.777  1.00  0.00     0.014 A 
ATOM     35  C   UNL A   1      39.367  29.458  28.117  1.00  0.00     0.010 A 
ATOM     36  C   UNL A   1      39.875  28.818  30.396  1.00  0.00     0.010 A 
ATOM     37  C   UNL A   1      40.283  28.968  29.062  1.00  0.00    -0.014 A 
BRANCH  37  38
ATOM     38  C   UNL A   1      41.666  28.597  28.666  1.00  0.00     0.031 A 
ATOM     39  C   UNL A   1      42.742  29.646  28.609  1.00  0.00     0.074 A 
ATOM     40  C   UNL A   1      41.941  27.328  28.308  1.00  0.00     0.049 A 
ATOM     41  N   UNL A   1      43.990  29.530  28.233  1.00  0.00    -0.248 NA
ATOM     42  C   UNL A   1      42.358  31.011  29.002  1.00  0.00     0.031 C 
ATOM     43  C   UNL A   1      40.972  26.231  28.272  1.00  0.00     0.029 A 
ATOM     44  N   UNL A   1      43.114  26.749  27.890  1.00  0.00    -0.354 N 
ATOM     45  C   UNL A   1      44.537  30.804  28.333  1.00  0.00     0.074 A 
ATOM     46  C   UNL A   1      43.472  31.686  28.759  1.00  0.00     0.031 C 
ATOM     47  C   UNL A   1      41.592  25.111  27.864  1.00  0.00     0.029 A 
ATOM     48  C   UNL A   1      42.993  25.414  27.587  1.00  0.00     0.049 A 
ATOM     49  H   UNL A   1      43.960  27.244  27.815  1.00  0.00     0.167 HD
ATOM     50  C   UNL A   1      45.814  31.200  28.111  1.00  0.00     0.037 A 
ATOM     51  C   UNL A   1      43.906  24.534  27.134  1.00  0.00     0.037 A 
ATOM     52  C   UNL A   1      46.876  30.316  27.708  1.00  0.00     0.049 A 
ATOM     53  C   UNL A   1      45.325  24.987  26.924  1.00  0.00     0.074 A 
ATOM     54  C   UNL A   1      48.213  30.612  27.500  1.00  0.00     0.029 A 
ATOM     55  N   UNL A   1      46.725  28.960  27.458  1.00  0.00    -0.354 N 
ATOM     56  N   UNL A   1      45.836  26.186  27.073  1.00  0.00    -0.248 NA
ATOM     57  C   UNL A   1      46.293  23.968  26.496  1.00  0.00     0.031 C 
ATOM     58  C   UNL A   1      48.864  29.439  27.098  1.00  0.00     0.029 A 
ATOM     59  C   UNL A   1      47.940  28.406  27.090  1.00  0.00     0.049 A 
ATOM     60  H   UNL A   1      45.877  28.464  27.531  1.00  0.00     0.167 HD
ATOM     61  C   UNL A   1      47.188  26.062  26.775  1.00  0.00     0.074 A 
ATOM     62  C   UNL A   1      47.419  24.669  26.450  1.00  0.00     0.031 C 
ATOM     63  C   UNL A   1      48.152  27.016  26.773  1.00  0.00     0.037 A 
BRANCH  50  64
ATOM     64  C   UNL A   1      46.126  32.658  28.307  1.00  0.00     0.058 A 
ATOM     65  C   UNL A   1      46.537  33.158  29.553  1.00  0.00     0.135 A 
ATOM     66  C   UNL A   1      46.022  33.563  27.239  1.00  0.00     0.135 A 
ATOM     67  F   UNL A   1      46.638  32.336  30.610  1.00  0.00    -0.206 F 
ATOM     68  C   UNL A   1      46.795  34.511  29.745  1.00  0.00     0.059 A 
ATOM     69  C   UNL A   1      46.300  34.918  27.403  1.00  0.00     0.059 A 
ATOM     70  F   UNL A   1      45.635  33.138  26.027  1.00  0.00    -0.206 F 
ATOM     71  C   UNL A   1      46.667  35.385  28.665  1.00  0.00     0.060 A 
BRANCH  71  72
ATOM     72  S   UNL A   1      46.985  37.142  28.931  1.00  0.00     0.124 S 
ATOM     73  O   UNL A   1      48.010  37.406  27.925  1.00  0.00    -0.237 OA
ATOM     74  O   UNL A   1      45.680  37.742  28.678  1.00  0.00    -0.237 OA
ATOM     75  O   UNL A   1      47.438  37.198  30.317  1.00  0.00    -0.744 OA
ENDBRANCH  71  72
ENDBRANCH  50  64
BRANCH  51  76
ATOM     76  C   UNL A   1      43.507  23.126  26.879  1.00  0.00     0.058 A 
ATOM     77  C   UNL A   1      43.422  22.627  25.571  1.00  0.00     0.135 A 
ATOM     78  C   UNL A   1      43.235  22.246  27.936  1.00  0.00     0.135 A 
ATOM     79  F   UNL A   1      43.667  23.433  24.528  1.00  0.00    -0.206 F 
ATOM     80  C   UNL A   1      43.073  21.303  25.318  1.00  0.00     0.059 A 
ATOM     81  C   UNL A   1      42.904  20.913  27.710  1.00  0.00     0.059 A 
ATOM     82  F   UNL A   1      43.319  22.673  29.206  1.00  0.00    -0.206 F 
ATOM     83  C   UNL A   1      42.819  20.453  26.396  1.00  0.00     0.060 A 
BRANCH  83  84
ATOM     84  S   UNL A   1      42.433  18.721  26.063  1.00  0.00     0.124 S 
ATOM     85  O   UNL A   1      43.370  18.413  24.990  1.00  0.00    -0.237 OA
ATOM     86  O   UNL A   1      42.707  18.090  27.350  1.00  0.00    -0.237 OA
ATOM     87  O   UNL A   1      41.024  18.760  25.682  1.00  0.00    -0.744 OA
ENDBRANCH  83  84
ENDBRANCH  51  76
BRANCH  63  88
ATOM     88  C   UNL A   1      49.549  26.582  26.429  1.00  0.00     0.058 A 
ATOM     89  C   UNL A   1      50.359  25.911  27.357  1.00  0.00     0.135 A 
ATOM     90  C   UNL A   1      50.063  26.798  25.141  1.00  0.00     0.135 A 
ATOM     91  F   UNL A   1      49.915  25.685  28.604  1.00  0.00    -0.206 F 
ATOM     92  C   UNL A   1      51.641  25.486  27.027  1.00  0.00     0.059 A 
ATOM     93  C   UNL A   1      51.335  26.364  24.783  1.00  0.00     0.059 A 
ATOM     94  F   UNL A   1      49.324  27.428  24.214  1.00  0.00    -0.206 F 
ATOM     95  C   UNL A   1      52.122  25.719  25.737  1.00  0.00     0.060 A 
BRANCH  95  96
ATOM     96  S   UNL A   1      53.775  25.136  25.306  1.00  0.00     0.124 S 
ATOM     97  O   UNL A   1      53.900  25.600  23.928  1.00  0.00    -0.237 OA
ATOM     98  O   UNL A   1      54.616  25.820  26.283  1.00  0.00    -0.237 OA
ATOM     99  O   UNL A   1      53.680  23.689  25.476  1.00  0.00    -0.744 OA
ENDBRANCH  95  96
ENDBRANCH  63  88
ENDBRANCH  37  38
ENDBRANCH  29  32
ENDBRANCH  27  28
ENDBRANCH  26  27
ENDBRANCH  25  26
ENDBRANCH   1  25
TORSDOF 20
ENDMDL
MODEL 2
REMARK VINA RESULT:     -11.3      1.569      2.539
REMARK SMILES CO[C@@H]1C[C@H](C(=O)NCCCCCCNC(=O)c2ccc(-c3c4nc(c(-c5c(F)cc(S(=O)(=O)[O-])cc5F)c5ccc([nH]5)c(-c5c(F)cc(S(=O)(=O)[O-])cc5F)c5nc(c(-c6c(F)cc(S(=O)(=O)[O-])cc6F)c6ccc3[nH]6)C=C5)C=C4)cc2)N(C(=O)c2ccc([N+](=O)[O-])s2)C1
REMARK SMILES IDX 11 1 10 2 9 3 8 4 6 5 7 6 5 8 3 9 4 10 95 11 84 12 2 13 1 14
REMARK SMILES IDX 85 15 86 16 87 17 88 18 94 19 89 20 90 21 91 22 92 23 93 24
REMARK SMILES IDX 12 25 13 26 14 27 15 28 16 29 17 31 18 32 19 33 83 34 20 35
REMARK SMILES IDX 82 36 21 37 22 38 23 39 76 40 24 41 81 42 75 43 77 44 25 45
REMARK SMILES IDX 80 46 74 47 73 48 26 50 60 51 39 52 59 53 40 54 43 55 58 56
REMARK SMILES IDX 78 57 41 58 42 59 57 61 79 62 44 63 27 64 28 65 37 66 29 67
REMARK SMILES IDX 30 68 36 69 38 70 31 71 32 72 33 73 34 74 35 75 61 76 62 77
REMARK SMILES IDX 71 78 63 79 64 80 70 81 72 82 65 83 66 84 67 85 68 86 69 87
REMARK SMILES IDX 45 88 46 89 55 90 47 91 48 92 54 93 56 94 49 95 50 96 51 97
REMARK SMILES IDX 52 98 53 99
REMARK H PARENT 8 7 15 30 77 49 43 60
REMARK Flexibility Score: inf
ROOT
ATOM      1  C   UNL A   1      33.591  31.242  27.270  1.00  0.00     0.002 C 
ENDROOT
BRANCH   1   2
ATOM      2  C   UNL A   1      33.115  29.785  27.222  1.00  0.00     0.021 C 
BRANCH   2   3
ATOM      3  C   UNL A   1      34.046  28.813  26.488  1.00  0.00     0.116 C 
BRANCH   3   4
ATOM      4  N   UNL A   1      34.027  29.063  25.056  1.00  0.00    -0.354 N 
ATOM      5  C   UNL A   1      33.602  28.350  23.986  1.00  0.00     0.242 C 
ATOM      6  O   UNL A   1      33.959  28.790  22.881  1.00  0.00    -0.273 OA
ATOM      7  H   UNL A   1      34.404  29.940  24.812  1.00  0.00     0.163 HD
BRANCH   5   8
ATOM      8  C   UNL A   1      32.816  27.013  24.010  1.00  0.00     0.177 C 
ATOM      9  C   UNL A   1      30.430  27.261  23.843  1.00  0.00     0.139 C 
ATOM     10  C   UNL A   1      31.551  27.048  24.859  1.00  0.00     0.069 C 
ATOM     11  C   UNL A   1      30.934  26.508  22.596  1.00  0.00     0.152 C 
ATOM     12  N   UNL A   1      32.376  26.368  22.779  1.00  0.00    -0.323 N 
BRANCH   9  13
ATOM     13  O   UNL A   1      30.223  28.638  23.543  1.00  0.00    -0.380 OA
ATOM     14  C   UNL A   1      30.403  28.960  22.166  1.00  0.00     0.195 C 
ENDBRANCH   9  13
BRANCH  12  15
ATOM     15  C   UNL A   1      33.083  25.416  22.050  1.00  0.00     0.264 C 
ATOM     16  O   UNL A   1      33.234  25.516  20.840  1.00  0.00    -0.268 OA
BRANCH  15  17
ATOM     17  C   UNL A   1      33.464  24.222  22.789  1.00  0.00     0.099 A 
ATOM     18  C   UNL A   1      34.704  23.949  23.342  1.00  0.00     0.033 A 
ATOM     19  S   UNL A   1      32.356  22.951  23.050  1.00  0.00    -0.058 S 
ATOM     20  C   UNL A   1      34.771  22.637  23.892  1.00  0.00     0.099 A 
ATOM     21  C   UNL A   1      33.556  21.993  23.787  1.00  0.00     0.324 A 
BRANCH  21  22
ATOM     22  N   UNL A   1      33.273  20.649  24.219  1.00  0.00     0.074 N 
ATOM     23  O   UNL A   1      32.228  20.143  23.780  1.00  0.00    -0.258 OA
ATOM     24  O   UNL A   1      34.072  20.091  24.980  1.00  0.00    -0.258 OA
ENDBRANCH  21  22
ENDBRANCH  15  17
ENDBRANCH  12  15
ENDBRANCH   5   8
ENDBRANCH   3   4
ENDBRANCH   2   3
ENDBRANCH   1   2
BRANCH   1  25
ATOM     25  C   UNL A   1      35.058  31.446  27.657  1.00  0.00     0.002 C 
BRANCH  25  26
ATOM     26  C   UNL A   1      35.418  32.822  28.227  1.00  0.00     0.021 C 
BRANCH  26  27
ATOM     27  C   UNL A   1      36.425  32.825  29.376  1.00  0.00     0.116 C 
BRANCH  27  28
ATOM     28  N   UNL A   1      35.992  32.005  30.495  1.00  0.00    -0.352 N 
ATOM     29  C   UNL A   1      36.548  30.856  31.002  1.00  0.00     0.251 C 
ATOM     30  H   UNL A   1      35.183  32.320  30.958  1.00  0.00     0.163 HD
ATOM     31  O   UNL A   1      35.937  30.202  31.843  1.00  0.00    -0.269 OA
BRANCH  29  32
ATOM     32  C   UNL A   1      37.871  30.393  30.527  1.00  0.00     0.039 A 
ATOM     33  C   UNL A   1      38.076  30.231  29.154  1.00  0.00     0.014 A 
ATOM     34  C   UNL A   1      38.894  30.088  31.430  1.00  0.00     0.014 A 
ATOM     35  C   UNL A   1      39.322  29.812  28.682  1.00  0.00     0.010 A 
ATOM     36  C   UNL A   1      40.153  29.720  30.954  1.00  0.00     0.010 A 
ATOM     37  C   UNL A   1      40.378  29.572  29.577  1.00  0.00    -0.014 A 
BRANCH  37  38
ATOM     38  C   UNL A   1      41.717  29.154  29.088  1.00  0.00     0.031 A 
ATOM     39  C   UNL A   1      42.831  30.159  28.986  1.00  0.00     0.074 A 
ATOM     40  C   UNL A   1      41.915  27.884  28.687  1.00  0.00     0.049 A 
ATOM     41  N   UNL A   1      44.047  30.002  28.530  1.00  0.00    -0.248 NA
ATOM     42  C   UNL A   1      42.529  31.529  29.430  1.00  0.00     0.031 C 
ATOM     43  C   UNL A   1      40.901  26.829  28.688  1.00  0.00     0.029 A 
ATOM     44  N   UNL A   1      43.035  27.268  28.184  1.00  0.00    -0.354 N 
ATOM     45  C   UNL A   1      44.652  31.250  28.622  1.00  0.00     0.074 A 
ATOM     46  C   UNL A   1      43.653  32.164  29.133  1.00  0.00     0.031 C 
ATOM     47  C   UNL A   1      41.446  25.694  28.219  1.00  0.00     0.029 A 
ATOM     48  C   UNL A   1      42.839  25.947  27.861  1.00  0.00     0.049 A 
ATOM     49  H   UNL A   1      43.895  27.730  28.066  1.00  0.00     0.167 HD
ATOM     50  C   UNL A   1      45.929  31.598  28.329  1.00  0.00     0.037 A 
ATOM     51  C   UNL A   1      43.685  25.040  27.333  1.00  0.00     0.037 A 
ATOM     52  C   UNL A   1      46.926  30.681  27.842  1.00  0.00     0.049 A 
ATOM     53  C   UNL A   1      45.106  25.441  27.044  1.00  0.00     0.074 A 
ATOM     54  C   UNL A   1      48.258  30.927  27.557  1.00  0.00     0.029 A 
ATOM     55  N   UNL A   1      46.702  29.339  27.573  1.00  0.00    -0.354 N 
ATOM     56  N   UNL A   1      45.675  26.614  27.186  1.00  0.00    -0.248 NA
ATOM     57  C   UNL A   1      46.002  24.394  26.535  1.00  0.00     0.031 C 
ATOM     58  C   UNL A   1      48.833  29.739  27.091  1.00  0.00     0.029 A 
ATOM     59  C   UNL A   1      47.868  28.745  27.118  1.00  0.00     0.049 A 
ATOM     60  H   UNL A   1      45.841  28.877  27.689  1.00  0.00     0.167 HD
ATOM     61  C   UNL A   1      47.000  26.442  26.802  1.00  0.00     0.074 A 
ATOM     62  C   UNL A   1      47.151  25.049  26.434  1.00  0.00     0.031 C 
ATOM     63  C   UNL A   1      48.001  27.355  26.760  1.00  0.00     0.037 A 
BRANCH  50  64
ATOM     64  C   UNL A   1      46.314  33.037  28.536  1.00  0.00     0.058 A 
ATOM     65  C   UNL A   1      46.265  33.967  27.485  1.00  0.00     0.135 A 
ATOM     66  C   UNL A   1      46.729  33.494  29.797  1.00  0.00     0.135 A 
ATOM     67  F   UNL A   1      45.890  33.579  26.257  1.00  0.00    -0.206 F 
ATOM     68  C   UNL A   1      46.652  35.291  27.666  1.00  0.00     0.059 A 
ATOM     69  C   UNL A   1      47.097  34.821  30.007  1.00  0.00     0.059 A 
ATOM     70  F   UNL A   1      46.792  32.648  30.836  1.00  0.00    -0.206 F 
ATOM     71  C   UNL A   1      47.073  35.707  28.931  1.00  0.00     0.060 A 
BRANCH  71  72
ATOM     72  S   UNL A   1      47.592  37.422  29.149  1.00  0.00     0.124 S 
ATOM     73  O   UNL A   1      47.107  37.701  30.497  1.00  0.00    -0.237 OA
ATOM     74  O   UNL A   1      49.040  37.336  29.002  1.00  0.00    -0.237 OA
ATOM     75  O   UNL A   1      46.898  38.125  28.074  1.00  0.00    -0.744 OA
ENDBRANCH  71  72
ENDBRANCH  50  64
BRANCH  51  76
ATOM     76  C   UNL A   1      43.212  23.657  27.073  1.00  0.00     0.058 A 
ATOM     77  C   UNL A   1      43.038  23.188  25.763  1.00  0.00     0.135 A 
ATOM     78  C   UNL A   1      42.955  22.768  28.128  1.00  0.00     0.135 A 
ATOM     79  F   UNL A   1      43.265  24.004  24.724  1.00  0.00    -0.206 F 
ATOM     80  C   UNL A   1      42.619  21.886  25.505  1.00  0.00     0.059 A 
ATOM     81  C   UNL A   1      42.555  21.456  27.895  1.00  0.00     0.059 A 
ATOM     82  F   UNL A   1      43.122  23.165  29.399  1.00  0.00    -0.206 F 
ATOM     83  C   UNL A   1      42.383  21.026  26.580  1.00  0.00     0.060 A 
BRANCH  83  84
ATOM     84  S   UNL A   1      41.904  19.319  26.236  1.00  0.00     0.124 S 
ATOM     85  O   UNL A   1      40.451  19.423  26.202  1.00  0.00    -0.237 OA
ATOM     86  O   UNL A   1      42.556  19.068  24.954  1.00  0.00    -0.237 OA
ATOM     87  O   UNL A   1      42.461  18.583  27.367  1.00  0.00    -0.744 OA
ENDBRANCH  83  84
ENDBRANCH  51  76
BRANCH  63  88
ATOM     88  C   UNL A   1      49.354  26.873  26.320  1.00  0.00     0.058 A 
ATOM     89  C   UNL A   1      50.202  26.171  27.189  1.00  0.00     0.135 A 
ATOM     90  C   UNL A   1      49.786  27.075  25.000  1.00  0.00     0.135 A 
ATOM     91  F   UNL A   1      49.837  25.958  28.464  1.00  0.00    -0.206 F 
ATOM     92  C   UNL A   1      51.443  25.702  26.771  1.00  0.00     0.059 A 
ATOM     93  C   UNL A   1      51.014  26.597  24.554  1.00  0.00     0.059 A 
ATOM     94  F   UNL A   1      49.007  27.733  24.126  1.00  0.00    -0.206 F 
ATOM     95  C   UNL A   1      51.841  25.921  25.451  1.00  0.00     0.060 A 
BRANCH  95  96
ATOM     96  S   UNL A   1      53.439  25.281  24.907  1.00  0.00     0.124 S 
ATOM     97  O   UNL A   1      53.338  25.432  23.459  1.00  0.00    -0.237 OA
ATOM     98  O   UNL A   1      54.381  26.175  25.572  1.00  0.00    -0.237 OA
ATOM     99  O   UNL A   1      53.438  23.906  25.397  1.00  0.00    -0.744 OA
ENDBRANCH  95  96
ENDBRANCH  63  88
ENDBRANCH  37  38
ENDBRANCH  29  32
ENDBRANCH  27  28
ENDBRANCH  26  27
ENDBRANCH  25  26
ENDBRANCH   1  25
TORSDOF 20
ENDMDL
MODEL 3
REMARK VINA RESULT:     -11.2      1.257      2.574
REMARK SMILES CO[C@@H]1C[C@H](C(=O)NCCCCCCNC(=O)c2ccc(-c3c4nc(c(-c5c(F)cc(S(=O)(=O)[O-])cc5F)c5ccc([nH]5)c(-c5c(F)cc(S(=O)(=O)[O-])cc5F)c5nc(c(-c6c(F)cc(S(=O)(=O)[O-])cc6F)c6ccc3[nH]6)C=C5)C=C4)cc2)N(C(=O)c2ccc([N+](=O)[O-])s2)C1
REMARK SMILES IDX 11 1 10 2 9 3 8 4 6 5 7 6 5 8 3 9 4 10 95 11 84 12 2 13 1 14
REMARK SMILES IDX 85 15 86 16 87 17 88 18 94 19 89 20 90 21 91 22 92 23 93 24
REMARK SMILES IDX 12 25 13 26 14 27 15 28 16 29 17 31 18 32 19 33 83 34 20 35
REMARK SMILES IDX 82 36 21 37 22 38 23 39 76 40 24 41 81 42 75 43 77 44 25 45
REMARK SMILES IDX 80 46 74 47 73 48 26 50 60 51 39 52 59 53 40 54 43 55 58 56
REMARK SMILES IDX 78 57 41 58 42 59 57 61 79 62 44 63 27 64 28 65 37 66 29 67
REMARK SMILES IDX 30 68 36 69 38 70 31 71 32 72 33 73 34 74 35 75 61 76 62 77
REMARK SMILES IDX 71 78 63 79 64 80 70 81 72 82 65 83 66 84 67 85 68 86 69 87
REMARK SMILES IDX 45 88 46 89 55 90 47 91 48 92 54 93 56 94 49 95 50 96 51 97
REMARK SMILES IDX 52 98 53 99
REMARK H PARENT 8 7 15 30 77 49 43 60
REMARK Flexibility Score: inf
ROOT
ATOM      1  C   UNL A   1      34.362  30.696  27.342  1.00  0.00     0.002 C 
ENDROOT
BRANCH   1   2
ATOM      2  C   UNL A   1      32.956  30.115  27.154  1.00  0.00     0.021 C 
BRANCH   2   3
ATOM      3  C   UNL A   1      32.704  29.431  25.804  1.00  0.00     0.116 C 
BRANCH   3   4
ATOM      4  N   UNL A   1      33.421  28.169  25.724  1.00  0.00    -0.354 N 
ATOM      5  C   UNL A   1      33.040  26.870  25.783  1.00  0.00     0.242 C 
ATOM      6  O   UNL A   1      33.966  26.053  25.911  1.00  0.00    -0.273 OA
ATOM      7  H   UNL A   1      34.391  28.282  25.601  1.00  0.00     0.163 HD
BRANCH   5   8
ATOM      8  C   UNL A   1      31.589  26.325  25.808  1.00  0.00     0.177 C 
ATOM      9  C   UNL A   1      30.544  26.186  23.647  1.00  0.00     0.139 C 
ATOM     10  C   UNL A   1      30.627  27.070  24.890  1.00  0.00     0.069 C 
ATOM     11  C   UNL A   1      30.689  24.760  24.214  1.00  0.00     0.152 C 
ATOM     12  N   UNL A   1      31.298  24.924  25.532  1.00  0.00    -0.323 N 
BRANCH   9  13
ATOM     13  O   UNL A   1      31.586  26.458  22.715  1.00  0.00    -0.380 OA
ATOM     14  C   UNL A   1      32.240  25.290  22.225  1.00  0.00     0.195 C 
ENDBRANCH   9  13
BRANCH  12  15
ATOM     15  C   UNL A   1      31.217  23.899  26.470  1.00  0.00     0.264 C 
ATOM     16  O   UNL A   1      30.287  23.823  27.260  1.00  0.00    -0.268 OA
BRANCH  15  17
ATOM     17  C   UNL A   1      32.392  23.045  26.563  1.00  0.00     0.099 A 
ATOM     18  C   UNL A   1      32.954  22.531  27.720  1.00  0.00     0.033 A 
ATOM     19  S   UNL A   1      33.259  22.575  25.171  1.00  0.00    -0.058 S 
ATOM     20  C   UNL A   1      34.169  21.834  27.465  1.00  0.00     0.099 A 
ATOM     21  C   UNL A   1      34.444  21.795  26.114  1.00  0.00     0.324 A 
BRANCH  21  22
ATOM     22  N   UNL A   1      35.601  21.193  25.503  1.00  0.00     0.074 N 
ATOM     23  O   UNL A   1      35.428  20.078  24.987  1.00  0.00    -0.258 OA
ATOM     24  O   UNL A   1      36.671  21.811  25.527  1.00  0.00    -0.258 OA
ENDBRANCH  21  22
ENDBRANCH  15  17
ENDBRANCH  12  15
ENDBRANCH   5   8
ENDBRANCH   3   4
ENDBRANCH   2   3
ENDBRANCH   1   2
BRANCH   1  25
ATOM     25  C   UNL A   1      34.431  32.041  28.072  1.00  0.00     0.002 C 
BRANCH  25  26
ATOM     26  C   UNL A   1      35.770  32.782  27.991  1.00  0.00     0.021 C 
BRANCH  26  27
ATOM     27  C   UNL A   1      36.509  32.969  29.315  1.00  0.00     0.116 C 
BRANCH  27  28
ATOM     28  N   UNL A   1      36.069  32.030  30.334  1.00  0.00    -0.352 N 
ATOM     29  C   UNL A   1      36.640  30.847  30.737  1.00  0.00     0.251 C 
ATOM     30  H   UNL A   1      35.241  32.278  30.804  1.00  0.00     0.163 HD
ATOM     31  O   UNL A   1      36.024  30.098  31.490  1.00  0.00    -0.269 OA
BRANCH  29  32
ATOM     32  C   UNL A   1      37.985  30.464  30.253  1.00  0.00     0.039 A 
ATOM     33  C   UNL A   1      39.036  30.390  31.171  1.00  0.00     0.014 A 
ATOM     34  C   UNL A   1      38.219  30.213  28.898  1.00  0.00     0.014 A 
ATOM     35  C   UNL A   1      40.311  30.014  30.740  1.00  0.00     0.010 A 
ATOM     36  C   UNL A   1      39.480  29.788  28.478  1.00  0.00     0.010 A 
ATOM     37  C   UNL A   1      40.539  29.690  29.392  1.00  0.00    -0.014 A 
BRANCH  37  38
ATOM     38  C   UNL A   1      41.882  29.261  28.925  1.00  0.00     0.031 A 
ATOM     39  C   UNL A   1      42.999  30.262  28.817  1.00  0.00     0.074 A 
ATOM     40  C   UNL A   1      42.082  27.984  28.548  1.00  0.00     0.049 A 
ATOM     41  N   UNL A   1      44.220  30.094  28.377  1.00  0.00    -0.248 NA
ATOM     42  C   UNL A   1      42.696  31.640  29.234  1.00  0.00     0.031 C 
ATOM     43  C   UNL A   1      41.065  26.930  28.557  1.00  0.00     0.029 A 
ATOM     44  N   UNL A   1      43.205  27.356  28.068  1.00  0.00    -0.354 N 
ATOM     45  C   UNL A   1      44.826  31.342  28.453  1.00  0.00     0.074 A 
ATOM     46  C   UNL A   1      43.825  32.267  28.937  1.00  0.00     0.031 C 
ATOM     47  C   UNL A   1      41.613  25.787  28.114  1.00  0.00     0.029 A 
ATOM     48  C   UNL A   1      43.010  26.030  27.766  1.00  0.00     0.049 A 
ATOM     49  H   UNL A   1      44.068  27.814  27.951  1.00  0.00     0.167 HD
ATOM     50  C   UNL A   1      46.107  31.683  28.167  1.00  0.00     0.037 A 
ATOM     51  C   UNL A   1      43.859  25.113  27.264  1.00  0.00     0.037 A 
ATOM     52  C   UNL A   1      47.107  30.755  27.708  1.00  0.00     0.049 A 
ATOM     53  C   UNL A   1      45.284  25.505  26.983  1.00  0.00     0.074 A 
ATOM     54  C   UNL A   1      48.443  30.993  27.432  1.00  0.00     0.029 A 
ATOM     55  N   UNL A   1      46.884  29.409  27.460  1.00  0.00    -0.354 N 
ATOM     56  N   UNL A   1      45.854  26.679  27.110  1.00  0.00    -0.248 NA
ATOM     57  C   UNL A   1      46.184  24.447  26.502  1.00  0.00     0.031 C 
ATOM     58  C   UNL A   1      49.020  29.796  26.993  1.00  0.00     0.029 A 
ATOM     59  C   UNL A   1      48.052  28.805  27.028  1.00  0.00     0.049 A 
ATOM     60  H   UNL A   1      46.020  28.950  27.574  1.00  0.00     0.167 HD
ATOM     61  C   UNL A   1      47.183  26.498  26.743  1.00  0.00     0.074 A 
ATOM     62  C   UNL A   1      47.335  25.098  26.401  1.00  0.00     0.031 C 
ATOM     63  C   UNL A   1      48.187  27.409  26.696  1.00  0.00     0.037 A 
BRANCH  50  64
ATOM     64  C   UNL A   1      46.493  33.124  28.353  1.00  0.00     0.058 A 
ATOM     65  C   UNL A   1      46.383  34.053  27.306  1.00  0.00     0.135 A 
ATOM     66  C   UNL A   1      46.971  33.585  29.590  1.00  0.00     0.135 A 
ATOM     67  F   UNL A   1      45.946  33.661  26.099  1.00  0.00    -0.206 F 
ATOM     68  C   UNL A   1      46.770  35.379  27.465  1.00  0.00     0.059 A 
ATOM     69  C   UNL A   1      47.341  34.914  29.780  1.00  0.00     0.059 A 
ATOM     70  F   UNL A   1      47.095  32.740  30.625  1.00  0.00    -0.206 F 
ATOM     71  C   UNL A   1      47.255  35.799  28.706  1.00  0.00     0.060 A 
BRANCH  71  72
ATOM     72  S   UNL A   1      47.773  37.518  28.895  1.00  0.00     0.124 S 
ATOM     73  O   UNL A   1      47.989  37.597  30.337  1.00  0.00    -0.237 OA
ATOM     74  O   UNL A   1      48.974  37.579  28.070  1.00  0.00    -0.237 OA
ATOM     75  O   UNL A   1      46.631  38.273  28.389  1.00  0.00    -0.744 OA
ENDBRANCH  71  72
ENDBRANCH  50  64
BRANCH  51  76
ATOM     76  C   UNL A   1      43.386  23.726  27.023  1.00  0.00     0.058 A 
ATOM     77  C   UNL A   1      43.309  22.798  28.073  1.00  0.00     0.135 A 
ATOM     78  C   UNL A   1      42.971  23.311  25.749  1.00  0.00     0.135 A 
ATOM     79  F   UNL A   1      43.701  23.148  29.306  1.00  0.00    -0.206 F 
ATOM     80  C   UNL A   1      42.844  21.503  27.866  1.00  0.00     0.059 A 
ATOM     81  C   UNL A   1      42.483  22.028  25.522  1.00  0.00     0.059 A 
ATOM     82  F   UNL A   1      43.010  24.168  24.716  1.00  0.00    -0.206 F 
ATOM     83  C   UNL A   1      42.430  21.129  26.587  1.00  0.00     0.060 A 
BRANCH  83  84
ATOM     84  S   UNL A   1      41.764  19.468  26.341  1.00  0.00     0.124 S 
ATOM     85  O   UNL A   1      42.430  19.065  25.108  1.00  0.00    -0.237 OA
ATOM     86  O   UNL A   1      42.196  18.779  27.554  1.00  0.00    -0.237 OA
ATOM     87  O   UNL A   1      40.326  19.696  26.239  1.00  0.00    -0.744 OA
ENDBRANCH  83  84
ENDBRANCH  51  76
BRANCH  63  88
ATOM     88  C   UNL A   1      49.543  26.915  26.279  1.00  0.00     0.058 A 
ATOM     89  C   UNL A   1      50.019  27.090  24.971  1.00  0.00     0.135 A 
ATOM     90  C   UNL A   1      50.395  26.304  27.213  1.00  0.00     0.135 A 
ATOM     91  F   UNL A   1      49.240  27.664  24.040  1.00  0.00    -0.206 F 
ATOM     92  C   UNL A   1      51.285  26.656  24.595  1.00  0.00     0.059 A 
ATOM     93  C   UNL A   1      51.674  25.881  26.864  1.00  0.00     0.059 A 
ATOM     94  F   UNL A   1      49.991  26.122  28.479  1.00  0.00    -0.206 F 
ATOM     95  C   UNL A   1      52.106  26.051  25.549  1.00  0.00     0.060 A 
BRANCH  95  96
ATOM     96  S   UNL A   1      53.761  25.521  25.061  1.00  0.00     0.124 S 
ATOM     97  O   UNL A   1      53.737  25.770  23.623  1.00  0.00    -0.237 OA
ATOM     98  O   UNL A   1      54.620  26.405  25.842  1.00  0.00    -0.237 OA
ATOM     99  O   UNL A   1      53.796  24.116  25.456  1.00  0.00    -0.744 OA
ENDBRANCH  95  96
ENDBRANCH  63  88
ENDBRANCH  37  38
ENDBRANCH  29  32
ENDBRANCH  27  28
ENDBRANCH  26  27
ENDBRANCH  25  26
ENDBRANCH   1  25
TORSDOF 20
ENDMDL
