MODEL 1
REMARK VINA RESULT:     -13.3      0.000      0.000
REMARK SMILES O=C(NCCCCCCNC(=O)c1cc(N2C(=O)[C@H]3[C@@H]4C=C[C@@H]([C@@H]5C[C@H]45)[C@@H]3C2=O)ccc1Cl)c1ccc(-c2c3nc(c(-c4c(F)cc(S(=O)(=O)[O-])cc4F)c4ccc([nH]4)c(-c4c(F)cc(S(=O)(=O)[O-])cc4F)c4nc(c(-c5c(F)cc(S(=O)(=O)[O-])cc5F)c5ccc2[nH]5)C=C4)C=C3)cc1
REMARK SMILES IDX 5 1 4 2 3 3 1 4 2 5 34 7 35 8 99 9 36 10 98 11 37 12 38 13
REMARK SMILES IDX 39 14 92 15 40 16 97 17 91 18 93 19 41 20 96 21 90 22 89 23
REMARK SMILES IDX 42 25 76 26 55 27 75 28 56 29 59 30 74 31 94 32 57 33 58 34
REMARK SMILES IDX 73 36 95 37 60 38 43 39 44 40 53 41 45 42 46 43 52 44 54 45
REMARK SMILES IDX 47 46 48 47 49 48 50 49 51 50 77 51 78 52 87 53 79 54 80 55
REMARK SMILES IDX 86 56 88 57 81 58 82 59 83 60 84 61 85 62 61 63 62 64 71 65
REMARK SMILES IDX 63 66 64 67 70 68 72 69 65 70 66 71 67 72 68 73 69 74 6 75
REMARK SMILES IDX 7 76 8 77 9 78 10 79 11 80 12 82 13 83 14 84 32 85 15 86
REMARK SMILES IDX 31 87 33 88 30 89 16 90 17 91 28 92 18 93 19 94 27 95 29 96
REMARK SMILES IDX 20 97 23 98 21 99 26 100 22 101 24 102 25 103
REMARK H PARENT 3 6 93 24 59 35 10 81
REMARK Flexibility Score: inf
ROOT
ATOM      1  C   UNL A   1      32.418  27.704  27.340  1.00  0.00     0.021 C 
ENDROOT
BRANCH   1   2
ATOM      2  C   UNL A   1      33.736  28.461  27.258  1.00  0.00     0.116 C 
BRANCH   2   3
ATOM      3  N   UNL A   1      33.585  29.862  27.610  1.00  0.00    -0.352 N 
ATOM      4  O   UNL A   1      34.141  31.791  28.638  1.00  0.00    -0.269 OA
ATOM      5  C   UNL A   1      34.489  30.688  28.231  1.00  0.00     0.251 C 
ATOM      6  H   UNL A   1      32.723  30.273  27.372  1.00  0.00     0.163 HD
BRANCH   5   7
ATOM      7  C   UNL A   1      35.880  30.224  28.411  1.00  0.00     0.039 A 
ATOM      8  C   UNL A   1      36.803  30.349  27.368  1.00  0.00     0.014 A 
ATOM      9  C   UNL A   1      36.265  29.670  29.633  1.00  0.00     0.014 A 
ATOM     10  C   UNL A   1      38.080  29.824  27.508  1.00  0.00     0.010 A 
ATOM     11  C   UNL A   1      37.578  29.224  29.804  1.00  0.00     0.010 A 
ATOM     12  C   UNL A   1      38.494  29.295  28.741  1.00  0.00    -0.014 A 
BRANCH  12  13
ATOM     13  C   UNL A   1      39.925  28.963  28.943  1.00  0.00     0.031 A 
ATOM     14  C   UNL A   1      40.487  27.631  28.539  1.00  0.00     0.074 A 
ATOM     15  C   UNL A   1      40.708  29.892  29.530  1.00  0.00     0.049 A 
ATOM     16  N   UNL A   1      41.703  27.175  28.700  1.00  0.00    -0.248 NA
ATOM     17  C   UNL A   1      39.575  26.686  27.876  1.00  0.00     0.031 C 
ATOM     18  C   UNL A   1      40.252  31.213  29.978  1.00  0.00     0.029 A 
ATOM     19  N   UNL A   1      42.038  29.875  29.859  1.00  0.00    -0.354 N 
ATOM     20  C   UNL A   1      41.699  25.884  28.187  1.00  0.00     0.074 A 
ATOM     21  C   UNL A   1      40.357  25.625  27.711  1.00  0.00     0.031 C 
ATOM     22  C   UNL A   1      41.285  31.881  30.509  1.00  0.00     0.029 A 
ATOM     23  C   UNL A   1      42.455  31.013  30.509  1.00  0.00     0.049 A 
ATOM     24  H   UNL A   1      42.637  29.122  29.651  1.00  0.00     0.167 HD
ATOM     25  C   UNL A   1      42.727  25.004  28.126  1.00  0.00     0.037 A 
ATOM     26  C   UNL A   1      43.632  31.311  31.090  1.00  0.00     0.037 A 
ATOM     27  C   UNL A   1      44.062  25.294  28.590  1.00  0.00     0.049 A 
ATOM     28  C   UNL A   1      44.738  30.297  31.038  1.00  0.00     0.074 A 
ATOM     29  C   UNL A   1      45.191  24.498  28.496  1.00  0.00     0.029 A 
ATOM     30  N   UNL A   1      44.443  26.450  29.253  1.00  0.00    -0.354 N 
ATOM     31  N   UNL A   1      44.742  29.116  30.466  1.00  0.00    -0.248 NA
ATOM     32  C   UNL A   1      45.995  30.646  31.712  1.00  0.00     0.031 C 
ATOM     33  C   UNL A   1      46.235  25.142  29.165  1.00  0.00     0.029 A 
ATOM     34  C   UNL A   1      45.777  26.368  29.620  1.00  0.00     0.049 A 
ATOM     35  H   UNL A   1      43.854  27.218  29.436  1.00  0.00     0.167 HD
ATOM     36  C   UNL A   1      46.004  28.585  30.706  1.00  0.00     0.074 A 
ATOM     37  C   UNL A   1      46.745  29.587  31.446  1.00  0.00     0.031 C 
ATOM     38  C   UNL A   1      46.500  27.375  30.354  1.00  0.00     0.037 A 
BRANCH  25  39
ATOM     39  C   UNL A   1      42.471  23.632  27.566  1.00  0.00     0.058 A 
ATOM     40  C   UNL A   1      42.525  23.366  26.190  1.00  0.00     0.135 A 
ATOM     41  C   UNL A   1      42.284  22.543  28.436  1.00  0.00     0.135 A 
ATOM     42  F   UNL A   1      42.688  24.370  25.313  1.00  0.00    -0.206 F 
ATOM     43  C   UNL A   1      42.406  22.071  25.695  1.00  0.00     0.059 A 
ATOM     44  C   UNL A   1      42.188  21.237  27.965  1.00  0.00     0.059 A 
ATOM     45  F   UNL A   1      42.223  22.741  29.761  1.00  0.00    -0.206 F 
ATOM     46  C   UNL A   1      42.248  21.011  26.591  1.00  0.00     0.060 A 
BRANCH  46  47
ATOM     47  S   UNL A   1      42.152  19.333  25.933  1.00  0.00     0.124 S 
ATOM     48  O   UNL A   1      40.720  19.200  25.678  1.00  0.00    -0.237 OA
ATOM     49  O   UNL A   1      42.999  19.416  24.748  1.00  0.00    -0.237 OA
ATOM     50  O   UNL A   1      42.673  18.508  27.018  1.00  0.00    -0.744 OA
ENDBRANCH  46  47
ENDBRANCH  25  39
BRANCH  26  51
ATOM     51  C   UNL A   1      43.800  32.597  31.818  1.00  0.00     0.058 A 
ATOM     52  C   UNL A   1      43.450  32.720  33.170  1.00  0.00     0.135 A 
ATOM     53  C   UNL A   1      44.306  33.735  31.168  1.00  0.00     0.135 A 
ATOM     54  F   UNL A   1      42.962  31.663  33.835  1.00  0.00    -0.206 F 
ATOM     55  C   UNL A   1      43.562  33.933  33.842  1.00  0.00     0.059 A 
ATOM     56  C   UNL A   1      44.462  34.948  31.828  1.00  0.00     0.059 A 
ATOM     57  F   UNL A   1      44.677  33.667  29.879  1.00  0.00    -0.206 F 
ATOM     58  C   UNL A   1      44.066  35.043  33.160  1.00  0.00     0.060 A 
BRANCH  58  59
ATOM     59  S   UNL A   1      44.210  36.609  34.043  1.00  0.00     0.124 S 
ATOM     60  O   UNL A   1      43.364  37.478  33.233  1.00  0.00    -0.237 OA
ATOM     61  O   UNL A   1      43.694  36.265  35.365  1.00  0.00    -0.237 OA
ATOM     62  O   UNL A   1      45.641  36.894  33.992  1.00  0.00    -0.744 OA
ENDBRANCH  58  59
ENDBRANCH  26  51
BRANCH  38  63
ATOM     63  C   UNL A   1      47.916  27.066  30.753  1.00  0.00     0.058 A 
ATOM     64  C   UNL A   1      48.216  26.467  31.985  1.00  0.00     0.135 A 
ATOM     65  C   UNL A   1      48.977  27.309  29.864  1.00  0.00     0.135 A 
ATOM     66  F   UNL A   1      47.241  26.229  32.876  1.00  0.00    -0.206 F 
ATOM     67  C   UNL A   1      49.520  26.125  32.327  1.00  0.00     0.059 A 
ATOM     68  C   UNL A   1      50.283  26.947  30.173  1.00  0.00     0.059 A 
ATOM     69  F   UNL A   1      48.742  27.878  28.671  1.00  0.00    -0.206 F 
ATOM     70  C   UNL A   1      50.546  26.360  31.409  1.00  0.00     0.060 A 
BRANCH  70  71
ATOM     71  S   UNL A   1      52.222  25.848  31.841  1.00  0.00     0.124 S 
ATOM     72  O   UNL A   1      52.032  24.430  32.127  1.00  0.00    -0.237 OA
ATOM     73  O   UNL A   1      52.964  26.155  30.622  1.00  0.00    -0.237 OA
ATOM     74  O   UNL A   1      52.546  26.683  32.994  1.00  0.00    -0.744 OA
ENDBRANCH  70  71
ENDBRANCH  38  63
ENDBRANCH  12  13
ENDBRANCH   5   7
ENDBRANCH   2   3
ENDBRANCH   1   2
BRANCH   1  75
ATOM     75  C   UNL A   1      31.524  27.861  26.111  1.00  0.00     0.002 C 
BRANCH  75  76
ATOM     76  C   UNL A   1      30.873  26.566  25.612  1.00  0.00     0.002 C 
BRANCH  76  77
ATOM     77  C   UNL A   1      30.471  26.560  24.133  1.00  0.00     0.021 C 
BRANCH  77  78
ATOM     78  C   UNL A   1      30.552  25.196  23.457  1.00  0.00     0.116 C 
BRANCH  78  79
ATOM     79  N   UNL A   1      31.430  25.219  22.301  1.00  0.00    -0.352 N 
ATOM     80  C   UNL A   1      32.756  24.900  22.220  1.00  0.00     0.252 C 
ATOM     81  H   UNL A   1      31.010  25.504  21.457  1.00  0.00     0.163 HD
ATOM     82  O   UNL A   1      33.378  25.062  21.175  1.00  0.00    -0.269 OA
BRANCH  80  83
ATOM     83  C   UNL A   1      33.474  24.410  23.406  1.00  0.00     0.060 A 
ATOM     84  C   UNL A   1      33.410  23.029  23.647  1.00  0.00     0.042 A 
ATOM     85  C   UNL A   1      34.118  25.263  24.310  1.00  0.00     0.053 A 
ATOM     86  C   UNL A   1      33.958  22.508  24.817  1.00  0.00     0.053 A 
ATOM     87  C   UNL A   1      34.739  24.724  25.436  1.00  0.00     0.023 A 
ATOM     88  Cl  UNL A   1      34.145  26.980  24.141  1.00  0.00    -0.083 Cl
ATOM     89  C   UNL A   1      34.636  23.359  25.701  1.00  0.00     0.028 A 
BRANCH  86  90
ATOM     90  N   UNL A   1      33.905  21.130  25.093  1.00  0.00    -0.250 N 
ATOM     91  C   UNL A   1      32.694  20.432  25.222  1.00  0.00     0.238 C 
ATOM     92  C   UNL A   1      35.007  20.269  24.912  1.00  0.00     0.238 C 
ATOM     93  O   UNL A   1      31.548  20.844  25.224  1.00  0.00    -0.274 OA
ATOM     94  C   UNL A   1      33.121  19.007  25.367  1.00  0.00     0.100 C 
ATOM     95  C   UNL A   1      34.342  19.027  24.444  1.00  0.00     0.100 C 
ATOM     96  O   UNL A   1      36.198  20.501  24.932  1.00  0.00    -0.274 OA
ATOM     97  C   UNL A   1      32.320  17.718  25.120  1.00  0.00     0.028 C 
ATOM     98  C   UNL A   1      34.742  17.600  24.105  1.00  0.00     0.028 C 
ATOM     99  C   UNL A   1      33.253  16.691  25.807  1.00  0.00    -0.026 C 
ATOM    100  C   UNL A   1      32.254  17.249  23.653  1.00  0.00     0.001 C 
ATOM    101  C   UNL A   1      34.515  16.679  25.316  1.00  0.00    -0.026 C 
ATOM    102  C   UNL A   1      33.663  17.161  23.045  1.00  0.00     0.001 C 
ATOM    103  C   UNL A   1      32.574  18.035  22.417  1.00  0.00     0.009 C 
ENDBRANCH  86  90
ENDBRANCH  80  83
ENDBRANCH  78  79
ENDBRANCH  77  78
ENDBRANCH  76  77
ENDBRANCH  75  76
ENDBRANCH   1  75
TORSDOF 17
ENDMDL
MODEL 2
REMARK VINA RESULT:     -12.9      0.750      7.984
REMARK SMILES O=C(NCCCCCCNC(=O)c1cc(N2C(=O)[C@H]3[C@@H]4C=C[C@@H]([C@@H]5C[C@H]45)[C@@H]3C2=O)ccc1Cl)c1ccc(-c2c3nc(c(-c4c(F)cc(S(=O)(=O)[O-])cc4F)c4ccc([nH]4)c(-c4c(F)cc(S(=O)(=O)[O-])cc4F)c4nc(c(-c5c(F)cc(S(=O)(=O)[O-])cc5F)c5ccc2[nH]5)C=C4)C=C3)cc1
REMARK SMILES IDX 5 1 4 2 3 3 1 4 2 5 34 7 35 8 99 9 36 10 98 11 37 12 38 13
REMARK SMILES IDX 39 14 92 15 40 16 97 17 91 18 93 19 41 20 96 21 90 22 89 23
REMARK SMILES IDX 42 25 76 26 55 27 75 28 56 29 59 30 74 31 94 32 57 33 58 34
REMARK SMILES IDX 73 36 95 37 60 38 43 39 44 40 53 41 45 42 46 43 52 44 54 45
REMARK SMILES IDX 47 46 48 47 49 48 50 49 51 50 77 51 78 52 87 53 79 54 80 55
REMARK SMILES IDX 86 56 88 57 81 58 82 59 83 60 84 61 85 62 61 63 62 64 71 65
REMARK SMILES IDX 63 66 64 67 70 68 72 69 65 70 66 71 67 72 68 73 69 74 6 75
REMARK SMILES IDX 7 76 8 77 9 78 10 79 11 80 12 82 13 83 14 84 32 85 15 86
REMARK SMILES IDX 31 87 33 88 30 89 16 90 17 91 28 92 18 93 19 94 27 95 29 96
REMARK SMILES IDX 20 97 23 98 21 99 26 100 22 101 24 102 25 103
REMARK H PARENT 3 6 93 24 59 35 10 81
REMARK Flexibility Score: inf
ROOT
ATOM      1  C   UNL A   1      32.349  27.477  27.249  1.00  0.00     0.021 C 
ENDROOT
BRANCH   1   2
ATOM      2  C   UNL A   1      33.625  28.300  27.153  1.00  0.00     0.116 C 
BRANCH   2   3
ATOM      3  N   UNL A   1      33.385  29.712  27.397  1.00  0.00    -0.352 N 
ATOM      4  O   UNL A   1      33.780  31.731  28.322  1.00  0.00    -0.269 OA
ATOM      5  C   UNL A   1      34.205  30.622  28.016  1.00  0.00     0.251 C 
ATOM      6  H   UNL A   1      32.523  30.061  27.076  1.00  0.00     0.163 HD
BRANCH   5   7
ATOM      7  C   UNL A   1      35.601  30.243  28.316  1.00  0.00     0.039 A 
ATOM      8  C   UNL A   1      36.593  30.383  27.340  1.00  0.00     0.014 A 
ATOM      9  C   UNL A   1      35.922  29.754  29.584  1.00  0.00     0.014 A 
ATOM     10  C   UNL A   1      37.882  29.935  27.595  1.00  0.00     0.010 A 
ATOM     11  C   UNL A   1      37.240  29.388  29.869  1.00  0.00     0.010 A 
ATOM     12  C   UNL A   1      38.228  29.474  28.875  1.00  0.00    -0.014 A 
BRANCH  12  13
ATOM     13  C   UNL A   1      39.656  29.229  29.194  1.00  0.00     0.031 A 
ATOM     14  C   UNL A   1      40.536  30.317  29.739  1.00  0.00     0.074 A 
ATOM     15  C   UNL A   1      40.151  27.999  28.953  1.00  0.00     0.049 A 
ATOM     16  N   UNL A   1      41.813  30.271  30.017  1.00  0.00    -0.248 NA
ATOM     17  C   UNL A   1      39.911  31.622  30.005  1.00  0.00     0.031 C 
ATOM     18  C   UNL A   1      39.382  26.876  28.404  1.00  0.00     0.029 A 
ATOM     19  N   UNL A   1      41.409  27.481  29.125  1.00  0.00    -0.354 N 
ATOM     20  C   UNL A   1      42.155  31.542  30.461  1.00  0.00     0.074 A 
ATOM     21  C   UNL A   1      40.949  32.343  30.414  1.00  0.00     0.031 C 
ATOM     22  C   UNL A   1      40.177  25.803  28.299  1.00  0.00     0.029 A 
ATOM     23  C   UNL A   1      41.527  26.178  28.698  1.00  0.00     0.049 A 
ATOM     24  H   UNL A   1      42.155  27.991  29.516  1.00  0.00     0.167 HD
ATOM     25  C   UNL A   1      43.368  31.990  30.866  1.00  0.00     0.037 A 
ATOM     26  C   UNL A   1      42.609  25.386  28.590  1.00  0.00     0.037 A 
ATOM     27  C   UNL A   1      44.551  31.167  30.922  1.00  0.00     0.049 A 
ATOM     28  C   UNL A   1      43.944  25.927  29.011  1.00  0.00     0.074 A 
ATOM     29  C   UNL A   1      45.807  31.507  31.397  1.00  0.00     0.029 A 
ATOM     30  N   UNL A   1      44.636  29.859  30.471  1.00  0.00    -0.354 N 
ATOM     31  N   UNL A   1      44.230  27.104  29.515  1.00  0.00    -0.248 NA
ATOM     32  C   UNL A   1      45.105  25.043  28.845  1.00  0.00     0.031 C 
ATOM     33  C   UNL A   1      46.666  30.430  31.166  1.00  0.00     0.029 A 
ATOM     34  C   UNL A   1      45.934  29.394  30.608  1.00  0.00     0.049 A 
ATOM     35  H   UNL A   1      43.884  29.336  30.108  1.00  0.00     0.167 HD
ATOM     36  C   UNL A   1      45.603  27.097  29.733  1.00  0.00     0.074 A 
ATOM     37  C   UNL A   1      46.083  25.789  29.336  1.00  0.00     0.031 C 
ATOM     38  C   UNL A   1      46.394  28.088  30.210  1.00  0.00     0.037 A 
BRANCH  25  39
ATOM     39  C   UNL A   1      43.509  33.435  31.260  1.00  0.00     0.058 A 
ATOM     40  C   UNL A   1      43.397  33.858  32.593  1.00  0.00     0.135 A 
ATOM     41  C   UNL A   1      43.880  34.392  30.300  1.00  0.00     0.135 A 
ATOM     42  F   UNL A   1      43.033  32.989  33.550  1.00  0.00    -0.206 F 
ATOM     43  C   UNL A   1      43.649  35.176  32.961  1.00  0.00     0.059 A 
ATOM     44  C   UNL A   1      44.161  35.709  30.648  1.00  0.00     0.059 A 
ATOM     45  F   UNL A   1      44.000  34.041  29.010  1.00  0.00    -0.206 F 
ATOM     46  C   UNL A   1      44.041  36.093  31.982  1.00  0.00     0.060 A 
BRANCH  46  47
ATOM     47  S   UNL A   1      44.419  37.785  32.487  1.00  0.00     0.124 S 
ATOM     48  O   UNL A   1      43.567  37.935  33.663  1.00  0.00    -0.237 OA
ATOM     49  O   UNL A   1      45.852  37.717  32.750  1.00  0.00    -0.237 OA
ATOM     50  O   UNL A   1      44.032  38.583  31.329  1.00  0.00    -0.744 OA
ENDBRANCH  46  47
ENDBRANCH  25  39
BRANCH  26  51
ATOM     51  C   UNL A   1      42.480  24.025  28.004  1.00  0.00     0.058 A 
ATOM     52  C   UNL A   1      42.348  23.836  26.621  1.00  0.00     0.135 A 
ATOM     53  C   UNL A   1      42.474  22.883  28.822  1.00  0.00     0.135 A 
ATOM     54  F   UNL A   1      42.347  24.894  25.797  1.00  0.00    -0.206 F 
ATOM     55  C   UNL A   1      42.180  22.568  26.074  1.00  0.00     0.059 A 
ATOM     56  C   UNL A   1      42.346  21.604  28.296  1.00  0.00     0.059 A 
ATOM     57  F   UNL A   1      42.618  23.005  30.152  1.00  0.00    -0.206 F 
ATOM     58  C   UNL A   1      42.177  21.458  26.920  1.00  0.00     0.060 A 
BRANCH  58  59
ATOM     59  S   UNL A   1      41.962  19.818  26.199  1.00  0.00     0.124 S 
ATOM     60  O   UNL A   1      42.386  18.959  27.297  1.00  0.00    -0.237 OA
ATOM     61  O   UNL A   1      40.535  19.805  25.889  1.00  0.00    -0.237 OA
ATOM     62  O   UNL A   1      42.847  19.844  25.038  1.00  0.00    -0.744 OA
ENDBRANCH  58  59
ENDBRANCH  26  51
BRANCH  38  63
ATOM     63  C   UNL A   1      47.863  27.796  30.341  1.00  0.00     0.058 A 
ATOM     64  C   UNL A   1      48.416  27.355  31.553  1.00  0.00     0.135 A 
ATOM     65  C   UNL A   1      48.712  27.891  29.226  1.00  0.00     0.135 A 
ATOM     66  F   UNL A   1      47.651  27.262  32.651  1.00  0.00    -0.206 F 
ATOM     67  C   UNL A   1      49.763  27.024  31.657  1.00  0.00     0.059 A 
ATOM     68  C   UNL A   1      50.055  27.537  29.300  1.00  0.00     0.059 A 
ATOM     69  F   UNL A   1      48.231  28.305  28.043  1.00  0.00    -0.206 F 
ATOM     70  C   UNL A   1      50.572  27.109  30.522  1.00  0.00     0.060 A 
BRANCH  70  71
ATOM     71  S   UNL A   1      52.302  26.612  30.659  1.00  0.00     0.124 S 
ATOM     72  O   UNL A   1      52.695  26.526  29.256  1.00  0.00    -0.237 OA
ATOM     73  O   UNL A   1      52.883  27.719  31.413  1.00  0.00    -0.237 OA
ATOM     74  O   UNL A   1      52.236  25.340  31.371  1.00  0.00    -0.744 OA
ENDBRANCH  70  71
ENDBRANCH  38  63
ENDBRANCH  12  13
ENDBRANCH   5   7
ENDBRANCH   2   3
ENDBRANCH   1   2
BRANCH   1  75
ATOM     75  C   UNL A   1      31.367  27.700  26.099  1.00  0.00     0.002 C 
BRANCH  75  76
ATOM     76  C   UNL A   1      30.696  26.430  25.563  1.00  0.00     0.002 C 
BRANCH  76  77
ATOM     77  C   UNL A   1      30.388  26.433  24.062  1.00  0.00     0.021 C 
BRANCH  77  78
ATOM     78  C   UNL A   1      30.516  25.074  23.383  1.00  0.00     0.116 C 
BRANCH  78  79
ATOM     79  N   UNL A   1      31.414  25.123  22.243  1.00  0.00    -0.352 N 
ATOM     80  C   UNL A   1      32.750  24.840  22.185  1.00  0.00     0.252 C 
ATOM     81  H   UNL A   1      31.001  25.399  21.392  1.00  0.00     0.163 HD
ATOM     82  O   UNL A   1      33.385  25.021  21.151  1.00  0.00    -0.269 OA
BRANCH  80  83
ATOM     83  C   UNL A   1      33.458  24.366  23.383  1.00  0.00     0.060 A 
ATOM     84  C   UNL A   1      33.407  22.986  23.633  1.00  0.00     0.042 A 
ATOM     85  C   UNL A   1      34.082  25.233  24.289  1.00  0.00     0.053 A 
ATOM     86  C   UNL A   1      33.947  22.479  24.813  1.00  0.00     0.053 A 
ATOM     87  C   UNL A   1      34.697  24.708  25.425  1.00  0.00     0.023 A 
ATOM     88  Cl  UNL A   1      34.092  26.949  24.107  1.00  0.00    -0.083 Cl
ATOM     89  C   UNL A   1      34.606  23.344  25.699  1.00  0.00     0.028 A 
BRANCH  86  90
ATOM     90  N   UNL A   1      33.907  21.103  25.098  1.00  0.00    -0.250 N 
ATOM     91  C   UNL A   1      32.702  20.389  25.206  1.00  0.00     0.238 C 
ATOM     92  C   UNL A   1      35.023  20.255  24.946  1.00  0.00     0.238 C 
ATOM     93  O   UNL A   1      31.551  20.787  25.182  1.00  0.00    -0.274 OA
ATOM     94  C   UNL A   1      33.144  18.971  25.371  1.00  0.00     0.100 C 
ATOM     95  C   UNL A   1      34.384  19.001  24.473  1.00  0.00     0.100 C 
ATOM     96  O   UNL A   1      36.211  20.503  24.989  1.00  0.00    -0.274 OA
ATOM     97  C   UNL A   1      32.366  17.670  25.117  1.00  0.00     0.028 C 
ATOM     98  C   UNL A   1      34.809  17.577  24.153  1.00  0.00     0.028 C 
ATOM     99  C   UNL A   1      33.297  16.661  25.830  1.00  0.00    -0.026 C 
ATOM    100  C   UNL A   1      32.337  17.191  23.653  1.00  0.00     0.001 C 
ATOM    101  C   UNL A   1      34.570  16.662  25.366  1.00  0.00    -0.026 C 
ATOM    102  C   UNL A   1      33.759  17.116  23.074  1.00  0.00     0.001 C 
ATOM    103  C   UNL A   1      32.671  17.972  22.417  1.00  0.00     0.009 C 
ENDBRANCH  86  90
ENDBRANCH  80  83
ENDBRANCH  78  79
ENDBRANCH  77  78
ENDBRANCH  76  77
ENDBRANCH  75  76
ENDBRANCH   1  75
TORSDOF 17
ENDMDL
MODEL 3
REMARK VINA RESULT:     -12.7      4.669     10.453
REMARK SMILES O=C(NCCCCCCNC(=O)c1cc(N2C(=O)[C@H]3[C@@H]4C=C[C@@H]([C@@H]5C[C@H]45)[C@@H]3C2=O)ccc1Cl)c1ccc(-c2c3nc(c(-c4c(F)cc(S(=O)(=O)[O-])cc4F)c4ccc([nH]4)c(-c4c(F)cc(S(=O)(=O)[O-])cc4F)c4nc(c(-c5c(F)cc(S(=O)(=O)[O-])cc5F)c5ccc2[nH]5)C=C4)C=C3)cc1
REMARK SMILES IDX 5 1 4 2 3 3 1 4 2 5 34 7 35 8 99 9 36 10 98 11 37 12 38 13
REMARK SMILES IDX 39 14 92 15 40 16 97 17 91 18 93 19 41 20 96 21 90 22 89 23
REMARK SMILES IDX 42 25 76 26 55 27 75 28 56 29 59 30 74 31 94 32 57 33 58 34
REMARK SMILES IDX 73 36 95 37 60 38 43 39 44 40 53 41 45 42 46 43 52 44 54 45
REMARK SMILES IDX 47 46 48 47 49 48 50 49 51 50 77 51 78 52 87 53 79 54 80 55
REMARK SMILES IDX 86 56 88 57 81 58 82 59 83 60 84 61 85 62 61 63 62 64 71 65
REMARK SMILES IDX 63 66 64 67 70 68 72 69 65 70 66 71 67 72 68 73 69 74 6 75
REMARK SMILES IDX 7 76 8 77 9 78 10 79 11 80 12 82 13 83 14 84 32 85 15 86
REMARK SMILES IDX 31 87 33 88 30 89 16 90 17 91 28 92 18 93 19 94 27 95 29 96
REMARK SMILES IDX 20 97 23 98 21 99 26 100 22 101 24 102 25 103
REMARK H PARENT 3 6 93 24 59 35 10 81
REMARK Flexibility Score: inf
ROOT
ATOM      1  C   UNL A   1      39.235  22.664  26.603  1.00  0.00     0.021 C 
ENDROOT
BRANCH   1   2
ATOM      2  C   UNL A   1      40.467  23.401  27.107  1.00  0.00     0.116 C 
BRANCH   2   3
ATOM      3  N   UNL A   1      41.096  24.193  26.064  1.00  0.00    -0.352 N 
ATOM      4  O   UNL A   1      41.691  26.096  25.010  1.00  0.00    -0.269 OA
ATOM      5  C   UNL A   1      41.331  25.545  26.045  1.00  0.00     0.251 C 
ATOM      6  H   UNL A   1      41.392  23.695  25.269  1.00  0.00     0.163 HD
BRANCH   5   7
ATOM      7  C   UNL A   1      41.134  26.327  27.283  1.00  0.00     0.039 A 
ATOM      8  C   UNL A   1      42.034  27.341  27.625  1.00  0.00     0.014 A 
ATOM      9  C   UNL A   1      40.036  26.049  28.102  1.00  0.00     0.014 A 
ATOM     10  C   UNL A   1      41.898  28.005  28.837  1.00  0.00     0.010 A 
ATOM     11  C   UNL A   1      39.851  26.782  29.277  1.00  0.00     0.010 A 
ATOM     12  C   UNL A   1      40.783  27.763  29.654  1.00  0.00    -0.014 A 
BRANCH  12  13
ATOM     13  C   UNL A   1      40.531  28.649  30.817  1.00  0.00     0.031 A 
ATOM     14  C   UNL A   1      39.453  29.693  30.789  1.00  0.00     0.074 A 
ATOM     15  C   UNL A   1      41.324  28.505  31.898  1.00  0.00     0.049 A 
ATOM     16  N   UNL A   1      39.148  30.576  31.705  1.00  0.00    -0.248 NA
ATOM     17  C   UNL A   1      38.611  29.764  29.584  1.00  0.00     0.031 C 
ATOM     18  C   UNL A   1      42.415  27.531  32.016  1.00  0.00     0.029 A 
ATOM     19  N   UNL A   1      41.349  29.172  33.095  1.00  0.00    -0.354 N 
ATOM     20  C   UNL A   1      38.103  31.326  31.182  1.00  0.00     0.074 A 
ATOM     21  C   UNL A   1      37.824  30.797  29.863  1.00  0.00     0.031 C 
ATOM     22  C   UNL A   1      42.990  27.654  33.220  1.00  0.00     0.029 A 
ATOM     23  C   UNL A   1      42.363  28.761  33.929  1.00  0.00     0.049 A 
ATOM     24  H   UNL A   1      40.703  29.875  33.336  1.00  0.00     0.167 HD
ATOM     25  C   UNL A   1      37.445  32.361  31.757  1.00  0.00     0.037 A 
ATOM     26  C   UNL A   1      42.781  29.252  35.110  1.00  0.00     0.037 A 
ATOM     27  C   UNL A   1      37.728  32.857  33.082  1.00  0.00     0.049 A 
ATOM     28  C   UNL A   1      42.052  30.425  35.701  1.00  0.00     0.074 A 
ATOM     29  C   UNL A   1      37.061  33.846  33.785  1.00  0.00     0.029 A 
ATOM     30  N   UNL A   1      38.768  32.426  33.890  1.00  0.00    -0.354 N 
ATOM     31  N   UNL A   1      41.006  31.062  35.232  1.00  0.00    -0.248 NA
ATOM     32  C   UNL A   1      42.560  30.952  36.975  1.00  0.00     0.031 C 
ATOM     33  C   UNL A   1      37.742  34.062  34.985  1.00  0.00     0.029 A 
ATOM     34  C   UNL A   1      38.794  33.164  35.062  1.00  0.00     0.049 A 
ATOM     35  H   UNL A   1      39.397  31.702  33.665  1.00  0.00     0.167 HD
ATOM     36  C   UNL A   1      40.726  32.060  36.157  1.00  0.00     0.074 A 
ATOM     37  C   UNL A   1      41.693  31.921  37.228  1.00  0.00     0.031 C 
ATOM     38  C   UNL A   1      39.763  33.012  36.119  1.00  0.00     0.037 A 
BRANCH  25  39
ATOM     39  C   UNL A   1      36.368  33.058  30.972  1.00  0.00     0.058 A 
ATOM     40  C   UNL A   1      35.011  32.954  31.311  1.00  0.00     0.135 A 
ATOM     41  C   UNL A   1      36.716  33.940  29.934  1.00  0.00     0.135 A 
ATOM     42  F   UNL A   1      34.620  32.117  32.286  1.00  0.00    -0.206 F 
ATOM     43  C   UNL A   1      34.037  33.699  30.652  1.00  0.00     0.059 A 
ATOM     44  C   UNL A   1      35.763  34.713  29.278  1.00  0.00     0.059 A 
ATOM     45  F   UNL A   1      38.000  34.077  29.567  1.00  0.00    -0.206 F 
ATOM     46  C   UNL A   1      34.424  34.584  29.643  1.00  0.00     0.060 A 
BRANCH  46  47
ATOM     47  S   UNL A   1      33.154  35.583  28.839  1.00  0.00     0.124 S 
ATOM     48  O   UNL A   1      32.419  36.102  29.989  1.00  0.00    -0.237 OA
ATOM     49  O   UNL A   1      33.948  36.561  28.103  1.00  0.00    -0.237 OA
ATOM     50  O   UNL A   1      32.429  34.619  28.017  1.00  0.00    -0.744 OA
ENDBRANCH  46  47
ENDBRANCH  25  39
BRANCH  26  51
ATOM     51  C   UNL A   1      43.979  28.675  35.776  1.00  0.00     0.058 A 
ATOM     52  C   UNL A   1      43.864  27.627  36.701  1.00  0.00     0.135 A 
ATOM     53  C   UNL A   1      45.265  29.171  35.507  1.00  0.00     0.135 A 
ATOM     54  F   UNL A   1      42.658  27.118  36.992  1.00  0.00    -0.206 F 
ATOM     55  C   UNL A   1      44.977  27.115  37.360  1.00  0.00     0.059 A 
ATOM     56  C   UNL A   1      46.395  28.651  36.125  1.00  0.00     0.059 A 
ATOM     57  F   UNL A   1      45.433  30.159  34.614  1.00  0.00    -0.206 F 
ATOM     58  C   UNL A   1      46.239  27.637  37.068  1.00  0.00     0.060 A 
BRANCH  58  59
ATOM     59  S   UNL A   1      47.675  26.964  37.928  1.00  0.00     0.124 S 
ATOM     60  O   UNL A   1      47.487  25.532  37.731  1.00  0.00    -0.237 OA
ATOM     61  O   UNL A   1      48.783  27.571  37.195  1.00  0.00    -0.237 OA
ATOM     62  O   UNL A   1      47.502  27.442  39.296  1.00  0.00    -0.744 OA
ENDBRANCH  58  59
ENDBRANCH  26  51
BRANCH  38  63
ATOM     63  C   UNL A   1      39.694  33.973  37.273  1.00  0.00     0.058 A 
ATOM     64  C   UNL A   1      40.285  35.243  37.203  1.00  0.00     0.135 A 
ATOM     65  C   UNL A   1      38.973  33.646  38.432  1.00  0.00     0.135 A 
ATOM     66  F   UNL A   1      40.999  35.599  36.124  1.00  0.00    -0.206 F 
ATOM     67  C   UNL A   1      40.168  36.156  38.246  1.00  0.00     0.059 A 
ATOM     68  C   UNL A   1      38.817  34.553  39.474  1.00  0.00     0.059 A 
ATOM     69  F   UNL A   1      38.386  32.444  38.547  1.00  0.00    -0.206 F 
ATOM     70  C   UNL A   1      39.423  35.804  39.374  1.00  0.00     0.060 A 
BRANCH  70  71
ATOM     71  S   UNL A   1      39.225  37.024  40.690  1.00  0.00     0.124 S 
ATOM     72  O   UNL A   1      38.619  36.221  41.746  1.00  0.00    -0.237 OA
ATOM     73  O   UNL A   1      40.601  37.450  40.927  1.00  0.00    -0.237 OA
ATOM     74  O   UNL A   1      38.355  38.032  40.091  1.00  0.00    -0.744 OA
ENDBRANCH  70  71
ENDBRANCH  38  63
ENDBRANCH  12  13
ENDBRANCH   5   7
ENDBRANCH   2   3
ENDBRANCH   1   2
BRANCH   1  75
ATOM     75  C   UNL A   1      38.104  23.576  26.132  1.00  0.00     0.002 C 
BRANCH  75  76
ATOM     76  C   UNL A   1      36.881  22.852  25.559  1.00  0.00     0.002 C 
BRANCH  76  77
ATOM     77  C   UNL A   1      36.845  21.338  25.793  1.00  0.00     0.021 C 
BRANCH  77  78
ATOM     78  C   UNL A   1      36.146  20.540  24.698  1.00  0.00     0.116 C 
BRANCH  78  79
ATOM     79  N   UNL A   1      35.114  19.672  25.237  1.00  0.00    -0.352 N 
ATOM     80  C   UNL A   1      33.759  19.849  25.248  1.00  0.00     0.252 C 
ATOM     81  H   UNL A   1      35.437  18.840  25.653  1.00  0.00     0.163 HD
ATOM     82  O   UNL A   1      33.027  19.054  25.830  1.00  0.00    -0.269 OA
BRANCH  80  83
ATOM     83  C   UNL A   1      33.161  21.029  24.607  1.00  0.00     0.060 A 
ATOM     84  C   UNL A   1      33.270  22.241  25.305  1.00  0.00     0.042 A 
ATOM     85  C   UNL A   1      32.439  20.958  23.409  1.00  0.00     0.053 A 
ATOM     86  C   UNL A   1      32.620  23.375  24.823  1.00  0.00     0.053 A 
ATOM     87  C   UNL A   1      31.864  22.116  22.887  1.00  0.00     0.023 A 
ATOM     88  Cl  UNL A   1      32.167  19.486  22.550  1.00  0.00    -0.083 Cl
ATOM     89  C   UNL A   1      31.931  23.311  23.603  1.00  0.00     0.028 A 
BRANCH  86  90
ATOM     90  N   UNL A   1      32.704  24.604  25.501  1.00  0.00    -0.250 N 
ATOM     91  C   UNL A   1      33.750  25.515  25.286  1.00  0.00     0.238 C 
ATOM     92  C   UNL A   1      31.606  25.191  26.163  1.00  0.00     0.238 C 
ATOM     93  O   UNL A   1      34.759  25.405  24.613  1.00  0.00    -0.274 OA
ATOM     94  C   UNL A   1      33.354  26.707  26.096  1.00  0.00     0.100 C 
ATOM     95  C   UNL A   1      31.836  26.634  25.903  1.00  0.00     0.100 C 
ATOM     96  O   UNL A   1      30.618  24.682  26.651  1.00  0.00    -0.274 OA
ATOM     97  C   UNL A   1      33.811  28.169  25.970  1.00  0.00     0.028 C 
ATOM     98  C   UNL A   1      31.213  27.960  26.306  1.00  0.00     0.028 C 
ATOM     99  C   UNL A   1      33.293  28.726  27.318  1.00  0.00    -0.026 C 
ATOM    100  C   UNL A   1      33.074  29.005  24.906  1.00  0.00     0.001 C 
ATOM    101  C   UNL A   1      31.963  28.561  27.508  1.00  0.00    -0.026 C 
ATOM    102  C   UNL A   1      31.551  28.907  25.094  1.00  0.00     0.001 C 
ATOM    103  C   UNL A   1      32.221  28.515  23.773  1.00  0.00     0.009 C 
ENDBRANCH  86  90
ENDBRANCH  80  83
ENDBRANCH  78  79
ENDBRANCH  77  78
ENDBRANCH  76  77
ENDBRANCH  75  76
ENDBRANCH   1  75
TORSDOF 17
ENDMDL
