MODEL 1
REMARK VINA RESULT:     -10.9      0.000      0.000
REMARK SMILES COC(=O)c1sc(NC(=O)[C@H]2CC=CC[C@H]2C(=O)NCCCCCCNC(=O)c2ccc(-c3c4nc(c(-c5c(F)cc(S(=O)(=O)[O-])cc5F)c5ccc([nH]5)c(-c5c(F)cc(S(=O)(=O)[O-])cc5F)c5nc(c(-c6c(F)cc(S(=O)(=O)[O-])cc6F)c6ccc3[nH]6)C=C5)C=C4)cc2)nc1C
REMARK SMILES IDX 22 1 21 2 20 3 19 4 17 5 18 6 16 8 11 9 12 10 13 11 15 12
REMARK SMILES IDX 14 13 9 14 8 15 10 17 7 18 5 19 6 20 96 21 95 22 97 23 3 24
REMARK SMILES IDX 4 25 2 26 1 27 23 28 24 29 25 30 26 31 27 32 28 34 29 35
REMARK SMILES IDX 30 36 94 37 31 38 93 39 32 40 33 41 34 42 87 43 35 44 92 45
REMARK SMILES IDX 86 46 88 47 36 48 91 49 85 50 84 51 37 53 71 54 50 55 70 56
REMARK SMILES IDX 51 57 54 58 69 59 89 60 52 61 53 62 68 64 90 65 55 66 38 67
REMARK SMILES IDX 39 68 48 69 40 70 41 71 47 72 49 73 42 74 43 75 44 76 45 77
REMARK SMILES IDX 46 78 72 79 73 80 82 81 74 82 75 83 81 84 83 85 76 86 77 87
REMARK SMILES IDX 78 88 79 89 80 90 56 91 57 92 66 93 58 94 59 95 65 96 67 97
REMARK SMILES IDX 60 98 61 99 62 100 63 101 64 102
REMARK H PARENT 19 7 8 16 26 33 88 52 54 63
REMARK Flexibility Score: inf
ROOT
ATOM      1  C   UNL A   1      37.968  23.771  26.438  1.00  0.00     0.002 C 
ENDROOT
BRANCH   1   2
ATOM      2  C   UNL A   1      37.058  23.228  25.333  1.00  0.00     0.021 C 
BRANCH   2   3
ATOM      3  C   UNL A   1      35.775  22.544  25.796  1.00  0.00     0.116 C 
BRANCH   3   4
ATOM      4  N   UNL A   1      34.734  23.476  26.191  1.00  0.00    -0.356 N 
ATOM      5  C   UNL A   1      33.384  23.405  26.086  1.00  0.00     0.224 C 
ATOM      6  O   UNL A   1      32.739  24.156  26.828  1.00  0.00    -0.275 OA
ATOM      7  H   UNL A   1      35.068  24.304  26.606  1.00  0.00     0.163 HD
BRANCH   5   8
ATOM      8  C   UNL A   1      32.658  22.412  25.186  1.00  0.00     0.095 C 
ATOM      9  C   UNL A   1      32.511  22.724  23.669  1.00  0.00     0.095 C 
ATOM     10  C   UNL A   1      32.152  21.478  22.813  1.00  0.00     0.041 C 
ATOM     11  C   UNL A   1      32.586  20.145  23.336  1.00  0.00    -0.030 C 
ATOM     12  C   UNL A   1      33.106  21.001  25.613  1.00  0.00     0.041 C 
ATOM     13  C   UNL A   1      33.007  19.933  24.584  1.00  0.00    -0.030 C 
BRANCH   9  14
ATOM     14  C   UNL A   1      33.611  23.515  22.959  1.00  0.00     0.230 C 
ATOM     15  N   UNL A   1      33.533  24.851  22.709  1.00  0.00    -0.302 N 
ATOM     16  H   UNL A   1      34.229  25.221  22.118  1.00  0.00     0.172 HD
ATOM     17  O   UNL A   1      34.649  22.955  22.583  1.00  0.00    -0.274 OA
BRANCH  15  18
ATOM     18  C   UNL A   1      32.614  25.737  23.176  1.00  0.00     0.190 A 
ATOM     19  C   UNL A   1      31.631  27.072  24.908  1.00  0.00     0.137 A 
ATOM     20  S   UNL A   1      33.240  26.803  24.348  1.00  0.00    -0.089 S 
ATOM     21  C   UNL A   1      30.751  26.625  23.929  1.00  0.00     0.065 A 
ATOM     22  N   UNL A   1      31.333  25.817  22.951  1.00  0.00    -0.224 NA
ATOM     23  C   UNL A   1      29.276  26.804  23.876  1.00  0.00     0.069 C 
BRANCH  19  24
ATOM     24  C   UNL A   1      31.417  27.664  26.208  1.00  0.00     0.350 C 
ATOM     25  O   UNL A   1      31.032  27.077  27.217  1.00  0.00    -0.245 OA
BRANCH  24  26
ATOM     26  O   UNL A   1      31.643  29.008  26.159  1.00  0.00    -0.465 OA
ATOM     27  C   UNL A   1      32.714  29.474  26.981  1.00  0.00     0.282 C 
ENDBRANCH  24  26
ENDBRANCH  19  24
ENDBRANCH  15  18
ENDBRANCH   9  14
ENDBRANCH   5   8
ENDBRANCH   3   4
ENDBRANCH   2   3
ENDBRANCH   1   2
BRANCH   1  28
ATOM     28  C   UNL A   1      39.391  23.221  26.436  1.00  0.00     0.002 C 
BRANCH  28  29
ATOM     29  C   UNL A   1      39.510  21.765  26.878  1.00  0.00     0.021 C 
BRANCH  29  30
ATOM     30  C   UNL A   1      39.700  20.767  25.743  1.00  0.00     0.116 C 
BRANCH  30  31
ATOM     31  N   UNL A   1      40.534  19.639  26.127  1.00  0.00    -0.352 N 
ATOM     32  C   UNL A   1      41.858  19.661  26.488  1.00  0.00     0.251 C 
ATOM     33  H   UNL A   1      40.097  18.756  26.127  1.00  0.00     0.163 HD
ATOM     34  O   UNL A   1      42.493  18.622  26.636  1.00  0.00    -0.269 OA
BRANCH  32  35
ATOM     35  C   UNL A   1      42.504  20.974  26.668  1.00  0.00     0.039 A 
ATOM     36  C   UNL A   1      42.840  21.726  25.543  1.00  0.00     0.014 A 
ATOM     37  C   UNL A   1      42.681  21.487  27.957  1.00  0.00     0.014 A 
ATOM     38  C   UNL A   1      43.314  23.028  25.713  1.00  0.00     0.010 A 
ATOM     39  C   UNL A   1      43.079  22.808  28.118  1.00  0.00     0.010 A 
ATOM     40  C   UNL A   1      43.408  23.588  26.999  1.00  0.00    -0.014 A 
BRANCH  40  41
ATOM     41  C   UNL A   1      43.867  24.986  27.191  1.00  0.00     0.031 A 
ATOM     42  C   UNL A   1      45.310  25.335  26.954  1.00  0.00     0.074 A 
ATOM     43  C   UNL A   1      43.000  25.921  27.626  1.00  0.00     0.049 A 
ATOM     44  N   UNL A   1      45.917  26.483  27.102  1.00  0.00    -0.248 NA
ATOM     45  C   UNL A   1      46.196  24.242  26.517  1.00  0.00     0.031 C 
ATOM     46  C   UNL A   1      41.589  25.687  27.942  1.00  0.00     0.029 A 
ATOM     47  N   UNL A   1      43.178  27.257  27.885  1.00  0.00    -0.354 N 
ATOM     48  C   UNL A   1      47.250  26.250  26.789  1.00  0.00     0.074 A 
ATOM     49  C   UNL A   1      47.378  24.837  26.504  1.00  0.00     0.031 C 
ATOM     50  C   UNL A   1      41.025  26.843  28.324  1.00  0.00     0.029 A 
ATOM     51  C   UNL A   1      42.039  27.894  28.319  1.00  0.00     0.049 A 
ATOM     52  H   UNL A   1      44.042  27.717  27.771  1.00  0.00     0.167 HD
ATOM     53  C   UNL A   1      48.271  27.137  26.716  1.00  0.00     0.037 A 
ATOM     54  C   UNL A   1      41.838  29.178  28.676  1.00  0.00     0.037 A 
ATOM     55  C   UNL A   1      48.127  28.544  26.982  1.00  0.00     0.049 A 
ATOM     56  C   UNL A   1      42.989  30.144  28.595  1.00  0.00     0.074 A 
ATOM     57  C   UNL A   1      49.082  29.540  26.881  1.00  0.00     0.029 A 
ATOM     58  N   UNL A   1      46.955  29.154  27.406  1.00  0.00    -0.354 N 
ATOM     59  N   UNL A   1      44.228  29.922  28.223  1.00  0.00    -0.248 NA
ATOM     60  C   UNL A   1      42.715  31.538  28.973  1.00  0.00     0.031 C 
ATOM     61  C   UNL A   1      48.501  30.743  27.296  1.00  0.00     0.029 A 
ATOM     62  C   UNL A   1      47.169  30.508  27.598  1.00  0.00     0.049 A 
ATOM     63  H   UNL A   1      46.098  28.691  27.549  1.00  0.00     0.167 HD
ATOM     64  C   UNL A   1      44.875  31.151  28.298  1.00  0.00     0.074 A 
ATOM     65  C   UNL A   1      43.885  32.115  28.736  1.00  0.00     0.031 C 
ATOM     66  C   UNL A   1      46.169  31.454  28.030  1.00  0.00     0.037 A 
BRANCH  53  67
ATOM     67  C   UNL A   1      49.627  26.610  26.332  1.00  0.00     0.058 A 
ATOM     68  C   UNL A   1      50.101  26.680  25.011  1.00  0.00     0.135 A 
ATOM     69  C   UNL A   1      50.477  26.050  27.300  1.00  0.00     0.135 A 
ATOM     70  F   UNL A   1      49.325  27.189  24.041  1.00  0.00    -0.206 F 
ATOM     71  C   UNL A   1      51.352  26.185  24.658  1.00  0.00     0.059 A 
ATOM     72  C   UNL A   1      51.745  25.578  26.975  1.00  0.00     0.059 A 
ATOM     73  F   UNL A   1      50.076  25.955  28.577  1.00  0.00    -0.206 F 
ATOM     74  C   UNL A   1      52.167  25.636  25.648  1.00  0.00     0.060 A 
BRANCH  74  75
ATOM     75  S   UNL A   1      53.790  25.004  25.172  1.00  0.00     0.124 S 
ATOM     76  O   UNL A   1      53.545  23.565  25.143  1.00  0.00    -0.237 OA
ATOM     77  O   UNL A   1      54.002  25.637  23.875  1.00  0.00    -0.237 OA
ATOM     78  O   UNL A   1      54.664  25.469  26.244  1.00  0.00    -0.744 OA
ENDBRANCH  74  75
ENDBRANCH  53  67
BRANCH  54  79
ATOM     79  C   UNL A   1      40.489  29.624  29.120  1.00  0.00     0.058 A 
ATOM     80  C   UNL A   1      40.237  29.942  30.462  1.00  0.00     0.135 A 
ATOM     81  C   UNL A   1      39.428  29.755  28.210  1.00  0.00     0.135 A 
ATOM     82  F   UNL A   1      41.216  29.828  31.374  1.00  0.00    -0.206 F 
ATOM     83  C   UNL A   1      38.980  30.358  30.891  1.00  0.00     0.059 A 
ATOM     84  C   UNL A   1      38.170  30.195  28.609  1.00  0.00     0.059 A 
ATOM     85  F   UNL A   1      39.620  29.480  26.910  1.00  0.00    -0.206 F 
ATOM     86  C   UNL A   1      37.953  30.485  29.955  1.00  0.00     0.060 A 
BRANCH  86  87
ATOM     87  S   UNL A   1      36.339  31.073  30.514  1.00  0.00     0.124 S 
ATOM     88  O   UNL A   1      36.686  32.350  31.125  1.00  0.00    -0.237 OA
ATOM     89  O   UNL A   1      35.591  31.145  29.263  1.00  0.00    -0.237 OA
ATOM     90  O   UNL A   1      35.903  30.028  31.437  1.00  0.00    -0.744 OA
ENDBRANCH  86  87
ENDBRANCH  54  79
BRANCH  66  91
ATOM     91  C   UNL A   1      46.588  32.892  28.171  1.00  0.00     0.058 A 
ATOM     92  C   UNL A   1      47.181  33.376  29.347  1.00  0.00     0.135 A 
ATOM     93  C   UNL A   1      46.447  33.780  27.093  1.00  0.00     0.135 A 
ATOM     94  F   UNL A   1      47.335  32.570  30.409  1.00  0.00    -0.206 F 
ATOM     95  C   UNL A   1      47.601  34.698  29.457  1.00  0.00     0.059 A 
ATOM     96  C   UNL A   1      46.888  35.098  27.170  1.00  0.00     0.059 A 
ATOM     97  F   UNL A   1      45.896  33.366  25.941  1.00  0.00    -0.206 F 
ATOM     98  C   UNL A   1      47.453  35.551  28.361  1.00  0.00     0.060 A 
BRANCH  98  99
ATOM     99  S   UNL A   1      48.038  37.252  28.505  1.00  0.00     0.124 S 
ATOM    100  O   UNL A   1      48.867  37.177  29.703  1.00  0.00    -0.237 OA
ATOM    101  O   UNL A   1      48.755  37.442  27.248  1.00  0.00    -0.237 OA
ATOM    102  O   UNL A   1      46.807  38.025  28.640  1.00  0.00    -0.744 OA
ENDBRANCH  98  99
ENDBRANCH  66  91
ENDBRANCH  40  41
ENDBRANCH  32  35
ENDBRANCH  30  31
ENDBRANCH  29  30
ENDBRANCH  28  29
ENDBRANCH   1  28
TORSDOF 20
ENDMDL
MODEL 2
REMARK VINA RESULT:     -10.6      1.025      8.195
REMARK SMILES COC(=O)c1sc(NC(=O)[C@H]2CC=CC[C@H]2C(=O)NCCCCCCNC(=O)c2ccc(-c3c4nc(c(-c5c(F)cc(S(=O)(=O)[O-])cc5F)c5ccc([nH]5)c(-c5c(F)cc(S(=O)(=O)[O-])cc5F)c5nc(c(-c6c(F)cc(S(=O)(=O)[O-])cc6F)c6ccc3[nH]6)C=C5)C=C4)cc2)nc1C
REMARK SMILES IDX 22 1 21 2 20 3 19 4 17 5 18 6 16 8 11 9 12 10 13 11 15 12
REMARK SMILES IDX 14 13 9 14 8 15 10 17 7 18 5 19 6 20 96 21 95 22 97 23 3 24
REMARK SMILES IDX 4 25 2 26 1 27 23 28 24 29 25 30 26 31 27 32 28 34 29 35
REMARK SMILES IDX 30 36 94 37 31 38 93 39 32 40 33 41 34 42 87 43 35 44 92 45
REMARK SMILES IDX 86 46 88 47 36 48 91 49 85 50 84 51 37 53 71 54 50 55 70 56
REMARK SMILES IDX 51 57 54 58 69 59 89 60 52 61 53 62 68 64 90 65 55 66 38 67
REMARK SMILES IDX 39 68 48 69 40 70 41 71 47 72 49 73 42 74 43 75 44 76 45 77
REMARK SMILES IDX 46 78 72 79 73 80 82 81 74 82 75 83 81 84 83 85 76 86 77 87
REMARK SMILES IDX 78 88 79 89 80 90 56 91 57 92 66 93 58 94 59 95 65 96 67 97
REMARK SMILES IDX 60 98 61 99 62 100 63 101 64 102
REMARK H PARENT 19 7 8 16 26 33 88 52 54 63
REMARK Flexibility Score: inf
ROOT
ATOM      1  C   UNL A   1      37.836  23.598  26.436  1.00  0.00     0.002 C 
ENDROOT
BRANCH   1   2
ATOM      2  C   UNL A   1      37.111  23.297  25.123  1.00  0.00     0.021 C 
BRANCH   2   3
ATOM      3  C   UNL A   1      35.707  22.709  25.250  1.00  0.00     0.116 C 
BRANCH   3   4
ATOM      4  N   UNL A   1      34.747  23.632  25.827  1.00  0.00    -0.356 N 
ATOM      5  C   UNL A   1      33.390  23.614  25.846  1.00  0.00     0.224 C 
ATOM      6  O   UNL A   1      32.848  24.310  26.713  1.00  0.00    -0.275 OA
ATOM      7  H   UNL A   1      35.150  24.405  26.284  1.00  0.00     0.163 HD
BRANCH   5   8
ATOM      8  C   UNL A   1      32.545  22.736  24.931  1.00  0.00     0.095 C 
ATOM      9  C   UNL A   1      32.319  23.169  23.454  1.00  0.00     0.095 C 
ATOM     10  C   UNL A   1      31.826  22.014  22.539  1.00  0.00     0.041 C 
ATOM     11  C   UNL A   1      32.207  20.623  22.934  1.00  0.00    -0.030 C 
ATOM     12  C   UNL A   1      32.929  21.273  25.224  1.00  0.00     0.041 C 
ATOM     13  C   UNL A   1      32.695  20.293  24.132  1.00  0.00    -0.030 C 
BRANCH   9  14
ATOM     14  C   UNL A   1      33.418  23.945  22.727  1.00  0.00     0.230 C 
ATOM     15  N   UNL A   1      33.429  25.301  22.610  1.00  0.00    -0.302 N 
ATOM     16  H   UNL A   1      34.101  25.677  21.997  1.00  0.00     0.172 HD
ATOM     17  O   UNL A   1      34.374  23.352  22.210  1.00  0.00    -0.274 OA
BRANCH  15  18
ATOM     18  C   UNL A   1      32.625  26.201  23.237  1.00  0.00     0.190 A 
ATOM     19  C   UNL A   1      31.140  28.084  23.248  1.00  0.00     0.137 A 
ATOM     20  S   UNL A   1      31.257  26.637  22.318  1.00  0.00    -0.089 S 
ATOM     21  C   UNL A   1      31.912  27.926  24.395  1.00  0.00     0.065 A 
ATOM     22  N   UNL A   1      32.797  26.848  24.353  1.00  0.00    -0.224 NA
ATOM     23  C   UNL A   1      31.985  28.824  25.577  1.00  0.00     0.069 C 
BRANCH  19  24
ATOM     24  C   UNL A   1      30.339  29.183  22.761  1.00  0.00     0.350 C 
ATOM     25  O   UNL A   1      30.136  29.465  21.582  1.00  0.00    -0.245 OA
BRANCH  24  26
ATOM     26  O   UNL A   1      29.873  29.927  23.804  1.00  0.00    -0.465 OA
ATOM     27  C   UNL A   1      28.961  30.967  23.448  1.00  0.00     0.282 C 
ENDBRANCH  24  26
ENDBRANCH  19  24
ENDBRANCH  15  18
ENDBRANCH   9  14
ENDBRANCH   5   8
ENDBRANCH   3   4
ENDBRANCH   2   3
ENDBRANCH   1   2
BRANCH   1  28
ATOM     28  C   UNL A   1      39.316  23.227  26.459  1.00  0.00     0.002 C 
BRANCH  28  29
ATOM     29  C   UNL A   1      39.605  21.790  26.883  1.00  0.00     0.021 C 
BRANCH  29  30
ATOM     30  C   UNL A   1      39.650  20.785  25.739  1.00  0.00     0.116 C 
BRANCH  30  31
ATOM     31  N   UNL A   1      40.445  19.610  26.061  1.00  0.00    -0.352 N 
ATOM     32  C   UNL A   1      41.781  19.561  26.372  1.00  0.00     0.251 C 
ATOM     33  H   UNL A   1      39.968  18.748  26.055  1.00  0.00     0.163 HD
ATOM     34  O   UNL A   1      42.372  18.492  26.469  1.00  0.00    -0.269 OA
BRANCH  32  35
ATOM     35  C   UNL A   1      42.493  20.838  26.561  1.00  0.00     0.039 A 
ATOM     36  C   UNL A   1      42.849  21.591  25.443  1.00  0.00     0.014 A 
ATOM     37  C   UNL A   1      42.716  21.321  27.855  1.00  0.00     0.014 A 
ATOM     38  C   UNL A   1      43.388  22.865  25.624  1.00  0.00     0.010 A 
ATOM     39  C   UNL A   1      43.180  22.619  28.030  1.00  0.00     0.010 A 
ATOM     40  C   UNL A   1      43.529  23.400  26.917  1.00  0.00    -0.014 A 
BRANCH  40  41
ATOM     41  C   UNL A   1      44.060  24.770  27.123  1.00  0.00     0.031 A 
ATOM     42  C   UNL A   1      43.132  25.870  27.559  1.00  0.00     0.074 A 
ATOM     43  C   UNL A   1      45.358  25.030  26.869  1.00  0.00     0.049 A 
ATOM     44  N   UNL A   1      43.389  27.137  27.756  1.00  0.00    -0.248 NA
ATOM     45  C   UNL A   1      41.722  25.505  27.775  1.00  0.00     0.031 C 
ATOM     46  C   UNL A   1      46.339  24.054  26.390  1.00  0.00     0.029 A 
ATOM     47  N   UNL A   1      46.075  26.195  26.973  1.00  0.00    -0.354 N 
ATOM     48  C   UNL A   1      42.178  27.718  28.108  1.00  0.00     0.074 A 
ATOM     49  C   UNL A   1      41.173  26.681  28.036  1.00  0.00     0.031 C 
ATOM     50  C   UNL A   1      47.534  24.654  26.268  1.00  0.00     0.029 A 
ATOM     51  C   UNL A   1      47.398  26.064  26.622  1.00  0.00     0.049 A 
ATOM     52  H   UNL A   1      45.679  27.047  27.270  1.00  0.00     0.167 HD
ATOM     53  C   UNL A   1      41.929  28.994  28.487  1.00  0.00     0.037 A 
ATOM     54  C   UNL A   1      48.388  26.978  26.586  1.00  0.00     0.037 A 
ATOM     55  C   UNL A   1      42.942  30.014  28.575  1.00  0.00     0.049 A 
ATOM     56  C   UNL A   1      48.087  28.393  27.004  1.00  0.00     0.074 A 
ATOM     57  C   UNL A   1      42.809  31.322  29.002  1.00  0.00     0.029 A 
ATOM     58  N   UNL A   1      44.274  29.839  28.225  1.00  0.00    -0.354 N 
ATOM     59  N   UNL A   1      46.949  28.909  27.407  1.00  0.00    -0.248 NA
ATOM     60  C   UNL A   1      49.203  29.348  26.970  1.00  0.00     0.031 C 
ATOM     61  C   UNL A   1      44.049  31.954  28.860  1.00  0.00     0.029 A 
ATOM     62  C   UNL A   1      44.967  31.024  28.400  1.00  0.00     0.049 A 
ATOM     63  H   UNL A   1      44.665  28.997  27.899  1.00  0.00     0.167 HD
ATOM     64  C   UNL A   1      47.218  30.242  27.699  1.00  0.00     0.074 A 
ATOM     65  C   UNL A   1      48.629  30.447  27.440  1.00  0.00     0.031 C 
ATOM     66  C   UNL A   1      46.375  31.208  28.142  1.00  0.00     0.037 A 
BRANCH  53  67
ATOM     67  C   UNL A   1      40.510  29.355  28.835  1.00  0.00     0.058 A 
ATOM     68  C   UNL A   1      40.105  29.564  30.164  1.00  0.00     0.135 A 
ATOM     69  C   UNL A   1      39.547  29.518  27.826  1.00  0.00     0.135 A 
ATOM     70  F   UNL A   1      40.980  29.405  31.170  1.00  0.00    -0.206 F 
ATOM     71  C   UNL A   1      38.791  29.890  30.483  1.00  0.00     0.059 A 
ATOM     72  C   UNL A   1      38.234  29.876  28.120  1.00  0.00     0.059 A 
ATOM     73  F   UNL A   1      39.876  29.329  26.539  1.00  0.00    -0.206 F 
ATOM     74  C   UNL A   1      37.863  30.044  29.453  1.00  0.00     0.060 A 
BRANCH  74  75
ATOM     75  S   UNL A   1      36.163  30.473  29.885  1.00  0.00     0.124 S 
ATOM     76  O   UNL A   1      35.994  29.757  31.147  1.00  0.00    -0.237 OA
ATOM     77  O   UNL A   1      36.225  31.927  29.986  1.00  0.00    -0.237 OA
ATOM     78  O   UNL A   1      35.385  29.958  28.762  1.00  0.00    -0.744 OA
ENDBRANCH  74  75
ENDBRANCH  53  67
BRANCH  54  79
ATOM     79  C   UNL A   1      49.757  26.578  26.161  1.00  0.00     0.058 A 
ATOM     80  C   UNL A   1      50.222  26.852  24.867  1.00  0.00     0.135 A 
ATOM     81  C   UNL A   1      50.633  25.924  27.043  1.00  0.00     0.135 A 
ATOM     82  F   UNL A   1      49.422  27.469  23.983  1.00  0.00    -0.206 F 
ATOM     83  C   UNL A   1      51.498  26.480  24.455  1.00  0.00     0.059 A 
ATOM     84  C   UNL A   1      51.923  25.567  26.664  1.00  0.00     0.059 A 
ATOM     85  F   UNL A   1      50.243  25.653  28.298  1.00  0.00    -0.206 F 
ATOM     86  C   UNL A   1      52.343  25.841  25.363  1.00  0.00     0.060 A 
BRANCH  86  87
ATOM     87  S   UNL A   1      54.015  25.407  24.834  1.00  0.00     0.124 S 
ATOM     88  O   UNL A   1      54.036  25.924  23.471  1.00  0.00    -0.237 OA
ATOM     89  O   UNL A   1      54.838  26.123  25.803  1.00  0.00    -0.237 OA
ATOM     90  O   UNL A   1      54.039  23.952  24.958  1.00  0.00    -0.744 OA
ENDBRANCH  86  87
ENDBRANCH  54  79
BRANCH  66  91
ATOM     91  C   UNL A   1      46.957  32.570  28.404  1.00  0.00     0.058 A 
ATOM     92  C   UNL A   1      46.942  33.580  27.430  1.00  0.00     0.135 A 
ATOM     93  C   UNL A   1      47.483  32.884  29.667  1.00  0.00     0.135 A 
ATOM     94  F   UNL A   1      46.454  33.330  26.203  1.00  0.00    -0.206 F 
ATOM     95  C   UNL A   1      47.447  34.849  27.692  1.00  0.00     0.059 A 
ATOM     96  C   UNL A   1      47.966  34.156  29.961  1.00  0.00     0.059 A 
ATOM     97  F   UNL A   1      47.513  31.958  30.638  1.00  0.00    -0.206 F 
ATOM     98  C   UNL A   1      47.955  35.129  28.962  1.00  0.00     0.060 A 
BRANCH  98  99
ATOM     99  S   UNL A   1      48.572  36.790  29.300  1.00  0.00     0.124 S 
ATOM    100  O   UNL A   1      47.353  37.584  29.189  1.00  0.00    -0.237 OA
ATOM    101  O   UNL A   1      49.118  36.652  30.646  1.00  0.00    -0.237 OA
ATOM    102  O   UNL A   1      49.561  37.007  28.248  1.00  0.00    -0.744 OA
ENDBRANCH  98  99
ENDBRANCH  66  91
ENDBRANCH  40  41
ENDBRANCH  32  35
ENDBRANCH  30  31
ENDBRANCH  29  30
ENDBRANCH  28  29
ENDBRANCH   1  28
TORSDOF 20
ENDMDL
MODEL 3
REMARK VINA RESULT:     -10.5      6.177     11.779
REMARK SMILES COC(=O)c1sc(NC(=O)[C@H]2CC=CC[C@H]2C(=O)NCCCCCCNC(=O)c2ccc(-c3c4nc(c(-c5c(F)cc(S(=O)(=O)[O-])cc5F)c5ccc([nH]5)c(-c5c(F)cc(S(=O)(=O)[O-])cc5F)c5nc(c(-c6c(F)cc(S(=O)(=O)[O-])cc6F)c6ccc3[nH]6)C=C5)C=C4)cc2)nc1C
REMARK SMILES IDX 22 1 21 2 20 3 19 4 17 5 18 6 16 8 11 9 12 10 13 11 15 12
REMARK SMILES IDX 14 13 9 14 8 15 10 17 7 18 5 19 6 20 96 21 95 22 97 23 3 24
REMARK SMILES IDX 4 25 2 26 1 27 23 28 24 29 25 30 26 31 27 32 28 34 29 35
REMARK SMILES IDX 30 36 94 37 31 38 93 39 32 40 33 41 34 42 87 43 35 44 92 45
REMARK SMILES IDX 86 46 88 47 36 48 91 49 85 50 84 51 37 53 71 54 50 55 70 56
REMARK SMILES IDX 51 57 54 58 69 59 89 60 52 61 53 62 68 64 90 65 55 66 38 67
REMARK SMILES IDX 39 68 48 69 40 70 41 71 47 72 49 73 42 74 43 75 44 76 45 77
REMARK SMILES IDX 46 78 72 79 73 80 82 81 74 82 75 83 81 84 83 85 76 86 77 87
REMARK SMILES IDX 78 88 79 89 80 90 56 91 57 92 66 93 58 94 59 95 65 96 67 97
REMARK SMILES IDX 60 98 61 99 62 100 63 101 64 102
REMARK H PARENT 19 7 8 16 26 33 88 52 54 63
REMARK Flexibility Score: inf
ROOT
ATOM      1  C   UNL A   1      35.361  30.324  28.527  1.00  0.00     0.002 C 
ENDROOT
BRANCH   1   2
ATOM      2  C   UNL A   1      35.569  29.167  27.548  1.00  0.00     0.021 C 
BRANCH   2   3
ATOM      3  C   UNL A   1      34.459  28.945  26.524  1.00  0.00     0.116 C 
BRANCH   3   4
ATOM      4  N   UNL A   1      33.192  28.564  27.122  1.00  0.00    -0.356 N 
ATOM      5  C   UNL A   1      32.079  28.008  26.580  1.00  0.00     0.224 C 
ATOM      6  O   UNL A   1      31.306  27.454  27.370  1.00  0.00    -0.275 OA
ATOM      7  H   UNL A   1      33.130  28.740  28.088  1.00  0.00     0.163 HD
BRANCH   5   8
ATOM      8  C   UNL A   1      31.801  27.965  25.081  1.00  0.00     0.095 C 
ATOM      9  C   UNL A   1      31.362  26.625  24.424  1.00  0.00     0.095 C 
ATOM     10  C   UNL A   1      30.708  26.806  23.027  1.00  0.00     0.041 C 
ATOM     11  C   UNL A   1      30.027  28.110  22.758  1.00  0.00    -0.030 C 
ATOM     12  C   UNL A   1      31.030  29.252  24.727  1.00  0.00     0.041 C 
ATOM     13  C   UNL A   1      30.174  29.200  23.514  1.00  0.00    -0.030 C 
BRANCH   9  14
ATOM     14  C   UNL A   1      30.531  25.631  25.237  1.00  0.00     0.230 C 
ATOM     15  N   UNL A   1      30.950  24.372  25.540  1.00  0.00    -0.302 N 
ATOM     16  H   UNL A   1      30.275  23.775  25.937  1.00  0.00     0.172 HD
ATOM     17  O   UNL A   1      29.417  25.948  25.674  1.00  0.00    -0.274 OA
BRANCH  15  18
ATOM     18  C   UNL A   1      32.187  23.837  25.361  1.00  0.00     0.190 A 
ATOM     19  C   UNL A   1      33.676  21.995  24.984  1.00  0.00     0.137 A 
ATOM     20  S   UNL A   1      32.205  22.533  24.264  1.00  0.00    -0.089 S 
ATOM     21  C   UNL A   1      34.203  23.044  25.729  1.00  0.00     0.065 A 
ATOM     22  N   UNL A   1      33.309  24.089  25.972  1.00  0.00    -0.224 NA
ATOM     23  C   UNL A   1      35.536  23.122  26.384  1.00  0.00     0.069 C 
BRANCH  19  24
ATOM     24  C   UNL A   1      34.131  20.643  24.755  1.00  0.00     0.350 C 
ATOM     25  O   UNL A   1      35.291  20.245  24.843  1.00  0.00    -0.245 OA
BRANCH  24  26
ATOM     26  O   UNL A   1      33.093  19.856  24.354  1.00  0.00    -0.465 OA
ATOM     27  C   UNL A   1      32.943  18.635  25.079  1.00  0.00     0.282 C 
ENDBRANCH  24  26
ENDBRANCH  19  24
ENDBRANCH  15  18
ENDBRANCH   9  14
ENDBRANCH   5   8
ENDBRANCH   3   4
ENDBRANCH   2   3
ENDBRANCH   1   2
BRANCH   1  28
ATOM     28  C   UNL A   1      35.392  31.716  27.904  1.00  0.00     0.002 C 
BRANCH  28  29
ATOM     29  C   UNL A   1      34.044  32.431  27.877  1.00  0.00     0.021 C 
BRANCH  29  30
ATOM     30  C   UNL A   1      34.126  33.937  27.661  1.00  0.00     0.116 C 
BRANCH  30  31
ATOM     31  N   UNL A   1      33.198  34.672  28.507  1.00  0.00    -0.352 N 
ATOM     32  C   UNL A   1      33.236  34.805  29.872  1.00  0.00     0.251 C 
ATOM     33  H   UNL A   1      32.456  35.126  28.045  1.00  0.00     0.163 HD
ATOM     34  O   UNL A   1      32.306  35.317  30.486  1.00  0.00    -0.269 OA
BRANCH  32  35
ATOM     35  C   UNL A   1      34.418  34.289  30.585  1.00  0.00     0.039 A 
ATOM     36  C   UNL A   1      34.299  33.132  31.353  1.00  0.00     0.014 A 
ATOM     37  C   UNL A   1      35.660  34.909  30.405  1.00  0.00     0.014 A 
ATOM     38  C   UNL A   1      35.446  32.561  31.906  1.00  0.00     0.010 A 
ATOM     39  C   UNL A   1      36.807  34.295  30.891  1.00  0.00     0.010 A 
ATOM     40  C   UNL A   1      36.711  33.120  31.654  1.00  0.00    -0.014 A 
BRANCH  40  41
ATOM     41  C   UNL A   1      37.944  32.499  32.198  1.00  0.00     0.031 A 
ATOM     42  C   UNL A   1      38.379  32.814  33.602  1.00  0.00     0.074 A 
ATOM     43  C   UNL A   1      38.691  31.698  31.414  1.00  0.00     0.049 A 
ATOM     44  N   UNL A   1      39.440  32.407  34.248  1.00  0.00    -0.248 NA
ATOM     45  C   UNL A   1      37.523  33.730  34.375  1.00  0.00     0.031 C 
ATOM     46  C   UNL A   1      38.396  31.364  30.019  1.00  0.00     0.029 A 
ATOM     47  N   UNL A   1      39.856  31.021  31.675  1.00  0.00    -0.354 N 
ATOM     48  C   UNL A   1      39.384  33.022  35.493  1.00  0.00     0.074 A 
ATOM     49  C   UNL A   1      38.220  33.880  35.490  1.00  0.00     0.031 C 
ATOM     50  C   UNL A   1      39.338  30.526  29.557  1.00  0.00     0.029 A 
ATOM     51  C   UNL A   1      40.325  30.292  30.608  1.00  0.00     0.049 A 
ATOM     52  H   UNL A   1      40.314  31.055  32.547  1.00  0.00     0.167 HD
ATOM     53  C   UNL A   1      40.211  32.864  36.553  1.00  0.00     0.037 A 
ATOM     54  C   UNL A   1      41.428  29.527  30.489  1.00  0.00     0.037 A 
ATOM     55  C   UNL A   1      41.355  31.990  36.551  1.00  0.00     0.049 A 
ATOM     56  C   UNL A   1      42.337  29.372  31.678  1.00  0.00     0.074 A 
ATOM     57  C   UNL A   1      42.226  31.712  37.590  1.00  0.00     0.029 A 
ATOM     58  N   UNL A   1      41.791  31.258  35.455  1.00  0.00    -0.354 N 
ATOM     59  N   UNL A   1      42.228  29.903  32.874  1.00  0.00    -0.248 NA
ATOM     60  C   UNL A   1      43.514  28.510  31.507  1.00  0.00     0.031 C 
ATOM     61  C   UNL A   1      43.219  30.853  37.106  1.00  0.00     0.029 A 
ATOM     62  C   UNL A   1      42.934  30.550  35.784  1.00  0.00     0.049 A 
ATOM     63  H   UNL A   1      41.352  31.246  34.575  1.00  0.00     0.167 HD
ATOM     64  C   UNL A   1      43.308  29.418  33.605  1.00  0.00     0.074 A 
ATOM     65  C   UNL A   1      44.048  28.541  32.721  1.00  0.00     0.031 C 
ATOM     66  C   UNL A   1      43.655  29.676  34.891  1.00  0.00     0.037 A 
BRANCH  53  67
ATOM     67  C   UNL A   1      39.905  33.649  37.800  1.00  0.00     0.058 A 
ATOM     68  C   UNL A   1      40.582  34.840  38.109  1.00  0.00     0.135 A 
ATOM     69  C   UNL A   1      38.902  33.220  38.685  1.00  0.00     0.135 A 
ATOM     70  F   UNL A   1      41.562  35.287  37.308  1.00  0.00    -0.206 F 
ATOM     71  C   UNL A   1      40.301  35.559  39.266  1.00  0.00     0.059 A 
ATOM     72  C   UNL A   1      38.582  33.942  39.832  1.00  0.00     0.059 A 
ATOM     73  F   UNL A   1      38.223  32.089  38.441  1.00  0.00    -0.206 F 
ATOM     74  C   UNL A   1      39.298  35.102  40.121  1.00  0.00     0.060 A 
BRANCH  74  75
ATOM     75  S   UNL A   1      38.943  36.052  41.615  1.00  0.00     0.124 S 
ATOM     76  O   UNL A   1      37.731  35.395  42.096  1.00  0.00    -0.237 OA
ATOM     77  O   UNL A   1      40.143  35.831  42.417  1.00  0.00    -0.237 OA
ATOM     78  O   UNL A   1      38.765  37.413  41.119  1.00  0.00    -0.744 OA
ENDBRANCH  74  75
ENDBRANCH  53  67
BRANCH  54  79
ATOM     79  C   UNL A   1      41.718  28.833  29.204  1.00  0.00     0.058 A 
ATOM     80  C   UNL A   1      42.498  29.444  28.212  1.00  0.00     0.135 A 
ATOM     81  C   UNL A   1      41.232  27.541  28.948  1.00  0.00     0.135 A 
ATOM     82  F   UNL A   1      42.982  30.681  28.405  1.00  0.00    -0.206 F 
ATOM     83  C   UNL A   1      42.774  28.808  27.005  1.00  0.00     0.059 A 
ATOM     84  C   UNL A   1      41.517  26.873  27.760  1.00  0.00     0.059 A 
ATOM     85  F   UNL A   1      40.494  26.905  29.870  1.00  0.00    -0.206 F 
ATOM     86  C   UNL A   1      42.282  27.520  26.791  1.00  0.00     0.060 A 
BRANCH  86  87
ATOM     87  S   UNL A   1      42.687  26.684  25.241  1.00  0.00     0.124 S 
ATOM     88  O   UNL A   1      42.761  27.805  24.312  1.00  0.00    -0.237 OA
ATOM     89  O   UNL A   1      43.955  26.037  25.566  1.00  0.00    -0.237 OA
ATOM     90  O   UNL A   1      41.561  25.775  25.046  1.00  0.00    -0.744 OA
ENDBRANCH  86  87
ENDBRANCH  54  79
BRANCH  66  91
ATOM     91  C   UNL A   1      44.873  28.979  35.433  1.00  0.00     0.058 A 
ATOM     92  C   UNL A   1      46.146  29.568  35.380  1.00  0.00     0.135 A 
ATOM     93  C   UNL A   1      44.752  27.732  36.067  1.00  0.00     0.135 A 
ATOM     94  F   UNL A   1      46.317  30.757  34.780  1.00  0.00    -0.206 F 
ATOM     95  C   UNL A   1      47.261  28.935  35.918  1.00  0.00     0.059 A 
ATOM     96  C   UNL A   1      45.849  27.095  36.640  1.00  0.00     0.059 A 
ATOM     97  F   UNL A   1      43.556  27.130  36.155  1.00  0.00    -0.206 F 
ATOM     98  C   UNL A   1      47.102  27.699  36.549  1.00  0.00     0.060 A 
BRANCH  98  99
ATOM     99  S   UNL A   1      48.551  26.907  37.276  1.00  0.00     0.124 S 
ATOM    100  O   UNL A   1      48.542  27.461  38.626  1.00  0.00    -0.237 OA
ATOM    101  O   UNL A   1      48.218  25.490  37.170  1.00  0.00    -0.237 OA
ATOM    102  O   UNL A   1      49.648  27.353  36.422  1.00  0.00    -0.744 OA
ENDBRANCH  98  99
ENDBRANCH  66  91
ENDBRANCH  40  41
ENDBRANCH  32  35
ENDBRANCH  30  31
ENDBRANCH  29  30
ENDBRANCH  28  29
ENDBRANCH   1  28
TORSDOF 20
ENDMDL
