MODEL 1
REMARK VINA RESULT:     -10.9      0.000      0.000
REMARK SMILES [NH3+][C@@H]1C=C[C@H](C(=O)N(CC(=O)NCCCCCCNC(=O)c2ccc(-c3c4nc(c(-c5c(F)cc(S(=O)(=O)[O-])cc5F)c5ccc([nH]5)c(-c5c(F)cc(S(=O)(=O)[O-])cc5F)c5nc(c(-c6c(F)cc(S(=O)(=O)[O-])cc6F)c6ccc3[nH]6)C=C5)C=C4)cc2)c2ccccc2)C1
REMARK SMILES IDX 15 1 14 2 13 3 12 4 10 5 11 6 9 8 8 9 6 10 7 11 5 12 2 13
REMARK SMILES IDX 3 14 94 15 4 16 1 17 88 21 89 22 93 23 90 24 92 25 91 26
REMARK SMILES IDX 16 27 17 28 18 29 19 30 20 31 21 33 22 34 23 35 87 36 24 37
REMARK SMILES IDX 86 38 25 39 26 40 27 41 80 42 28 43 85 44 79 45 81 46 29 47
REMARK SMILES IDX 84 48 78 49 77 50 30 52 64 53 43 54 63 55 44 56 47 57 62 58
REMARK SMILES IDX 82 59 45 60 46 61 61 63 83 64 48 65 31 66 32 67 41 68 33 69
REMARK SMILES IDX 34 70 40 71 42 72 35 73 36 74 37 75 38 76 39 77 65 78 66 79
REMARK SMILES IDX 75 80 67 81 68 82 74 83 76 84 69 85 70 86 71 87 72 88 73 89
REMARK SMILES IDX 49 90 50 91 59 92 51 93 52 94 58 95 60 96 53 97 54 98 55 99
REMARK SMILES IDX 56 100 57 101
REMARK H PARENT 12 7 1 18 1 19 1 20 19 32 81 51 47 62
REMARK Flexibility Score: inf
ROOT
ATOM      1  C   UNL A   1      32.191  29.212  25.415  1.00  0.00     0.002 C 
ENDROOT
BRANCH   1   2
ATOM      2  C   UNL A   1      31.434  27.886  25.519  1.00  0.00     0.021 C 
BRANCH   2   3
ATOM      3  C   UNL A   1      31.089  27.259  24.178  1.00  0.00     0.116 C 
BRANCH   3   4
ATOM      4  N   UNL A   1      32.054  27.478  23.123  1.00  0.00    -0.355 N 
ATOM      5  C   UNL A   1      33.208  26.796  22.866  1.00  0.00     0.240 C 
ATOM      6  O   UNL A   1      33.640  26.840  21.707  1.00  0.00    -0.273 OA
ATOM      7  H   UNL A   1      31.850  28.218  22.506  1.00  0.00     0.163 HD
BRANCH   5   8
ATOM      8  C   UNL A   1      33.934  25.929  23.918  1.00  0.00     0.225 C 
BRANCH   8   9
ATOM      9  N   UNL A   1      33.757  24.470  23.911  1.00  0.00    -0.303 N 
BRANCH   9  10
ATOM     10  C   UNL A   1      34.476  23.562  23.119  1.00  0.00     0.234 C 
ATOM     11  O   UNL A   1      34.167  23.407  21.926  1.00  0.00    -0.274 OA
BRANCH  10  12
ATOM     12  C   UNL A   1      35.613  22.643  23.694  1.00  0.00     0.108 C 
ATOM     13  C   UNL A   1      35.956  21.744  26.018  1.00  0.00     0.205 C 
ATOM     14  C   UNL A   1      36.630  23.046  25.819  1.00  0.00     0.033 C 
ATOM     15  C   UNL A   1      35.375  21.432  24.624  1.00  0.00     0.087 C 
ATOM     16  C   UNL A   1      36.503  23.500  24.569  1.00  0.00    -0.012 C 
BRANCH  13  17
ATOM     17  N   UNL A   1      34.924  21.832  27.036  1.00  0.00    -0.352 N 
ATOM     18  H   UNL A   1      34.736  20.902  27.410  1.00  0.00     0.345 HD
ATOM     19  H   UNL A   1      34.072  22.212  26.624  1.00  0.00     0.345 HD
ATOM     20  H   UNL A   1      35.241  22.444  27.789  1.00  0.00     0.345 HD
ENDBRANCH  13  17
ENDBRANCH  10  12
ENDBRANCH   9  10
BRANCH   9  21
ATOM     21  C   UNL A   1      32.786  23.968  24.867  1.00  0.00     0.044 A 
ATOM     22  C   UNL A   1      32.663  24.511  26.157  1.00  0.00     0.026 A 
ATOM     23  C   UNL A   1      31.964  22.876  24.548  1.00  0.00     0.026 A 
ATOM     24  C   UNL A   1      31.742  24.004  27.080  1.00  0.00     0.002 A 
ATOM     25  C   UNL A   1      31.058  22.351  25.479  1.00  0.00     0.002 A 
ATOM     26  C   UNL A   1      30.943  22.919  26.743  1.00  0.00     0.000 A 
ENDBRANCH   9  21
ENDBRANCH   8   9
ENDBRANCH   5   8
ENDBRANCH   3   4
ENDBRANCH   2   3
ENDBRANCH   1   2
BRANCH   1  27
ATOM     27  C   UNL A   1      33.684  29.155  25.772  1.00  0.00     0.002 C 
BRANCH  27  28
ATOM     28  C   UNL A   1      34.010  29.106  27.267  1.00  0.00     0.021 C 
BRANCH  28  29
ATOM     29  C   UNL A   1      35.333  29.754  27.663  1.00  0.00     0.116 C 
BRANCH  29  30
ATOM     30  N   UNL A   1      35.311  30.257  29.029  1.00  0.00    -0.352 N 
ATOM     31  C   UNL A   1      36.302  30.297  29.974  1.00  0.00     0.251 C 
ATOM     32  H   UNL A   1      34.447  30.630  29.319  1.00  0.00     0.163 HD
ATOM     33  O   UNL A   1      36.015  30.584  31.138  1.00  0.00    -0.269 OA
BRANCH  31  34
ATOM     34  C   UNL A   1      37.702  29.985  29.615  1.00  0.00     0.039 A 
ATOM     35  C   UNL A   1      38.610  29.682  30.633  1.00  0.00     0.014 A 
ATOM     36  C   UNL A   1      38.132  30.020  28.285  1.00  0.00     0.014 A 
ATOM     37  C   UNL A   1      39.931  29.359  30.314  1.00  0.00     0.010 A 
ATOM     38  C   UNL A   1      39.427  29.621  27.962  1.00  0.00     0.010 A 
ATOM     39  C   UNL A   1      40.342  29.295  28.973  1.00  0.00    -0.014 A 
BRANCH  39  40
ATOM     40  C   UNL A   1      41.725  28.889  28.611  1.00  0.00     0.031 A 
ATOM     41  C   UNL A   1      42.831  29.910  28.586  1.00  0.00     0.074 A 
ATOM     42  C   UNL A   1      41.972  27.615  28.249  1.00  0.00     0.049 A 
ATOM     43  N   UNL A   1      44.084  29.763  28.235  1.00  0.00    -0.248 NA
ATOM     44  C   UNL A   1      42.478  31.284  28.979  1.00  0.00     0.031 C 
ATOM     45  C   UNL A   1      40.973  26.544  28.189  1.00  0.00     0.029 A 
ATOM     46  N   UNL A   1      43.135  27.002  27.853  1.00  0.00    -0.354 N 
ATOM     47  C   UNL A   1      44.661  31.022  28.353  1.00  0.00     0.074 A 
ATOM     48  C   UNL A   1      43.612  31.932  28.754  1.00  0.00     0.031 C 
ATOM     49  C   UNL A   1      41.571  25.404  27.806  1.00  0.00     0.029 A 
ATOM     50  C   UNL A   1      42.983  25.669  27.552  1.00  0.00     0.049 A 
ATOM     51  H   UNL A   1      43.997  27.474  27.791  1.00  0.00     0.167 HD
ATOM     52  C   UNL A   1      45.954  31.381  28.167  1.00  0.00     0.037 A 
ATOM     53  C   UNL A   1      43.879  24.764  27.112  1.00  0.00     0.037 A 
ATOM     54  C   UNL A   1      46.998  30.463  27.790  1.00  0.00     0.049 A 
ATOM     55  C   UNL A   1      45.309  25.188  26.907  1.00  0.00     0.074 A 
ATOM     56  C   UNL A   1      48.350  30.716  27.631  1.00  0.00     0.029 A 
ATOM     57  N   UNL A   1      46.808  29.118  27.509  1.00  0.00    -0.354 N 
ATOM     58  N   UNL A   1      45.851  26.370  27.085  1.00  0.00    -0.248 NA
ATOM     59  C   UNL A   1      46.249  24.158  26.448  1.00  0.00     0.031 C 
ATOM     60  C   UNL A   1      48.968  29.535  27.209  1.00  0.00     0.029 A 
ATOM     61  C   UNL A   1      48.014  28.532  27.157  1.00  0.00     0.049 A 
ATOM     62  H   UNL A   1      45.944  28.648  27.553  1.00  0.00     0.167 HD
ATOM     63  C   UNL A   1      47.202  26.217  26.789  1.00  0.00     0.074 A 
ATOM     64  C   UNL A   1      47.394  24.826  26.433  1.00  0.00     0.031 C 
ATOM     65  C   UNL A   1      48.192  27.144  26.812  1.00  0.00     0.037 A 
BRANCH  52  66
ATOM     66  C   UNL A   1      46.315  32.828  28.373  1.00  0.00     0.058 A 
ATOM     67  C   UNL A   1      46.740  33.312  29.621  1.00  0.00     0.135 A 
ATOM     68  C   UNL A   1      46.277  33.734  27.300  1.00  0.00     0.135 A 
ATOM     69  F   UNL A   1      46.782  32.496  30.685  1.00  0.00    -0.206 F 
ATOM     70  C   UNL A   1      47.085  34.647  29.804  1.00  0.00     0.059 A 
ATOM     71  C   UNL A   1      46.648  35.068  27.454  1.00  0.00     0.059 A 
ATOM     72  F   UNL A   1      45.880  33.326  26.084  1.00  0.00    -0.206 F 
ATOM     73  C   UNL A   1      47.037  35.517  28.714  1.00  0.00     0.060 A 
BRANCH  73  74
ATOM     74  S   UNL A   1      47.501  37.243  28.970  1.00  0.00     0.124 S 
ATOM     75  O   UNL A   1      48.955  37.144  29.055  1.00  0.00    -0.237 OA
ATOM     76  O   UNL A   1      46.980  37.887  27.769  1.00  0.00    -0.237 OA
ATOM     77  O   UNL A   1      46.823  37.597  30.213  1.00  0.00    -0.744 OA
ENDBRANCH  73  74
ENDBRANCH  52  66
BRANCH  53  78
ATOM     78  C   UNL A   1      43.455  23.361  26.857  1.00  0.00     0.058 A 
ATOM     79  C   UNL A   1      43.308  22.877  25.548  1.00  0.00     0.135 A 
ATOM     80  C   UNL A   1      43.203  22.472  27.913  1.00  0.00     0.135 A 
ATOM     81  F   UNL A   1      43.532  23.690  24.505  1.00  0.00    -0.206 F 
ATOM     82  C   UNL A   1      42.908  21.568  25.294  1.00  0.00     0.059 A 
ATOM     83  C   UNL A   1      42.829  21.151  27.684  1.00  0.00     0.059 A 
ATOM     84  F   UNL A   1      43.347  22.878  29.185  1.00  0.00    -0.206 F 
ATOM     85  C   UNL A   1      42.673  20.711  26.371  1.00  0.00     0.060 A 
BRANCH  85  86
ATOM     86  S   UNL A   1      42.201  19.002  26.030  1.00  0.00     0.124 S 
ATOM     87  O   UNL A   1      40.763  19.130  25.827  1.00  0.00    -0.237 OA
ATOM     88  O   UNL A   1      42.990  18.698  24.842  1.00  0.00    -0.237 OA
ATOM     89  O   UNL A   1      42.608  18.294  27.241  1.00  0.00    -0.744 OA
ENDBRANCH  85  86
ENDBRANCH  53  78
BRANCH  65  90
ATOM     90  C   UNL A   1      49.583  26.680  26.479  1.00  0.00     0.058 A 
ATOM     91  C   UNL A   1      50.109  26.787  25.183  1.00  0.00     0.135 A 
ATOM     92  C   UNL A   1      50.419  26.168  27.486  1.00  0.00     0.135 A 
ATOM     93  F   UNL A   1      49.351  27.262  24.183  1.00  0.00    -0.206 F 
ATOM     94  C   UNL A   1      51.408  26.381  24.890  1.00  0.00     0.059 A 
ATOM     95  C   UNL A   1      51.730  25.784  27.222  1.00  0.00     0.059 A 
ATOM     96  F   UNL A   1      49.970  26.054  28.745  1.00  0.00    -0.206 F 
ATOM     97  C   UNL A   1      52.211  25.883  25.917  1.00  0.00     0.060 A 
BRANCH  97  98
ATOM     98  S   UNL A   1      53.904  25.391  25.529  1.00  0.00     0.124 S 
ATOM     99  O   UNL A   1      54.382  24.933  26.830  1.00  0.00    -0.237 OA
ATOM    100  O   UNL A   1      53.706  24.351  24.524  1.00  0.00    -0.237 OA
ATOM    101  O   UNL A   1      54.513  26.623  25.036  1.00  0.00    -0.744 OA
ENDBRANCH  97  98
ENDBRANCH  65  90
ENDBRANCH  39  40
ENDBRANCH  31  34
ENDBRANCH  29  30
ENDBRANCH  28  29
ENDBRANCH  27  28
ENDBRANCH   1  27
TORSDOF 21
ENDMDL
MODEL 2
REMARK VINA RESULT:     -10.9      1.739      3.241
REMARK SMILES [NH3+][C@@H]1C=C[C@H](C(=O)N(CC(=O)NCCCCCCNC(=O)c2ccc(-c3c4nc(c(-c5c(F)cc(S(=O)(=O)[O-])cc5F)c5ccc([nH]5)c(-c5c(F)cc(S(=O)(=O)[O-])cc5F)c5nc(c(-c6c(F)cc(S(=O)(=O)[O-])cc6F)c6ccc3[nH]6)C=C5)C=C4)cc2)c2ccccc2)C1
REMARK SMILES IDX 15 1 14 2 13 3 12 4 10 5 11 6 9 8 8 9 6 10 7 11 5 12 2 13
REMARK SMILES IDX 3 14 94 15 4 16 1 17 88 21 89 22 93 23 90 24 92 25 91 26
REMARK SMILES IDX 16 27 17 28 18 29 19 30 20 31 21 33 22 34 23 35 87 36 24 37
REMARK SMILES IDX 86 38 25 39 26 40 27 41 80 42 28 43 85 44 79 45 81 46 29 47
REMARK SMILES IDX 84 48 78 49 77 50 30 52 64 53 43 54 63 55 44 56 47 57 62 58
REMARK SMILES IDX 82 59 45 60 46 61 61 63 83 64 48 65 31 66 32 67 41 68 33 69
REMARK SMILES IDX 34 70 40 71 42 72 35 73 36 74 37 75 38 76 39 77 65 78 66 79
REMARK SMILES IDX 75 80 67 81 68 82 74 83 76 84 69 85 70 86 71 87 72 88 73 89
REMARK SMILES IDX 49 90 50 91 59 92 51 93 52 94 58 95 60 96 53 97 54 98 55 99
REMARK SMILES IDX 56 100 57 101
REMARK H PARENT 12 7 1 18 1 19 1 20 19 32 81 51 47 62
REMARK Flexibility Score: inf
ROOT
ATOM      1  C   UNL A   1      34.716  29.380  27.724  1.00  0.00     0.002 C 
ENDROOT
BRANCH   1   2
ATOM      2  C   UNL A   1      33.994  28.451  26.746  1.00  0.00     0.021 C 
BRANCH   2   3
ATOM      3  C   UNL A   1      33.175  29.175  25.689  1.00  0.00     0.116 C 
BRANCH   3   4
ATOM      4  N   UNL A   1      33.794  29.279  24.386  1.00  0.00    -0.355 N 
ATOM      5  C   UNL A   1      33.679  28.437  23.317  1.00  0.00     0.240 C 
ATOM      6  O   UNL A   1      33.910  28.915  22.200  1.00  0.00    -0.273 OA
ATOM      7  H   UNL A   1      34.376  30.061  24.251  1.00  0.00     0.163 HD
BRANCH   5   8
ATOM      8  C   UNL A   1      33.206  26.972  23.437  1.00  0.00     0.225 C 
BRANCH   8   9
ATOM      9  N   UNL A   1      31.770  26.671  23.510  1.00  0.00    -0.303 N 
BRANCH   9  10
ATOM     10  C   UNL A   1      30.753  27.360  22.831  1.00  0.00     0.234 C 
ATOM     11  O   UNL A   1      30.769  27.414  21.590  1.00  0.00    -0.274 OA
BRANCH  10  12
ATOM     12  C   UNL A   1      29.624  28.162  23.573  1.00  0.00     0.108 C 
ATOM     13  C   UNL A   1      28.006  29.876  22.694  1.00  0.00     0.205 C 
ATOM     14  C   UNL A   1      29.254  30.493  23.193  1.00  0.00     0.033 C 
ATOM     15  C   UNL A   1      28.198  28.381  23.019  1.00  0.00     0.087 C 
ATOM     16  C   UNL A   1      30.093  29.595  23.717  1.00  0.00    -0.012 C 
BRANCH  13  17
ATOM     17  N   UNL A   1      27.832  30.110  21.271  1.00  0.00    -0.352 N 
ATOM     18  H   UNL A   1      27.571  29.238  20.812  1.00  0.00     0.345 HD
ATOM     19  H   UNL A   1      28.706  30.455  20.874  1.00  0.00     0.345 HD
ATOM     20  H   UNL A   1      27.097  30.803  21.128  1.00  0.00     0.345 HD
ENDBRANCH  13  17
ENDBRANCH  10  12
ENDBRANCH   9  10
BRANCH   9  21
ATOM     21  C   UNL A   1      31.429  25.513  24.317  1.00  0.00     0.044 A 
ATOM     22  C   UNL A   1      31.268  25.600  25.710  1.00  0.00     0.026 A 
ATOM     23  C   UNL A   1      31.299  24.244  23.733  1.00  0.00     0.026 A 
ATOM     24  C   UNL A   1      30.964  24.475  26.484  1.00  0.00     0.002 A 
ATOM     25  C   UNL A   1      31.018  23.111  24.509  1.00  0.00     0.002 A 
ATOM     26  C   UNL A   1      30.845  23.228  25.884  1.00  0.00     0.000 A 
ENDBRANCH   9  21
ENDBRANCH   8   9
ENDBRANCH   5   8
ENDBRANCH   3   4
ENDBRANCH   2   3
ENDBRANCH   1   2
BRANCH   1  27
ATOM     27  C   UNL A   1      34.939  30.818  27.233  1.00  0.00     0.002 C 
BRANCH  27  28
ATOM     28  C   UNL A   1      34.679  31.922  28.263  1.00  0.00     0.021 C 
BRANCH  28  29
ATOM     29  C   UNL A   1      35.841  32.214  29.206  1.00  0.00     0.116 C 
BRANCH  29  30
ATOM     30  N   UNL A   1      35.683  31.552  30.494  1.00  0.00    -0.352 N 
ATOM     31  C   UNL A   1      36.482  30.635  31.122  1.00  0.00     0.251 C 
ATOM     32  H   UNL A   1      34.873  31.807  30.993  1.00  0.00     0.163 HD
ATOM     33  O   UNL A   1      36.061  30.050  32.122  1.00  0.00    -0.269 OA
BRANCH  31  34
ATOM     34  C   UNL A   1      37.833  30.328  30.604  1.00  0.00     0.039 A 
ATOM     35  C   UNL A   1      38.876  30.127  31.512  1.00  0.00     0.014 A 
ATOM     36  C   UNL A   1      38.084  30.270  29.230  1.00  0.00     0.014 A 
ATOM     37  C   UNL A   1      40.154  29.810  31.045  1.00  0.00     0.010 A 
ATOM     38  C   UNL A   1      39.338  29.878  28.768  1.00  0.00     0.010 A 
ATOM     39  C   UNL A   1      40.388  29.652  29.669  1.00  0.00    -0.014 A 
BRANCH  39  40
ATOM     40  C   UNL A   1      41.724  29.252  29.157  1.00  0.00     0.031 A 
ATOM     41  C   UNL A   1      42.827  30.270  29.043  1.00  0.00     0.074 A 
ATOM     42  C   UNL A   1      41.926  27.986  28.741  1.00  0.00     0.049 A 
ATOM     43  N   UNL A   1      44.036  30.129  28.562  1.00  0.00    -0.248 NA
ATOM     44  C   UNL A   1      42.523  31.635  29.504  1.00  0.00     0.031 C 
ATOM     45  C   UNL A   1      40.921  26.919  28.758  1.00  0.00     0.029 A 
ATOM     46  N   UNL A   1      43.039  27.381  28.213  1.00  0.00    -0.354 N 
ATOM     47  C   UNL A   1      44.630  31.383  28.651  1.00  0.00     0.074 A 
ATOM     48  C   UNL A   1      43.632  32.286  29.179  1.00  0.00     0.031 C 
ATOM     49  C   UNL A   1      41.471  25.788  28.288  1.00  0.00     0.029 A 
ATOM     50  C   UNL A   1      42.851  26.056  27.897  1.00  0.00     0.049 A 
ATOM     51  H   UNL A   1      43.893  27.851  28.074  1.00  0.00     0.167 HD
ATOM     52  C   UNL A   1      45.898  31.743  28.342  1.00  0.00     0.037 A 
ATOM     53  C   UNL A   1      43.692  25.160  27.345  1.00  0.00     0.037 A 
ATOM     54  C   UNL A   1      46.894  30.832  27.837  1.00  0.00     0.049 A 
ATOM     55  C   UNL A   1      45.095  25.585  27.005  1.00  0.00     0.074 A 
ATOM     56  C   UNL A   1      48.223  31.085  27.547  1.00  0.00     0.029 A 
ATOM     57  N   UNL A   1      46.669  29.494  27.545  1.00  0.00    -0.354 N 
ATOM     58  N   UNL A   1      45.659  26.760  27.155  1.00  0.00    -0.248 NA
ATOM     59  C   UNL A   1      45.979  24.563  26.427  1.00  0.00     0.031 C 
ATOM     60  C   UNL A   1      48.789  29.913  27.034  1.00  0.00     0.029 A 
ATOM     61  C   UNL A   1      47.829  28.915  27.057  1.00  0.00     0.049 A 
ATOM     62  H   UNL A   1      45.812  29.026  27.666  1.00  0.00     0.167 HD
ATOM     63  C   UNL A   1      46.971  26.611  26.718  1.00  0.00     0.074 A 
ATOM     64  C   UNL A   1      47.120  25.229  26.310  1.00  0.00     0.031 C 
ATOM     65  C   UNL A   1      47.963  27.534  26.661  1.00  0.00     0.037 A 
BRANCH  52  66
ATOM     66  C   UNL A   1      46.286  33.184  28.544  1.00  0.00     0.058 A 
ATOM     67  C   UNL A   1      46.131  34.139  27.526  1.00  0.00     0.135 A 
ATOM     68  C   UNL A   1      46.779  33.625  29.783  1.00  0.00     0.135 A 
ATOM     69  F   UNL A   1      45.679  33.772  26.317  1.00  0.00    -0.206 F 
ATOM     70  C   UNL A   1      46.479  35.472  27.720  1.00  0.00     0.059 A 
ATOM     71  C   UNL A   1      47.104  34.960  30.009  1.00  0.00     0.059 A 
ATOM     72  F   UNL A   1      46.946  32.755  30.792  1.00  0.00    -0.206 F 
ATOM     73  C   UNL A   1      46.963  35.873  28.966  1.00  0.00     0.060 A 
BRANCH  73  74
ATOM     74  S   UNL A   1      47.396  37.610  29.202  1.00  0.00     0.124 S 
ATOM     75  O   UNL A   1      48.739  37.655  28.631  1.00  0.00    -0.237 OA
ATOM     76  O   UNL A   1      46.360  38.296  28.438  1.00  0.00    -0.237 OA
ATOM     77  O   UNL A   1      47.325  37.785  30.649  1.00  0.00    -0.744 OA
ENDBRANCH  73  74
ENDBRANCH  52  66
BRANCH  53  78
ATOM     78  C   UNL A   1      43.237  23.764  27.101  1.00  0.00     0.058 A 
ATOM     79  C   UNL A   1      42.918  23.324  25.808  1.00  0.00     0.135 A 
ATOM     80  C   UNL A   1      43.126  22.839  28.151  1.00  0.00     0.135 A 
ATOM     81  F   UNL A   1      43.003  24.172  24.772  1.00  0.00    -0.206 F 
ATOM     82  C   UNL A   1      42.487  22.023  25.565  1.00  0.00     0.059 A 
ATOM     83  C   UNL A   1      42.724  21.526  27.930  1.00  0.00     0.059 A 
ATOM     84  F   UNL A   1      43.437  23.203  29.406  1.00  0.00    -0.206 F 
ATOM     85  C   UNL A   1      42.395  21.129  26.634  1.00  0.00     0.060 A 
BRANCH  85  86
ATOM     86  S   UNL A   1      41.881  19.431  26.301  1.00  0.00     0.124 S 
ATOM     87  O   UNL A   1      40.437  19.581  26.171  1.00  0.00    -0.237 OA
ATOM     88  O   UNL A   1      42.605  19.127  25.072  1.00  0.00    -0.237 OA
ATOM     89  O   UNL A   1      42.337  18.704  27.483  1.00  0.00    -0.744 OA
ENDBRANCH  85  86
ENDBRANCH  53  78
BRANCH  65  90
ATOM     90  C   UNL A   1      49.311  27.075  26.177  1.00  0.00     0.058 A 
ATOM     91  C   UNL A   1      50.249  26.493  27.043  1.00  0.00     0.135 A 
ATOM     92  C   UNL A   1      49.647  27.174  24.817  1.00  0.00     0.135 A 
ATOM     93  F   UNL A   1      49.982  26.381  28.353  1.00  0.00    -0.206 F 
ATOM     94  C   UNL A   1      51.483  26.044  26.581  1.00  0.00     0.059 A 
ATOM     95  C   UNL A   1      50.862  26.705  24.328  1.00  0.00     0.059 A 
ATOM     96  F   UNL A   1      48.781  27.713  23.944  1.00  0.00    -0.206 F 
ATOM     97  C   UNL A   1      51.779  26.152  25.221  1.00  0.00     0.060 A 
BRANCH  97  98
ATOM     98  S   UNL A   1      53.370  25.537  24.630  1.00  0.00     0.124 S 
ATOM     99  O   UNL A   1      54.302  26.425  25.318  1.00  0.00    -0.237 OA
ATOM    100  O   UNL A   1      53.359  24.151  25.089  1.00  0.00    -0.237 OA
ATOM    101  O   UNL A   1      53.288  25.713  23.183  1.00  0.00    -0.744 OA
ENDBRANCH  97  98
ENDBRANCH  65  90
ENDBRANCH  39  40
ENDBRANCH  31  34
ENDBRANCH  29  30
ENDBRANCH  28  29
ENDBRANCH  27  28
ENDBRANCH   1  27
TORSDOF 21
ENDMDL
MODEL 3
REMARK VINA RESULT:     -10.7      1.139      2.272
REMARK SMILES [NH3+][C@@H]1C=C[C@H](C(=O)N(CC(=O)NCCCCCCNC(=O)c2ccc(-c3c4nc(c(-c5c(F)cc(S(=O)(=O)[O-])cc5F)c5ccc([nH]5)c(-c5c(F)cc(S(=O)(=O)[O-])cc5F)c5nc(c(-c6c(F)cc(S(=O)(=O)[O-])cc6F)c6ccc3[nH]6)C=C5)C=C4)cc2)c2ccccc2)C1
REMARK SMILES IDX 15 1 14 2 13 3 12 4 10 5 11 6 9 8 8 9 6 10 7 11 5 12 2 13
REMARK SMILES IDX 3 14 94 15 4 16 1 17 88 21 89 22 93 23 90 24 92 25 91 26
REMARK SMILES IDX 16 27 17 28 18 29 19 30 20 31 21 33 22 34 23 35 87 36 24 37
REMARK SMILES IDX 86 38 25 39 26 40 27 41 80 42 28 43 85 44 79 45 81 46 29 47
REMARK SMILES IDX 84 48 78 49 77 50 30 52 64 53 43 54 63 55 44 56 47 57 62 58
REMARK SMILES IDX 82 59 45 60 46 61 61 63 83 64 48 65 31 66 32 67 41 68 33 69
REMARK SMILES IDX 34 70 40 71 42 72 35 73 36 74 37 75 38 76 39 77 65 78 66 79
REMARK SMILES IDX 75 80 67 81 68 82 74 83 76 84 69 85 70 86 71 87 72 88 73 89
REMARK SMILES IDX 49 90 50 91 59 92 51 93 52 94 58 95 60 96 53 97 54 98 55 99
REMARK SMILES IDX 56 100 57 101
REMARK H PARENT 12 7 1 18 1 19 1 20 19 32 81 51 47 62
REMARK Flexibility Score: inf
ROOT
ATOM      1  C   UNL A   1      33.973  30.618  27.281  1.00  0.00     0.002 C 
ENDROOT
BRANCH   1   2
ATOM      2  C   UNL A   1      32.485  30.419  26.983  1.00  0.00     0.021 C 
BRANCH   2   3
ATOM      3  C   UNL A   1      32.163  29.121  26.260  1.00  0.00     0.116 C 
BRANCH   3   4
ATOM      4  N   UNL A   1      33.001  28.819  25.122  1.00  0.00    -0.355 N 
ATOM      5  C   UNL A   1      33.614  27.642  24.801  1.00  0.00     0.240 C 
ATOM      6  O   UNL A   1      33.899  27.464  23.610  1.00  0.00    -0.273 OA
ATOM      7  H   UNL A   1      33.150  29.562  24.493  1.00  0.00     0.163 HD
BRANCH   5   8
ATOM      8  C   UNL A   1      33.887  26.520  25.826  1.00  0.00     0.225 C 
BRANCH   8   9
ATOM      9  N   UNL A   1      33.587  25.124  25.479  1.00  0.00    -0.303 N 
BRANCH   9  10
ATOM     10  C   UNL A   1      32.339  24.496  25.615  1.00  0.00     0.234 C 
ATOM     11  O   UNL A   1      31.340  24.986  25.062  1.00  0.00    -0.274 OA
BRANCH  10  12
ATOM     12  C   UNL A   1      32.113  23.234  26.522  1.00  0.00     0.108 C 
ATOM     13  C   UNL A   1      33.663  21.329  27.069  1.00  0.00     0.205 C 
ATOM     14  C   UNL A   1      32.836  21.050  25.874  1.00  0.00     0.033 C 
ATOM     15  C   UNL A   1      33.138  22.697  27.547  1.00  0.00     0.087 C 
ATOM     16  C   UNL A   1      31.968  22.031  25.614  1.00  0.00    -0.012 C 
BRANCH  13  17
ATOM     17  N   UNL A   1      35.076  21.368  26.737  1.00  0.00    -0.352 N 
ATOM     18  H   UNL A   1      35.348  20.486  26.303  1.00  0.00     0.345 HD
ATOM     19  H   UNL A   1      35.620  21.510  27.588  1.00  0.00     0.345 HD
ATOM     20  H   UNL A   1      35.252  22.135  26.088  1.00  0.00     0.345 HD
ENDBRANCH  13  17
ENDBRANCH  10  12
ENDBRANCH   9  10
BRANCH   9  21
ATOM     21  C   UNL A   1      34.693  24.389  24.891  1.00  0.00     0.044 A 
ATOM     22  C   UNL A   1      34.551  23.660  23.699  1.00  0.00     0.026 A 
ATOM     23  C   UNL A   1      35.941  24.339  25.531  1.00  0.00     0.026 A 
ATOM     24  C   UNL A   1      35.615  22.935  23.153  1.00  0.00     0.002 A 
ATOM     25  C   UNL A   1      37.001  23.592  24.999  1.00  0.00     0.002 A 
ATOM     26  C   UNL A   1      36.839  22.895  23.807  1.00  0.00     0.000 A 
ENDBRANCH   9  21
ENDBRANCH   8   9
ENDBRANCH   5   8
ENDBRANCH   3   4
ENDBRANCH   2   3
ENDBRANCH   1   2
BRANCH   1  27
ATOM     27  C   UNL A   1      34.327  31.873  28.091  1.00  0.00     0.002 C 
BRANCH  27  28
ATOM     28  C   UNL A   1      35.753  32.402  27.912  1.00  0.00     0.021 C 
BRANCH  28  29
ATOM     29  C   UNL A   1      36.446  32.845  29.197  1.00  0.00     0.116 C 
BRANCH  29  30
ATOM     30  N   UNL A   1      36.030  32.052  30.345  1.00  0.00    -0.352 N 
ATOM     31  C   UNL A   1      36.574  30.914  30.879  1.00  0.00     0.251 C 
ATOM     32  H   UNL A   1      35.232  32.388  30.814  1.00  0.00     0.163 HD
ATOM     33  O   UNL A   1      35.947  30.289  31.737  1.00  0.00    -0.269 OA
BRANCH  31  34
ATOM     34  C   UNL A   1      37.894  30.423  30.427  1.00  0.00     0.039 A 
ATOM     35  C   UNL A   1      38.029  29.961  29.114  1.00  0.00     0.014 A 
ATOM     36  C   UNL A   1      38.988  30.385  31.296  1.00  0.00     0.014 A 
ATOM     37  C   UNL A   1      39.273  29.517  28.658  1.00  0.00     0.010 A 
ATOM     38  C   UNL A   1      40.243  30.017  30.818  1.00  0.00     0.010 A 
ATOM     39  C   UNL A   1      40.398  29.572  29.497  1.00  0.00    -0.014 A 
BRANCH  39  40
ATOM     40  C   UNL A   1      41.742  29.166  29.010  1.00  0.00     0.031 A 
ATOM     41  C   UNL A   1      42.849  30.181  28.910  1.00  0.00     0.074 A 
ATOM     42  C   UNL A   1      41.948  27.897  28.604  1.00  0.00     0.049 A 
ATOM     43  N   UNL A   1      44.066  30.034  28.451  1.00  0.00    -0.248 NA
ATOM     44  C   UNL A   1      42.541  31.549  29.358  1.00  0.00     0.031 C 
ATOM     45  C   UNL A   1      40.940  26.833  28.610  1.00  0.00     0.029 A 
ATOM     46  N   UNL A   1      43.068  27.287  28.099  1.00  0.00    -0.354 N 
ATOM     47  C   UNL A   1      44.661  31.287  28.542  1.00  0.00     0.074 A 
ATOM     48  C   UNL A   1      43.656  32.195  29.049  1.00  0.00     0.031 C 
ATOM     49  C   UNL A   1      41.495  25.698  28.155  1.00  0.00     0.029 A 
ATOM     50  C   UNL A   1      42.882  25.960  27.786  1.00  0.00     0.049 A 
ATOM     51  H   UNL A   1      43.925  27.754  27.972  1.00  0.00     0.167 HD
ATOM     52  C   UNL A   1      45.935  31.643  28.254  1.00  0.00     0.037 A 
ATOM     53  C   UNL A   1      43.730  25.059  27.254  1.00  0.00     0.037 A 
ATOM     54  C   UNL A   1      46.937  30.727  27.771  1.00  0.00     0.049 A 
ATOM     55  C   UNL A   1      45.140  25.479  26.936  1.00  0.00     0.074 A 
ATOM     56  C   UNL A   1      48.271  30.975  27.502  1.00  0.00     0.029 A 
ATOM     57  N   UNL A   1      46.713  29.388  27.482  1.00  0.00    -0.354 N 
ATOM     58  N   UNL A   1      45.704  26.654  27.089  1.00  0.00    -0.248 NA
ATOM     59  C   UNL A   1      46.031  24.453  26.379  1.00  0.00     0.031 C 
ATOM     60  C   UNL A   1      48.843  29.799  27.005  1.00  0.00     0.029 A 
ATOM     61  C   UNL A   1      47.880  28.803  27.017  1.00  0.00     0.049 A 
ATOM     62  H   UNL A   1      45.853  28.922  27.591  1.00  0.00     0.167 HD
ATOM     63  C   UNL A   1      47.023  26.500  26.676  1.00  0.00     0.074 A 
ATOM     64  C   UNL A   1      47.175  25.115  26.278  1.00  0.00     0.031 C 
ATOM     65  C   UNL A   1      48.019  27.421  26.631  1.00  0.00     0.037 A 
BRANCH  52  66
ATOM     66  C   UNL A   1      46.323  33.084  28.455  1.00  0.00     0.058 A 
ATOM     67  C   UNL A   1      46.196  34.032  27.426  1.00  0.00     0.135 A 
ATOM     68  C   UNL A   1      46.786  33.532  29.702  1.00  0.00     0.135 A 
ATOM     69  F   UNL A   1      45.773  33.658  26.209  1.00  0.00    -0.206 F 
ATOM     70  C   UNL A   1      46.544  35.365  27.619  1.00  0.00     0.059 A 
ATOM     71  C   UNL A   1      47.110  34.868  29.927  1.00  0.00     0.059 A 
ATOM     72  F   UNL A   1      46.926  32.670  30.722  1.00  0.00    -0.206 F 
ATOM     73  C   UNL A   1      46.998  35.774  28.873  1.00  0.00     0.060 A 
BRANCH  73  74
ATOM     74  S   UNL A   1      47.432  37.511  29.107  1.00  0.00     0.124 S 
ATOM     75  O   UNL A   1      47.636  37.948  27.730  1.00  0.00    -0.237 OA
ATOM     76  O   UNL A   1      46.246  38.042  29.771  1.00  0.00    -0.237 OA
ATOM     77  O   UNL A   1      48.636  37.453  29.931  1.00  0.00    -0.744 OA
ENDBRANCH  73  74
ENDBRANCH  52  66
BRANCH  53  78
ATOM     78  C   UNL A   1      43.276  23.663  27.010  1.00  0.00     0.058 A 
ATOM     79  C   UNL A   1      42.927  23.232  25.721  1.00  0.00     0.135 A 
ATOM     80  C   UNL A   1      43.195  22.730  28.055  1.00  0.00     0.135 A 
ATOM     81  F   UNL A   1      42.982  24.089  24.691  1.00  0.00    -0.206 F 
ATOM     82  C   UNL A   1      42.497  21.931  25.478  1.00  0.00     0.059 A 
ATOM     83  C   UNL A   1      42.794  21.416  27.832  1.00  0.00     0.059 A 
ATOM     84  F   UNL A   1      43.535  23.084  29.304  1.00  0.00    -0.206 F 
ATOM     85  C   UNL A   1      42.436  21.029  26.541  1.00  0.00     0.060 A 
BRANCH  85  86
ATOM     86  S   UNL A   1      41.922  19.330  26.207  1.00  0.00     0.124 S 
ATOM     87  O   UNL A   1      40.497  19.500  25.947  1.00  0.00    -0.237 OA
ATOM     88  O   UNL A   1      42.746  18.982  25.055  1.00  0.00    -0.237 OA
ATOM     89  O   UNL A   1      42.259  18.628  27.443  1.00  0.00    -0.744 OA
ENDBRANCH  85  86
ENDBRANCH  53  78
BRANCH  65  90
ATOM     90  C   UNL A   1      49.373  26.955  26.172  1.00  0.00     0.058 A 
ATOM     91  C   UNL A   1      49.794  27.102  24.842  1.00  0.00     0.135 A 
ATOM     92  C   UNL A   1      50.281  26.401  27.090  1.00  0.00     0.135 A 
ATOM     93  F   UNL A   1      48.964  27.619  23.923  1.00  0.00    -0.206 F 
ATOM     94  C   UNL A   1      51.060  26.695  24.431  1.00  0.00     0.059 A 
ATOM     95  C   UNL A   1      51.561  26.015  26.708  1.00  0.00     0.059 A 
ATOM     96  F   UNL A   1      49.933  26.248  28.377  1.00  0.00    -0.206 F 
ATOM     97  C   UNL A   1      51.937  26.154  25.372  1.00  0.00     0.060 A 
BRANCH  97  98
ATOM     98  S   UNL A   1      53.588  25.661  24.833  1.00  0.00     0.124 S 
ATOM     99  O   UNL A   1      54.429  26.605  25.561  1.00  0.00    -0.237 OA
ATOM    100  O   UNL A   1      53.660  24.272  25.279  1.00  0.00    -0.237 OA
ATOM    101  O   UNL A   1      53.544  25.846  23.386  1.00  0.00    -0.744 OA
ENDBRANCH  97  98
ENDBRANCH  65  90
ENDBRANCH  39  40
ENDBRANCH  31  34
ENDBRANCH  29  30
ENDBRANCH  28  29
ENDBRANCH  27  28
ENDBRANCH   1  27
TORSDOF 21
ENDMDL
