MODEL 1
REMARK VINA RESULT:      -9.6      0.000      0.000
REMARK SMILES CC(C)N(CC1CC1)C(=O)NC1(CC(=O)NCCCCCCNC(=O)c2ccc(-c3c4nc(c(-c5c(F)cc(S(=O)(=O)[O-])cc5F)c5ccc([nH]5)c(-c5c(F)cc(S(=O)(=O)[O-])cc5F)c5nc(c(-c6c(F)cc(S(=O)(=O)[O-])cc6F)c6ccc3[nH]6)C=C5)C=C4)cc2)CCC1
REMARK SMILES IDX 18 1 17 2 16 3 14 4 15 5 13 7 12 8 92 9 94 10 93 11 11 12
REMARK SMILES IDX 9 13 10 14 4 16 2 17 1 18 3 19 5 20 6 21 7 22 8 23 19 24
REMARK SMILES IDX 20 25 21 26 22 27 23 28 24 29 25 31 26 32 27 33 91 34 28 35
REMARK SMILES IDX 90 36 29 37 30 38 31 39 84 40 32 41 89 42 83 43 85 44 33 45
REMARK SMILES IDX 88 46 82 47 81 48 34 50 68 51 47 52 67 53 48 54 51 55 66 56
REMARK SMILES IDX 86 57 49 58 50 59 65 61 87 62 52 63 35 64 36 65 45 66 37 67
REMARK SMILES IDX 38 68 44 69 46 70 39 71 40 72 41 73 42 74 43 75 69 76 70 77
REMARK SMILES IDX 79 78 71 79 72 80 78 81 80 82 73 83 74 84 75 85 76 86 77 87
REMARK SMILES IDX 53 88 54 89 63 90 55 91 56 92 62 93 64 94 57 95 58 96 59 97
REMARK SMILES IDX 60 98 61 99
REMARK H PARENT 16 6 11 15 23 30 85 49 51 60
REMARK Flexibility Score: inf
ROOT
ATOM      1  C   UNL A   1      38.799  22.044  26.390  1.00  0.00     0.021 C 
ENDROOT
BRANCH   1   2
ATOM      2  C   UNL A   1      37.828  21.492  25.352  1.00  0.00     0.116 C 
BRANCH   2   3
ATOM      3  N   UNL A   1      37.613  22.494  24.349  1.00  0.00    -0.356 N 
ATOM      4  C   UNL A   1      36.417  22.860  23.830  1.00  0.00     0.222 C 
ATOM      5  O   UNL A   1      36.433  23.326  22.694  1.00  0.00    -0.275 OA
ATOM      6  H   UNL A   1      38.411  22.960  24.005  1.00  0.00     0.163 HD
BRANCH   4   7
ATOM      7  C   UNL A   1      35.186  22.788  24.700  1.00  0.00     0.128 C 
BRANCH   7   8
ATOM      8  C   UNL A   1      33.818  22.999  24.056  1.00  0.00     0.051 C 
ATOM      9  C   UNL A   1      32.573  23.026  25.032  1.00  0.00     0.029 C 
ATOM     10  C   UNL A   1      33.163  21.644  23.554  1.00  0.00     0.029 C 
ATOM     11  C   UNL A   1      32.508  21.497  24.937  1.00  0.00     0.005 C 
BRANCH   8  12
ATOM     12  N   UNL A   1      33.722  24.049  23.013  1.00  0.00    -0.332 N 
ATOM     13  C   UNL A   1      33.330  25.332  22.847  1.00  0.00     0.318 C 
ATOM     14  O   UNL A   1      33.661  25.800  21.748  1.00  0.00    -0.249 OA
ATOM     15  H   UNL A   1      34.051  23.693  22.156  1.00  0.00     0.165 HD
BRANCH  13  16
ATOM     16  N   UNL A   1      32.651  26.090  23.755  1.00  0.00    -0.322 N 
BRANCH  16  17
ATOM     17  C   UNL A   1      33.444  26.837  24.767  1.00  0.00     0.080 C 
ATOM     18  C   UNL A   1      33.979  28.217  24.350  1.00  0.00     0.031 C 
ATOM     19  C   UNL A   1      32.710  26.913  26.103  1.00  0.00     0.031 C 
ENDBRANCH  16  17
BRANCH  16  20
ATOM     20  C   UNL A   1      31.210  26.323  23.890  1.00  0.00     0.125 C 
BRANCH  20  21
ATOM     21  C   UNL A   1      30.549  27.197  22.871  1.00  0.00     0.009 C 
ATOM     22  C   UNL A   1      29.947  28.496  23.374  1.00  0.00     0.006 C 
ATOM     23  C   UNL A   1      31.112  28.530  22.437  1.00  0.00     0.006 C 
ENDBRANCH  20  21
ENDBRANCH  16  20
ENDBRANCH  13  16
ENDBRANCH   8  12
ENDBRANCH   7   8
ENDBRANCH   4   7
ENDBRANCH   2   3
ENDBRANCH   1   2
BRANCH   1  24
ATOM     24  C   UNL A   1      40.209  22.301  25.856  1.00  0.00     0.002 C 
BRANCH  24  25
ATOM     25  C   UNL A   1      41.311  21.526  26.575  1.00  0.00     0.002 C 
BRANCH  25  26
ATOM     26  C   UNL A   1      41.417  20.055  26.169  1.00  0.00     0.021 C 
BRANCH  26  27
ATOM     27  C   UNL A   1      42.708  19.392  26.614  1.00  0.00     0.116 C 
BRANCH  27  28
ATOM     28  N   UNL A   1      43.461  18.918  25.470  1.00  0.00    -0.352 N 
ATOM     29  C   UNL A   1      44.140  19.678  24.552  1.00  0.00     0.251 C 
ATOM     30  H   UNL A   1      43.490  17.943  25.339  1.00  0.00     0.163 HD
ATOM     31  O   UNL A   1      44.459  19.214  23.468  1.00  0.00    -0.269 OA
BRANCH  29  32
ATOM     32  C   UNL A   1      44.459  21.074  24.911  1.00  0.00     0.039 A 
ATOM     33  C   UNL A   1      44.034  22.106  24.077  1.00  0.00     0.014 A 
ATOM     34  C   UNL A   1      45.142  21.349  26.103  1.00  0.00     0.014 A 
ATOM     35  C   UNL A   1      44.277  23.426  24.453  1.00  0.00     0.010 A 
ATOM     36  C   UNL A   1      45.296  22.664  26.518  1.00  0.00     0.010 A 
ATOM     37  C   UNL A   1      44.891  23.715  25.684  1.00  0.00    -0.014 A 
BRANCH  37  38
ATOM     38  C   UNL A   1      45.158  25.113  26.098  1.00  0.00     0.031 A 
ATOM     39  C   UNL A   1      46.552  25.668  25.989  1.00  0.00     0.074 A 
ATOM     40  C   UNL A   1      44.161  25.859  26.609  1.00  0.00     0.049 A 
ATOM     41  N   UNL A   1      46.999  26.849  26.329  1.00  0.00    -0.248 NA
ATOM     42  C   UNL A   1      47.588  24.766  25.457  1.00  0.00     0.031 C 
ATOM     43  C   UNL A   1      42.781  25.408  26.805  1.00  0.00     0.029 A 
ATOM     44  N   UNL A   1      44.153  27.154  27.058  1.00  0.00    -0.354 N 
ATOM     45  C   UNL A   1      48.363  26.827  26.062  1.00  0.00     0.074 A 
ATOM     46  C   UNL A   1      48.683  25.495  25.599  1.00  0.00     0.031 C 
ATOM     47  C   UNL A   1      42.055  26.420  27.304  1.00  0.00     0.029 A 
ATOM     48  C   UNL A   1      42.923  27.577  27.500  1.00  0.00     0.049 A 
ATOM     49  H   UNL A   1      44.954  27.727  27.063  1.00  0.00     0.167 HD
ATOM     50  C   UNL A   1      49.262  27.835  26.165  1.00  0.00     0.037 A 
ATOM     51  C   UNL A   1      42.540  28.764  28.010  1.00  0.00     0.037 A 
ATOM     52  C   UNL A   1      48.924  29.161  26.610  1.00  0.00     0.049 A 
ATOM     53  C   UNL A   1      43.557  29.866  28.128  1.00  0.00     0.074 A 
ATOM     54  C   UNL A   1      49.743  30.271  26.702  1.00  0.00     0.029 A 
ATOM     55  N   UNL A   1      47.666  29.554  27.045  1.00  0.00    -0.354 N 
ATOM     56  N   UNL A   1      44.829  29.851  27.808  1.00  0.00    -0.248 NA
ATOM     57  C   UNL A   1      43.087  31.148  28.669  1.00  0.00     0.031 C 
ATOM     58  C   UNL A   1      48.994  31.320  27.245  1.00  0.00     0.029 A 
ATOM     59  C   UNL A   1      47.692  30.883  27.433  1.00  0.00     0.049 A 
ATOM     60  H   UNL A   1      46.872  28.972  27.074  1.00  0.00     0.167 HD
ATOM     61  C   UNL A   1      45.306  31.129  28.082  1.00  0.00     0.074 A 
ATOM     62  C   UNL A   1      44.181  31.892  28.583  1.00  0.00     0.031 C 
ATOM     63  C   UNL A   1      46.560  31.626  27.930  1.00  0.00     0.037 A 
BRANCH  50  64
ATOM     64  C   UNL A   1      50.689  27.533  25.795  1.00  0.00     0.058 A 
ATOM     65  C   UNL A   1      51.172  27.721  24.489  1.00  0.00     0.135 A 
ATOM     66  C   UNL A   1      51.591  27.057  26.761  1.00  0.00     0.135 A 
ATOM     67  F   UNL A   1      50.352  28.158  23.521  1.00  0.00    -0.206 F 
ATOM     68  C   UNL A   1      52.484  27.409  24.145  1.00  0.00     0.059 A 
ATOM     69  C   UNL A   1      52.917  26.770  26.446  1.00  0.00     0.059 A 
ATOM     70  F   UNL A   1      51.186  26.858  28.026  1.00  0.00    -0.206 F 
ATOM     71  C   UNL A   1      53.348  26.931  25.131  1.00  0.00     0.060 A 
BRANCH  71  72
ATOM     72  S   UNL A   1      55.041  26.517  24.664  1.00  0.00     0.124 S 
ATOM     73  O   UNL A   1      55.106  25.104  25.026  1.00  0.00    -0.237 OA
ATOM     74  O   UNL A   1      55.050  26.806  23.234  1.00  0.00    -0.237 OA
ATOM     75  O   UNL A   1      55.850  27.413  25.487  1.00  0.00    -0.744 OA
ENDBRANCH  71  72
ENDBRANCH  50  64
BRANCH  51  76
ATOM     76  C   UNL A   1      41.124  28.973  28.414  1.00  0.00     0.058 A 
ATOM     77  C   UNL A   1      40.751  28.962  29.766  1.00  0.00     0.135 A 
ATOM     78  C   UNL A   1      40.124  29.223  27.462  1.00  0.00     0.135 A 
ATOM     79  F   UNL A   1      41.670  28.723  30.714  1.00  0.00    -0.206 F 
ATOM     80  C   UNL A   1      39.435  29.181  30.161  1.00  0.00     0.059 A 
ATOM     81  C   UNL A   1      38.806  29.471  27.833  1.00  0.00     0.059 A 
ATOM     82  F   UNL A   1      40.433  29.262  26.156  1.00  0.00    -0.206 F 
ATOM     83  C   UNL A   1      38.470  29.442  29.185  1.00  0.00     0.060 A 
BRANCH  83  84
ATOM     84  S   UNL A   1      36.778  29.789  29.713  1.00  0.00     0.124 S 
ATOM     85  O   UNL A   1      36.691  29.018  30.948  1.00  0.00    -0.237 OA
ATOM     86  O   UNL A   1      36.798  31.240  29.865  1.00  0.00    -0.237 OA
ATOM     87  O   UNL A   1      35.973  29.293  28.601  1.00  0.00    -0.744 OA
ENDBRANCH  83  84
ENDBRANCH  51  76
BRANCH  63  88
ATOM     88  C   UNL A   1      46.777  33.073  28.279  1.00  0.00     0.058 A 
ATOM     89  C   UNL A   1      46.584  34.099  27.340  1.00  0.00     0.135 A 
ATOM     90  C   UNL A   1      47.127  33.441  29.589  1.00  0.00     0.135 A 
ATOM     91  F   UNL A   1      46.255  33.802  26.073  1.00  0.00    -0.206 F 
ATOM     92  C   UNL A   1      46.755  35.436  27.681  1.00  0.00     0.059 A 
ATOM     93  C   UNL A   1      47.272  34.773  29.960  1.00  0.00     0.059 A 
ATOM     94  F   UNL A   1      47.312  32.500  30.529  1.00  0.00    -0.206 F 
ATOM     95  C   UNL A   1      47.096  35.763  28.995  1.00  0.00     0.060 A 
BRANCH  95  96
ATOM     96  S   UNL A   1      47.280  37.505  29.431  1.00  0.00     0.124 S 
ATOM     97  O   UNL A   1      47.196  38.146  28.124  1.00  0.00    -0.237 OA
ATOM     98  O   UNL A   1      46.143  37.726  30.320  1.00  0.00    -0.237 OA
ATOM     99  O   UNL A   1      48.590  37.559  30.074  1.00  0.00    -0.744 OA
ENDBRANCH  95  96
ENDBRANCH  63  88
ENDBRANCH  37  38
ENDBRANCH  29  32
ENDBRANCH  27  28
ENDBRANCH  26  27
ENDBRANCH  25  26
ENDBRANCH  24  25
ENDBRANCH   1  24
TORSDOF 22
ENDMDL
MODEL 2
REMARK VINA RESULT:      -9.5      2.413      9.304
REMARK SMILES CC(C)N(CC1CC1)C(=O)NC1(CC(=O)NCCCCCCNC(=O)c2ccc(-c3c4nc(c(-c5c(F)cc(S(=O)(=O)[O-])cc5F)c5ccc([nH]5)c(-c5c(F)cc(S(=O)(=O)[O-])cc5F)c5nc(c(-c6c(F)cc(S(=O)(=O)[O-])cc6F)c6ccc3[nH]6)C=C5)C=C4)cc2)CCC1
REMARK SMILES IDX 18 1 17 2 16 3 14 4 15 5 13 7 12 8 92 9 94 10 93 11 11 12
REMARK SMILES IDX 9 13 10 14 4 16 2 17 1 18 3 19 5 20 6 21 7 22 8 23 19 24
REMARK SMILES IDX 20 25 21 26 22 27 23 28 24 29 25 31 26 32 27 33 91 34 28 35
REMARK SMILES IDX 90 36 29 37 30 38 31 39 84 40 32 41 89 42 83 43 85 44 33 45
REMARK SMILES IDX 88 46 82 47 81 48 34 50 68 51 47 52 67 53 48 54 51 55 66 56
REMARK SMILES IDX 86 57 49 58 50 59 65 61 87 62 52 63 35 64 36 65 45 66 37 67
REMARK SMILES IDX 38 68 44 69 46 70 39 71 40 72 41 73 42 74 43 75 69 76 70 77
REMARK SMILES IDX 79 78 71 79 72 80 78 81 80 82 73 83 74 84 75 85 76 86 77 87
REMARK SMILES IDX 53 88 54 89 63 90 55 91 56 92 62 93 64 94 57 95 58 96 59 97
REMARK SMILES IDX 60 98 61 99
REMARK H PARENT 16 6 11 15 23 30 85 49 51 60
REMARK Flexibility Score: inf
ROOT
ATOM      1  C   UNL A   1      31.442  30.512  25.760  1.00  0.00     0.021 C 
ENDROOT
BRANCH   1   2
ATOM      2  C   UNL A   1      31.109  29.478  24.691  1.00  0.00     0.116 C 
BRANCH   2   3
ATOM      3  N   UNL A   1      32.257  29.306  23.848  1.00  0.00    -0.356 N 
ATOM      4  C   UNL A   1      33.179  28.319  23.947  1.00  0.00     0.222 C 
ATOM      5  O   UNL A   1      34.302  28.574  23.524  1.00  0.00    -0.275 OA
ATOM      6  H   UNL A   1      32.387  29.968  23.130  1.00  0.00     0.163 HD
BRANCH   4   7
ATOM      7  C   UNL A   1      32.750  26.961  24.449  1.00  0.00     0.128 C 
BRANCH   7   8
ATOM      8  C   UNL A   1      32.193  25.951  23.450  1.00  0.00     0.051 C 
ATOM      9  C   UNL A   1      31.170  26.505  22.378  1.00  0.00     0.029 C 
ATOM     10  C   UNL A   1      30.917  25.185  24.001  1.00  0.00     0.029 C 
ATOM     11  C   UNL A   1      30.042  26.292  23.394  1.00  0.00     0.005 C 
BRANCH   8  12
ATOM     12  N   UNL A   1      33.159  25.000  22.847  1.00  0.00    -0.332 N 
ATOM     13  C   UNL A   1      34.005  24.003  23.190  1.00  0.00     0.318 C 
ATOM     14  O   UNL A   1      34.454  23.393  22.209  1.00  0.00    -0.249 OA
ATOM     15  H   UNL A   1      33.197  25.143  21.873  1.00  0.00     0.165 HD
BRANCH  13  16
ATOM     16  N   UNL A   1      34.362  23.651  24.457  1.00  0.00    -0.322 N 
BRANCH  16  17
ATOM     17  C   UNL A   1      33.557  22.601  25.137  1.00  0.00     0.080 C 
ATOM     18  C   UNL A   1      33.759  21.153  24.658  1.00  0.00     0.031 C 
ATOM     19  C   UNL A   1      33.683  22.699  26.655  1.00  0.00     0.031 C 
ENDBRANCH  16  17
BRANCH  16  20
ATOM     20  C   UNL A   1      35.468  24.134  25.289  1.00  0.00     0.125 C 
BRANCH  20  21
ATOM     21  C   UNL A   1      36.848  23.667  24.950  1.00  0.00     0.009 C 
ATOM     22  C   UNL A   1      37.336  22.413  25.653  1.00  0.00     0.006 C 
ATOM     23  C   UNL A   1      37.123  22.401  24.173  1.00  0.00     0.006 C 
ENDBRANCH  20  21
ENDBRANCH  16  20
ENDBRANCH  13  16
ENDBRANCH   8  12
ENDBRANCH   7   8
ENDBRANCH   4   7
ENDBRANCH   2   3
ENDBRANCH   1   2
BRANCH   1  24
ATOM     24  C   UNL A   1      32.343  29.988  26.880  1.00  0.00     0.002 C 
BRANCH  24  25
ATOM     25  C   UNL A   1      33.661  30.743  27.039  1.00  0.00     0.002 C 
BRANCH  25  26
ATOM     26  C   UNL A   1      34.780  29.930  27.693  1.00  0.00     0.021 C 
BRANCH  26  27
ATOM     27  C   UNL A   1      35.831  30.783  28.380  1.00  0.00     0.116 C 
BRANCH  27  28
ATOM     28  N   UNL A   1      35.704  30.692  29.820  1.00  0.00    -0.352 N 
ATOM     29  C   UNL A   1      36.594  30.125  30.697  1.00  0.00     0.251 C 
ATOM     30  H   UNL A   1      34.889  31.079  30.213  1.00  0.00     0.163 HD
ATOM     31  O   UNL A   1      36.250  29.815  31.827  1.00  0.00    -0.269 OA
BRANCH  29  32
ATOM     32  C   UNL A   1      37.974  29.894  30.226  1.00  0.00     0.039 A 
ATOM     33  C   UNL A   1      38.954  29.525  31.146  1.00  0.00     0.014 A 
ATOM     34  C   UNL A   1      38.274  30.002  28.862  1.00  0.00     0.014 A 
ATOM     35  C   UNL A   1      40.240  29.241  30.689  1.00  0.00     0.010 A 
ATOM     36  C   UNL A   1      39.527  29.626  28.403  1.00  0.00     0.010 A 
ATOM     37  C   UNL A   1      40.531  29.270  29.315  1.00  0.00    -0.014 A 
BRANCH  37  38
ATOM     38  C   UNL A   1      41.893  28.972  28.812  1.00  0.00     0.031 A 
ATOM     39  C   UNL A   1      42.222  27.585  28.333  1.00  0.00     0.074 A 
ATOM     40  C   UNL A   1      42.836  29.933  28.830  1.00  0.00     0.049 A 
ATOM     41  N   UNL A   1      43.358  27.112  27.890  1.00  0.00    -0.248 NA
ATOM     42  C   UNL A   1      41.140  26.587  28.388  1.00  0.00     0.031 C 
ATOM     43  C   UNL A   1      42.642  31.300  29.319  1.00  0.00     0.029 A 
ATOM     44  N   UNL A   1      44.147  29.907  28.430  1.00  0.00    -0.354 N 
ATOM     45  C   UNL A   1      43.130  25.767  27.625  1.00  0.00     0.074 A 
ATOM     46  C   UNL A   1      41.769  25.482  28.022  1.00  0.00     0.031 C 
ATOM     47  C   UNL A   1      43.782  31.990  29.158  1.00  0.00     0.029 A 
ATOM     48  C   UNL A   1      44.797  31.106  28.594  1.00  0.00     0.049 A 
ATOM     49  H   UNL A   1      44.581  29.105  28.059  1.00  0.00     0.167 HD
ATOM     50  C   UNL A   1      43.969  24.859  27.073  1.00  0.00     0.037 A 
ATOM     51  C   UNL A   1      46.071  31.452  28.324  1.00  0.00     0.037 A 
ATOM     52  C   UNL A   1      45.315  25.163  26.666  1.00  0.00     0.049 A 
ATOM     53  C   UNL A   1      46.990  30.424  27.722  1.00  0.00     0.074 A 
ATOM     54  C   UNL A   1      46.234  24.334  26.047  1.00  0.00     0.029 A 
ATOM     55  N   UNL A   1      45.938  26.390  26.843  1.00  0.00    -0.354 N 
ATOM     56  N   UNL A   1      46.740  29.174  27.413  1.00  0.00    -0.248 NA
ATOM     57  C   UNL A   1      48.362  30.854  27.424  1.00  0.00     0.031 C 
ATOM     58  C   UNL A   1      47.430  25.044  25.902  1.00  0.00     0.029 A 
ATOM     59  C   UNL A   1      47.239  26.334  26.372  1.00  0.00     0.049 A 
ATOM     60  H   UNL A   1      45.517  27.184  27.245  1.00  0.00     0.167 HD
ATOM     61  C   UNL A   1      47.914  28.675  26.860  1.00  0.00     0.074 A 
ATOM     62  C   UNL A   1      48.870  29.764  26.866  1.00  0.00     0.031 C 
ATOM     63  C   UNL A   1      48.177  27.431  26.386  1.00  0.00     0.037 A 
BRANCH  50  64
ATOM     64  C   UNL A   1      43.451  23.458  26.886  1.00  0.00     0.058 A 
ATOM     65  C   UNL A   1      43.078  22.967  25.623  1.00  0.00     0.135 A 
ATOM     66  C   UNL A   1      43.333  22.589  27.983  1.00  0.00     0.135 A 
ATOM     67  F   UNL A   1      43.154  23.757  24.541  1.00  0.00    -0.206 F 
ATOM     68  C   UNL A   1      42.568  21.683  25.462  1.00  0.00     0.059 A 
ATOM     69  C   UNL A   1      42.857  21.289  27.839  1.00  0.00     0.059 A 
ATOM     70  F   UNL A   1      43.674  23.003  29.214  1.00  0.00    -0.206 F 
ATOM     71  C   UNL A   1      42.459  20.852  26.577  1.00  0.00     0.060 A 
BRANCH  71  72
ATOM     72  S   UNL A   1      41.783  19.194  26.352  1.00  0.00     0.124 S 
ATOM     73  O   UNL A   1      41.993  18.612  27.674  1.00  0.00    -0.237 OA
ATOM     74  O   UNL A   1      40.395  19.469  25.995  1.00  0.00    -0.237 OA
ATOM     75  O   UNL A   1      42.603  18.633  25.282  1.00  0.00    -0.744 OA
ENDBRANCH  71  72
ENDBRANCH  50  64
BRANCH  51  76
ATOM     76  C   UNL A   1      46.533  32.839  28.592  1.00  0.00     0.058 A 
ATOM     77  C   UNL A   1      46.461  33.828  27.601  1.00  0.00     0.135 A 
ATOM     78  C   UNL A   1      47.022  33.213  29.853  1.00  0.00     0.135 A 
ATOM     79  F   UNL A   1      46.004  33.520  26.377  1.00  0.00    -0.206 F 
ATOM     80  C   UNL A   1      46.865  35.137  27.844  1.00  0.00     0.059 A 
ATOM     81  C   UNL A   1      47.409  34.521  30.130  1.00  0.00     0.059 A 
ATOM     82  F   UNL A   1      47.095  32.308  30.842  1.00  0.00    -0.206 F 
ATOM     83  C   UNL A   1      47.332  35.475  29.116  1.00  0.00     0.060 A 
BRANCH  83  84
ATOM     84  S   UNL A   1      47.795  37.190  29.441  1.00  0.00     0.124 S 
ATOM     85  O   UNL A   1      48.588  37.509  28.259  1.00  0.00    -0.237 OA
ATOM     86  O   UNL A   1      46.493  37.844  29.532  1.00  0.00    -0.237 OA
ATOM     87  O   UNL A   1      48.535  37.106  30.695  1.00  0.00    -0.744 OA
ENDBRANCH  83  84
ENDBRANCH  51  76
BRANCH  63  88
ATOM     88  C   UNL A   1      49.542  27.186  25.805  1.00  0.00     0.058 A 
ATOM     89  C   UNL A   1      50.632  26.811  26.606  1.00  0.00     0.135 A 
ATOM     90  C   UNL A   1      49.747  27.273  24.418  1.00  0.00     0.135 A 
ATOM     91  F   UNL A   1      50.492  26.719  27.938  1.00  0.00    -0.206 F 
ATOM     92  C   UNL A   1      51.883  26.554  26.056  1.00  0.00     0.059 A 
ATOM     93  C   UNL A   1      50.981  26.990  23.843  1.00  0.00     0.059 A 
ATOM     94  F   UNL A   1      48.736  27.616  23.605  1.00  0.00    -0.206 F 
ATOM     95  C   UNL A   1      52.047  26.644  24.671  1.00  0.00     0.060 A 
BRANCH  95  96
ATOM     96  S   UNL A   1      53.667  26.273  23.969  1.00  0.00     0.124 S 
ATOM     97  O   UNL A   1      54.471  27.376  24.485  1.00  0.00    -0.237 OA
ATOM     98  O   UNL A   1      53.958  24.958  24.531  1.00  0.00    -0.237 OA
ATOM     99  O   UNL A   1      53.426  26.292  22.529  1.00  0.00    -0.744 OA
ENDBRANCH  95  96
ENDBRANCH  63  88
ENDBRANCH  37  38
ENDBRANCH  29  32
ENDBRANCH  27  28
ENDBRANCH  26  27
ENDBRANCH  25  26
ENDBRANCH  24  25
ENDBRANCH   1  24
TORSDOF 22
ENDMDL
MODEL 3
REMARK VINA RESULT:      -9.3      2.451      9.032
REMARK SMILES CC(C)N(CC1CC1)C(=O)NC1(CC(=O)NCCCCCCNC(=O)c2ccc(-c3c4nc(c(-c5c(F)cc(S(=O)(=O)[O-])cc5F)c5ccc([nH]5)c(-c5c(F)cc(S(=O)(=O)[O-])cc5F)c5nc(c(-c6c(F)cc(S(=O)(=O)[O-])cc6F)c6ccc3[nH]6)C=C5)C=C4)cc2)CCC1
REMARK SMILES IDX 18 1 17 2 16 3 14 4 15 5 13 7 12 8 92 9 94 10 93 11 11 12
REMARK SMILES IDX 9 13 10 14 4 16 2 17 1 18 3 19 5 20 6 21 7 22 8 23 19 24
REMARK SMILES IDX 20 25 21 26 22 27 23 28 24 29 25 31 26 32 27 33 91 34 28 35
REMARK SMILES IDX 90 36 29 37 30 38 31 39 84 40 32 41 89 42 83 43 85 44 33 45
REMARK SMILES IDX 88 46 82 47 81 48 34 50 68 51 47 52 67 53 48 54 51 55 66 56
REMARK SMILES IDX 86 57 49 58 50 59 65 61 87 62 52 63 35 64 36 65 45 66 37 67
REMARK SMILES IDX 38 68 44 69 46 70 39 71 40 72 41 73 42 74 43 75 69 76 70 77
REMARK SMILES IDX 79 78 71 79 72 80 78 81 80 82 73 83 74 84 75 85 76 86 77 87
REMARK SMILES IDX 53 88 54 89 63 90 55 91 56 92 62 93 64 94 57 95 58 96 59 97
REMARK SMILES IDX 60 98 61 99
REMARK H PARENT 16 6 11 15 23 30 85 49 51 60
REMARK Flexibility Score: inf
ROOT
ATOM      1  C   UNL A   1      32.017  28.517  27.598  1.00  0.00     0.021 C 
ENDROOT
BRANCH   1   2
ATOM      2  C   UNL A   1      31.321  27.597  26.601  1.00  0.00     0.116 C 
BRANCH   2   3
ATOM      3  N   UNL A   1      31.619  28.054  25.274  1.00  0.00    -0.356 N 
ATOM      4  C   UNL A   1      32.715  27.733  24.547  1.00  0.00     0.222 C 
ATOM      5  O   UNL A   1      33.067  28.547  23.698  1.00  0.00    -0.275 OA
ATOM      6  H   UNL A   1      30.964  28.658  24.852  1.00  0.00     0.163 HD
BRANCH   4   7
ATOM      7  C   UNL A   1      33.352  26.378  24.736  1.00  0.00     0.128 C 
BRANCH   7   8
ATOM      8  C   UNL A   1      33.071  25.284  23.710  1.00  0.00     0.051 C 
ATOM      9  C   UNL A   1      32.121  25.670  22.505  1.00  0.00     0.029 C 
ATOM     10  C   UNL A   1      31.858  24.350  24.127  1.00  0.00     0.029 C 
ATOM     11  C   UNL A   1      30.917  25.312  23.384  1.00  0.00     0.005 C 
BRANCH   8  12
ATOM     12  N   UNL A   1      34.228  24.474  23.258  1.00  0.00    -0.332 N 
ATOM     13  C   UNL A   1      34.780  23.250  23.415  1.00  0.00     0.318 C 
ATOM     14  O   UNL A   1      35.696  23.026  22.611  1.00  0.00    -0.249 OA
ATOM     15  H   UNL A   1      34.779  25.005  22.637  1.00  0.00     0.165 HD
BRANCH  13  16
ATOM     16  N   UNL A   1      34.409  22.312  24.333  1.00  0.00    -0.322 N 
BRANCH  16  17
ATOM     17  C   UNL A   1      35.168  22.255  25.610  1.00  0.00     0.080 C 
ATOM     18  C   UNL A   1      34.343  22.169  26.905  1.00  0.00     0.031 C 
ATOM     19  C   UNL A   1      36.242  21.170  25.571  1.00  0.00     0.031 C 
ENDBRANCH  16  17
BRANCH  16  20
ATOM     20  C   UNL A   1      33.326  21.326  24.281  1.00  0.00     0.125 C 
BRANCH  20  21
ATOM     21  C   UNL A   1      33.702  19.879  24.312  1.00  0.00     0.009 C 
ATOM     22  C   UNL A   1      32.976  19.006  25.319  1.00  0.00     0.006 C 
ATOM     23  C   UNL A   1      32.776  18.776  23.856  1.00  0.00     0.006 C 
ENDBRANCH  20  21
ENDBRANCH  16  20
ENDBRANCH  13  16
ENDBRANCH   8  12
ENDBRANCH   7   8
ENDBRANCH   4   7
ENDBRANCH   2   3
ENDBRANCH   1   2
BRANCH   1  24
ATOM     24  C   UNL A   1      32.116  29.974  27.144  1.00  0.00     0.002 C 
BRANCH  24  25
ATOM     25  C   UNL A   1      33.450  30.648  27.461  1.00  0.00     0.002 C 
BRANCH  25  26
ATOM     26  C   UNL A   1      34.680  29.803  27.125  1.00  0.00     0.021 C 
BRANCH  26  27
ATOM     27  C   UNL A   1      35.462  29.354  28.346  1.00  0.00     0.116 C 
BRANCH  27  28
ATOM     28  N   UNL A   1      35.394  30.351  29.394  1.00  0.00    -0.352 N 
ATOM     29  C   UNL A   1      36.396  30.718  30.256  1.00  0.00     0.251 C 
ATOM     30  H   UNL A   1      34.534  30.818  29.499  1.00  0.00     0.163 HD
ATOM     31  O   UNL A   1      36.145  31.318  31.290  1.00  0.00    -0.269 OA
BRANCH  29  32
ATOM     32  C   UNL A   1      37.782  30.354  29.899  1.00  0.00     0.039 A 
ATOM     33  C   UNL A   1      38.656  29.941  30.902  1.00  0.00     0.014 A 
ATOM     34  C   UNL A   1      38.188  30.384  28.559  1.00  0.00     0.014 A 
ATOM     35  C   UNL A   1      39.943  29.533  30.554  1.00  0.00     0.010 A 
ATOM     36  C   UNL A   1      39.434  29.886  28.208  1.00  0.00     0.010 A 
ATOM     37  C   UNL A   1      40.334  29.484  29.205  1.00  0.00    -0.014 A 
BRANCH  37  38
ATOM     38  C   UNL A   1      41.699  29.054  28.817  1.00  0.00     0.031 A 
ATOM     39  C   UNL A   1      42.825  30.051  28.830  1.00  0.00     0.074 A 
ATOM     40  C   UNL A   1      41.910  27.786  28.416  1.00  0.00     0.049 A 
ATOM     41  N   UNL A   1      44.078  29.885  28.495  1.00  0.00    -0.248 NA
ATOM     42  C   UNL A   1      42.493  31.425  29.244  1.00  0.00     0.031 C 
ATOM     43  C   UNL A   1      40.882  26.747  28.318  1.00  0.00     0.029 A 
ATOM     44  N   UNL A   1      43.058  27.155  28.013  1.00  0.00    -0.354 N 
ATOM     45  C   UNL A   1      44.677  31.130  28.647  1.00  0.00     0.074 A 
ATOM     46  C   UNL A   1      43.638  32.056  29.037  1.00  0.00     0.031 C 
ATOM     47  C   UNL A   1      41.453  25.601  27.916  1.00  0.00     0.029 A 
ATOM     48  C   UNL A   1      42.876  25.833  27.688  1.00  0.00     0.049 A 
ATOM     49  H   UNL A   1      43.931  27.607  27.961  1.00  0.00     0.167 HD
ATOM     50  C   UNL A   1      45.982  31.465  28.505  1.00  0.00     0.037 A 
ATOM     51  C   UNL A   1      43.758  24.912  27.252  1.00  0.00     0.037 A 
ATOM     52  C   UNL A   1      47.008  30.527  28.134  1.00  0.00     0.049 A 
ATOM     53  C   UNL A   1      45.200  25.308  27.088  1.00  0.00     0.074 A 
ATOM     54  C   UNL A   1      48.369  30.745  28.013  1.00  0.00     0.029 A 
ATOM     55  N   UNL A   1      46.787  29.194  27.818  1.00  0.00    -0.354 N 
ATOM     56  N   UNL A   1      45.764  26.473  27.302  1.00  0.00    -0.248 NA
ATOM     57  C   UNL A   1      46.127  24.265  26.631  1.00  0.00     0.031 C 
ATOM     58  C   UNL A   1      48.962  29.559  27.569  1.00  0.00     0.029 A 
ATOM     59  C   UNL A   1      47.981  28.583  27.474  1.00  0.00     0.049 A 
ATOM     60  H   UNL A   1      45.909  28.748  27.835  1.00  0.00     0.167 HD
ATOM     61  C   UNL A   1      47.117  26.296  27.033  1.00  0.00     0.074 A 
ATOM     62  C   UNL A   1      47.286  24.907  26.652  1.00  0.00     0.031 C 
ATOM     63  C   UNL A   1      48.129  27.198  27.098  1.00  0.00     0.037 A 
BRANCH  50  64
ATOM     64  C   UNL A   1      46.361  32.901  28.746  1.00  0.00     0.058 A 
ATOM     65  C   UNL A   1      46.210  33.885  27.754  1.00  0.00     0.135 A 
ATOM     66  C   UNL A   1      46.877  33.303  29.989  1.00  0.00     0.135 A 
ATOM     67  F   UNL A   1      45.738  33.556  26.541  1.00  0.00    -0.206 F 
ATOM     68  C   UNL A   1      46.594  35.204  27.971  1.00  0.00     0.059 A 
ATOM     69  C   UNL A   1      47.237  34.625  30.239  1.00  0.00     0.059 A 
ATOM     70  F   UNL A   1      47.045  32.407  30.974  1.00  0.00    -0.206 F 
ATOM     71  C   UNL A   1      47.110  35.564  29.217  1.00  0.00     0.060 A 
BRANCH  71  72
ATOM     72  S   UNL A   1      47.616  37.276  29.477  1.00  0.00     0.124 S 
ATOM     73  O   UNL A   1      48.042  37.244  30.873  1.00  0.00    -0.237 OA
ATOM     74  O   UNL A   1      48.682  37.439  28.493  1.00  0.00    -0.237 OA
ATOM     75  O   UNL A   1      46.398  38.036  29.211  1.00  0.00    -0.744 OA
ENDBRANCH  71  72
ENDBRANCH  50  64
BRANCH  51  76
ATOM     76  C   UNL A   1      43.301  23.525  26.973  1.00  0.00     0.058 A 
ATOM     77  C   UNL A   1      43.196  23.050  25.658  1.00  0.00     0.135 A 
ATOM     78  C   UNL A   1      42.995  22.635  28.015  1.00  0.00     0.135 A 
ATOM     79  F   UNL A   1      43.474  23.864  24.627  1.00  0.00    -0.206 F 
ATOM     80  C   UNL A   1      42.795  21.747  25.382  1.00  0.00     0.059 A 
ATOM     81  C   UNL A   1      42.617  21.320  27.766  1.00  0.00     0.059 A 
ATOM     82  F   UNL A   1      43.097  23.035  29.292  1.00  0.00    -0.206 F 
ATOM     83  C   UNL A   1      42.514  20.887  26.445  1.00  0.00     0.060 A 
BRANCH  83  84
ATOM     84  S   UNL A   1      42.056  19.179  26.078  1.00  0.00     0.124 S 
ATOM     85  O   UNL A   1      42.487  18.491  27.289  1.00  0.00    -0.237 OA
ATOM     86  O   UNL A   1      40.614  19.285  25.883  1.00  0.00    -0.237 OA
ATOM     87  O   UNL A   1      42.823  18.878  24.873  1.00  0.00    -0.744 OA
ENDBRANCH  83  84
ENDBRANCH  51  76
BRANCH  63  88
ATOM     88  C   UNL A   1      49.515  26.707  26.781  1.00  0.00     0.058 A 
ATOM     89  C   UNL A   1      50.346  26.149  27.765  1.00  0.00     0.135 A 
ATOM     90  C   UNL A   1      49.995  26.744  25.462  1.00  0.00     0.135 A 
ATOM     91  F   UNL A   1      49.939  26.096  29.043  1.00  0.00    -0.206 F 
ATOM     92  C   UNL A   1      51.613  25.668  27.457  1.00  0.00     0.059 A 
ATOM     93  C   UNL A   1      51.246  26.240  25.125  1.00  0.00     0.059 A 
ATOM     94  F   UNL A   1      49.236  27.257  24.480  1.00  0.00    -0.206 F 
ATOM     95  C   UNL A   1      52.054  25.715  26.132  1.00  0.00     0.060 A 
BRANCH  95  96
ATOM     96  S   UNL A   1      53.687  25.054  25.741  1.00  0.00     0.124 S 
ATOM     97  O   UNL A   1      53.359  23.708  25.286  1.00  0.00    -0.237 OA
ATOM     98  O   UNL A   1      54.158  25.975  24.711  1.00  0.00    -0.237 OA
ATOM     99  O   UNL A   1      54.399  25.131  27.014  1.00  0.00    -0.744 OA
ENDBRANCH  95  96
ENDBRANCH  63  88
ENDBRANCH  37  38
ENDBRANCH  29  32
ENDBRANCH  27  28
ENDBRANCH  26  27
ENDBRANCH  25  26
ENDBRANCH  24  25
ENDBRANCH   1  24
TORSDOF 22
ENDMDL
