MODEL 1
REMARK VINA RESULT:     -11.6      0.000      0.000
REMARK SMILES O=C(NCCCCCCNC(=O)[C@@H]1[C@H](C(=O)NCc2cccnc2)[C@H]2C=C[C@@H]1C2)c1ccc(-c2c3nc(c(-c4c(F)cc(S(=O)(=O)[O-])cc4F)c4ccc([nH]4)c(-c4c(F)cc(S(=O)(=O)[O-])cc4F)c4nc(c(-c5c(F)cc(S(=O)(=O)[O-])cc5F)c5ccc2[nH]5)C=C4)C=C3)cc1
REMARK SMILES IDX 6 1 5 2 4 3 3 4 1 5 2 6 30 8 31 9 95 10 32 11 94 12 33 13
REMARK SMILES IDX 34 14 35 15 88 16 36 17 93 18 87 19 89 20 37 21 92 22 86 23
REMARK SMILES IDX 85 24 38 26 72 27 51 28 71 29 52 30 55 31 70 32 90 33 53 34
REMARK SMILES IDX 54 35 69 37 91 38 56 39 39 40 40 41 49 42 41 43 42 44 48 45
REMARK SMILES IDX 50 46 43 47 44 48 45 49 46 50 47 51 73 52 74 53 83 54 75 55
REMARK SMILES IDX 76 56 82 57 84 58 77 59 78 60 79 61 80 62 81 63 57 64 58 65
REMARK SMILES IDX 67 66 59 67 60 68 66 69 68 70 61 71 62 72 63 73 64 74 65 75
REMARK SMILES IDX 7 76 8 77 9 78 10 79 11 80 12 82 13 83 14 84 28 85 25 86
REMARK SMILES IDX 27 87 29 88 26 89 15 90 16 91 17 92 18 94 19 95 20 96 24 97
REMARK SMILES IDX 21 98 23 99 22 100
REMARK H PARENT 3 7 89 25 55 36 10 81 17 93
REMARK Flexibility Score: inf
ROOT
ATOM      1  C   UNL A   1      32.701  29.754  27.276  1.00  0.00     0.002 C 
ENDROOT
BRANCH   1   2
ATOM      2  C   UNL A   1      34.092  29.466  26.711  1.00  0.00     0.021 C 
BRANCH   2   3
ATOM      3  C   UNL A   1      35.180  29.263  27.759  1.00  0.00     0.116 C 
BRANCH   3   4
ATOM      4  N   UNL A   1      35.162  30.300  28.775  1.00  0.00    -0.352 N 
ATOM      5  O   UNL A   1      35.947  31.445  30.552  1.00  0.00    -0.269 OA
ATOM      6  C   UNL A   1      36.178  30.695  29.613  1.00  0.00     0.251 C 
ATOM      7  H   UNL A   1      34.311  30.784  28.877  1.00  0.00     0.163 HD
BRANCH   6   8
ATOM      8  C   UNL A   1      37.549  30.193  29.371  1.00  0.00     0.039 A 
ATOM      9  C   UNL A   1      38.050  30.114  28.067  1.00  0.00     0.014 A 
ATOM     10  C   UNL A   1      38.344  29.821  30.456  1.00  0.00     0.014 A 
ATOM     11  C   UNL A   1      39.309  29.569  27.843  1.00  0.00     0.010 A 
ATOM     12  C   UNL A   1      39.642  29.351  30.234  1.00  0.00     0.010 A 
ATOM     13  C   UNL A   1      40.132  29.221  28.924  1.00  0.00    -0.014 A 
BRANCH  13  14
ATOM     14  C   UNL A   1      41.552  28.872  28.673  1.00  0.00     0.031 A 
ATOM     15  C   UNL A   1      42.635  29.910  28.697  1.00  0.00     0.074 A 
ATOM     16  C   UNL A   1      41.840  27.584  28.391  1.00  0.00     0.049 A 
ATOM     17  N   UNL A   1      43.911  29.766  28.449  1.00  0.00    -0.248 NA
ATOM     18  C   UNL A   1      42.244  31.288  29.037  1.00  0.00     0.031 C 
ATOM     19  C   UNL A   1      40.854  26.499  28.317  1.00  0.00     0.029 A 
ATOM     20  N   UNL A   1      43.029  26.965  28.108  1.00  0.00    -0.354 N 
ATOM     21  C   UNL A   1      44.473  31.030  28.576  1.00  0.00     0.074 A 
ATOM     22  C   UNL A   1      43.397  31.936  28.919  1.00  0.00     0.031 C 
ATOM     23  C   UNL A   1      41.479  25.352  28.025  1.00  0.00     0.029 A 
ATOM     24  C   UNL A   1      42.894  25.626  27.819  1.00  0.00     0.049 A 
ATOM     25  H   UNL A   1      43.896  27.432  28.110  1.00  0.00     0.167 HD
ATOM     26  C   UNL A   1      45.769  31.390  28.417  1.00  0.00     0.037 A 
ATOM     27  C   UNL A   1      43.798  24.726  27.391  1.00  0.00     0.037 A 
ATOM     28  C   UNL A   1      46.829  30.466  28.097  1.00  0.00     0.049 A 
ATOM     29  C   UNL A   1      45.219  25.169  27.193  1.00  0.00     0.074 A 
ATOM     30  C   UNL A   1      48.187  30.720  28.002  1.00  0.00     0.029 A 
ATOM     31  N   UNL A   1      46.654  29.123  27.800  1.00  0.00    -0.354 N 
ATOM     32  N   UNL A   1      45.748  26.350  27.404  1.00  0.00    -0.248 NA
ATOM     33  C   UNL A   1      46.164  24.165  26.689  1.00  0.00     0.031 C 
ATOM     34  C   UNL A   1      48.823  29.547  27.583  1.00  0.00     0.029 A 
ATOM     35  C   UNL A   1      47.870  28.548  27.471  1.00  0.00     0.049 A 
ATOM     36  H   UNL A   1      45.791  28.648  27.818  1.00  0.00     0.167 HD
ATOM     37  C   UNL A   1      47.089  26.229  27.065  1.00  0.00     0.074 A 
ATOM     38  C   UNL A   1      47.298  24.852  26.665  1.00  0.00     0.031 C 
ATOM     39  C   UNL A   1      48.059  27.175  27.073  1.00  0.00     0.037 A 
BRANCH  26  40
ATOM     40  C   UNL A   1      46.140  32.841  28.563  1.00  0.00     0.058 A 
ATOM     41  C   UNL A   1      46.614  33.368  29.774  1.00  0.00     0.135 A 
ATOM     42  C   UNL A   1      46.137  33.684  27.438  1.00  0.00     0.135 A 
ATOM     43  F   UNL A   1      46.627  32.611  30.882  1.00  0.00    -0.206 F 
ATOM     44  C   UNL A   1      47.077  34.677  29.863  1.00  0.00     0.059 A 
ATOM     45  C   UNL A   1      46.615  34.990  27.499  1.00  0.00     0.059 A 
ATOM     46  F   UNL A   1      45.691  33.230  26.255  1.00  0.00    -0.206 F 
ATOM     47  C   UNL A   1      47.084  35.478  28.718  1.00  0.00     0.060 A 
BRANCH  47  48
ATOM     48  S   UNL A   1      47.745  37.154  28.841  1.00  0.00     0.124 S 
ATOM     49  O   UNL A   1      47.410  37.499  30.220  1.00  0.00    -0.237 OA
ATOM     50  O   UNL A   1      49.163  36.949  28.567  1.00  0.00    -0.237 OA
ATOM     51  O   UNL A   1      47.010  37.888  27.815  1.00  0.00    -0.744 OA
ENDBRANCH  47  48
ENDBRANCH  26  40
BRANCH  27  52
ATOM     52  C   UNL A   1      43.372  23.340  27.061  1.00  0.00     0.058 A 
ATOM     53  C   UNL A   1      43.155  22.941  25.735  1.00  0.00     0.135 A 
ATOM     54  C   UNL A   1      43.163  22.389  28.073  1.00  0.00     0.135 A 
ATOM     55  F   UNL A   1      43.340  23.813  24.732  1.00  0.00    -0.206 F 
ATOM     56  C   UNL A   1      42.713  21.658  25.426  1.00  0.00     0.059 A 
ATOM     57  C   UNL A   1      42.755  21.091  27.786  1.00  0.00     0.059 A 
ATOM     58  F   UNL A   1      43.377  22.714  29.358  1.00  0.00    -0.206 F 
ATOM     59  C   UNL A   1      42.512  20.742  26.460  1.00  0.00     0.060 A 
BRANCH  59  60
ATOM     60  S   UNL A   1      41.941  19.079  26.049  1.00  0.00     0.124 S 
ATOM     61  O   UNL A   1      42.723  18.792  24.852  1.00  0.00    -0.237 OA
ATOM     62  O   UNL A   1      42.305  18.326  27.246  1.00  0.00    -0.237 OA
ATOM     63  O   UNL A   1      40.508  19.259  25.841  1.00  0.00    -0.744 OA
ENDBRANCH  59  60
ENDBRANCH  27  52
BRANCH  39  64
ATOM     64  C   UNL A   1      49.435  26.754  26.640  1.00  0.00     0.058 A 
ATOM     65  C   UNL A   1      50.322  26.133  27.533  1.00  0.00     0.135 A 
ATOM     66  C   UNL A   1      49.848  26.919  25.308  1.00  0.00     0.135 A 
ATOM     67  F   UNL A   1      49.980  25.965  28.819  1.00  0.00    -0.206 F 
ATOM     68  C   UNL A   1      51.578  25.699  27.121  1.00  0.00     0.059 A 
ATOM     69  C   UNL A   1      51.087  26.467  24.869  1.00  0.00     0.059 A 
ATOM     70  F   UNL A   1      49.033  27.504  24.415  1.00  0.00    -0.206 F 
ATOM     71  C   UNL A   1      51.948  25.864  25.785  1.00  0.00     0.060 A 
BRANCH  71  72
ATOM     72  S   UNL A   1      53.559  25.245  25.256  1.00  0.00     0.124 S 
ATOM     73  O   UNL A   1      54.450  25.878  26.220  1.00  0.00    -0.237 OA
ATOM     74  O   UNL A   1      53.397  23.801  25.392  1.00  0.00    -0.237 OA
ATOM     75  O   UNL A   1      53.675  25.730  23.883  1.00  0.00    -0.744 OA
ENDBRANCH  71  72
ENDBRANCH  39  64
ENDBRANCH  13  14
ENDBRANCH   6   8
ENDBRANCH   3   4
ENDBRANCH   2   3
ENDBRANCH   1   2
BRANCH   1  76
ATOM     76  C   UNL A   1      31.809  28.526  27.470  1.00  0.00     0.002 C 
BRANCH  76  77
ATOM     77  C   UNL A   1      32.289  27.249  26.778  1.00  0.00     0.021 C 
BRANCH  77  78
ATOM     78  C   UNL A   1      31.200  26.393  26.131  1.00  0.00     0.116 C 
BRANCH  78  79
ATOM     79  N   UNL A   1      31.108  25.058  26.699  1.00  0.00    -0.356 N 
ATOM     80  C   UNL A   1      32.031  24.051  26.728  1.00  0.00     0.224 C 
ATOM     81  H   UNL A   1      30.247  24.845  27.129  1.00  0.00     0.163 HD
ATOM     82  O   UNL A   1      31.831  23.086  27.463  1.00  0.00    -0.275 OA
BRANCH  80  83
ATOM     83  C   UNL A   1      33.307  24.169  25.927  1.00  0.00     0.098 C 
ATOM     84  C   UNL A   1      33.250  24.142  24.379  1.00  0.00     0.098 C 
ATOM     85  C   UNL A   1      34.397  23.083  26.225  1.00  0.00     0.025 C 
ATOM     86  C   UNL A   1      34.448  23.230  23.992  1.00  0.00     0.025 C 
ATOM     87  C   UNL A   1      35.713  23.743  25.862  1.00  0.00    -0.027 C 
ATOM     88  C   UNL A   1      34.380  22.118  25.029  1.00  0.00     0.017 C 
ATOM     89  C   UNL A   1      35.730  23.861  24.523  1.00  0.00    -0.027 C 
BRANCH  84  90
ATOM     90  C   UNL A   1      31.946  23.885  23.612  1.00  0.00     0.224 C 
ATOM     91  O   UNL A   1      31.155  23.056  24.086  1.00  0.00    -0.275 OA
ATOM     92  N   UNL A   1      31.549  24.458  22.448  1.00  0.00    -0.352 N 
ATOM     93  H   UNL A   1      30.875  23.941  21.951  1.00  0.00     0.163 HD
BRANCH  92  94
ATOM     94  C   UNL A   1      31.939  25.693  21.810  1.00  0.00     0.153 C 
BRANCH  94  95
ATOM     95  C   UNL A   1      31.663  26.987  22.518  1.00  0.00    -0.010 A 
ATOM     96  C   UNL A   1      32.613  27.899  22.966  1.00  0.00     0.009 A 
ATOM     97  C   UNL A   1      30.317  27.331  22.706  1.00  0.00     0.116 A 
ATOM     98  C   UNL A   1      32.187  29.068  23.601  1.00  0.00     0.020 A 
ATOM     99  N   UNL A   1      29.878  28.461  23.298  1.00  0.00    -0.264 NA
ATOM    100  C   UNL A   1      30.827  29.299  23.747  1.00  0.00     0.111 A 
ENDBRANCH  94  95
ENDBRANCH  92  94
ENDBRANCH  84  90
ENDBRANCH  80  83
ENDBRANCH  78  79
ENDBRANCH  77  78
ENDBRANCH  76  77
ENDBRANCH   1  76
TORSDOF 19
ENDMDL
MODEL 2
REMARK VINA RESULT:     -11.4      2.321      8.179
REMARK SMILES O=C(NCCCCCCNC(=O)[C@@H]1[C@H](C(=O)NCc2cccnc2)[C@H]2C=C[C@@H]1C2)c1ccc(-c2c3nc(c(-c4c(F)cc(S(=O)(=O)[O-])cc4F)c4ccc([nH]4)c(-c4c(F)cc(S(=O)(=O)[O-])cc4F)c4nc(c(-c5c(F)cc(S(=O)(=O)[O-])cc5F)c5ccc2[nH]5)C=C4)C=C3)cc1
REMARK SMILES IDX 6 1 5 2 4 3 3 4 1 5 2 6 30 8 31 9 95 10 32 11 94 12 33 13
REMARK SMILES IDX 34 14 35 15 88 16 36 17 93 18 87 19 89 20 37 21 92 22 86 23
REMARK SMILES IDX 85 24 38 26 72 27 51 28 71 29 52 30 55 31 70 32 90 33 53 34
REMARK SMILES IDX 54 35 69 37 91 38 56 39 39 40 40 41 49 42 41 43 42 44 48 45
REMARK SMILES IDX 50 46 43 47 44 48 45 49 46 50 47 51 73 52 74 53 83 54 75 55
REMARK SMILES IDX 76 56 82 57 84 58 77 59 78 60 79 61 80 62 81 63 57 64 58 65
REMARK SMILES IDX 67 66 59 67 60 68 66 69 68 70 61 71 62 72 63 73 64 74 65 75
REMARK SMILES IDX 7 76 8 77 9 78 10 79 11 80 12 82 13 83 14 84 28 85 25 86
REMARK SMILES IDX 27 87 29 88 26 89 15 90 16 91 17 92 18 94 19 95 20 96 24 97
REMARK SMILES IDX 21 98 23 99 22 100
REMARK H PARENT 3 7 89 25 55 36 10 81 17 93
REMARK Flexibility Score: inf
ROOT
ATOM      1  C   UNL A   1      36.630  20.965  25.280  1.00  0.00     0.002 C 
ENDROOT
BRANCH   1   2
ATOM      2  C   UNL A   1      37.986  20.370  24.901  1.00  0.00     0.021 C 
BRANCH   2   3
ATOM      3  C   UNL A   1      39.106  20.639  25.900  1.00  0.00     0.116 C 
BRANCH   3   4
ATOM      4  N   UNL A   1      40.056  19.541  25.966  1.00  0.00    -0.352 N 
ATOM      5  O   UNL A   1      42.101  18.595  25.942  1.00  0.00    -0.269 OA
ATOM      6  C   UNL A   1      41.422  19.599  26.105  1.00  0.00     0.251 C 
ATOM      7  H   UNL A   1      39.669  18.638  25.903  1.00  0.00     0.163 HD
BRANCH   6   8
ATOM      8  C   UNL A   1      42.058  20.892  26.444  1.00  0.00     0.039 A 
ATOM      9  C   UNL A   1      42.441  21.777  25.431  1.00  0.00     0.014 A 
ATOM     10  C   UNL A   1      42.252  21.229  27.785  1.00  0.00     0.014 A 
ATOM     11  C   UNL A   1      43.107  22.952  25.755  1.00  0.00     0.010 A 
ATOM     12  C   UNL A   1      42.848  22.450  28.112  1.00  0.00     0.010 A 
ATOM     13  C   UNL A   1      43.281  23.320  27.098  1.00  0.00    -0.014 A 
BRANCH  13  14
ATOM     14  C   UNL A   1      43.774  24.682  27.420  1.00  0.00     0.031 A 
ATOM     15  C   UNL A   1      42.843  25.770  27.872  1.00  0.00     0.074 A 
ATOM     16  C   UNL A   1      45.092  24.924  27.266  1.00  0.00     0.049 A 
ATOM     17  N   UNL A   1      43.118  27.020  28.141  1.00  0.00    -0.248 NA
ATOM     18  C   UNL A   1      41.423  25.420  28.039  1.00  0.00     0.031 C 
ATOM     19  C   UNL A   1      46.079  23.939  26.807  1.00  0.00     0.029 A 
ATOM     20  N   UNL A   1      45.832  26.059  27.468  1.00  0.00    -0.354 N 
ATOM     21  C   UNL A   1      41.910  27.614  28.485  1.00  0.00     0.074 A 
ATOM     22  C   UNL A   1      40.894  26.588  28.385  1.00  0.00     0.031 C 
ATOM     23  C   UNL A   1      47.291  24.508  26.776  1.00  0.00     0.029 A 
ATOM     24  C   UNL A   1      47.161  25.912  27.142  1.00  0.00     0.049 A 
ATOM     25  H   UNL A   1      45.450  26.899  27.811  1.00  0.00     0.167 HD
ATOM     26  C   UNL A   1      41.682  28.899  28.847  1.00  0.00     0.037 A 
ATOM     27  C   UNL A   1      48.158  26.814  27.096  1.00  0.00     0.037 A 
ATOM     28  C   UNL A   1      42.715  29.899  28.963  1.00  0.00     0.049 A 
ATOM     29  C   UNL A   1      47.861  28.237  27.472  1.00  0.00     0.074 A 
ATOM     30  C   UNL A   1      42.595  31.205  29.408  1.00  0.00     0.029 A 
ATOM     31  N   UNL A   1      44.044  29.717  28.613  1.00  0.00    -0.354 N 
ATOM     32  N   UNL A   1      46.729  28.759  27.880  1.00  0.00    -0.248 NA
ATOM     33  C   UNL A   1      48.968  29.196  27.373  1.00  0.00     0.031 C 
ATOM     34  C   UNL A   1      43.838  31.831  29.264  1.00  0.00     0.029 A 
ATOM     35  C   UNL A   1      44.744  30.900  28.784  1.00  0.00     0.049 A 
ATOM     36  H   UNL A   1      44.433  28.872  28.290  1.00  0.00     0.167 HD
ATOM     37  C   UNL A   1      46.991  30.107  28.092  1.00  0.00     0.074 A 
ATOM     38  C   UNL A   1      48.394  30.312  27.798  1.00  0.00     0.031 C 
ATOM     39  C   UNL A   1      46.142  31.088  28.484  1.00  0.00     0.037 A 
BRANCH  26  40
ATOM     40  C   UNL A   1      40.270  29.330  29.134  1.00  0.00     0.058 A 
ATOM     41  C   UNL A   1      39.813  29.556  30.442  1.00  0.00     0.135 A 
ATOM     42  C   UNL A   1      39.399  29.640  28.075  1.00  0.00     0.135 A 
ATOM     43  F   UNL A   1      40.598  29.265  31.492  1.00  0.00    -0.206 F 
ATOM     44  C   UNL A   1      38.547  30.079  30.688  1.00  0.00     0.059 A 
ATOM     45  C   UNL A   1      38.138  30.183  28.297  1.00  0.00     0.059 A 
ATOM     46  F   UNL A   1      39.786  29.440  26.804  1.00  0.00    -0.206 F 
ATOM     47  C   UNL A   1      37.721  30.400  29.609  1.00  0.00     0.060 A 
BRANCH  47  48
ATOM     48  S   UNL A   1      36.105  31.134  29.948  1.00  0.00     0.124 S 
ATOM     49  O   UNL A   1      36.385  32.554  29.755  1.00  0.00    -0.237 OA
ATOM     50  O   UNL A   1      35.262  30.511  28.934  1.00  0.00    -0.237 OA
ATOM     51  O   UNL A   1      35.828  30.732  31.324  1.00  0.00    -0.744 OA
ENDBRANCH  47  48
ENDBRANCH  26  40
BRANCH  27  52
ATOM     52  C   UNL A   1      49.507  26.411  26.619  1.00  0.00     0.058 A 
ATOM     53  C   UNL A   1      49.904  26.624  25.291  1.00  0.00     0.135 A 
ATOM     54  C   UNL A   1      50.425  25.792  27.484  1.00  0.00     0.135 A 
ATOM     55  F   UNL A   1      49.063  27.210  24.425  1.00  0.00    -0.206 F 
ATOM     56  C   UNL A   1      51.148  26.207  24.829  1.00  0.00     0.059 A 
ATOM     57  C   UNL A   1      51.687  25.399  27.055  1.00  0.00     0.059 A 
ATOM     58  F   UNL A   1      50.102  25.584  28.771  1.00  0.00    -0.206 F 
ATOM     59  C   UNL A   1      52.031  25.592  25.719  1.00  0.00     0.060 A 
BRANCH  59  60
ATOM     60  S   UNL A   1      53.645  25.058  25.112  1.00  0.00     0.124 S 
ATOM     61  O   UNL A   1      54.544  25.753  26.027  1.00  0.00    -0.237 OA
ATOM     62  O   UNL A   1      53.568  23.609  25.270  1.00  0.00    -0.237 OA
ATOM     63  O   UNL A   1      53.658  25.531  23.731  1.00  0.00    -0.744 OA
ENDBRANCH  59  60
ENDBRANCH  27  52
BRANCH  39  64
ATOM     64  C   UNL A   1      46.709  32.473  28.621  1.00  0.00     0.058 A 
ATOM     65  C   UNL A   1      46.640  33.397  27.568  1.00  0.00     0.135 A 
ATOM     66  C   UNL A   1      47.272  32.898  29.835  1.00  0.00     0.135 A 
ATOM     67  F   UNL A   1      46.123  33.035  26.384  1.00  0.00    -0.206 F 
ATOM     68  C   UNL A   1      47.120  34.695  27.710  1.00  0.00     0.059 A 
ATOM     69  C   UNL A   1      47.732  34.199  30.008  1.00  0.00     0.059 A 
ATOM     70  F   UNL A   1      47.357  32.052  30.874  1.00  0.00    -0.206 F 
ATOM     71  C   UNL A   1      47.658  35.088  28.937  1.00  0.00     0.060 A 
BRANCH  71  72
ATOM     72  S   UNL A   1      48.225  36.791  29.122  1.00  0.00     0.124 S 
ATOM     73  O   UNL A   1      47.741  37.121  30.457  1.00  0.00    -0.237 OA
ATOM     74  O   UNL A   1      49.672  36.653  28.987  1.00  0.00    -0.237 OA
ATOM     75  O   UNL A   1      47.563  37.491  28.024  1.00  0.00    -0.744 OA
ENDBRANCH  71  72
ENDBRANCH  39  64
ENDBRANCH  13  14
ENDBRANCH   6   8
ENDBRANCH   3   4
ENDBRANCH   2   3
ENDBRANCH   1   2
BRANCH   1  76
ATOM     76  C   UNL A   1      36.202  22.185  24.463  1.00  0.00     0.002 C 
BRANCH  76  77
ATOM     77  C   UNL A   1      36.375  23.536  25.159  1.00  0.00     0.021 C 
BRANCH  77  78
ATOM     78  C   UNL A   1      35.092  24.337  25.385  1.00  0.00     0.116 C 
BRANCH  78  79
ATOM     79  N   UNL A   1      34.510  24.846  24.153  1.00  0.00    -0.356 N 
ATOM     80  C   UNL A   1      33.802  25.993  23.926  1.00  0.00     0.224 C 
ATOM     81  H   UNL A   1      34.646  24.277  23.361  1.00  0.00     0.163 HD
ATOM     82  O   UNL A   1      33.604  26.344  22.764  1.00  0.00    -0.275 OA
BRANCH  80  83
ATOM     83  C   UNL A   1      33.345  26.844  25.087  1.00  0.00     0.098 C 
ATOM     84  C   UNL A   1      31.840  26.912  25.448  1.00  0.00     0.098 C 
ATOM     85  C   UNL A   1      33.721  28.364  25.001  1.00  0.00     0.025 C 
ATOM     86  C   UNL A   1      31.608  28.421  25.740  1.00  0.00     0.025 C 
ATOM     87  C   UNL A   1      33.777  28.833  26.442  1.00  0.00    -0.027 C 
ATOM     88  C   UNL A   1      32.422  29.107  24.652  1.00  0.00     0.017 C 
ATOM     89  C   UNL A   1      32.511  28.836  26.897  1.00  0.00    -0.027 C 
BRANCH  84  90
ATOM     90  C   UNL A   1      30.763  26.227  24.597  1.00  0.00     0.224 C 
ATOM     91  O   UNL A   1      30.110  25.314  25.123  1.00  0.00    -0.275 OA
ATOM     92  N   UNL A   1      30.439  26.498  23.307  1.00  0.00    -0.352 N 
ATOM     93  H   UNL A   1      29.983  25.760  22.841  1.00  0.00     0.163 HD
BRANCH  92  94
ATOM     94  C   UNL A   1      30.642  27.676  22.498  1.00  0.00     0.153 C 
BRANCH  94  95
ATOM     95  C   UNL A   1      29.581  28.736  22.490  1.00  0.00    -0.010 A 
ATOM     96  C   UNL A   1      28.336  28.658  23.107  1.00  0.00     0.009 A 
ATOM     97  C   UNL A   1      29.890  29.936  21.835  1.00  0.00     0.116 A 
ATOM     98  C   UNL A   1      27.462  29.744  23.013  1.00  0.00     0.020 A 
ATOM     99  N   UNL A   1      29.073  31.007  21.746  1.00  0.00    -0.264 NA
ATOM    100  C   UNL A   1      27.868  30.879  22.325  1.00  0.00     0.111 A 
ENDBRANCH  94  95
ENDBRANCH  92  94
ENDBRANCH  84  90
ENDBRANCH  80  83
ENDBRANCH  78  79
ENDBRANCH  77  78
ENDBRANCH  76  77
ENDBRANCH   1  76
TORSDOF 19
ENDMDL
MODEL 3
REMARK VINA RESULT:     -11.4      3.258      9.125
REMARK SMILES O=C(NCCCCCCNC(=O)[C@@H]1[C@H](C(=O)NCc2cccnc2)[C@H]2C=C[C@@H]1C2)c1ccc(-c2c3nc(c(-c4c(F)cc(S(=O)(=O)[O-])cc4F)c4ccc([nH]4)c(-c4c(F)cc(S(=O)(=O)[O-])cc4F)c4nc(c(-c5c(F)cc(S(=O)(=O)[O-])cc5F)c5ccc2[nH]5)C=C4)C=C3)cc1
REMARK SMILES IDX 6 1 5 2 4 3 3 4 1 5 2 6 30 8 31 9 95 10 32 11 94 12 33 13
REMARK SMILES IDX 34 14 35 15 88 16 36 17 93 18 87 19 89 20 37 21 92 22 86 23
REMARK SMILES IDX 85 24 38 26 72 27 51 28 71 29 52 30 55 31 70 32 90 33 53 34
REMARK SMILES IDX 54 35 69 37 91 38 56 39 39 40 40 41 49 42 41 43 42 44 48 45
REMARK SMILES IDX 50 46 43 47 44 48 45 49 46 50 47 51 73 52 74 53 83 54 75 55
REMARK SMILES IDX 76 56 82 57 84 58 77 59 78 60 79 61 80 62 81 63 57 64 58 65
REMARK SMILES IDX 67 66 59 67 60 68 66 69 68 70 61 71 62 72 63 73 64 74 65 75
REMARK SMILES IDX 7 76 8 77 9 78 10 79 11 80 12 82 13 83 14 84 28 85 25 86
REMARK SMILES IDX 27 87 29 88 26 89 15 90 16 91 17 92 18 94 19 95 20 96 24 97
REMARK SMILES IDX 21 98 23 99 22 100
REMARK H PARENT 3 7 89 25 55 36 10 81 17 93
REMARK Flexibility Score: inf
ROOT
ATOM      1  C   UNL A   1      32.703  28.910  24.889  1.00  0.00     0.002 C 
ENDROOT
BRANCH   1   2
ATOM      2  C   UNL A   1      33.689  28.114  25.745  1.00  0.00     0.021 C 
BRANCH   2   3
ATOM      3  C   UNL A   1      33.603  28.387  27.242  1.00  0.00     0.116 C 
BRANCH   3   4
ATOM      4  N   UNL A   1      33.478  29.804  27.534  1.00  0.00    -0.352 N 
ATOM      5  O   UNL A   1      34.065  31.762  28.485  1.00  0.00    -0.269 OA
ATOM      6  C   UNL A   1      34.395  30.640  28.125  1.00  0.00     0.251 C 
ATOM      7  H   UNL A   1      32.625  30.220  27.275  1.00  0.00     0.163 HD
BRANCH   6   8
ATOM      8  C   UNL A   1      35.781  30.162  28.328  1.00  0.00     0.039 A 
ATOM      9  C   UNL A   1      36.719  30.260  27.294  1.00  0.00     0.014 A 
ATOM     10  C   UNL A   1      36.150  29.633  29.566  1.00  0.00     0.014 A 
ATOM     11  C   UNL A   1      37.995  29.739  27.467  1.00  0.00     0.010 A 
ATOM     12  C   UNL A   1      37.459  29.185  29.765  1.00  0.00     0.010 A 
ATOM     13  C   UNL A   1      38.390  29.234  28.715  1.00  0.00    -0.014 A 
BRANCH  13  14
ATOM     14  C   UNL A   1      39.819  28.907  28.947  1.00  0.00     0.031 A 
ATOM     15  C   UNL A   1      40.398  27.579  28.554  1.00  0.00     0.074 A 
ATOM     16  C   UNL A   1      40.584  29.838  29.554  1.00  0.00     0.049 A 
ATOM     17  N   UNL A   1      41.613  27.131  28.736  1.00  0.00    -0.248 NA
ATOM     18  C   UNL A   1      39.505  26.627  27.874  1.00  0.00     0.031 C 
ATOM     19  C   UNL A   1      40.110  31.154  30.000  1.00  0.00     0.029 A 
ATOM     20  N   UNL A   1      41.908  29.829  29.908  1.00  0.00    -0.354 N 
ATOM     21  C   UNL A   1      41.629  25.842  28.221  1.00  0.00     0.074 A 
ATOM     22  C   UNL A   1      40.297  25.572  27.721  1.00  0.00     0.031 C 
ATOM     23  C   UNL A   1      41.128  31.827  30.553  1.00  0.00     0.029 A 
ATOM     24  C   UNL A   1      42.305  30.970  30.568  1.00  0.00     0.049 A 
ATOM     25  H   UNL A   1      42.515  29.080  29.711  1.00  0.00     0.167 HD
ATOM     26  C   UNL A   1      42.665  24.970  28.176  1.00  0.00     0.037 A 
ATOM     27  C   UNL A   1      43.473  31.278  31.160  1.00  0.00     0.037 A 
ATOM     28  C   UNL A   1      43.990  25.269  28.660  1.00  0.00     0.049 A 
ATOM     29  C   UNL A   1      44.589  30.274  31.121  1.00  0.00     0.074 A 
ATOM     30  C   UNL A   1      45.128  24.484  28.578  1.00  0.00     0.029 A 
ATOM     31  N   UNL A   1      44.352  26.427  29.332  1.00  0.00    -0.354 N 
ATOM     32  N   UNL A   1      44.611  29.094  30.549  1.00  0.00    -0.248 NA
ATOM     33  C   UNL A   1      45.833  30.635  31.812  1.00  0.00     0.031 C 
ATOM     34  C   UNL A   1      46.160  25.138  29.259  1.00  0.00     0.029 A 
ATOM     35  C   UNL A   1      45.681  26.355  29.715  1.00  0.00     0.049 A 
ATOM     36  H   UNL A   1      43.752  27.187  29.511  1.00  0.00     0.167 HD
ATOM     37  C   UNL A   1      45.873  28.574  30.808  1.00  0.00     0.074 A 
ATOM     38  C   UNL A   1      46.596  29.581  31.558  1.00  0.00     0.031 C 
ATOM     39  C   UNL A   1      46.384  27.367  30.464  1.00  0.00     0.037 A 
BRANCH  26  40
ATOM     40  C   UNL A   1      42.432  23.598  27.605  1.00  0.00     0.058 A 
ATOM     41  C   UNL A   1      42.468  23.353  26.224  1.00  0.00     0.135 A 
ATOM     42  C   UNL A   1      42.295  22.493  28.463  1.00  0.00     0.135 A 
ATOM     43  F   UNL A   1      42.585  24.372  25.358  1.00  0.00    -0.206 F 
ATOM     44  C   UNL A   1      42.382  22.061  25.714  1.00  0.00     0.059 A 
ATOM     45  C   UNL A   1      42.228  21.191  27.976  1.00  0.00     0.059 A 
ATOM     46  F   UNL A   1      42.252  22.673  29.793  1.00  0.00    -0.206 F 
ATOM     47  C   UNL A   1      42.273  20.985  26.598  1.00  0.00     0.060 A 
BRANCH  47  48
ATOM     48  S   UNL A   1      42.224  19.311  25.920  1.00  0.00     0.124 S 
ATOM     49  O   UNL A   1      42.758  18.530  27.032  1.00  0.00    -0.237 OA
ATOM     50  O   UNL A   1      40.803  19.130  25.644  1.00  0.00    -0.237 OA
ATOM     51  O   UNL A   1      43.083  19.394  24.743  1.00  0.00    -0.744 OA
ENDBRANCH  47  48
ENDBRANCH  26  40
BRANCH  27  52
ATOM     52  C   UNL A   1      43.621  32.563  31.894  1.00  0.00     0.058 A 
ATOM     53  C   UNL A   1      44.104  33.714  31.256  1.00  0.00     0.135 A 
ATOM     54  C   UNL A   1      43.291  32.660  33.256  1.00  0.00     0.135 A 
ATOM     55  F   UNL A   1      44.434  33.674  29.956  1.00  0.00    -0.206 F 
ATOM     56  C   UNL A   1      44.287  34.906  31.949  1.00  0.00     0.059 A 
ATOM     57  C   UNL A   1      43.432  33.849  33.961  1.00  0.00     0.059 A 
ATOM     58  F   UNL A   1      42.805  31.592  33.909  1.00  0.00    -0.206 F 
ATOM     59  C   UNL A   1      43.951  34.962  33.304  1.00  0.00     0.060 A 
BRANCH  59  60
ATOM     60  S   UNL A   1      44.189  36.513  34.195  1.00  0.00     0.124 S 
ATOM     61  O   UNL A   1      45.161  37.191  33.345  1.00  0.00    -0.237 OA
ATOM     62  O   UNL A   1      42.841  37.075  34.198  1.00  0.00    -0.237 OA
ATOM     63  O   UNL A   1      44.682  36.079  35.499  1.00  0.00    -0.744 OA
ENDBRANCH  59  60
ENDBRANCH  27  52
BRANCH  39  64
ATOM     64  C   UNL A   1      47.793  27.069  30.893  1.00  0.00     0.058 A 
ATOM     65  C   UNL A   1      48.893  27.491  30.130  1.00  0.00     0.135 A 
ATOM     66  C   UNL A   1      48.048  26.409  32.106  1.00  0.00     0.135 A 
ATOM     67  F   UNL A   1      48.702  28.113  28.956  1.00  0.00    -0.206 F 
ATOM     68  C   UNL A   1      50.198  27.258  30.549  1.00  0.00     0.059 A 
ATOM     69  C   UNL A   1      49.344  26.192  32.558  1.00  0.00     0.059 A 
ATOM     70  F   UNL A   1      47.030  25.990  32.874  1.00  0.00    -0.206 F 
ATOM     71  C   UNL A   1      50.414  26.614  31.769  1.00  0.00     0.060 A 
BRANCH  71  72
ATOM     72  S   UNL A   1      52.113  26.369  32.325  1.00  0.00     0.124 S 
ATOM     73  O   UNL A   1      51.928  26.155  33.756  1.00  0.00    -0.237 OA
ATOM     74  O   UNL A   1      52.526  25.200  31.556  1.00  0.00    -0.237 OA
ATOM     75  O   UNL A   1      52.774  27.619  31.958  1.00  0.00    -0.744 OA
ENDBRANCH  71  72
ENDBRANCH  39  64
ENDBRANCH  13  14
ENDBRANCH   6   8
ENDBRANCH   3   4
ENDBRANCH   2   3
ENDBRANCH   1   2
BRANCH   1  76
ATOM     76  C   UNL A   1      31.228  28.571  25.109  1.00  0.00     0.002 C 
BRANCH  76  77
ATOM     77  C   UNL A   1      30.662  27.477  24.200  1.00  0.00     0.021 C 
BRANCH  77  78
ATOM     78  C   UNL A   1      29.936  26.333  24.909  1.00  0.00     0.116 C 
BRANCH  78  79
ATOM     79  N   UNL A   1      30.757  25.665  25.907  1.00  0.00    -0.356 N 
ATOM     80  C   UNL A   1      31.807  24.805  25.747  1.00  0.00     0.224 C 
ATOM     81  H   UNL A   1      30.519  25.862  26.843  1.00  0.00     0.163 HD
ATOM     82  O   UNL A   1      32.507  24.540  26.723  1.00  0.00    -0.275 OA
BRANCH  80  83
ATOM     83  C   UNL A   1      32.137  24.259  24.378  1.00  0.00     0.098 C 
ATOM     84  C   UNL A   1      32.072  22.733  24.120  1.00  0.00     0.098 C 
ATOM     85  C   UNL A   1      33.564  24.614  23.833  1.00  0.00     0.025 C 
ATOM     86  C   UNL A   1      33.346  22.457  23.274  1.00  0.00     0.025 C 
ATOM     87  C   UNL A   1      33.427  24.568  22.324  1.00  0.00    -0.027 C 
ATOM     88  C   UNL A   1      34.398  23.328  23.947  1.00  0.00     0.017 C 
ATOM     89  C   UNL A   1      33.263  23.275  21.990  1.00  0.00    -0.027 C 
BRANCH  84  90
ATOM     90  C   UNL A   1      31.789  21.726  25.242  1.00  0.00     0.224 C 
ATOM     91  O   UNL A   1      30.719  21.837  25.858  1.00  0.00    -0.275 OA
ATOM     92  N   UNL A   1      32.590  20.712  25.659  1.00  0.00    -0.352 N 
ATOM     93  H   UNL A   1      32.405  20.401  26.574  1.00  0.00     0.163 HD
BRANCH  92  94
ATOM     94  C   UNL A   1      33.663  20.009  24.997  1.00  0.00     0.153 C 
BRANCH  94  95
ATOM     95  C   UNL A   1      33.552  18.523  24.826  1.00  0.00    -0.010 A 
ATOM     96  C   UNL A   1      34.256  17.746  23.911  1.00  0.00     0.009 A 
ATOM     97  C   UNL A   1      32.688  17.848  25.699  1.00  0.00     0.116 A 
ATOM     98  C   UNL A   1      34.043  16.365  23.886  1.00  0.00     0.020 A 
ATOM     99  N   UNL A   1      32.479  16.514  25.710  1.00  0.00    -0.264 NA
ATOM    100  C   UNL A   1      33.151  15.804  24.790  1.00  0.00     0.111 A 
ENDBRANCH  94  95
ENDBRANCH  92  94
ENDBRANCH  84  90
ENDBRANCH  80  83
ENDBRANCH  78  79
ENDBRANCH  77  78
ENDBRANCH  76  77
ENDBRANCH   1  76
TORSDOF 19
ENDMDL
