MODEL 1
REMARK VINA RESULT:     -12.1      0.000      0.000
REMARK SMILES CCc1nc(N2CCC[C@@H](C(=O)NCCCCCCNC(=O)c3ccc(-c4c5nc(c(-c6c(F)cc(S(=O)(=O)[O-])cc6F)c6ccc([nH]6)c(-c6c(F)cc(S(=O)(=O)[O-])cc6F)c6nc(c(-c7c(F)cc(S(=O)(=O)[O-])cc7F)c7ccc4[nH]7)C=C6)C=C5)cc3)C2)c2c(C)c(C)oc2n1
REMARK SMILES IDX 17 1 16 2 15 3 14 4 13 5 11 6 12 7 10 9 6 10 7 11 89 12 8 13
REMARK SMILES IDX 9 14 5 15 3 16 4 17 97 18 96 19 90 20 95 21 91 22 93 23
REMARK SMILES IDX 92 24 94 25 2 26 1 27 18 28 19 29 20 30 21 31 22 33 23 34
REMARK SMILES IDX 24 35 88 36 25 37 87 38 26 39 27 40 28 41 81 42 29 43 86 44
REMARK SMILES IDX 80 45 82 46 30 47 85 48 79 49 78 50 31 52 65 53 44 54 64 55
REMARK SMILES IDX 45 56 48 57 63 58 83 59 46 60 47 61 62 63 84 64 49 65 32 66
REMARK SMILES IDX 33 67 42 68 34 69 35 70 41 71 43 72 36 73 37 74 38 75 39 76
REMARK SMILES IDX 40 77 66 78 67 79 76 80 68 81 69 82 75 83 77 84 70 85 71 86
REMARK SMILES IDX 72 87 73 88 74 89 50 90 51 91 60 92 52 93 53 94 59 95 61 96
REMARK SMILES IDX 54 97 55 98 56 99 57 100 58 101
REMARK H PARENT 13 8 20 32 82 51 48 62
REMARK Flexibility Score: inf
ROOT
ATOM      1  C   UNL A   1      35.026  22.193  24.271  1.00  0.00     0.002 C 
ENDROOT
BRANCH   1   2
ATOM      2  C   UNL A   1      34.770  20.880  25.024  1.00  0.00     0.002 C 
BRANCH   2   3
ATOM      3  C   UNL A   1      33.712  20.924  26.140  1.00  0.00     0.021 C 
BRANCH   3   4
ATOM      4  C   UNL A   1      33.440  22.303  26.756  1.00  0.00     0.116 C 
BRANCH   4   5
ATOM      5  N   UNL A   1      32.102  22.418  27.323  1.00  0.00    -0.356 N 
ATOM      6  C   UNL A   1      31.014  23.138  26.924  1.00  0.00     0.224 C 
ATOM      7  O   UNL A   1      29.957  22.979  27.540  1.00  0.00    -0.275 OA
ATOM      8  H   UNL A   1      31.958  21.882  28.137  1.00  0.00     0.163 HD
BRANCH   6   9
ATOM      9  C   UNL A   1      31.100  24.087  25.743  1.00  0.00     0.098 C 
ATOM     10  N   UNL A   1      32.102  26.085  24.900  1.00  0.00    -0.355 N 
ATOM     11  C   UNL A   1      32.638  25.531  23.666  1.00  0.00     0.118 C 
ATOM     12  C   UNL A   1      32.099  25.207  26.061  1.00  0.00     0.131 C 
ATOM     13  C   UNL A   1      31.843  24.278  23.285  1.00  0.00     0.022 C 
ATOM     14  C   UNL A   1      31.539  23.342  24.465  1.00  0.00     0.017 C 
BRANCH  10  15
ATOM     15  C   UNL A   1      32.075  27.450  25.070  1.00  0.00     0.143 A 
ATOM     16  C   UNL A   1      32.979  29.417  25.978  1.00  0.00     0.134 A 
ATOM     17  N   UNL A   1      33.002  28.067  25.847  1.00  0.00    -0.215 NA
ATOM     18  N   UNL A   1      32.101  30.255  25.407  1.00  0.00    -0.197 NA
ATOM     19  C   UNL A   1      31.165  29.607  24.708  1.00  0.00     0.231 A 
ATOM     20  C   UNL A   1      31.058  28.241  24.513  1.00  0.00     0.086 A 
ATOM     21  O   UNL A   1      30.136  30.250  24.088  1.00  0.00    -0.443 OA
ATOM     22  C   UNL A   1      29.828  28.035  23.802  1.00  0.00     0.004 A 
ATOM     23  C   UNL A   1      29.333  29.299  23.542  1.00  0.00     0.107 A 
ATOM     24  C   UNL A   1      29.170  26.756  23.450  1.00  0.00     0.049 C 
ATOM     25  C   UNL A   1      28.122  29.784  22.847  1.00  0.00     0.088 C 
BRANCH  16  26
ATOM     26  C   UNL A   1      33.965  30.076  26.913  1.00  0.00     0.074 C 
ATOM     27  C   UNL A   1      35.114  29.197  27.379  1.00  0.00     0.012 C 
ENDBRANCH  16  26
ENDBRANCH  10  15
ENDBRANCH   6   9
ENDBRANCH   4   5
ENDBRANCH   3   4
ENDBRANCH   2   3
ENDBRANCH   1   2
BRANCH   1  28
ATOM     28  C   UNL A   1      36.458  22.762  24.332  1.00  0.00     0.021 C 
BRANCH  28  29
ATOM     29  C   UNL A   1      36.981  23.184  25.723  1.00  0.00     0.116 C 
BRANCH  29  30
ATOM     30  N   UNL A   1      37.983  22.250  26.214  1.00  0.00    -0.352 N 
ATOM     31  C   UNL A   1      39.291  22.386  26.603  1.00  0.00     0.251 C 
ATOM     32  H   UNL A   1      37.653  21.325  26.281  1.00  0.00     0.163 HD
ATOM     33  O   UNL A   1      39.953  21.350  26.695  1.00  0.00    -0.269 OA
BRANCH  31  34
ATOM     34  C   UNL A   1      39.955  23.677  26.927  1.00  0.00     0.039 A 
ATOM     35  C   UNL A   1      39.993  24.655  25.915  1.00  0.00     0.014 A 
ATOM     36  C   UNL A   1      40.684  23.897  28.094  1.00  0.00     0.014 A 
ATOM     37  C   UNL A   1      40.709  25.850  26.076  1.00  0.00     0.010 A 
ATOM     38  C   UNL A   1      41.410  25.094  28.249  1.00  0.00     0.010 A 
ATOM     39  C   UNL A   1      41.414  26.096  27.255  1.00  0.00    -0.014 A 
BRANCH  39  40
ATOM     40  C   UNL A   1      41.999  27.449  27.485  1.00  0.00     0.031 A 
ATOM     41  C   UNL A   1      41.032  28.442  28.017  1.00  0.00     0.074 A 
ATOM     42  C   UNL A   1      43.305  27.727  27.720  1.00  0.00     0.049 A 
ATOM     43  N   UNL A   1      40.735  28.424  29.277  1.00  0.00    -0.248 NA
ATOM     44  C   UNL A   1      40.187  29.334  27.232  1.00  0.00     0.031 C 
ATOM     45  C   UNL A   1      44.307  26.728  28.105  1.00  0.00     0.029 A 
ATOM     46  N   UNL A   1      43.969  28.936  27.865  1.00  0.00    -0.354 N 
ATOM     47  C   UNL A   1      39.653  29.250  29.474  1.00  0.00     0.074 A 
ATOM     48  C   UNL A   1      39.351  29.810  28.175  1.00  0.00     0.031 C 
ATOM     49  C   UNL A   1      45.406  27.363  28.565  1.00  0.00     0.029 A 
ATOM     50  C   UNL A   1      45.261  28.807  28.378  1.00  0.00     0.049 A 
ATOM     51  H   UNL A   1      43.567  29.803  27.630  1.00  0.00     0.167 HD
ATOM     52  C   UNL A   1      39.138  29.415  30.722  1.00  0.00     0.037 A 
ATOM     53  C   UNL A   1      45.958  29.722  29.108  1.00  0.00     0.037 A 
ATOM     54  C   UNL A   1      39.842  28.741  31.794  1.00  0.00     0.049 A 
ATOM     55  C   UNL A   1      45.156  29.838  30.375  1.00  0.00     0.074 A 
ATOM     56  C   UNL A   1      39.583  27.970  32.907  1.00  0.00     0.029 A 
ATOM     57  N   UNL A   1      41.203  28.848  31.737  1.00  0.00    -0.354 N 
ATOM     58  N   UNL A   1      45.162  28.988  31.369  1.00  0.00    -0.248 NA
ATOM     59  C   UNL A   1      44.110  30.873  30.456  1.00  0.00     0.031 C 
ATOM     60  C   UNL A   1      40.848  27.652  33.515  1.00  0.00     0.029 A 
ATOM     61  C   UNL A   1      41.851  28.276  32.790  1.00  0.00     0.049 A 
ATOM     62  H   UNL A   1      41.674  29.301  31.000  1.00  0.00     0.167 HD
ATOM     63  C   UNL A   1      43.972  29.230  32.042  1.00  0.00     0.074 A 
ATOM     64  C   UNL A   1      43.461  30.492  31.549  1.00  0.00     0.031 C 
ATOM     65  C   UNL A   1      43.296  28.282  32.749  1.00  0.00     0.037 A 
BRANCH  52  66
ATOM     66  C   UNL A   1      38.136  30.444  31.059  1.00  0.00     0.058 A 
ATOM     67  C   UNL A   1      38.597  31.650  31.615  1.00  0.00     0.135 A 
ATOM     68  C   UNL A   1      36.759  30.213  31.029  1.00  0.00     0.135 A 
ATOM     69  F   UNL A   1      39.914  31.911  31.652  1.00  0.00    -0.206 F 
ATOM     70  C   UNL A   1      37.726  32.578  32.168  1.00  0.00     0.059 A 
ATOM     71  C   UNL A   1      35.863  31.134  31.572  1.00  0.00     0.059 A 
ATOM     72  F   UNL A   1      36.274  29.073  30.512  1.00  0.00    -0.206 F 
ATOM     73  C   UNL A   1      36.360  32.302  32.159  1.00  0.00     0.060 A 
BRANCH  73  74
ATOM     74  S   UNL A   1      35.255  33.482  32.963  1.00  0.00     0.124 S 
ATOM     75  O   UNL A   1      35.766  34.758  32.474  1.00  0.00    -0.237 OA
ATOM     76  O   UNL A   1      33.953  33.076  32.445  1.00  0.00    -0.237 OA
ATOM     77  O   UNL A   1      35.466  33.229  34.386  1.00  0.00    -0.744 OA
ENDBRANCH  73  74
ENDBRANCH  52  66
BRANCH  53  78
ATOM     78  C   UNL A   1      46.538  30.930  28.424  1.00  0.00     0.058 A 
ATOM     79  C   UNL A   1      47.883  31.289  28.643  1.00  0.00     0.135 A 
ATOM     80  C   UNL A   1      45.806  31.804  27.597  1.00  0.00     0.135 A 
ATOM     81  F   UNL A   1      48.625  30.625  29.544  1.00  0.00    -0.206 F 
ATOM     82  C   UNL A   1      48.502  32.337  27.957  1.00  0.00     0.059 A 
ATOM     83  C   UNL A   1      46.407  32.832  26.868  1.00  0.00     0.059 A 
ATOM     84  F   UNL A   1      44.479  31.683  27.464  1.00  0.00    -0.206 F 
ATOM     85  C   UNL A   1      47.766  33.069  27.030  1.00  0.00     0.060 A 
BRANCH  85  86
ATOM     86  S   UNL A   1      48.619  34.277  25.992  1.00  0.00     0.124 S 
ATOM     87  O   UNL A   1      49.035  35.277  26.974  1.00  0.00    -0.237 OA
ATOM     88  O   UNL A   1      49.694  33.469  25.417  1.00  0.00    -0.237 OA
ATOM     89  O   UNL A   1      47.594  34.703  25.054  1.00  0.00    -0.744 OA
ENDBRANCH  85  86
ENDBRANCH  53  78
BRANCH  65  90
ATOM     90  C   UNL A   1      44.096  27.192  33.349  1.00  0.00     0.058 A 
ATOM     91  C   UNL A   1      44.549  27.338  34.669  1.00  0.00     0.135 A 
ATOM     92  C   UNL A   1      44.329  25.973  32.700  1.00  0.00     0.135 A 
ATOM     93  F   UNL A   1      44.328  28.482  35.340  1.00  0.00    -0.206 F 
ATOM     94  C   UNL A   1      45.173  26.299  35.341  1.00  0.00     0.059 A 
ATOM     95  C   UNL A   1      44.948  24.913  33.358  1.00  0.00     0.059 A 
ATOM     96  F   UNL A   1      43.924  25.785  31.432  1.00  0.00    -0.206 F 
ATOM     97  C   UNL A   1      45.348  25.081  34.685  1.00  0.00     0.060 A 
BRANCH  97  98
ATOM     98  S   UNL A   1      46.013  23.700  35.633  1.00  0.00     0.124 S 
ATOM     99  O   UNL A   1      46.961  23.109  34.693  1.00  0.00    -0.237 OA
ATOM    100  O   UNL A   1      46.603  24.377  36.784  1.00  0.00    -0.237 OA
ATOM    101  O   UNL A   1      44.838  22.888  35.930  1.00  0.00    -0.744 OA
ENDBRANCH  97  98
ENDBRANCH  65  90
ENDBRANCH  39  40
ENDBRANCH  31  34
ENDBRANCH  29  30
ENDBRANCH  28  29
ENDBRANCH   1  28
TORSDOF 18
ENDMDL
MODEL 2
REMARK VINA RESULT:     -12.1      0.998      2.052
REMARK SMILES CCc1nc(N2CCC[C@@H](C(=O)NCCCCCCNC(=O)c3ccc(-c4c5nc(c(-c6c(F)cc(S(=O)(=O)[O-])cc6F)c6ccc([nH]6)c(-c6c(F)cc(S(=O)(=O)[O-])cc6F)c6nc(c(-c7c(F)cc(S(=O)(=O)[O-])cc7F)c7ccc4[nH]7)C=C6)C=C5)cc3)C2)c2c(C)c(C)oc2n1
REMARK SMILES IDX 17 1 16 2 15 3 14 4 13 5 11 6 12 7 10 9 6 10 7 11 89 12 8 13
REMARK SMILES IDX 9 14 5 15 3 16 4 17 97 18 96 19 90 20 95 21 91 22 93 23
REMARK SMILES IDX 92 24 94 25 2 26 1 27 18 28 19 29 20 30 21 31 22 33 23 34
REMARK SMILES IDX 24 35 88 36 25 37 87 38 26 39 27 40 28 41 81 42 29 43 86 44
REMARK SMILES IDX 80 45 82 46 30 47 85 48 79 49 78 50 31 52 65 53 44 54 64 55
REMARK SMILES IDX 45 56 48 57 63 58 83 59 46 60 47 61 62 63 84 64 49 65 32 66
REMARK SMILES IDX 33 67 42 68 34 69 35 70 41 71 43 72 36 73 37 74 38 75 39 76
REMARK SMILES IDX 40 77 66 78 67 79 76 80 68 81 69 82 75 83 77 84 70 85 71 86
REMARK SMILES IDX 72 87 73 88 74 89 50 90 51 91 60 92 52 93 53 94 59 95 61 96
REMARK SMILES IDX 54 97 55 98 56 99 57 100 58 101
REMARK H PARENT 13 8 20 32 82 51 48 62
REMARK Flexibility Score: inf
ROOT
ATOM      1  C   UNL A   1      35.877  20.471  25.041  1.00  0.00     0.002 C 
ENDROOT
BRANCH   1   2
ATOM      2  C   UNL A   1      34.523  20.721  25.719  1.00  0.00     0.002 C 
BRANCH   2   3
ATOM      3  C   UNL A   1      33.280  20.197  24.981  1.00  0.00     0.021 C 
BRANCH   3   4
ATOM      4  C   UNL A   1      32.086  21.157  24.906  1.00  0.00     0.116 C 
BRANCH   4   5
ATOM      5  N   UNL A   1      31.882  21.908  26.139  1.00  0.00    -0.356 N 
ATOM      6  C   UNL A   1      31.873  23.250  26.384  1.00  0.00     0.224 C 
ATOM      7  O   UNL A   1      31.577  23.629  27.520  1.00  0.00    -0.275 OA
ATOM      8  H   UNL A   1      31.721  21.349  26.934  1.00  0.00     0.163 HD
BRANCH   6   9
ATOM      9  C   UNL A   1      32.198  24.244  25.284  1.00  0.00     0.098 C 
ATOM     10  N   UNL A   1      32.548  26.549  24.763  1.00  0.00    -0.355 N 
ATOM     11  C   UNL A   1      33.854  26.413  24.137  1.00  0.00     0.118 C 
ATOM     12  C   UNL A   1      32.263  25.657  25.877  1.00  0.00     0.131 C 
ATOM     13  C   UNL A   1      34.026  24.979  23.626  1.00  0.00     0.022 C 
ATOM     14  C   UNL A   1      33.540  23.900  24.605  1.00  0.00     0.017 C 
BRANCH  10  15
ATOM     15  C   UNL A   1      31.860  27.734  24.637  1.00  0.00     0.143 A 
ATOM     16  C   UNL A   1      30.195  29.034  23.613  1.00  0.00     0.134 A 
ATOM     17  N   UNL A   1      30.884  27.870  23.702  1.00  0.00    -0.215 NA
ATOM     18  N   UNL A   1      30.377  30.124  24.374  1.00  0.00    -0.197 NA
ATOM     19  C   UNL A   1      31.388  29.977  25.233  1.00  0.00     0.231 A 
ATOM     20  C   UNL A   1      32.184  28.859  25.412  1.00  0.00     0.086 A 
ATOM     21  O   UNL A   1      31.792  30.976  26.069  1.00  0.00    -0.443 OA
ATOM     22  C   UNL A   1      33.197  29.237  26.356  1.00  0.00     0.004 A 
ATOM     23  C   UNL A   1      32.882  30.525  26.744  1.00  0.00     0.107 A 
ATOM     24  C   UNL A   1      34.375  28.459  26.802  1.00  0.00     0.049 C 
ATOM     25  C   UNL A   1      33.509  31.476  27.685  1.00  0.00     0.088 C 
BRANCH  16  26
ATOM     26  C   UNL A   1      29.174  29.195  22.512  1.00  0.00     0.074 C 
ATOM     27  C   UNL A   1      27.751  28.806  22.876  1.00  0.00     0.012 C 
ENDBRANCH  16  26
ENDBRANCH  10  15
ENDBRANCH   6   9
ENDBRANCH   4   5
ENDBRANCH   3   4
ENDBRANCH   2   3
ENDBRANCH   1   2
BRANCH   1  28
ATOM     28  C   UNL A   1      36.593  21.700  24.444  1.00  0.00     0.021 C 
BRANCH  28  29
ATOM     29  C   UNL A   1      37.400  22.581  25.424  1.00  0.00     0.116 C 
BRANCH  29  30
ATOM     30  N   UNL A   1      38.438  21.810  26.092  1.00  0.00    -0.352 N 
ATOM     31  C   UNL A   1      39.677  22.125  26.587  1.00  0.00     0.251 C 
ATOM     32  H   UNL A   1      38.200  20.863  26.215  1.00  0.00     0.163 HD
ATOM     33  O   UNL A   1      40.430  21.181  26.838  1.00  0.00    -0.269 OA
BRANCH  31  34
ATOM     34  C   UNL A   1      40.167  23.505  26.847  1.00  0.00     0.039 A 
ATOM     35  C   UNL A   1      41.362  23.896  26.215  1.00  0.00     0.014 A 
ATOM     36  C   UNL A   1      39.612  24.351  27.806  1.00  0.00     0.014 A 
ATOM     37  C   UNL A   1      41.974  25.126  26.499  1.00  0.00     0.010 A 
ATOM     38  C   UNL A   1      40.233  25.581  28.095  1.00  0.00     0.010 A 
ATOM     39  C   UNL A   1      41.408  25.996  27.432  1.00  0.00    -0.014 A 
BRANCH  39  40
ATOM     40  C   UNL A   1      41.960  27.375  27.571  1.00  0.00     0.031 A 
ATOM     41  C   UNL A   1      40.944  28.401  27.917  1.00  0.00     0.074 A 
ATOM     42  C   UNL A   1      43.239  27.697  27.883  1.00  0.00     0.049 A 
ATOM     43  N   UNL A   1      40.542  28.505  29.143  1.00  0.00    -0.248 NA
ATOM     44  C   UNL A   1      40.161  29.195  26.977  1.00  0.00     0.031 C 
ATOM     45  C   UNL A   1      44.213  26.758  28.450  1.00  0.00     0.029 A 
ATOM     46  N   UNL A   1      43.879  28.925  27.959  1.00  0.00    -0.354 N 
ATOM     47  C   UNL A   1      39.441  29.329  29.164  1.00  0.00     0.074 A 
ATOM     48  C   UNL A   1      39.245  29.750  27.795  1.00  0.00     0.031 C 
ATOM     49  C   UNL A   1      45.265  27.454  28.933  1.00  0.00     0.029 A 
ATOM     50  C   UNL A   1      45.125  28.869  28.587  1.00  0.00     0.049 A 
ATOM     51  H   UNL A   1      43.491  29.757  27.604  1.00  0.00     0.167 HD
ATOM     52  C   UNL A   1      38.822  29.610  30.343  1.00  0.00     0.037 A 
ATOM     53  C   UNL A   1      45.751  29.865  29.276  1.00  0.00     0.037 A 
ATOM     54  C   UNL A   1      39.439  29.059  31.532  1.00  0.00     0.049 A 
ATOM     55  C   UNL A   1      44.844  30.095  30.453  1.00  0.00     0.074 A 
ATOM     56  C   UNL A   1      39.092  28.400  32.693  1.00  0.00     0.029 A 
ATOM     57  N   UNL A   1      40.798  29.183  31.577  1.00  0.00    -0.354 N 
ATOM     58  N   UNL A   1      44.773  29.350  31.526  1.00  0.00    -0.248 NA
ATOM     59  C   UNL A   1      43.787  31.115  30.342  1.00  0.00     0.031 C 
ATOM     60  C   UNL A   1      40.305  28.167  33.432  1.00  0.00     0.029 A 
ATOM     61  C   UNL A   1      41.361  28.730  32.733  1.00  0.00     0.049 A 
ATOM     62  H   UNL A   1      41.326  29.566  30.840  1.00  0.00     0.167 HD
ATOM     63  C   UNL A   1      43.529  29.639  32.070  1.00  0.00     0.074 A 
ATOM     64  C   UNL A   1      43.052  30.836  31.411  1.00  0.00     0.031 C 
ATOM     65  C   UNL A   1      42.803  28.756  32.811  1.00  0.00     0.037 A 
BRANCH  52  66
ATOM     66  C   UNL A   1      37.787  30.652  30.488  1.00  0.00     0.058 A 
ATOM     67  C   UNL A   1      38.182  31.902  30.995  1.00  0.00     0.135 A 
ATOM     68  C   UNL A   1      36.422  30.404  30.329  1.00  0.00     0.135 A 
ATOM     69  F   UNL A   1      39.487  32.179  31.153  1.00  0.00    -0.206 F 
ATOM     70  C   UNL A   1      37.255  32.860  31.377  1.00  0.00     0.059 A 
ATOM     71  C   UNL A   1      35.470  31.355  30.699  1.00  0.00     0.059 A 
ATOM     72  F   UNL A   1      35.998  29.223  29.853  1.00  0.00    -0.206 F 
ATOM     73  C   UNL A   1      35.898  32.570  31.244  1.00  0.00     0.060 A 
BRANCH  73  74
ATOM     74  S   UNL A   1      34.710  33.797  31.829  1.00  0.00     0.124 S 
ATOM     75  O   UNL A   1      33.983  34.122  30.606  1.00  0.00    -0.237 OA
ATOM     76  O   UNL A   1      33.967  33.041  32.832  1.00  0.00    -0.237 OA
ATOM     77  O   UNL A   1      35.557  34.864  32.356  1.00  0.00    -0.744 OA
ENDBRANCH  73  74
ENDBRANCH  52  66
BRANCH  53  78
ATOM     78  C   UNL A   1      46.376  31.006  28.523  1.00  0.00     0.058 A 
ATOM     79  C   UNL A   1      47.628  31.516  28.922  1.00  0.00     0.135 A 
ATOM     80  C   UNL A   1      45.767  31.679  27.446  1.00  0.00     0.135 A 
ATOM     81  F   UNL A   1      48.220  31.063  30.039  1.00  0.00    -0.206 F 
ATOM     82  C   UNL A   1      48.302  32.503  28.200  1.00  0.00     0.059 A 
ATOM     83  C   UNL A   1      46.433  32.639  26.682  1.00  0.00     0.059 A 
ATOM     84  F   UNL A   1      44.501  31.419  27.094  1.00  0.00    -0.206 F 
ATOM     85  C   UNL A   1      47.717  33.021  27.049  1.00  0.00     0.060 A 
BRANCH  85  86
ATOM     86  S   UNL A   1      48.679  34.136  26.002  1.00  0.00     0.124 S 
ATOM     87  O   UNL A   1      47.671  34.598  25.049  1.00  0.00    -0.237 OA
ATOM     88  O   UNL A   1      49.137  35.132  26.970  1.00  0.00    -0.237 OA
ATOM     89  O   UNL A   1      49.717  33.279  25.456  1.00  0.00    -0.744 OA
ENDBRANCH  85  86
ENDBRANCH  53  78
BRANCH  65  90
ATOM     90  C   UNL A   1      43.559  27.745  33.584  1.00  0.00     0.058 A 
ATOM     91  C   UNL A   1      43.848  28.007  34.931  1.00  0.00     0.135 A 
ATOM     92  C   UNL A   1      43.902  26.491  33.064  1.00  0.00     0.135 A 
ATOM     93  F   UNL A   1      43.516  29.188  35.481  1.00  0.00    -0.206 F 
ATOM     94  C   UNL A   1      44.419  27.045  35.750  1.00  0.00     0.059 A 
ATOM     95  C   UNL A   1      44.470  25.508  33.870  1.00  0.00     0.059 A 
ATOM     96  F   UNL A   1      43.656  26.194  31.777  1.00  0.00    -0.206 F 
ATOM     97  C   UNL A   1      44.706  25.790  35.217  1.00  0.00     0.060 A 
BRANCH  97  98
ATOM     98  S   UNL A   1      45.295  24.509  36.341  1.00  0.00     0.124 S 
ATOM     99  O   UNL A   1      46.609  25.017  36.725  1.00  0.00    -0.237 OA
ATOM    100  O   UNL A   1      44.278  24.533  37.389  1.00  0.00    -0.237 OA
ATOM    101  O   UNL A   1      45.305  23.305  35.518  1.00  0.00    -0.744 OA
ENDBRANCH  97  98
ENDBRANCH  65  90
ENDBRANCH  39  40
ENDBRANCH  31  34
ENDBRANCH  29  30
ENDBRANCH  28  29
ENDBRANCH   1  28
TORSDOF 18
ENDMDL
MODEL 3
REMARK VINA RESULT:     -11.5      3.059      9.199
REMARK SMILES CCc1nc(N2CCC[C@@H](C(=O)NCCCCCCNC(=O)c3ccc(-c4c5nc(c(-c6c(F)cc(S(=O)(=O)[O-])cc6F)c6ccc([nH]6)c(-c6c(F)cc(S(=O)(=O)[O-])cc6F)c6nc(c(-c7c(F)cc(S(=O)(=O)[O-])cc7F)c7ccc4[nH]7)C=C6)C=C5)cc3)C2)c2c(C)c(C)oc2n1
REMARK SMILES IDX 17 1 16 2 15 3 14 4 13 5 11 6 12 7 10 9 6 10 7 11 89 12 8 13
REMARK SMILES IDX 9 14 5 15 3 16 4 17 97 18 96 19 90 20 95 21 91 22 93 23
REMARK SMILES IDX 92 24 94 25 2 26 1 27 18 28 19 29 20 30 21 31 22 33 23 34
REMARK SMILES IDX 24 35 88 36 25 37 87 38 26 39 27 40 28 41 81 42 29 43 86 44
REMARK SMILES IDX 80 45 82 46 30 47 85 48 79 49 78 50 31 52 65 53 44 54 64 55
REMARK SMILES IDX 45 56 48 57 63 58 83 59 46 60 47 61 62 63 84 64 49 65 32 66
REMARK SMILES IDX 33 67 42 68 34 69 35 70 41 71 43 72 36 73 37 74 38 75 39 76
REMARK SMILES IDX 40 77 66 78 67 79 76 80 68 81 69 82 75 83 77 84 70 85 71 86
REMARK SMILES IDX 72 87 73 88 74 89 50 90 51 91 60 92 52 93 53 94 59 95 61 96
REMARK SMILES IDX 54 97 55 98 56 99 57 100 58 101
REMARK H PARENT 13 8 20 32 82 51 48 62
REMARK Flexibility Score: inf
ROOT
ATOM      1  C   UNL A   1      31.524  28.302  26.118  1.00  0.00     0.002 C 
ENDROOT
BRANCH   1   2
ATOM      2  C   UNL A   1      31.259  29.132  24.854  1.00  0.00     0.002 C 
BRANCH   2   3
ATOM      3  C   UNL A   1      31.930  28.642  23.559  1.00  0.00     0.021 C 
BRANCH   3   4
ATOM      4  C   UNL A   1      31.089  27.712  22.675  1.00  0.00     0.116 C 
BRANCH   4   5
ATOM      5  N   UNL A   1      31.859  27.104  21.596  1.00  0.00    -0.356 N 
ATOM      6  C   UNL A   1      32.416  25.865  21.476  1.00  0.00     0.224 C 
ATOM      7  O   UNL A   1      32.942  25.569  20.400  1.00  0.00    -0.275 OA
ATOM      8  H   UNL A   1      31.999  27.691  20.817  1.00  0.00     0.163 HD
BRANCH   6   9
ATOM      9  C   UNL A   1      32.369  24.876  22.626  1.00  0.00     0.098 C 
ATOM     10  N   UNL A   1      33.480  24.100  24.593  1.00  0.00    -0.355 N 
ATOM     11  C   UNL A   1      32.364  24.238  25.516  1.00  0.00     0.118 C 
ATOM     12  C   UNL A   1      33.581  25.099  23.539  1.00  0.00     0.131 C 
ATOM     13  C   UNL A   1      31.048  24.205  24.732  1.00  0.00     0.022 C 
ATOM     14  C   UNL A   1      31.066  25.032  23.438  1.00  0.00     0.017 C 
BRANCH  10  15
ATOM     15  C   UNL A   1      34.597  23.398  24.985  1.00  0.00     0.143 A 
ATOM     16  C   UNL A   1      36.792  23.344  25.815  1.00  0.00     0.134 A 
ATOM     17  N   UNL A   1      35.711  24.052  25.402  1.00  0.00    -0.215 NA
ATOM     18  N   UNL A   1      36.896  22.008  25.856  1.00  0.00    -0.197 NA
ATOM     19  C   UNL A   1      35.809  21.401  25.374  1.00  0.00     0.231 A 
ATOM     20  C   UNL A   1      34.653  21.998  24.902  1.00  0.00     0.086 A 
ATOM     21  O   UNL A   1      35.713  20.046  25.265  1.00  0.00    -0.443 OA
ATOM     22  C   UNL A   1      33.837  20.935  24.386  1.00  0.00     0.004 A 
ATOM     23  C   UNL A   1      34.522  19.769  24.670  1.00  0.00     0.107 A 
ATOM     24  C   UNL A   1      32.554  21.032  23.654  1.00  0.00     0.049 C 
ATOM     25  C   UNL A   1      34.231  18.343  24.418  1.00  0.00     0.088 C 
BRANCH  16  26
ATOM     26  C   UNL A   1      38.050  24.089  26.194  1.00  0.00     0.074 C 
ATOM     27  C   UNL A   1      39.210  23.222  26.655  1.00  0.00     0.012 C 
ENDBRANCH  16  26
ENDBRANCH  10  15
ENDBRANCH   6   9
ENDBRANCH   4   5
ENDBRANCH   3   4
ENDBRANCH   2   3
ENDBRANCH   1   2
BRANCH   1  28
ATOM     28  C   UNL A   1      32.577  28.851  27.102  1.00  0.00     0.021 C 
BRANCH  28  29
ATOM     29  C   UNL A   1      33.928  29.299  26.500  1.00  0.00     0.116 C 
BRANCH  29  30
ATOM     30  N   UNL A   1      34.183  30.706  26.770  1.00  0.00    -0.352 N 
ATOM     31  C   UNL A   1      34.936  31.366  27.707  1.00  0.00     0.251 C 
ATOM     32  H   UNL A   1      33.719  31.311  26.148  1.00  0.00     0.163 HD
ATOM     33  O   UNL A   1      34.715  32.571  27.847  1.00  0.00    -0.269 OA
BRANCH  31  34
ATOM     34  C   UNL A   1      35.992  30.741  28.548  1.00  0.00     0.039 A 
ATOM     35  C   UNL A   1      37.297  30.700  28.021  1.00  0.00     0.014 A 
ATOM     36  C   UNL A   1      35.727  30.046  29.727  1.00  0.00     0.014 A 
ATOM     37  C   UNL A   1      38.331  30.015  28.677  1.00  0.00     0.010 A 
ATOM     38  C   UNL A   1      36.765  29.353  30.378  1.00  0.00     0.010 A 
ATOM     39  C   UNL A   1      38.084  29.346  29.876  1.00  0.00    -0.014 A 
BRANCH  39  40
ATOM     40  C   UNL A   1      39.233  28.799  30.654  1.00  0.00     0.031 A 
ATOM     41  C   UNL A   1      40.017  27.767  29.929  1.00  0.00     0.074 A 
ATOM     42  C   UNL A   1      39.890  29.426  31.660  1.00  0.00     0.049 A 
ATOM     43  N   UNL A   1      40.878  28.139  29.036  1.00  0.00    -0.248 NA
ATOM     44  C   UNL A   1      39.782  26.328  29.948  1.00  0.00     0.031 C 
ATOM     45  C   UNL A   1      39.797  30.863  31.938  1.00  0.00     0.029 A 
ATOM     46  N   UNL A   1      40.906  28.991  32.499  1.00  0.00    -0.354 N 
ATOM     47  C   UNL A   1      41.280  27.024  28.339  1.00  0.00     0.074 A 
ATOM     48  C   UNL A   1      40.584  25.913  28.948  1.00  0.00     0.031 C 
ATOM     49  C   UNL A   1      40.796  31.214  32.777  1.00  0.00     0.029 A 
ATOM     50  C   UNL A   1      41.515  30.019  33.220  1.00  0.00     0.049 A 
ATOM     51  H   UNL A   1      41.171  28.046  32.578  1.00  0.00     0.167 HD
ATOM     52  C   UNL A   1      42.195  27.138  27.338  1.00  0.00     0.037 A 
ATOM     53  C   UNL A   1      42.794  30.057  33.689  1.00  0.00     0.037 A 
ATOM     54  C   UNL A   1      42.746  28.461  27.129  1.00  0.00     0.049 A 
ATOM     55  C   UNL A   1      43.624  30.052  32.434  1.00  0.00     0.074 A 
ATOM     56  C   UNL A   1      43.040  29.333  26.102  1.00  0.00     0.029 A 
ATOM     57  N   UNL A   1      43.093  29.121  28.274  1.00  0.00    -0.354 N 
ATOM     58  N   UNL A   1      43.843  31.079  31.654  1.00  0.00    -0.248 NA
ATOM     59  C   UNL A   1      44.078  28.761  31.892  1.00  0.00     0.031 C 
ATOM     60  C   UNL A   1      43.598  30.521  26.693  1.00  0.00     0.029 A 
ATOM     61  C   UNL A   1      43.680  30.332  28.063  1.00  0.00     0.049 A 
ATOM     62  H   UNL A   1      42.933  28.753  29.173  1.00  0.00     0.167 HD
ATOM     63  C   UNL A   1      44.214  30.522  30.439  1.00  0.00     0.074 A 
ATOM     64  C   UNL A   1      44.506  29.126  30.691  1.00  0.00     0.031 C 
ATOM     65  C   UNL A   1      43.995  31.118  29.234  1.00  0.00     0.037 A 
BRANCH  52  66
ATOM     66  C   UNL A   1      42.847  25.980  26.697  1.00  0.00     0.058 A 
ATOM     67  C   UNL A   1      44.150  25.652  27.107  1.00  0.00     0.135 A 
ATOM     68  C   UNL A   1      42.316  25.319  25.587  1.00  0.00     0.135 A 
ATOM     69  F   UNL A   1      44.690  26.261  28.176  1.00  0.00    -0.206 F 
ATOM     70  C   UNL A   1      44.924  24.733  26.413  1.00  0.00     0.059 A 
ATOM     71  C   UNL A   1      43.071  24.385  24.877  1.00  0.00     0.059 A 
ATOM     72  F   UNL A   1      41.077  25.603  25.156  1.00  0.00    -0.206 F 
ATOM     73  C   UNL A   1      44.382  24.117  25.286  1.00  0.00     0.060 A 
BRANCH  73  74
ATOM     74  S   UNL A   1      45.437  22.991  24.349  1.00  0.00     0.124 S 
ATOM     75  O   UNL A   1      46.517  23.874  23.920  1.00  0.00    -0.237 OA
ATOM     76  O   UNL A   1      45.787  21.997  25.358  1.00  0.00    -0.237 OA
ATOM     77  O   UNL A   1      44.560  22.514  23.283  1.00  0.00    -0.744 OA
ENDBRANCH  73  74
ENDBRANCH  52  66
BRANCH  53  78
ATOM     78  C   UNL A   1      43.168  29.230  34.888  1.00  0.00     0.058 A 
ATOM     79  C   UNL A   1      42.915  27.843  34.897  1.00  0.00     0.135 A 
ATOM     80  C   UNL A   1      43.714  29.751  36.077  1.00  0.00     0.135 A 
ATOM     81  F   UNL A   1      42.243  27.269  33.886  1.00  0.00    -0.206 F 
ATOM     82  C   UNL A   1      43.331  27.010  35.938  1.00  0.00     0.059 A 
ATOM     83  C   UNL A   1      44.176  28.939  37.115  1.00  0.00     0.059 A 
ATOM     84  F   UNL A   1      43.823  31.072  36.268  1.00  0.00    -0.206 F 
ATOM     85  C   UNL A   1      44.010  27.563  37.020  1.00  0.00     0.060 A 
BRANCH  85  86
ATOM     86  S   UNL A   1      44.735  26.463  38.256  1.00  0.00     0.124 S 
ATOM     87  O   UNL A   1      44.484  27.196  39.495  1.00  0.00    -0.237 OA
ATOM     88  O   UNL A   1      43.945  25.246  38.071  1.00  0.00    -0.237 OA
ATOM     89  O   UNL A   1      46.127  26.366  37.851  1.00  0.00    -0.744 OA
ENDBRANCH  85  86
ENDBRANCH  53  78
BRANCH  65  90
ATOM     90  C   UNL A   1      43.959  32.597  29.212  1.00  0.00     0.058 A 
ATOM     91  C   UNL A   1      45.109  33.292  28.809  1.00  0.00     0.135 A 
ATOM     92  C   UNL A   1      42.796  33.333  29.468  1.00  0.00     0.135 A 
ATOM     93  F   UNL A   1      46.243  32.626  28.529  1.00  0.00    -0.206 F 
ATOM     94  C   UNL A   1      45.098  34.665  28.622  1.00  0.00     0.059 A 
ATOM     95  C   UNL A   1      42.760  34.713  29.281  1.00  0.00     0.059 A 
ATOM     96  F   UNL A   1      41.670  32.716  29.867  1.00  0.00    -0.206 F 
ATOM     97  C   UNL A   1      43.912  35.366  28.839  1.00  0.00     0.060 A 
BRANCH  97  98
ATOM     98  S   UNL A   1      43.883  37.122  28.433  1.00  0.00     0.124 S 
ATOM     99  O   UNL A   1      42.632  37.246  27.692  1.00  0.00    -0.237 OA
ATOM    100  O   UNL A   1      43.898  37.740  29.755  1.00  0.00    -0.237 OA
ATOM    101  O   UNL A   1      45.098  37.314  27.647  1.00  0.00    -0.744 OA
ENDBRANCH  97  98
ENDBRANCH  65  90
ENDBRANCH  39  40
ENDBRANCH  31  34
ENDBRANCH  29  30
ENDBRANCH  28  29
ENDBRANCH   1  28
TORSDOF 18
ENDMDL
