MODEL 1
REMARK VINA RESULT:     -13.0      0.000      0.000
REMARK SMILES Cc1n[nH]c(C)c1C(=O)N1CC(n2cc(C(=O)NCCCCCCNC(=O)c3ccc(-c4c5nc(c(-c6c(F)cc(S(=O)(=O)[O-])cc6F)c6ccc([nH]6)c(-c6c(F)cc(S(=O)(=O)[O-])cc6F)c6nc(c(-c7c(F)cc(S(=O)(=O)[O-])cc7F)c7ccc4[nH]7)C=C6)C=C5)cc3)nn2)C1
REMARK SMILES IDX 22 1 21 2 20 3 19 4 18 5 16 6 17 7 15 9 13 10 14 11 95 12
REMARK SMILES IDX 94 13 12 14 8 15 9 16 10 17 11 18 96 19 7 20 1 21 2 22 3 23
REMARK SMILES IDX 4 24 5 25 6 27 23 28 24 29 25 30 26 31 27 33 28 34 29 35
REMARK SMILES IDX 93 36 30 37 92 38 31 39 32 40 33 41 86 42 34 43 91 44 85 45
REMARK SMILES IDX 87 46 35 47 90 48 84 49 83 50 36 52 70 53 49 54 69 55 50 56
REMARK SMILES IDX 53 57 68 58 88 59 51 60 52 61 67 63 89 64 54 65 37 66 38 67
REMARK SMILES IDX 47 68 39 69 40 70 46 71 48 72 41 73 42 74 43 75 44 76 45 77
REMARK SMILES IDX 71 78 72 79 81 80 73 81 74 82 80 83 82 84 75 85 76 86 77 87
REMARK SMILES IDX 78 88 79 89 55 90 56 91 65 92 57 93 58 94 64 95 66 96 59 97
REMARK SMILES IDX 60 98 61 99 62 100 63 101
REMARK H PARENT 18 8 4 26 25 32 87 51 53 62
REMARK Flexibility Score: inf
ROOT
ATOM      1  C   UNL A   1      40.017  21.133  26.678  1.00  0.00     0.002 C 
ENDROOT
BRANCH   1   2
ATOM      2  C   UNL A   1      38.901  21.675  25.772  1.00  0.00     0.002 C 
BRANCH   2   3
ATOM      3  C   UNL A   1      38.007  20.627  25.098  1.00  0.00     0.021 C 
BRANCH   3   4
ATOM      4  C   UNL A   1      36.510  20.887  25.243  1.00  0.00     0.116 C 
BRANCH   4   5
ATOM      5  N   UNL A   1      35.737  19.666  25.110  1.00  0.00    -0.351 N 
ATOM      6  C   UNL A   1      34.412  19.488  24.774  1.00  0.00     0.273 C 
ATOM      7  O   UNL A   1      34.043  18.355  24.477  1.00  0.00    -0.267 OA
ATOM      8  H   UNL A   1      36.236  18.836  25.286  1.00  0.00     0.163 HD
BRANCH   6   9
ATOM      9  C   UNL A   1      33.515  20.635  24.735  1.00  0.00     0.170 A 
ATOM     10  N   UNL A   1      32.288  22.344  24.204  1.00  0.00    -0.245 N 
ATOM     11  C   UNL A   1      33.290  21.547  23.723  1.00  0.00     0.145 A 
ATOM     12  N   UNL A   1      31.961  21.999  25.462  1.00  0.00    -0.066 NA
ATOM     13  N   UNL A   1      32.726  20.975  25.811  1.00  0.00    -0.125 NA
BRANCH  10  14
ATOM     14  C   UNL A   1      31.566  23.292  23.406  1.00  0.00     0.148 C 
ATOM     15  C   UNL A   1      31.650  26.374  22.193  1.00  0.00     0.257 C 
ATOM     16  O   UNL A   1      31.445  26.328  20.983  1.00  0.00    -0.269 OA
ATOM     17  N   UNL A   1      32.037  25.246  22.879  1.00  0.00    -0.334 N 
ATOM     18  C   UNL A   1      32.407  23.958  22.306  1.00  0.00     0.149 C 
ATOM     19  C   UNL A   1      31.529  24.671  24.108  1.00  0.00     0.149 C 
BRANCH  15  20
ATOM     20  C   UNL A   1      31.553  27.638  22.927  1.00  0.00     0.083 A 
ATOM     21  C   UNL A   1      28.962  27.667  23.369  1.00  0.00     0.069 C 
ATOM     22  C   UNL A   1      30.340  28.224  23.418  1.00  0.00     0.072 A 
ATOM     23  N   UNL A   1      30.544  29.427  23.968  1.00  0.00    -0.180 NA
ATOM     24  N   UNL A   1      31.852  29.630  23.819  1.00  0.00    -0.282 N 
ATOM     25  C   UNL A   1      32.516  28.603  23.205  1.00  0.00     0.045 A 
ATOM     26  H   UNL A   1      32.304  30.451  24.125  1.00  0.00     0.190 HD
ATOM     27  C   UNL A   1      33.966  28.729  22.931  1.00  0.00     0.067 C 
ENDBRANCH  15  20
ENDBRANCH  10  14
ENDBRANCH   6   9
ENDBRANCH   4   5
ENDBRANCH   3   4
ENDBRANCH   2   3
ENDBRANCH   1   2
BRANCH   1  28
ATOM     28  C   UNL A   1      40.844  19.965  26.125  1.00  0.00     0.021 C 
BRANCH  28  29
ATOM     29  C   UNL A   1      42.219  19.791  26.763  1.00  0.00     0.116 C 
BRANCH  29  30
ATOM     30  N   UNL A   1      43.299  20.111  25.839  1.00  0.00    -0.352 N 
ATOM     31  C   UNL A   1      43.761  21.347  25.446  1.00  0.00     0.251 C 
ATOM     32  H   UNL A   1      43.760  19.339  25.440  1.00  0.00     0.163 HD
ATOM     33  O   UNL A   1      44.458  21.450  24.442  1.00  0.00    -0.269 OA
BRANCH  31  34
ATOM     34  C   UNL A   1      43.383  22.548  26.218  1.00  0.00     0.039 A 
ATOM     35  C   UNL A   1      43.880  22.727  27.509  1.00  0.00     0.014 A 
ATOM     36  C   UNL A   1      42.544  23.506  25.653  1.00  0.00     0.014 A 
ATOM     37  C   UNL A   1      43.603  23.914  28.195  1.00  0.00     0.010 A 
ATOM     38  C   UNL A   1      42.332  24.715  26.306  1.00  0.00     0.010 A 
ATOM     39  C   UNL A   1      42.847  24.931  27.589  1.00  0.00    -0.014 A 
BRANCH  39  40
ATOM     40  C   UNL A   1      42.699  26.228  28.280  1.00  0.00     0.031 A 
ATOM     41  C   UNL A   1      43.760  27.265  28.056  1.00  0.00     0.074 A 
ATOM     42  C   UNL A   1      41.586  26.668  28.910  1.00  0.00     0.049 A 
ATOM     43  N   UNL A   1      44.483  27.880  28.939  1.00  0.00    -0.248 NA
ATOM     44  C   UNL A   1      44.031  27.682  26.672  1.00  0.00     0.031 C 
ATOM     45  C   UNL A   1      40.272  26.026  28.990  1.00  0.00     0.029 A 
ATOM     46  N   UNL A   1      41.372  27.882  29.510  1.00  0.00    -0.354 N 
ATOM     47  C   UNL A   1      45.166  28.885  28.257  1.00  0.00     0.074 A 
ATOM     48  C   UNL A   1      44.913  28.666  26.852  1.00  0.00     0.031 C 
ATOM     49  C   UNL A   1      39.353  26.944  29.361  1.00  0.00     0.029 A 
ATOM     50  C   UNL A   1      40.034  28.182  29.701  1.00  0.00     0.049 A 
ATOM     51  H   UNL A   1      42.102  28.485  29.778  1.00  0.00     0.167 HD
ATOM     52  C   UNL A   1      45.768  29.936  28.882  1.00  0.00     0.037 A 
ATOM     53  C   UNL A   1      39.499  29.369  30.070  1.00  0.00     0.037 A 
ATOM     54  C   UNL A   1      45.918  29.743  30.298  1.00  0.00     0.049 A 
ATOM     55  C   UNL A   1      40.542  30.161  30.761  1.00  0.00     0.074 A 
ATOM     56  C   UNL A   1      46.491  28.783  31.110  1.00  0.00     0.029 A 
ATOM     57  N   UNL A   1      45.193  30.543  31.147  1.00  0.00    -0.354 N 
ATOM     58  N   UNL A   1      41.038  29.873  31.933  1.00  0.00    -0.248 NA
ATOM     59  C   UNL A   1      41.262  31.184  30.016  1.00  0.00     0.031 C 
ATOM     60  C   UNL A   1      45.701  28.769  32.298  1.00  0.00     0.029 A 
ATOM     61  C   UNL A   1      44.693  29.715  32.122  1.00  0.00     0.049 A 
ATOM     62  H   UNL A   1      45.058  31.515  31.072  1.00  0.00     0.167 HD
ATOM     63  C   UNL A   1      42.327  30.373  31.906  1.00  0.00     0.074 A 
ATOM     64  C   UNL A   1      42.350  31.296  30.780  1.00  0.00     0.031 C 
ATOM     65  C   UNL A   1      43.333  29.775  32.610  1.00  0.00     0.037 A 
BRANCH  52  66
ATOM     66  C   UNL A   1      45.976  31.290  28.251  1.00  0.00     0.058 A 
ATOM     67  C   UNL A   1      44.887  31.978  27.679  1.00  0.00     0.135 A 
ATOM     68  C   UNL A   1      47.258  31.795  27.944  1.00  0.00     0.135 A 
ATOM     69  F   UNL A   1      43.630  31.559  27.892  1.00  0.00    -0.206 F 
ATOM     70  C   UNL A   1      45.061  33.063  26.818  1.00  0.00     0.059 A 
ATOM     71  C   UNL A   1      47.452  32.902  27.123  1.00  0.00     0.059 A 
ATOM     72  F   UNL A   1      48.370  31.170  28.359  1.00  0.00    -0.206 F 
ATOM     73  C   UNL A   1      46.349  33.503  26.530  1.00  0.00     0.060 A 
BRANCH  73  74
ATOM     74  S   UNL A   1      46.592  34.831  25.333  1.00  0.00     0.124 S 
ATOM     75  O   UNL A   1      45.590  34.493  24.328  1.00  0.00    -0.237 OA
ATOM     76  O   UNL A   1      46.321  36.025  26.127  1.00  0.00    -0.237 OA
ATOM     77  O   UNL A   1      47.983  34.657  24.930  1.00  0.00    -0.744 OA
ENDBRANCH  73  74
ENDBRANCH  52  66
BRANCH  53  78
ATOM     78  C   UNL A   1      38.177  29.932  29.705  1.00  0.00     0.058 A 
ATOM     79  C   UNL A   1      37.327  30.489  30.674  1.00  0.00     0.135 A 
ATOM     80  C   UNL A   1      37.822  30.159  28.359  1.00  0.00     0.135 A 
ATOM     81  F   UNL A   1      37.609  30.357  31.979  1.00  0.00    -0.206 F 
ATOM     82  C   UNL A   1      36.205  31.248  30.331  1.00  0.00     0.059 A 
ATOM     83  C   UNL A   1      36.698  30.893  27.992  1.00  0.00     0.059 A 
ATOM     84  F   UNL A   1      38.610  29.745  27.354  1.00  0.00    -0.206 F 
ATOM     85  C   UNL A   1      35.905  31.455  28.986  1.00  0.00     0.060 A 
BRANCH  85  86
ATOM     86  S   UNL A   1      34.550  32.560  28.536  1.00  0.00     0.124 S 
ATOM     87  O   UNL A   1      34.116  33.049  29.841  1.00  0.00    -0.237 OA
ATOM     88  O   UNL A   1      35.216  33.533  27.678  1.00  0.00    -0.237 OA
ATOM     89  O   UNL A   1      33.606  31.677  27.855  1.00  0.00    -0.744 OA
ENDBRANCH  85  86
ENDBRANCH  53  78
BRANCH  65  90
ATOM     90  C   UNL A   1      42.966  28.854  33.739  1.00  0.00     0.058 A 
ATOM     91  C   UNL A   1      42.706  29.286  35.051  1.00  0.00     0.135 A 
ATOM     92  C   UNL A   1      42.743  27.498  33.454  1.00  0.00     0.135 A 
ATOM     93  F   UNL A   1      42.781  30.585  35.375  1.00  0.00    -0.206 F 
ATOM     94  C   UNL A   1      42.300  28.401  36.049  1.00  0.00     0.059 A 
ATOM     95  C   UNL A   1      42.306  26.601  34.428  1.00  0.00     0.059 A 
ATOM     96  F   UNL A   1      42.907  27.036  32.203  1.00  0.00    -0.206 F 
ATOM     97  C   UNL A   1      42.105  27.058  35.729  1.00  0.00     0.060 A 
BRANCH  97  98
ATOM     98  S   UNL A   1      41.492  25.928  36.999  1.00  0.00     0.124 S 
ATOM     99  O   UNL A   1      41.059  24.783  36.206  1.00  0.00    -0.237 OA
ATOM    100  O   UNL A   1      42.670  25.709  37.835  1.00  0.00    -0.237 OA
ATOM    101  O   UNL A   1      40.422  26.690  37.640  1.00  0.00    -0.744 OA
ENDBRANCH  97  98
ENDBRANCH  65  90
ENDBRANCH  39  40
ENDBRANCH  31  34
ENDBRANCH  29  30
ENDBRANCH  28  29
ENDBRANCH   1  28
TORSDOF 18
ENDMDL
MODEL 2
REMARK VINA RESULT:     -13.0      2.328      9.636
REMARK SMILES Cc1n[nH]c(C)c1C(=O)N1CC(n2cc(C(=O)NCCCCCCNC(=O)c3ccc(-c4c5nc(c(-c6c(F)cc(S(=O)(=O)[O-])cc6F)c6ccc([nH]6)c(-c6c(F)cc(S(=O)(=O)[O-])cc6F)c6nc(c(-c7c(F)cc(S(=O)(=O)[O-])cc7F)c7ccc4[nH]7)C=C6)C=C5)cc3)nn2)C1
REMARK SMILES IDX 22 1 21 2 20 3 19 4 18 5 16 6 17 7 15 9 13 10 14 11 95 12
REMARK SMILES IDX 94 13 12 14 8 15 9 16 10 17 11 18 96 19 7 20 1 21 2 22 3 23
REMARK SMILES IDX 4 24 5 25 6 27 23 28 24 29 25 30 26 31 27 33 28 34 29 35
REMARK SMILES IDX 93 36 30 37 92 38 31 39 32 40 33 41 86 42 34 43 91 44 85 45
REMARK SMILES IDX 87 46 35 47 90 48 84 49 83 50 36 52 70 53 49 54 69 55 50 56
REMARK SMILES IDX 53 57 68 58 88 59 51 60 52 61 67 63 89 64 54 65 37 66 38 67
REMARK SMILES IDX 47 68 39 69 40 70 46 71 48 72 41 73 42 74 43 75 44 76 45 77
REMARK SMILES IDX 71 78 72 79 81 80 73 81 74 82 80 83 82 84 75 85 76 86 77 87
REMARK SMILES IDX 78 88 79 89 55 90 56 91 65 92 57 93 58 94 64 95 66 96 59 97
REMARK SMILES IDX 60 98 61 99 62 100 63 101
REMARK H PARENT 18 8 4 26 25 32 87 51 53 62
REMARK Flexibility Score: inf
ROOT
ATOM      1  C   UNL A   1      31.733  27.864  25.881  1.00  0.00     0.002 C 
ENDROOT
BRANCH   1   2
ATOM      2  C   UNL A   1      31.056  28.974  25.064  1.00  0.00     0.002 C 
BRANCH   2   3
ATOM      3  C   UNL A   1      30.419  28.545  23.737  1.00  0.00     0.021 C 
BRANCH   3   4
ATOM      4  C   UNL A   1      31.133  29.070  22.494  1.00  0.00     0.116 C 
BRANCH   4   5
ATOM      5  N   UNL A   1      32.552  29.266  22.731  1.00  0.00    -0.351 N 
ATOM      6  C   UNL A   1      33.612  28.412  22.518  1.00  0.00     0.273 C 
ATOM      7  O   UNL A   1      34.745  28.885  22.555  1.00  0.00    -0.267 OA
ATOM      8  H   UNL A   1      32.794  30.145  23.101  1.00  0.00     0.163 HD
BRANCH   6   9
ATOM      9  C   UNL A   1      33.364  27.010  22.215  1.00  0.00     0.170 A 
ATOM     10  N   UNL A   1      32.861  24.899  22.230  1.00  0.00    -0.245 N 
ATOM     11  C   UNL A   1      33.094  25.955  23.066  1.00  0.00     0.145 A 
ATOM     12  N   UNL A   1      33.045  25.251  20.945  1.00  0.00    -0.066 NA
ATOM     13  N   UNL A   1      33.384  26.533  20.924  1.00  0.00    -0.125 NA
BRANCH  10  14
ATOM     14  C   UNL A   1      32.317  23.643  22.659  1.00  0.00     0.148 C 
ATOM     15  C   UNL A   1      32.787  21.093  24.721  1.00  0.00     0.257 C 
ATOM     16  O   UNL A   1      31.755  20.907  25.362  1.00  0.00    -0.269 OA
ATOM     17  N   UNL A   1      33.003  22.290  24.078  1.00  0.00    -0.334 N 
ATOM     18  C   UNL A   1      32.195  23.498  24.183  1.00  0.00     0.149 C 
ATOM     19  C   UNL A   1      33.427  22.566  22.720  1.00  0.00     0.149 C 
BRANCH  15  20
ATOM     20  C   UNL A   1      33.841  20.077  24.677  1.00  0.00     0.083 A 
ATOM     21  C   UNL A   1      32.392  18.002  23.966  1.00  0.00     0.069 C 
ATOM     22  C   UNL A   1      33.647  18.689  24.372  1.00  0.00     0.072 A 
ATOM     23  N   UNL A   1      34.774  17.979  24.499  1.00  0.00    -0.180 NA
ATOM     24  N   UNL A   1      35.675  18.876  24.898  1.00  0.00    -0.282 N 
ATOM     25  C   UNL A   1      35.187  20.148  25.025  1.00  0.00     0.045 A 
ATOM     26  H   UNL A   1      36.614  18.643  25.085  1.00  0.00     0.190 HD
ATOM     27  C   UNL A   1      36.075  21.227  25.515  1.00  0.00     0.067 C 
ENDBRANCH  15  20
ENDBRANCH  10  14
ENDBRANCH   6   9
ENDBRANCH   4   5
ENDBRANCH   3   4
ENDBRANCH   2   3
ENDBRANCH   1   2
BRANCH   1  28
ATOM     28  C   UNL A   1      32.742  28.313  26.947  1.00  0.00     0.021 C 
BRANCH  28  29
ATOM     29  C   UNL A   1      33.837  29.249  26.443  1.00  0.00     0.116 C 
BRANCH  29  30
ATOM     30  N   UNL A   1      33.581  30.638  26.802  1.00  0.00    -0.352 N 
ATOM     31  C   UNL A   1      34.258  31.437  27.695  1.00  0.00     0.251 C 
ATOM     32  H   UNL A   1      32.821  31.062  26.343  1.00  0.00     0.163 HD
ATOM     33  O   UNL A   1      33.739  32.469  28.109  1.00  0.00    -0.269 OA
BRANCH  31  34
ATOM     34  C   UNL A   1      35.592  31.027  28.178  1.00  0.00     0.039 A 
ATOM     35  C   UNL A   1      35.901  29.671  28.294  1.00  0.00     0.014 A 
ATOM     36  C   UNL A   1      36.544  31.990  28.504  1.00  0.00     0.014 A 
ATOM     37  C   UNL A   1      37.197  29.289  28.651  1.00  0.00     0.010 A 
ATOM     38  C   UNL A   1      37.850  31.609  28.786  1.00  0.00     0.010 A 
ATOM     39  C   UNL A   1      38.193  30.255  28.876  1.00  0.00    -0.014 A 
BRANCH  39  40
ATOM     40  C   UNL A   1      39.584  29.816  29.105  1.00  0.00     0.031 A 
ATOM     41  C   UNL A   1      40.059  29.710  30.524  1.00  0.00     0.074 A 
ATOM     42  C   UNL A   1      40.407  29.275  28.178  1.00  0.00     0.049 A 
ATOM     43  N   UNL A   1      41.084  30.282  31.075  1.00  0.00    -0.248 NA
ATOM     44  C   UNL A   1      39.306  28.835  31.436  1.00  0.00     0.031 C 
ATOM     45  C   UNL A   1      40.107  28.924  26.789  1.00  0.00     0.029 A 
ATOM     46  N   UNL A   1      41.679  28.793  28.349  1.00  0.00    -0.354 N 
ATOM     47  C   UNL A   1      41.221  29.711  32.338  1.00  0.00     0.074 A 
ATOM     48  C   UNL A   1      40.053  28.886  32.540  1.00  0.00     0.031 C 
ATOM     49  C   UNL A   1      41.050  28.072  26.334  1.00  0.00     0.029 A 
ATOM     50  C   UNL A   1      42.098  27.950  27.334  1.00  0.00     0.049 A 
ATOM     51  H   UNL A   1      42.243  29.025  29.122  1.00  0.00     0.167 HD
ATOM     52  C   UNL A   1      42.356  29.814  33.086  1.00  0.00     0.037 A 
ATOM     53  C   UNL A   1      43.200  27.164  27.315  1.00  0.00     0.037 A 
ATOM     54  C   UNL A   1      43.261  30.823  32.607  1.00  0.00     0.049 A 
ATOM     55  C   UNL A   1      44.184  27.712  28.277  1.00  0.00     0.074 A 
ATOM     56  C   UNL A   1      43.179  32.176  32.336  1.00  0.00     0.029 A 
ATOM     57  N   UNL A   1      44.466  30.426  32.082  1.00  0.00    -0.354 N 
ATOM     58  N   UNL A   1      44.825  28.838  28.122  1.00  0.00    -0.248 NA
ATOM     59  C   UNL A   1      44.285  27.116  29.601  1.00  0.00     0.031 C 
ATOM     60  C   UNL A   1      44.088  32.403  31.260  1.00  0.00     0.029 A 
ATOM     61  C   UNL A   1      44.653  31.169  30.944  1.00  0.00     0.049 A 
ATOM     62  H   UNL A   1      45.073  29.743  32.449  1.00  0.00     0.167 HD
ATOM     63  C   UNL A   1      45.070  29.286  29.408  1.00  0.00     0.074 A 
ATOM     64  C   UNL A   1      44.862  28.123  30.259  1.00  0.00     0.031 C 
ATOM     65  C   UNL A   1      45.129  30.620  29.693  1.00  0.00     0.037 A 
BRANCH  52  66
ATOM     66  C   UNL A   1      42.794  28.794  34.107  1.00  0.00     0.058 A 
ATOM     67  C   UNL A   1      42.902  27.436  33.747  1.00  0.00     0.135 A 
ATOM     68  C   UNL A   1      42.831  29.074  35.490  1.00  0.00     0.135 A 
ATOM     69  F   UNL A   1      42.851  27.067  32.458  1.00  0.00    -0.206 F 
ATOM     70  C   UNL A   1      42.989  26.418  34.699  1.00  0.00     0.059 A 
ATOM     71  C   UNL A   1      42.963  28.078  36.454  1.00  0.00     0.059 A 
ATOM     72  F   UNL A   1      42.649  30.319  35.954  1.00  0.00    -0.206 F 
ATOM     73  C   UNL A   1      42.998  26.749  36.051  1.00  0.00     0.060 A 
BRANCH  73  74
ATOM     74  S   UNL A   1      42.999  25.439  37.291  1.00  0.00     0.124 S 
ATOM     75  O   UNL A   1      44.005  24.534  36.746  1.00  0.00    -0.237 OA
ATOM     76  O   UNL A   1      43.374  26.154  38.505  1.00  0.00    -0.237 OA
ATOM     77  O   UNL A   1      41.622  24.956  37.256  1.00  0.00    -0.744 OA
ENDBRANCH  73  74
ENDBRANCH  52  66
BRANCH  53  78
ATOM     78  C   UNL A   1      43.385  25.860  26.636  1.00  0.00     0.058 A 
ATOM     79  C   UNL A   1      44.272  25.717  25.556  1.00  0.00     0.135 A 
ATOM     80  C   UNL A   1      42.878  24.666  27.189  1.00  0.00     0.135 A 
ATOM     81  F   UNL A   1      44.833  26.798  24.994  1.00  0.00    -0.206 F 
ATOM     82  C   UNL A   1      44.654  24.465  25.069  1.00  0.00     0.059 A 
ATOM     83  C   UNL A   1      43.227  23.408  26.708  1.00  0.00     0.059 A 
ATOM     84  F   UNL A   1      42.091  24.683  28.277  1.00  0.00    -0.206 F 
ATOM     85  C   UNL A   1      44.135  23.314  25.659  1.00  0.00     0.060 A 
BRANCH  85  86
ATOM     86  S   UNL A   1      44.743  21.695  25.138  1.00  0.00     0.124 S 
ATOM     87  O   UNL A   1      43.812  20.795  25.810  1.00  0.00    -0.237 OA
ATOM     88  O   UNL A   1      44.624  21.773  23.687  1.00  0.00    -0.237 OA
ATOM     89  O   UNL A   1      46.113  21.670  25.647  1.00  0.00    -0.744 OA
ENDBRANCH  85  86
ENDBRANCH  53  78
BRANCH  65  90
ATOM     90  C   UNL A   1      45.360  31.583  28.563  1.00  0.00     0.058 A 
ATOM     91  C   UNL A   1      44.332  32.267  27.892  1.00  0.00     0.135 A 
ATOM     92  C   UNL A   1      46.680  31.925  28.230  1.00  0.00     0.135 A 
ATOM     93  F   UNL A   1      43.048  32.085  28.233  1.00  0.00    -0.206 F 
ATOM     94  C   UNL A   1      44.601  33.205  26.895  1.00  0.00     0.059 A 
ATOM     95  C   UNL A   1      46.973  32.881  27.259  1.00  0.00     0.059 A 
ATOM     96  F   UNL A   1      47.708  31.357  28.883  1.00  0.00    -0.206 F 
ATOM     97  C   UNL A   1      45.927  33.504  26.583  1.00  0.00     0.060 A 
BRANCH  97  98
ATOM     98  S   UNL A   1      46.277  34.783  25.355  1.00  0.00     0.124 S 
ATOM     99  O   UNL A   1      45.428  34.377  24.241  1.00  0.00    -0.237 OA
ATOM    100  O   UNL A   1      45.879  36.009  26.040  1.00  0.00    -0.237 OA
ATOM    101  O   UNL A   1      47.715  34.648  25.130  1.00  0.00    -0.744 OA
ENDBRANCH  97  98
ENDBRANCH  65  90
ENDBRANCH  39  40
ENDBRANCH  31  34
ENDBRANCH  29  30
ENDBRANCH  28  29
ENDBRANCH   1  28
TORSDOF 18
ENDMDL
MODEL 3
REMARK VINA RESULT:     -12.8      2.771      9.729
REMARK SMILES Cc1n[nH]c(C)c1C(=O)N1CC(n2cc(C(=O)NCCCCCCNC(=O)c3ccc(-c4c5nc(c(-c6c(F)cc(S(=O)(=O)[O-])cc6F)c6ccc([nH]6)c(-c6c(F)cc(S(=O)(=O)[O-])cc6F)c6nc(c(-c7c(F)cc(S(=O)(=O)[O-])cc7F)c7ccc4[nH]7)C=C6)C=C5)cc3)nn2)C1
REMARK SMILES IDX 22 1 21 2 20 3 19 4 18 5 16 6 17 7 15 9 13 10 14 11 95 12
REMARK SMILES IDX 94 13 12 14 8 15 9 16 10 17 11 18 96 19 7 20 1 21 2 22 3 23
REMARK SMILES IDX 4 24 5 25 6 27 23 28 24 29 25 30 26 31 27 33 28 34 29 35
REMARK SMILES IDX 93 36 30 37 92 38 31 39 32 40 33 41 86 42 34 43 91 44 85 45
REMARK SMILES IDX 87 46 35 47 90 48 84 49 83 50 36 52 70 53 49 54 69 55 50 56
REMARK SMILES IDX 53 57 68 58 88 59 51 60 52 61 67 63 89 64 54 65 37 66 38 67
REMARK SMILES IDX 47 68 39 69 40 70 46 71 48 72 41 73 42 74 43 75 44 76 45 77
REMARK SMILES IDX 71 78 72 79 81 80 73 81 74 82 80 83 82 84 75 85 76 86 77 87
REMARK SMILES IDX 78 88 79 89 55 90 56 91 65 92 57 93 58 94 64 95 66 96 59 97
REMARK SMILES IDX 60 98 61 99 62 100 63 101
REMARK H PARENT 18 8 4 26 25 32 87 51 53 62
REMARK Flexibility Score: inf
ROOT
ATOM      1  C   UNL A   1      35.258  33.814  27.988  1.00  0.00     0.002 C 
ENDROOT
BRANCH   1   2
ATOM      2  C   UNL A   1      34.609  32.422  27.989  1.00  0.00     0.002 C 
BRANCH   2   3
ATOM      3  C   UNL A   1      35.568  31.227  27.919  1.00  0.00     0.021 C 
BRANCH   3   4
ATOM      4  C   UNL A   1      34.948  29.952  27.355  1.00  0.00     0.116 C 
BRANCH   4   5
ATOM      5  N   UNL A   1      33.535  29.854  27.674  1.00  0.00    -0.351 N 
ATOM      6  C   UNL A   1      32.530  29.158  27.038  1.00  0.00     0.273 C 
ATOM      7  O   UNL A   1      31.464  29.019  27.633  1.00  0.00    -0.267 OA
ATOM      8  H   UNL A   1      33.252  30.362  28.467  1.00  0.00     0.163 HD
BRANCH   6   9
ATOM      9  C   UNL A   1      32.769  28.577  25.724  1.00  0.00     0.170 A 
ATOM     10  N   UNL A   1      33.271  27.326  24.025  1.00  0.00    -0.245 N 
ATOM     11  C   UNL A   1      33.433  27.416  25.379  1.00  0.00     0.145 A 
ATOM     12  N   UNL A   1      32.614  28.397  23.545  1.00  0.00    -0.066 NA
ATOM     13  N   UNL A   1      32.329  29.187  24.571  1.00  0.00    -0.125 NA
BRANCH  10  14
ATOM     14  C   UNL A   1      33.596  26.160  23.254  1.00  0.00     0.148 C 
ATOM     15  C   UNL A   1      33.457  22.850  23.232  1.00  0.00     0.257 C 
ATOM     16  O   UNL A   1      32.940  22.483  22.180  1.00  0.00    -0.269 OA
ATOM     17  N   UNL A   1      33.305  24.145  23.670  1.00  0.00    -0.334 N 
ATOM     18  C   UNL A   1      32.435  25.165  23.099  1.00  0.00     0.149 C 
ATOM     19  C   UNL A   1      34.287  25.099  24.145  1.00  0.00     0.149 C 
BRANCH  15  20
ATOM     20  C   UNL A   1      34.192  21.908  24.080  1.00  0.00     0.083 A 
ATOM     21  C   UNL A   1      36.646  22.662  23.511  1.00  0.00     0.069 C 
ATOM     22  C   UNL A   1      35.620  21.810  24.171  1.00  0.00     0.072 A 
ATOM     23  N   UNL A   1      36.010  20.796  24.953  1.00  0.00    -0.180 NA
ATOM     24  N   UNL A   1      34.867  20.235  25.345  1.00  0.00    -0.282 N 
ATOM     25  C   UNL A   1      33.743  20.847  24.861  1.00  0.00     0.045 A 
ATOM     26  H   UNL A   1      34.834  19.446  25.934  1.00  0.00     0.190 HD
ATOM     27  C   UNL A   1      32.410  20.287  25.178  1.00  0.00     0.067 C 
ENDBRANCH  15  20
ENDBRANCH  10  14
ENDBRANCH   6   9
ENDBRANCH   4   5
ENDBRANCH   3   4
ENDBRANCH   2   3
ENDBRANCH   1   2
BRANCH   1  28
ATOM     28  C   UNL A   1      34.531  34.912  28.774  1.00  0.00     0.021 C 
BRANCH  28  29
ATOM     29  C   UNL A   1      33.369  34.425  29.635  1.00  0.00     0.116 C 
BRANCH  29  30
ATOM     30  N   UNL A   1      33.479  34.879  31.015  1.00  0.00    -0.352 N 
ATOM     31  C   UNL A   1      34.323  34.432  32.007  1.00  0.00     0.251 C 
ATOM     32  H   UNL A   1      32.866  35.605  31.274  1.00  0.00     0.163 HD
ATOM     33  O   UNL A   1      34.084  34.698  33.180  1.00  0.00    -0.269 OA
BRANCH  31  34
ATOM     34  C   UNL A   1      35.492  33.602  31.652  1.00  0.00     0.039 A 
ATOM     35  C   UNL A   1      36.717  34.211  31.380  1.00  0.00     0.014 A 
ATOM     36  C   UNL A   1      35.375  32.215  31.604  1.00  0.00     0.014 A 
ATOM     37  C   UNL A   1      37.843  33.417  31.147  1.00  0.00     0.010 A 
ATOM     38  C   UNL A   1      36.510  31.428  31.446  1.00  0.00     0.010 A 
ATOM     39  C   UNL A   1      37.756  32.015  31.204  1.00  0.00    -0.014 A 
BRANCH  39  40
ATOM     40  C   UNL A   1      38.991  31.211  31.102  1.00  0.00     0.031 A 
ATOM     41  C   UNL A   1      39.749  30.931  32.366  1.00  0.00     0.074 A 
ATOM     42  C   UNL A   1      39.387  30.502  30.021  1.00  0.00     0.049 A 
ATOM     43  N   UNL A   1      40.991  31.188  32.632  1.00  0.00    -0.248 NA
ATOM     44  C   UNL A   1      39.033  30.259  33.461  1.00  0.00     0.031 C 
ATOM     45  C   UNL A   1      38.676  30.294  28.758  1.00  0.00     0.029 A 
ATOM     46  N   UNL A   1      40.485  29.691  29.893  1.00  0.00    -0.354 N 
ATOM     47  C   UNL A   1      41.272  30.556  33.842  1.00  0.00     0.074 A 
ATOM     48  C   UNL A   1      40.011  30.068  34.348  1.00  0.00     0.031 C 
ATOM     49  C   UNL A   1      39.216  29.236  28.115  1.00  0.00     0.029 A 
ATOM     50  C   UNL A   1      40.401  28.802  28.834  1.00  0.00     0.049 A 
ATOM     51  H   UNL A   1      41.260  29.734  30.498  1.00  0.00     0.167 HD
ATOM     52  C   UNL A   1      42.539  30.324  34.288  1.00  0.00     0.037 A 
ATOM     53  C   UNL A   1      41.213  27.751  28.574  1.00  0.00     0.037 A 
ATOM     54  C   UNL A   1      43.538  31.069  33.571  1.00  0.00     0.049 A 
ATOM     55  C   UNL A   1      42.511  27.979  29.249  1.00  0.00     0.074 A 
ATOM     56  C   UNL A   1      43.759  32.402  33.285  1.00  0.00     0.029 A 
ATOM     57  N   UNL A   1      44.426  30.381  32.782  1.00  0.00    -0.354 N 
ATOM     58  N   UNL A   1      43.374  28.896  28.907  1.00  0.00    -0.248 NA
ATOM     59  C   UNL A   1      42.766  27.332  30.527  1.00  0.00     0.031 C 
ATOM     60  C   UNL A   1      44.407  32.415  32.014  1.00  0.00     0.029 A 
ATOM     61  C   UNL A   1      44.525  31.086  31.609  1.00  0.00     0.049 A 
ATOM     62  H   UNL A   1      44.898  29.548  33.012  1.00  0.00     0.167 HD
ATOM     63  C   UNL A   1      44.035  29.216  30.079  1.00  0.00     0.074 A 
ATOM     64  C   UNL A   1      43.734  28.123  30.992  1.00  0.00     0.031 C 
ATOM     65  C   UNL A   1      44.518  30.475  30.299  1.00  0.00     0.037 A 
BRANCH  52  66
ATOM     66  C   UNL A   1      42.920  29.188  35.205  1.00  0.00     0.058 A 
ATOM     67  C   UNL A   1      43.718  29.435  36.340  1.00  0.00     0.135 A 
ATOM     68  C   UNL A   1      42.763  27.834  34.840  1.00  0.00     0.135 A 
ATOM     69  F   UNL A   1      43.948  30.692  36.751  1.00  0.00    -0.206 F 
ATOM     70  C   UNL A   1      44.359  28.409  37.037  1.00  0.00     0.059 A 
ATOM     71  C   UNL A   1      43.357  26.793  35.548  1.00  0.00     0.059 A 
ATOM     72  F   UNL A   1      42.100  27.485  33.728  1.00  0.00    -0.206 F 
ATOM     73  C   UNL A   1      44.188  27.093  36.619  1.00  0.00     0.060 A 
BRANCH  73  74
ATOM     74  S   UNL A   1      45.098  25.770  37.442  1.00  0.00     0.124 S 
ATOM     75  O   UNL A   1      45.687  26.488  38.567  1.00  0.00    -0.237 OA
ATOM     76  O   UNL A   1      44.043  24.819  37.774  1.00  0.00    -0.237 OA
ATOM     77  O   UNL A   1      46.031  25.326  36.411  1.00  0.00    -0.744 OA
ENDBRANCH  73  74
ENDBRANCH  52  66
BRANCH  53  78
ATOM     78  C   UNL A   1      40.869  26.469  27.912  1.00  0.00     0.058 A 
ATOM     79  C   UNL A   1      41.688  25.921  26.910  1.00  0.00     0.135 A 
ATOM     80  C   UNL A   1      39.858  25.629  28.420  1.00  0.00     0.135 A 
ATOM     81  F   UNL A   1      42.701  26.636  26.398  1.00  0.00    -0.206 F 
ATOM     82  C   UNL A   1      41.530  24.609  26.457  1.00  0.00     0.059 A 
ATOM     83  C   UNL A   1      39.667  24.326  27.970  1.00  0.00     0.059 A 
ATOM     84  F   UNL A   1      39.075  26.021  29.438  1.00  0.00    -0.206 F 
ATOM     85  C   UNL A   1      40.523  23.814  27.001  1.00  0.00     0.060 A 
BRANCH  85  86
ATOM     86  S   UNL A   1      40.413  22.073  26.533  1.00  0.00     0.124 S 
ATOM     87  O   UNL A   1      41.538  21.939  25.614  1.00  0.00    -0.237 OA
ATOM     88  O   UNL A   1      40.553  21.399  27.818  1.00  0.00    -0.237 OA
ATOM     89  O   UNL A   1      39.090  21.972  25.921  1.00  0.00    -0.744 OA
ENDBRANCH  85  86
ENDBRANCH  53  78
BRANCH  65  90
ATOM     90  C   UNL A   1      44.718  31.380  29.116  1.00  0.00     0.058 A 
ATOM     91  C   UNL A   1      43.753  32.291  28.652  1.00  0.00     0.135 A 
ATOM     92  C   UNL A   1      45.981  31.418  28.505  1.00  0.00     0.135 A 
ATOM     93  F   UNL A   1      42.562  32.399  29.258  1.00  0.00    -0.206 F 
ATOM     94  C   UNL A   1      44.012  33.160  27.593  1.00  0.00     0.059 A 
ATOM     95  C   UNL A   1      46.273  32.300  27.466  1.00  0.00     0.059 A 
ATOM     96  F   UNL A   1      46.968  30.621  28.948  1.00  0.00    -0.206 F 
ATOM     97  C   UNL A   1      45.276  33.156  27.003  1.00  0.00     0.060 A 
BRANCH  97  98
ATOM     98  S   UNL A   1      45.640  34.343  25.690  1.00  0.00     0.124 S 
ATOM     99  O   UNL A   1      47.084  34.200  25.542  1.00  0.00    -0.237 OA
ATOM    100  O   UNL A   1      44.838  33.849  24.574  1.00  0.00    -0.237 OA
ATOM    101  O   UNL A   1      45.189  35.615  26.251  1.00  0.00    -0.744 OA
ENDBRANCH  97  98
ENDBRANCH  65  90
ENDBRANCH  39  40
ENDBRANCH  31  34
ENDBRANCH  29  30
ENDBRANCH  28  29
ENDBRANCH   1  28
TORSDOF 18
ENDMDL
