MODEL 1
REMARK VINA RESULT:     -11.6      0.000      0.000
REMARK SMILES O=C(NCCCCCCNC(=O)c1ccc2c(=O)n(CCC[NH+]3CCOCC3)c(=O)[nH]c2c1)c1ccc(-c2c3nc(c(-c4c(F)cc(S(=O)(=O)[O-])cc4F)c4ccc([nH]4)c(-c4c(F)cc(S(=O)(=O)[O-])cc4F)c4nc(c(-c5c(F)cc(S(=O)(=O)[O-])cc5F)c5ccc2[nH]5)C=C4)C=C3)cc1
REMARK SMILES IDX 7 1 6 2 5 3 4 4 3 5 1 6 2 7 34 9 35 10 99 11 36 12 98 13
REMARK SMILES IDX 37 14 38 15 39 16 92 17 40 18 97 19 91 20 93 21 41 22 96 23
REMARK SMILES IDX 90 24 89 25 42 27 76 28 55 29 75 30 56 31 59 32 74 33 94 34
REMARK SMILES IDX 57 35 58 36 73 38 95 39 60 40 43 41 44 42 53 43 45 44 46 45
REMARK SMILES IDX 52 46 54 47 47 48 48 49 49 50 50 51 51 52 77 53 78 54 87 55
REMARK SMILES IDX 79 56 80 57 86 58 88 59 81 60 82 61 83 62 84 63 85 64 61 65
REMARK SMILES IDX 62 66 71 67 63 68 64 69 70 70 72 71 65 72 66 73 67 74 68 75
REMARK SMILES IDX 69 76 8 77 9 78 10 79 11 80 12 82 13 83 14 84 33 85 15 86
REMARK SMILES IDX 32 87 16 88 31 89 17 90 29 91 18 93 19 94 30 95 20 96 21 97
REMARK SMILES IDX 22 98 23 99 24 100 28 101 25 103 27 104 26 105
REMARK H PARENT 3 8 93 26 59 37 10 81 31 92 23 102
REMARK Flexibility Score: inf
ROOT
ATOM      1  C   UNL A   1      40.409  22.279  27.508  1.00  0.00     0.002 C 
ENDROOT
BRANCH   1   2
ATOM      2  C   UNL A   1      41.879  22.162  27.096  1.00  0.00     0.002 C 
BRANCH   2   3
ATOM      3  C   UNL A   1      42.889  22.363  28.227  1.00  0.00     0.021 C 
BRANCH   3   4
ATOM      4  C   UNL A   1      43.774  23.593  28.081  1.00  0.00     0.116 C 
BRANCH   4   5
ATOM      5  N   UNL A   1      43.622  24.225  26.784  1.00  0.00    -0.352 N 
ATOM      6  O   UNL A   1      42.769  25.626  25.253  1.00  0.00    -0.269 OA
ATOM      7  C   UNL A   1      42.945  25.366  26.440  1.00  0.00     0.251 C 
ATOM      8  H   UNL A   1      44.070  23.764  26.038  1.00  0.00     0.163 HD
BRANCH   7   9
ATOM      9  C   UNL A   1      42.426  26.277  27.485  1.00  0.00     0.039 A 
ATOM     10  C   UNL A   1      43.040  27.521  27.651  1.00  0.00     0.014 A 
ATOM     11  C   UNL A   1      41.390  25.891  28.342  1.00  0.00     0.014 A 
ATOM     12  C   UNL A   1      42.618  28.372  28.673  1.00  0.00     0.010 A 
ATOM     13  C   UNL A   1      40.910  26.776  29.304  1.00  0.00     0.010 A 
ATOM     14  C   UNL A   1      41.552  28.005  29.509  1.00  0.00    -0.014 A 
BRANCH  14  15
ATOM     15  C   UNL A   1      41.179  28.846  30.674  1.00  0.00     0.031 A 
ATOM     16  C   UNL A   1      41.991  28.758  31.941  1.00  0.00     0.074 A 
ATOM     17  C   UNL A   1      40.126  29.681  30.598  1.00  0.00     0.049 A 
ATOM     18  N   UNL A   1      41.842  29.409  33.064  1.00  0.00    -0.248 NA
ATOM     19  C   UNL A   1      43.098  27.787  31.957  1.00  0.00     0.031 C 
ATOM     20  C   UNL A   1      39.245  29.827  29.440  1.00  0.00     0.029 A 
ATOM     21  N   UNL A   1      39.628  30.574  31.513  1.00  0.00    -0.354 N 
ATOM     22  C   UNL A   1      42.824  28.920  33.918  1.00  0.00     0.074 A 
ATOM     23  C   UNL A   1      43.516  27.868  33.210  1.00  0.00     0.031 C 
ATOM     24  C   UNL A   1      38.340  30.786  29.697  1.00  0.00     0.029 A 
ATOM     25  C   UNL A   1      38.560  31.303  31.044  1.00  0.00     0.049 A 
ATOM     26  H   UNL A   1      39.999  30.683  32.418  1.00  0.00     0.167 HD
ATOM     27  C   UNL A   1      43.149  29.337  35.164  1.00  0.00     0.037 A 
ATOM     28  C   UNL A   1      37.849  32.286  31.632  1.00  0.00     0.037 A 
ATOM     29  C   UNL A   1      42.492  30.419  35.841  1.00  0.00     0.049 A 
ATOM     30  C   UNL A   1      38.219  32.731  33.020  1.00  0.00     0.074 A 
ATOM     31  C   UNL A   1      42.794  30.973  37.071  1.00  0.00     0.029 A 
ATOM     32  N   UNL A   1      41.401  31.116  35.342  1.00  0.00    -0.354 N 
ATOM     33  N   UNL A   1      39.196  32.305  33.787  1.00  0.00    -0.248 NA
ATOM     34  C   UNL A   1      37.396  33.787  33.626  1.00  0.00     0.031 C 
ATOM     35  C   UNL A   1      41.860  31.980  37.334  1.00  0.00     0.029 A 
ATOM     36  C   UNL A   1      40.998  32.077  36.252  1.00  0.00     0.049 A 
ATOM     37  H   UNL A   1      40.976  30.951  34.469  1.00  0.00     0.167 HD
ATOM     38  C   UNL A   1      39.108  33.043  34.961  1.00  0.00     0.074 A 
ATOM     39  C   UNL A   1      37.993  33.955  34.800  1.00  0.00     0.031 C 
ATOM     40  C   UNL A   1      39.880  32.969  36.074  1.00  0.00     0.037 A 
BRANCH  27  41
ATOM     41  C   UNL A   1      44.276  28.626  35.858  1.00  0.00     0.058 A 
ATOM     42  C   UNL A   1      45.613  29.023  35.683  1.00  0.00     0.135 A 
ATOM     43  C   UNL A   1      44.023  27.539  36.708  1.00  0.00     0.135 A 
ATOM     44  F   UNL A   1      45.912  30.047  34.868  1.00  0.00    -0.206 F 
ATOM     45  C   UNL A   1      46.660  28.339  36.290  1.00  0.00     0.059 A 
ATOM     46  C   UNL A   1      45.054  26.857  37.349  1.00  0.00     0.059 A 
ATOM     47  F   UNL A   1      42.764  27.118  36.911  1.00  0.00    -0.206 F 
ATOM     48  C   UNL A   1      46.371  27.253  37.117  1.00  0.00     0.060 A 
BRANCH  48  49
ATOM     49  S   UNL A   1      47.744  26.360  37.876  1.00  0.00     0.124 S 
ATOM     50  O   UNL A   1      47.783  25.147  37.066  1.00  0.00    -0.237 OA
ATOM     51  O   UNL A   1      48.859  27.283  37.688  1.00  0.00    -0.237 OA
ATOM     52  O   UNL A   1      47.310  26.179  39.257  1.00  0.00    -0.744 OA
ENDBRANCH  48  49
ENDBRANCH  27  41
BRANCH  28  53
ATOM     53  C   UNL A   1      36.747  32.939  30.880  1.00  0.00     0.058 A 
ATOM     54  C   UNL A   1      35.407  32.661  31.189  1.00  0.00     0.135 A 
ATOM     55  C   UNL A   1      37.005  33.897  29.888  1.00  0.00     0.135 A 
ATOM     56  F   UNL A   1      35.112  31.746  32.124  1.00  0.00    -0.206 F 
ATOM     57  C   UNL A   1      34.362  33.319  30.551  1.00  0.00     0.059 A 
ATOM     58  C   UNL A   1      35.976  34.581  29.248  1.00  0.00     0.059 A 
ATOM     59  F   UNL A   1      38.270  34.207  29.567  1.00  0.00    -0.206 F 
ATOM     60  C   UNL A   1      34.656  34.286  29.589  1.00  0.00     0.060 A 
BRANCH  60  61
ATOM     61  S   UNL A   1      33.291  35.198  28.835  1.00  0.00     0.124 S 
ATOM     62  O   UNL A   1      34.000  36.249  28.114  1.00  0.00    -0.237 OA
ATOM     63  O   UNL A   1      32.658  34.173  28.012  1.00  0.00    -0.237 OA
ATOM     64  O   UNL A   1      32.507  35.640  29.986  1.00  0.00    -0.744 OA
ENDBRANCH  60  61
ENDBRANCH  28  53
BRANCH  40  65
ATOM     65  C   UNL A   1      39.548  33.879  37.221  1.00  0.00     0.058 A 
ATOM     66  C   UNL A   1      38.771  33.427  38.298  1.00  0.00     0.135 A 
ATOM     67  C   UNL A   1      40.120  35.158  37.310  1.00  0.00     0.135 A 
ATOM     68  F   UNL A   1      38.198  32.215  38.255  1.00  0.00    -0.206 F 
ATOM     69  C   UNL A   1      38.583  34.209  39.433  1.00  0.00     0.059 A 
ATOM     70  C   UNL A   1      39.962  35.949  38.443  1.00  0.00     0.059 A 
ATOM     71  F   UNL A   1      40.878  35.631  36.307  1.00  0.00    -0.206 F 
ATOM     72  C   UNL A   1      39.195  35.462  39.502  1.00  0.00     0.060 A 
BRANCH  72  73
ATOM     73  S   UNL A   1      39.021  36.421  41.023  1.00  0.00     0.124 S 
ATOM     74  O   UNL A   1      40.360  36.315  41.593  1.00  0.00    -0.237 OA
ATOM     75  O   UNL A   1      38.649  37.738  40.517  1.00  0.00    -0.237 OA
ATOM     76  O   UNL A   1      37.971  35.715  41.751  1.00  0.00    -0.744 OA
ENDBRANCH  72  73
ENDBRANCH  40  65
ENDBRANCH  14  15
ENDBRANCH   7   9
ENDBRANCH   4   5
ENDBRANCH   3   4
ENDBRANCH   2   3
ENDBRANCH   1   2
BRANCH   1  77
ATOM     77  C   UNL A   1      39.692  23.535  27.005  1.00  0.00     0.021 C 
BRANCH  77  78
ATOM     78  C   UNL A   1      38.470  23.259  26.133  1.00  0.00     0.116 C 
BRANCH  78  79
ATOM     79  N   UNL A   1      38.539  21.943  25.515  1.00  0.00    -0.352 N 
ATOM     80  C   UNL A   1      37.525  21.212  24.961  1.00  0.00     0.251 C 
ATOM     81  H   UNL A   1      39.431  21.525  25.494  1.00  0.00     0.163 HD
ATOM     82  O   UNL A   1      37.675  20.045  24.614  1.00  0.00    -0.269 OA
BRANCH  80  83
ATOM     83  C   UNL A   1      36.227  21.869  24.784  1.00  0.00     0.041 A 
ATOM     84  C   UNL A   1      36.030  22.681  23.659  1.00  0.00     0.015 A 
ATOM     85  C   UNL A   1      35.250  21.725  25.774  1.00  0.00     0.040 A 
ATOM     86  C   UNL A   1      34.839  23.379  23.531  1.00  0.00     0.017 A 
ATOM     87  C   UNL A   1      34.078  22.461  25.654  1.00  0.00     0.056 A 
ATOM     88  C   UNL A   1      33.875  23.259  24.535  1.00  0.00     0.064 A 
ATOM     89  N   UNL A   1      33.107  22.438  26.652  1.00  0.00    -0.307 N 
ATOM     90  C   UNL A   1      32.603  23.968  24.424  1.00  0.00     0.264 A 
ATOM     91  C   UNL A   1      32.010  23.262  26.665  1.00  0.00     0.328 A 
ATOM     92  H   UNL A   1      33.215  21.794  27.390  1.00  0.00     0.171 HD
ATOM     93  O   UNL A   1      32.257  24.339  23.308  1.00  0.00    -0.268 OA
ATOM     94  N   UNL A   1      31.860  24.118  25.582  1.00  0.00    -0.260 N 
ATOM     95  O   UNL A   1      31.220  23.177  27.605  1.00  0.00    -0.248 OA
BRANCH  94  96
ATOM     96  C   UNL A   1      30.702  25.011  25.542  1.00  0.00     0.137 C 
BRANCH  96  97
ATOM     97  C   UNL A   1      30.952  26.432  26.067  1.00  0.00     0.083 C 
BRANCH  97  98
ATOM     98  C   UNL A   1      31.230  27.566  25.060  1.00  0.00     0.264 C 
BRANCH  98  99
ATOM     99  N   UNL A   1      32.389  28.436  25.192  1.00  0.00    -0.331 N 
ATOM    100  C   UNL A   1      33.553  28.007  25.955  1.00  0.00     0.291 C 
ATOM    101  C   UNL A   1      32.168  29.881  25.270  1.00  0.00     0.291 C 
ATOM    102  H   UNL A   1      32.681  28.249  24.232  1.00  0.00     0.348 HD
ATOM    103  C   UNL A   1      33.656  28.646  27.351  1.00  0.00     0.221 C 
ATOM    104  C   UNL A   1      32.285  30.452  26.691  1.00  0.00     0.221 C 
ATOM    105  O   UNL A   1      33.527  30.073  27.306  1.00  0.00    -0.370 OA
ENDBRANCH  98  99
ENDBRANCH  97  98
ENDBRANCH  96  97
ENDBRANCH  94  96
ENDBRANCH  80  83
ENDBRANCH  78  79
ENDBRANCH  77  78
ENDBRANCH   1  77
TORSDOF 20
ENDMDL
MODEL 2
REMARK VINA RESULT:     -11.0      6.171      8.495
REMARK SMILES O=C(NCCCCCCNC(=O)c1ccc2c(=O)n(CCC[NH+]3CCOCC3)c(=O)[nH]c2c1)c1ccc(-c2c3nc(c(-c4c(F)cc(S(=O)(=O)[O-])cc4F)c4ccc([nH]4)c(-c4c(F)cc(S(=O)(=O)[O-])cc4F)c4nc(c(-c5c(F)cc(S(=O)(=O)[O-])cc5F)c5ccc2[nH]5)C=C4)C=C3)cc1
REMARK SMILES IDX 7 1 6 2 5 3 4 4 3 5 1 6 2 7 34 9 35 10 99 11 36 12 98 13
REMARK SMILES IDX 37 14 38 15 39 16 92 17 40 18 97 19 91 20 93 21 41 22 96 23
REMARK SMILES IDX 90 24 89 25 42 27 76 28 55 29 75 30 56 31 59 32 74 33 94 34
REMARK SMILES IDX 57 35 58 36 73 38 95 39 60 40 43 41 44 42 53 43 45 44 46 45
REMARK SMILES IDX 52 46 54 47 47 48 48 49 49 50 50 51 51 52 77 53 78 54 87 55
REMARK SMILES IDX 79 56 80 57 86 58 88 59 81 60 82 61 83 62 84 63 85 64 61 65
REMARK SMILES IDX 62 66 71 67 63 68 64 69 70 70 72 71 65 72 66 73 67 74 68 75
REMARK SMILES IDX 69 76 8 77 9 78 10 79 11 80 12 82 13 83 14 84 33 85 15 86
REMARK SMILES IDX 32 87 16 88 31 89 17 90 29 91 18 93 19 94 30 95 20 96 21 97
REMARK SMILES IDX 22 98 23 99 24 100 28 101 25 103 27 104 26 105
REMARK H PARENT 3 8 93 26 59 37 10 81 31 92 23 102
REMARK Flexibility Score: inf
ROOT
ATOM      1  C   UNL A   1      39.458  23.321  27.250  1.00  0.00     0.002 C 
ENDROOT
BRANCH   1   2
ATOM      2  C   UNL A   1      40.572  22.546  26.540  1.00  0.00     0.002 C 
BRANCH   2   3
ATOM      3  C   UNL A   1      40.276  21.067  26.287  1.00  0.00     0.021 C 
BRANCH   3   4
ATOM      4  C   UNL A   1      41.213  20.099  26.996  1.00  0.00     0.116 C 
BRANCH   4   5
ATOM      5  N   UNL A   1      42.127  19.450  26.076  1.00  0.00    -0.352 N 
ATOM      6  O   UNL A   1      43.715  19.303  24.498  1.00  0.00    -0.269 OA
ATOM      7  C   UNL A   1      43.186  19.973  25.380  1.00  0.00     0.251 C 
ATOM      8  H   UNL A   1      41.962  18.491  25.927  1.00  0.00     0.163 HD
BRANCH   7   9
ATOM      9  C   UNL A   1      43.689  21.331  25.683  1.00  0.00     0.039 A 
ATOM     10  C   UNL A   1      44.126  21.607  26.981  1.00  0.00     0.014 A 
ATOM     11  C   UNL A   1      43.671  22.349  24.723  1.00  0.00     0.014 A 
ATOM     12  C   UNL A   1      44.541  22.897  27.315  1.00  0.00     0.010 A 
ATOM     13  C   UNL A   1      44.168  23.612  25.032  1.00  0.00     0.010 A 
ATOM     14  C   UNL A   1      44.562  23.910  26.343  1.00  0.00    -0.014 A 
BRANCH  14  15
ATOM     15  C   UNL A   1      44.881  25.311  26.716  1.00  0.00     0.031 A 
ATOM     16  C   UNL A   1      46.291  25.817  26.557  1.00  0.00     0.074 A 
ATOM     17  C   UNL A   1      43.917  26.122  27.192  1.00  0.00     0.049 A 
ATOM     18  N   UNL A   1      46.777  27.003  26.814  1.00  0.00    -0.248 NA
ATOM     19  C   UNL A   1      47.295  24.854  26.074  1.00  0.00     0.031 C 
ATOM     20  C   UNL A   1      42.526  25.736  27.424  1.00  0.00     0.029 A 
ATOM     21  N   UNL A   1      43.962  27.445  27.553  1.00  0.00    -0.354 N 
ATOM     22  C   UNL A   1      48.136  26.923  26.535  1.00  0.00     0.074 A 
ATOM     23  C   UNL A   1      48.413  25.556  26.160  1.00  0.00     0.031 C 
ATOM     24  C   UNL A   1      41.838  26.809  27.847  1.00  0.00     0.029 A 
ATOM     25  C   UNL A   1      42.744  27.950  27.942  1.00  0.00     0.049 A 
ATOM     26  H   UNL A   1      44.787  27.981  27.536  1.00  0.00     0.167 HD
ATOM     27  C   UNL A   1      49.064  27.908  26.549  1.00  0.00     0.037 A 
ATOM     28  C   UNL A   1      42.396  29.198  28.318  1.00  0.00     0.037 A 
ATOM     29  C   UNL A   1      48.773  29.277  26.871  1.00  0.00     0.049 A 
ATOM     30  C   UNL A   1      43.442  30.278  28.335  1.00  0.00     0.074 A 
ATOM     31  C   UNL A   1      49.622  30.368  26.838  1.00  0.00     0.029 A 
ATOM     32  N   UNL A   1      47.532  29.743  27.281  1.00  0.00    -0.354 N 
ATOM     33  N   UNL A   1      44.709  30.200  28.001  1.00  0.00    -0.248 NA
ATOM     34  C   UNL A   1      43.018  31.613  28.779  1.00  0.00     0.031 C 
ATOM     35  C   UNL A   1      48.903  31.488  27.267  1.00  0.00     0.029 A 
ATOM     36  C   UNL A   1      47.598  31.102  27.533  1.00  0.00     0.049 A 
ATOM     37  H   UNL A   1      46.723  29.189  27.378  1.00  0.00     0.167 HD
ATOM     38  C   UNL A   1      45.231  31.475  28.189  1.00  0.00     0.074 A 
ATOM     39  C   UNL A   1      44.141  32.310  28.650  1.00  0.00     0.031 C 
ATOM     40  C   UNL A   1      46.500  31.913  27.998  1.00  0.00     0.037 A 
BRANCH  27  41
ATOM     41  C   UNL A   1      50.475  27.535  26.188  1.00  0.00     0.058 A 
ATOM     42  C   UNL A   1      50.906  27.504  24.851  1.00  0.00     0.135 A 
ATOM     43  C   UNL A   1      51.406  27.205  27.184  1.00  0.00     0.135 A 
ATOM     44  F   UNL A   1      50.051  27.795  23.858  1.00  0.00    -0.206 F 
ATOM     45  C   UNL A   1      52.197  27.116  24.512  1.00  0.00     0.059 A 
ATOM     46  C   UNL A   1      52.713  26.841  26.870  1.00  0.00     0.059 A 
ATOM     47  F   UNL A   1      51.047  27.218  28.477  1.00  0.00    -0.206 F 
ATOM     48  C   UNL A   1      53.093  26.781  25.529  1.00  0.00     0.060 A 
BRANCH  48  49
ATOM     49  S   UNL A   1      54.757  26.254  25.070  1.00  0.00     0.124 S 
ATOM     50  O   UNL A   1      54.561  24.822  24.865  1.00  0.00    -0.237 OA
ATOM     51  O   UNL A   1      55.012  27.037  23.865  1.00  0.00    -0.237 OA
ATOM     52  O   UNL A   1      55.561  26.617  26.233  1.00  0.00    -0.744 OA
ENDBRANCH  48  49
ENDBRANCH  27  41
BRANCH  28  53
ATOM     53  C   UNL A   1      40.980  29.487  28.662  1.00  0.00     0.058 A 
ATOM     54  C   UNL A   1      39.992  29.504  27.667  1.00  0.00     0.135 A 
ATOM     55  C   UNL A   1      40.576  29.685  29.991  1.00  0.00     0.135 A 
ATOM     56  F   UNL A   1      40.332  29.328  26.382  1.00  0.00    -0.206 F 
ATOM     57  C   UNL A   1      38.650  29.695  27.978  1.00  0.00     0.059 A 
ATOM     58  C   UNL A   1      39.237  29.860  30.328  1.00  0.00     0.059 A 
ATOM     59  F   UNL A   1      41.483  29.663  30.979  1.00  0.00    -0.206 F 
ATOM     60  C   UNL A   1      38.281  29.861  29.313  1.00  0.00     0.060 A 
BRANCH  60  61
ATOM     61  S   UNL A   1      36.525  30.014  29.711  1.00  0.00     0.124 S 
ATOM     62  O   UNL A   1      36.356  31.461  29.751  1.00  0.00    -0.237 OA
ATOM     63  O   UNL A   1      35.898  29.328  28.586  1.00  0.00    -0.237 OA
ATOM     64  O   UNL A   1      36.411  29.328  30.995  1.00  0.00    -0.744 OA
ENDBRANCH  60  61
ENDBRANCH  28  53
BRANCH  40  65
ATOM     65  C   UNL A   1      46.801  33.352  28.302  1.00  0.00     0.058 A 
ATOM     66  C   UNL A   1      46.511  34.361  27.373  1.00  0.00     0.135 A 
ATOM     67  C   UNL A   1      47.255  33.735  29.575  1.00  0.00     0.135 A 
ATOM     68  F   UNL A   1      46.082  34.043  26.141  1.00  0.00    -0.206 F 
ATOM     69  C   UNL A   1      46.645  35.706  27.700  1.00  0.00     0.059 A 
ATOM     70  C   UNL A   1      47.377  35.075  29.930  1.00  0.00     0.059 A 
ATOM     71  F   UNL A   1      47.539  32.804  30.500  1.00  0.00    -0.206 F 
ATOM     72  C   UNL A   1      47.065  36.053  28.986  1.00  0.00     0.060 A 
BRANCH  72  73
ATOM     73  S   UNL A   1      47.138  37.803  29.423  1.00  0.00     0.124 S 
ATOM     74  O   UNL A   1      45.774  38.236  29.141  1.00  0.00    -0.237 OA
ATOM     75  O   UNL A   1      47.509  37.755  30.834  1.00  0.00    -0.237 OA
ATOM     76  O   UNL A   1      48.163  38.335  28.529  1.00  0.00    -0.744 OA
ENDBRANCH  72  73
ENDBRANCH  40  65
ENDBRANCH  14  15
ENDBRANCH   7   9
ENDBRANCH   4   5
ENDBRANCH   3   4
ENDBRANCH   2   3
ENDBRANCH   1   2
BRANCH   1  77
ATOM     77  C   UNL A   1      38.634  24.245  26.350  1.00  0.00     0.021 C 
BRANCH  77  78
ATOM     78  C   UNL A   1      37.175  23.830  26.182  1.00  0.00     0.116 C 
BRANCH  78  79
ATOM     79  N   UNL A   1      37.052  22.405  25.914  1.00  0.00    -0.352 N 
ATOM     80  C   UNL A   1      35.982  21.728  25.397  1.00  0.00     0.251 C 
ATOM     81  H   UNL A   1      37.840  21.857  26.133  1.00  0.00     0.163 HD
ATOM     82  O   UNL A   1      35.936  20.503  25.366  1.00  0.00    -0.269 OA
BRANCH  80  83
ATOM     83  C   UNL A   1      34.866  22.517  24.866  1.00  0.00     0.041 A 
ATOM     84  C   UNL A   1      34.912  22.935  23.529  1.00  0.00     0.015 A 
ATOM     85  C   UNL A   1      33.827  22.890  25.723  1.00  0.00     0.040 A 
ATOM     86  C   UNL A   1      33.907  23.758  23.044  1.00  0.00     0.017 A 
ATOM     87  C   UNL A   1      32.849  23.749  25.238  1.00  0.00     0.056 A 
ATOM     88  C   UNL A   1      32.884  24.157  23.910  1.00  0.00     0.064 A 
ATOM     89  N   UNL A   1      31.841  24.235  26.066  1.00  0.00    -0.307 N 
ATOM     90  C   UNL A   1      31.802  25.010  23.428  1.00  0.00     0.264 A 
ATOM     91  C   UNL A   1      30.947  25.204  25.687  1.00  0.00     0.328 A 
ATOM     92  H   UNL A   1      31.766  23.863  26.975  1.00  0.00     0.171 HD
ATOM     93  O   UNL A   1      31.608  25.050  22.218  1.00  0.00    -0.268 OA
ATOM     94  N   UNL A   1      31.045  25.668  24.381  1.00  0.00    -0.260 N 
ATOM     95  O   UNL A   1      30.105  25.582  26.502  1.00  0.00    -0.248 OA
BRANCH  94  96
ATOM     96  C   UNL A   1      30.109  26.695  23.923  1.00  0.00     0.137 C 
BRANCH  96  97
ATOM     97  C   UNL A   1      30.757  27.975  23.376  1.00  0.00     0.083 C 
BRANCH  97  98
ATOM     98  C   UNL A   1      30.415  29.328  24.032  1.00  0.00     0.264 C 
BRANCH  98  99
ATOM     99  N   UNL A   1      29.936  30.456  23.246  1.00  0.00    -0.331 N 
ATOM    100  C   UNL A   1      29.153  31.513  23.870  1.00  0.00     0.291 C 
ATOM    101  C   UNL A   1      29.551  30.220  21.854  1.00  0.00     0.291 C 
ATOM    102  H   UNL A   1      30.868  30.871  23.212  1.00  0.00     0.348 HD
ATOM    103  C   UNL A   1      27.645  31.430  23.577  1.00  0.00     0.221 C 
ATOM    104  C   UNL A   1      28.034  30.147  21.632  1.00  0.00     0.221 C 
ATOM    105  O   UNL A   1      27.371  31.300  22.175  1.00  0.00    -0.370 OA
ENDBRANCH  98  99
ENDBRANCH  97  98
ENDBRANCH  96  97
ENDBRANCH  94  96
ENDBRANCH  80  83
ENDBRANCH  78  79
ENDBRANCH  77  78
ENDBRANCH   1  77
TORSDOF 20
ENDMDL
MODEL 3
REMARK VINA RESULT:     -11.0      1.264      8.079
REMARK SMILES O=C(NCCCCCCNC(=O)c1ccc2c(=O)n(CCC[NH+]3CCOCC3)c(=O)[nH]c2c1)c1ccc(-c2c3nc(c(-c4c(F)cc(S(=O)(=O)[O-])cc4F)c4ccc([nH]4)c(-c4c(F)cc(S(=O)(=O)[O-])cc4F)c4nc(c(-c5c(F)cc(S(=O)(=O)[O-])cc5F)c5ccc2[nH]5)C=C4)C=C3)cc1
REMARK SMILES IDX 7 1 6 2 5 3 4 4 3 5 1 6 2 7 34 9 35 10 99 11 36 12 98 13
REMARK SMILES IDX 37 14 38 15 39 16 92 17 40 18 97 19 91 20 93 21 41 22 96 23
REMARK SMILES IDX 90 24 89 25 42 27 76 28 55 29 75 30 56 31 59 32 74 33 94 34
REMARK SMILES IDX 57 35 58 36 73 38 95 39 60 40 43 41 44 42 53 43 45 44 46 45
REMARK SMILES IDX 52 46 54 47 47 48 48 49 49 50 50 51 51 52 77 53 78 54 87 55
REMARK SMILES IDX 79 56 80 57 86 58 88 59 81 60 82 61 83 62 84 63 85 64 61 65
REMARK SMILES IDX 62 66 71 67 63 68 64 69 70 70 72 71 65 72 66 73 67 74 68 75
REMARK SMILES IDX 69 76 8 77 9 78 10 79 11 80 12 82 13 83 14 84 33 85 15 86
REMARK SMILES IDX 32 87 16 88 31 89 17 90 29 91 18 93 19 94 30 95 20 96 21 97
REMARK SMILES IDX 22 98 23 99 24 100 28 101 25 103 27 104 26 105
REMARK H PARENT 3 8 93 26 59 37 10 81 31 92 23 102
REMARK Flexibility Score: inf
ROOT
ATOM      1  C   UNL A   1      38.766  22.180  26.136  1.00  0.00     0.002 C 
ENDROOT
BRANCH   1   2
ATOM      2  C   UNL A   1      40.143  21.615  26.499  1.00  0.00     0.002 C 
BRANCH   2   3
ATOM      3  C   UNL A   1      40.832  22.294  27.684  1.00  0.00     0.021 C 
BRANCH   3   4
ATOM      4  C   UNL A   1      42.073  23.100  27.324  1.00  0.00     0.116 C 
BRANCH   4   5
ATOM      5  N   UNL A   1      41.846  23.977  26.192  1.00  0.00    -0.352 N 
ATOM      6  O   UNL A   1      41.131  25.801  25.099  1.00  0.00    -0.269 OA
ATOM      7  C   UNL A   1      41.462  25.292  26.166  1.00  0.00     0.251 C 
ATOM      8  H   UNL A   1      41.987  23.565  25.309  1.00  0.00     0.163 HD
BRANCH   7   9
ATOM      9  C   UNL A   1      41.443  26.094  27.410  1.00  0.00     0.039 A 
ATOM     10  C   UNL A   1      40.312  26.033  28.227  1.00  0.00     0.014 A 
ATOM     11  C   UNL A   1      42.497  26.953  27.742  1.00  0.00     0.014 A 
ATOM     12  C   UNL A   1      40.236  26.830  29.369  1.00  0.00     0.010 A 
ATOM     13  C   UNL A   1      42.459  27.681  28.928  1.00  0.00     0.010 A 
ATOM     14  C   UNL A   1      41.308  27.663  29.727  1.00  0.00    -0.014 A 
BRANCH  14  15
ATOM     15  C   UNL A   1      41.188  28.605  30.867  1.00  0.00     0.031 A 
ATOM     16  C   UNL A   1      40.097  29.645  30.857  1.00  0.00     0.074 A 
ATOM     17  C   UNL A   1      42.044  28.530  31.903  1.00  0.00     0.049 A 
ATOM     18  N   UNL A   1      39.812  30.552  31.753  1.00  0.00    -0.248 NA
ATOM     19  C   UNL A   1      39.231  29.690  29.667  1.00  0.00     0.031 C 
ATOM     20  C   UNL A   1      43.161  27.591  32.010  1.00  0.00     0.029 A 
ATOM     21  N   UNL A   1      42.100  29.249  33.070  1.00  0.00    -0.354 N 
ATOM     22  C   UNL A   1      38.748  31.279  31.231  1.00  0.00     0.074 A 
ATOM     23  C   UNL A   1      38.484  30.755  29.911  1.00  0.00     0.031 C 
ATOM     24  C   UNL A   1      43.765  27.761  33.197  1.00  0.00     0.029 A 
ATOM     25  C   UNL A   1      43.097  28.838  33.923  1.00  0.00     0.049 A 
ATOM     26  H   UNL A   1      41.485  29.990  33.277  1.00  0.00     0.167 HD
ATOM     27  C   UNL A   1      38.027  32.265  31.814  1.00  0.00     0.037 A 
ATOM     28  C   UNL A   1      43.423  29.271  35.157  1.00  0.00     0.037 A 
ATOM     29  C   UNL A   1      38.260  32.744  33.148  1.00  0.00     0.049 A 
ATOM     30  C   UNL A   1      42.616  30.373  35.786  1.00  0.00     0.074 A 
ATOM     31  C   UNL A   1      37.539  33.682  33.862  1.00  0.00     0.029 A 
ATOM     32  N   UNL A   1      39.293  32.317  33.970  1.00  0.00    -0.354 N 
ATOM     33  N   UNL A   1      41.569  31.001  35.306  1.00  0.00    -0.248 NA
ATOM     34  C   UNL A   1      43.031  30.828  37.121  1.00  0.00     0.031 C 
ATOM     35  C   UNL A   1      38.160  33.851  35.104  1.00  0.00     0.029 A 
ATOM     36  C   UNL A   1      39.246  32.994  35.176  1.00  0.00     0.049 A 
ATOM     37  H   UNL A   1      39.960  31.633  33.731  1.00  0.00     0.167 HD
ATOM     38  C   UNL A   1      41.196  31.920  36.281  1.00  0.00     0.074 A 
ATOM     39  C   UNL A   1      42.119  31.756  37.385  1.00  0.00     0.031 C 
ATOM     40  C   UNL A   1      40.181  32.819  36.260  1.00  0.00     0.037 A 
BRANCH  27  41
ATOM     41  C   UNL A   1      36.910  32.871  31.012  1.00  0.00     0.058 A 
ATOM     42  C   UNL A   1      37.136  33.942  30.131  1.00  0.00     0.135 A 
ATOM     43  C   UNL A   1      35.600  32.380  31.122  1.00  0.00     0.135 A 
ATOM     44  F   UNL A   1      38.367  34.460  30.000  1.00  0.00    -0.206 F 
ATOM     45  C   UNL A   1      36.097  34.532  29.422  1.00  0.00     0.059 A 
ATOM     46  C   UNL A   1      34.549  32.937  30.401  1.00  0.00     0.059 A 
ATOM     47  F   UNL A   1      35.328  31.358  31.950  1.00  0.00    -0.206 F 
ATOM     48  C   UNL A   1      34.804  34.026  29.567  1.00  0.00     0.060 A 
BRANCH  48  49
ATOM     49  S   UNL A   1      33.462  34.821  28.660  1.00  0.00     0.124 S 
ATOM     50  O   UNL A   1      33.042  33.747  27.764  1.00  0.00    -0.237 OA
ATOM     51  O   UNL A   1      32.523  35.161  29.724  1.00  0.00    -0.237 OA
ATOM     52  O   UNL A   1      34.113  35.957  28.015  1.00  0.00    -0.744 OA
ENDBRANCH  48  49
ENDBRANCH  27  41
BRANCH  28  53
ATOM     53  C   UNL A   1      44.543  28.621  35.885  1.00  0.00     0.058 A 
ATOM     54  C   UNL A   1      45.847  29.132  35.796  1.00  0.00     0.135 A 
ATOM     55  C   UNL A   1      44.326  27.525  36.733  1.00  0.00     0.135 A 
ATOM     56  F   UNL A   1      46.104  30.174  34.992  1.00  0.00    -0.206 F 
ATOM     57  C   UNL A   1      46.894  28.586  36.530  1.00  0.00     0.059 A 
ATOM     58  C   UNL A   1      45.354  26.972  37.492  1.00  0.00     0.059 A 
ATOM     59  F   UNL A   1      43.094  27.009  36.863  1.00  0.00    -0.206 F 
ATOM     60  C   UNL A   1      46.635  27.513  37.384  1.00  0.00     0.060 A 
BRANCH  60  61
ATOM     61  S   UNL A   1      47.985  26.875  38.402  1.00  0.00     0.124 S 
ATOM     62  O   UNL A   1      48.319  28.040  39.213  1.00  0.00    -0.237 OA
ATOM     63  O   UNL A   1      47.340  25.771  39.105  1.00  0.00    -0.237 OA
ATOM     64  O   UNL A   1      48.990  26.481  37.418  1.00  0.00    -0.744 OA
ENDBRANCH  60  61
ENDBRANCH  28  53
BRANCH  40  65
ATOM     65  C   UNL A   1      40.013  33.718  37.451  1.00  0.00     0.058 A 
ATOM     66  C   UNL A   1      39.159  33.365  38.505  1.00  0.00     0.135 A 
ATOM     67  C   UNL A   1      40.809  34.866  37.599  1.00  0.00     0.135 A 
ATOM     68  F   UNL A   1      38.374  32.281  38.406  1.00  0.00    -0.206 F 
ATOM     69  C   UNL A   1      39.110  34.113  39.677  1.00  0.00     0.059 A 
ATOM     70  C   UNL A   1      40.790  35.617  38.770  1.00  0.00     0.059 A 
ATOM     71  F   UNL A   1      41.647  35.239  36.619  1.00  0.00    -0.206 F 
ATOM     72  C   UNL A   1      39.940  35.228  39.805  1.00  0.00     0.060 A 
BRANCH  72  73
ATOM     73  S   UNL A   1      39.934  36.128  41.371  1.00  0.00     0.124 S 
ATOM     74  O   UNL A   1      38.901  37.130  41.132  1.00  0.00    -0.237 OA
ATOM     75  O   UNL A   1      39.593  35.081  42.329  1.00  0.00    -0.237 OA
ATOM     76  O   UNL A   1      41.297  36.643  41.473  1.00  0.00    -0.744 OA
ENDBRANCH  72  73
ENDBRANCH  40  65
ENDBRANCH  14  15
ENDBRANCH   7   9
ENDBRANCH   4   5
ENDBRANCH   3   4
ENDBRANCH   2   3
ENDBRANCH   1   2
BRANCH   1  77
ATOM     77  C   UNL A   1      37.975  21.356  25.117  1.00  0.00     0.021 C 
BRANCH  77  78
ATOM     78  C   UNL A   1      36.495  21.187  25.452  1.00  0.00     0.116 C 
BRANCH  78  79
ATOM     79  N   UNL A   1      35.990  19.895  25.011  1.00  0.00    -0.352 N 
ATOM     80  C   UNL A   1      34.705  19.547  24.702  1.00  0.00     0.251 C 
ATOM     81  H   UNL A   1      36.661  19.179  24.925  1.00  0.00     0.163 HD
ATOM     82  O   UNL A   1      34.374  18.384  24.496  1.00  0.00    -0.269 OA
BRANCH  80  83
ATOM     83  C   UNL A   1      33.708  20.619  24.616  1.00  0.00     0.041 A 
ATOM     84  C   UNL A   1      33.765  21.507  23.534  1.00  0.00     0.015 A 
ATOM     85  C   UNL A   1      32.778  20.769  25.650  1.00  0.00     0.040 A 
ATOM     86  C   UNL A   1      32.885  22.578  23.493  1.00  0.00     0.017 A 
ATOM     87  C   UNL A   1      31.931  21.869  25.618  1.00  0.00     0.056 A 
ATOM     88  C   UNL A   1      31.976  22.746  24.541  1.00  0.00     0.064 A 
ATOM     89  N   UNL A   1      31.048  22.129  26.663  1.00  0.00    -0.307 N 
ATOM     90  C   UNL A   1      31.025  23.854  24.522  1.00  0.00     0.264 A 
ATOM     91  C   UNL A   1      30.306  23.278  26.763  1.00  0.00     0.328 A 
ATOM     92  H   UNL A   1      30.953  21.450  27.370  1.00  0.00     0.171 HD
ATOM     93  O   UNL A   1      30.790  24.379  23.439  1.00  0.00    -0.268 OA
ATOM     94  N   UNL A   1      30.422  24.190  25.722  1.00  0.00    -0.260 N 
ATOM     95  O   UNL A   1      29.570  23.422  27.739  1.00  0.00    -0.248 OA
BRANCH  94  96
ATOM     96  C   UNL A   1      29.644  25.427  25.774  1.00  0.00     0.137 C 
BRANCH  96  97
ATOM     97  C   UNL A   1      30.469  26.714  25.923  1.00  0.00     0.083 C 
BRANCH  97  98
ATOM     98  C   UNL A   1      30.804  27.540  24.665  1.00  0.00     0.264 C 
BRANCH  98  99
ATOM     99  N   UNL A   1      31.970  27.242  23.845  1.00  0.00    -0.331 N 
ATOM    100  C   UNL A   1      33.260  26.972  24.463  1.00  0.00     0.291 C 
ATOM    101  C   UNL A   1      32.097  27.912  22.550  1.00  0.00     0.291 C 
ATOM    102  H   UNL A   1      31.629  26.302  23.641  1.00  0.00     0.348 HD
ATOM    103  C   UNL A   1      34.247  28.151  24.391  1.00  0.00     0.221 C 
ATOM    104  C   UNL A   1      33.097  29.078  22.549  1.00  0.00     0.221 C 
ATOM    105  O   UNL A   1      34.375  28.671  23.061  1.00  0.00    -0.370 OA
ENDBRANCH  98  99
ENDBRANCH  97  98
ENDBRANCH  96  97
ENDBRANCH  94  96
ENDBRANCH  80  83
ENDBRANCH  78  79
ENDBRANCH  77  78
ENDBRANCH   1  77
TORSDOF 20
ENDMDL
