MODEL 1
REMARK VINA RESULT:     -13.2      0.000      0.000
REMARK SMILES COc1cc(S(=O)(=O)Nc2cccc(C(=O)NCCCCCCNC(=O)c3ccc(-c4c5nc(c(-c6c(F)cc(S(=O)(=O)[O-])cc6F)c6ccc([nH]6)c(-c6c(F)cc(S(=O)(=O)[O-])cc6F)c6nc(c(-c7c(F)cc(S(=O)(=O)[O-])cc7F)c7ccc4[nH]7)C=C6)C=C5)cc3)c2)c(OC)cc1C
REMARK SMILES IDX 20 1 19 2 18 3 17 4 15 5 16 6 14 8 10 9 11 10 93 11 12 12
REMARK SMILES IDX 13 13 9 14 6 16 7 17 8 18 5 19 3 20 4 21 98 22 97 23 99 24
REMARK SMILES IDX 94 25 2 26 1 27 95 28 96 29 21 30 22 31 23 32 24 33 25 34
REMARK SMILES IDX 26 36 27 37 28 38 92 39 29 40 91 41 30 42 31 43 32 44 85 45
REMARK SMILES IDX 33 46 90 47 84 48 86 49 34 50 89 51 83 52 82 53 35 55 69 56
REMARK SMILES IDX 48 57 68 58 49 59 52 60 67 61 87 62 50 63 51 64 66 66 88 67
REMARK SMILES IDX 53 68 36 69 37 70 46 71 38 72 39 73 45 74 47 75 40 76 41 77
REMARK SMILES IDX 42 78 43 79 44 80 70 81 71 82 80 83 72 84 73 85 79 86 81 87
REMARK SMILES IDX 74 88 75 89 76 90 77 91 78 92 54 93 55 94 64 95 56 96 57 97
REMARK SMILES IDX 63 98 65 99 58 100 59 101 60 102 61 103 62 104
REMARK H PARENT 17 7 9 15 24 35 86 54 52 65
REMARK Flexibility Score: inf
ROOT
ATOM      1  C   UNL A   1      33.943  27.681  25.218  1.00  0.00     0.002 C 
ENDROOT
BRANCH   1   2
ATOM      2  C   UNL A   1      33.196  28.103  23.945  1.00  0.00     0.021 C 
BRANCH   2   3
ATOM      3  C   UNL A   1      32.128  29.176  24.161  1.00  0.00     0.116 C 
BRANCH   3   4
ATOM      4  N   UNL A   1      31.568  29.614  22.895  1.00  0.00    -0.352 N 
ATOM      5  C   UNL A   1      30.352  29.380  22.307  1.00  0.00     0.251 C 
ATOM      6  O   UNL A   1      30.083  29.950  21.251  1.00  0.00    -0.269 OA
ATOM      7  H   UNL A   1      32.170  30.184  22.363  1.00  0.00     0.163 HD
BRANCH   5   8
ATOM      8  C   UNL A   1      29.307  28.553  22.955  1.00  0.00     0.041 A 
ATOM      9  C   UNL A   1      28.838  26.447  24.082  1.00  0.00     0.050 A 
ATOM     10  C   UNL A   1      27.482  26.762  24.105  1.00  0.00     0.027 A 
ATOM     11  C   UNL A   1      29.748  27.376  23.569  1.00  0.00     0.040 A 
ATOM     12  C   UNL A   1      27.039  27.970  23.550  1.00  0.00     0.003 A 
ATOM     13  C   UNL A   1      27.948  28.865  22.970  1.00  0.00     0.014 A 
BRANCH   9  14
ATOM     14  N   UNL A   1      29.392  25.215  24.521  1.00  0.00    -0.279 N 
ATOM     15  H   UNL A   1      29.195  24.419  23.976  1.00  0.00     0.180 HD
BRANCH  14  16
ATOM     16  S   UNL A   1      30.342  24.987  25.869  1.00  0.00     0.265 S 
ATOM     17  O   UNL A   1      29.730  23.949  26.676  1.00  0.00    -0.201 OA
ATOM     18  O   UNL A   1      30.535  26.315  26.422  1.00  0.00    -0.201 OA
BRANCH  16  19
ATOM     19  C   UNL A   1      31.967  24.400  25.448  1.00  0.00     0.133 A 
ATOM     20  C   UNL A   1      33.587  24.285  23.634  1.00  0.00     0.123 A 
ATOM     21  C   UNL A   1      32.304  24.572  24.091  1.00  0.00     0.073 A 
ATOM     22  C   UNL A   1      34.590  23.953  24.544  1.00  0.00    -0.005 A 
ATOM     23  C   UNL A   1      34.225  23.696  25.874  1.00  0.00     0.055 A 
ATOM     24  C   UNL A   1      36.032  23.833  24.150  1.00  0.00     0.048 C 
ATOM     25  C   UNL A   1      32.905  23.860  26.330  1.00  0.00     0.139 A 
BRANCH  20  26
ATOM     26  O   UNL A   1      33.806  24.409  22.290  1.00  0.00    -0.496 OA
ATOM     27  C   UNL A   1      32.810  25.224  21.667  1.00  0.00     0.278 C 
ENDBRANCH  20  26
BRANCH  25  28
ATOM     28  O   UNL A   1      32.505  23.452  27.567  1.00  0.00    -0.495 OA
ATOM     29  C   UNL A   1      33.102  22.275  28.108  1.00  0.00     0.278 C 
ENDBRANCH  25  28
ENDBRANCH  16  19
ENDBRANCH  14  16
ENDBRANCH   9  14
ENDBRANCH   5   8
ENDBRANCH   3   4
ENDBRANCH   2   3
ENDBRANCH   1   2
BRANCH   1  30
ATOM     30  C   UNL A   1      33.226  27.945  26.552  1.00  0.00     0.002 C 
BRANCH  30  31
ATOM     31  C   UNL A   1      33.867  28.989  27.468  1.00  0.00     0.021 C 
BRANCH  31  32
ATOM     32  C   UNL A   1      34.912  29.854  26.768  1.00  0.00     0.116 C 
BRANCH  32  33
ATOM     33  N   UNL A   1      35.372  30.970  27.583  1.00  0.00    -0.352 N 
ATOM     34  C   UNL A   1      36.383  30.965  28.530  1.00  0.00     0.251 C 
ATOM     35  H   UNL A   1      34.912  31.829  27.445  1.00  0.00     0.163 HD
ATOM     36  O   UNL A   1      36.582  31.896  29.291  1.00  0.00    -0.269 OA
BRANCH  34  37
ATOM     37  C   UNL A   1      37.302  29.810  28.500  1.00  0.00     0.039 A 
ATOM     38  C   UNL A   1      37.456  29.083  29.686  1.00  0.00     0.014 A 
ATOM     39  C   UNL A   1      38.189  29.664  27.437  1.00  0.00     0.014 A 
ATOM     40  C   UNL A   1      38.611  28.330  29.875  1.00  0.00     0.010 A 
ATOM     41  C   UNL A   1      39.372  28.991  27.663  1.00  0.00     0.010 A 
ATOM     42  C   UNL A   1      39.604  28.363  28.897  1.00  0.00    -0.014 A 
BRANCH  42  43
ATOM     43  C   UNL A   1      40.948  27.828  29.088  1.00  0.00     0.031 A 
ATOM     44  C   UNL A   1      41.266  26.460  28.621  1.00  0.00     0.074 A 
ATOM     45  C   UNL A   1      41.922  28.620  29.587  1.00  0.00     0.049 A 
ATOM     46  N   UNL A   1      42.322  25.800  28.955  1.00  0.00    -0.248 NA
ATOM     47  C   UNL A   1      40.375  25.711  27.742  1.00  0.00     0.031 C 
ATOM     48  C   UNL A   1      43.362  28.383  29.554  1.00  0.00     0.029 A 
ATOM     49  N   UNL A   1      41.772  29.722  30.434  1.00  0.00    -0.354 N 
ATOM     50  C   UNL A   1      42.378  24.667  28.177  1.00  0.00     0.074 A 
ATOM     51  C   UNL A   1      41.129  24.648  27.451  1.00  0.00     0.031 C 
ATOM     52  C   UNL A   1      43.942  29.105  30.525  1.00  0.00     0.029 A 
ATOM     53  C   UNL A   1      42.880  29.708  31.311  1.00  0.00     0.049 A 
ATOM     54  H   UNL A   1      41.037  30.378  30.424  1.00  0.00     0.167 HD
ATOM     55  C   UNL A   1      43.519  23.920  28.162  1.00  0.00     0.037 A 
ATOM     56  C   UNL A   1      42.687  29.502  32.648  1.00  0.00     0.037 A 
ATOM     57  C   UNL A   1      44.489  24.405  29.143  1.00  0.00     0.049 A 
ATOM     58  C   UNL A   1      43.254  28.195  33.173  1.00  0.00     0.074 A 
ATOM     59  C   UNL A   1      45.593  25.240  29.096  1.00  0.00     0.029 A 
ATOM     60  N   UNL A   1      44.180  24.261  30.483  1.00  0.00    -0.354 N 
ATOM     61  N   UNL A   1      43.893  27.315  32.449  1.00  0.00    -0.248 NA
ATOM     62  C   UNL A   1      43.082  27.748  34.557  1.00  0.00     0.031 C 
ATOM     63  C   UNL A   1      45.907  25.638  30.430  1.00  0.00     0.029 A 
ATOM     64  C   UNL A   1      45.003  25.032  31.283  1.00  0.00     0.049 A 
ATOM     65  H   UNL A   1      43.464  23.681  30.826  1.00  0.00     0.167 HD
ATOM     66  C   UNL A   1      44.158  26.206  33.208  1.00  0.00     0.074 A 
ATOM     67  C   UNL A   1      43.649  26.531  34.526  1.00  0.00     0.031 C 
ATOM     68  C   UNL A   1      44.737  25.074  32.710  1.00  0.00     0.037 A 
BRANCH  55  69
ATOM     69  C   UNL A   1      43.819  22.884  27.105  1.00  0.00     0.058 A 
ATOM     70  C   UNL A   1      43.043  21.710  27.011  1.00  0.00     0.135 A 
ATOM     71  C   UNL A   1      44.893  22.960  26.195  1.00  0.00     0.135 A 
ATOM     72  F   UNL A   1      41.942  21.539  27.754  1.00  0.00    -0.206 F 
ATOM     73  C   UNL A   1      43.376  20.647  26.169  1.00  0.00     0.059 A 
ATOM     74  C   UNL A   1      45.285  21.885  25.390  1.00  0.00     0.059 A 
ATOM     75  F   UNL A   1      45.580  24.098  26.025  1.00  0.00    -0.206 F 
ATOM     76  C   UNL A   1      44.525  20.724  25.393  1.00  0.00     0.060 A 
BRANCH  76  77
ATOM     77  S   UNL A   1      45.009  19.292  24.410  1.00  0.00     0.124 S 
ATOM     78  O   UNL A   1      44.503  19.642  23.086  1.00  0.00    -0.237 OA
ATOM     79  O   UNL A   1      46.460  19.300  24.558  1.00  0.00    -0.237 OA
ATOM     80  O   UNL A   1      44.316  18.184  25.061  1.00  0.00    -0.744 OA
ENDBRANCH  76  77
ENDBRANCH  55  69
BRANCH  56  81
ATOM     81  C   UNL A   1      41.469  30.199  33.151  1.00  0.00     0.058 A 
ATOM     82  C   UNL A   1      41.573  31.581  33.414  1.00  0.00     0.135 A 
ATOM     83  C   UNL A   1      40.188  29.674  32.944  1.00  0.00     0.135 A 
ATOM     84  F   UNL A   1      42.776  32.133  33.642  1.00  0.00    -0.206 F 
ATOM     85  C   UNL A   1      40.480  32.433  33.295  1.00  0.00     0.059 A 
ATOM     86  C   UNL A   1      39.074  30.511  32.835  1.00  0.00     0.059 A 
ATOM     87  F   UNL A   1      40.024  28.367  32.696  1.00  0.00    -0.206 F 
ATOM     88  C   UNL A   1      39.249  31.892  32.935  1.00  0.00     0.060 A 
BRANCH  88  89
ATOM     89  S   UNL A   1      37.938  33.033  32.433  1.00  0.00     0.124 S 
ATOM     90  O   UNL A   1      38.472  33.583  31.192  1.00  0.00    -0.237 OA
ATOM     91  O   UNL A   1      36.796  32.132  32.283  1.00  0.00    -0.237 OA
ATOM     92  O   UNL A   1      37.857  33.963  33.553  1.00  0.00    -0.744 OA
ENDBRANCH  88  89
ENDBRANCH  56  81
BRANCH  68  93
ATOM     93  C   UNL A   1      45.082  23.894  33.570  1.00  0.00     0.058 A 
ATOM     94  C   UNL A   1      46.358  23.743  34.138  1.00  0.00     0.135 A 
ATOM     95  C   UNL A   1      44.188  22.818  33.747  1.00  0.00     0.135 A 
ATOM     96  F   UNL A   1      47.293  24.695  33.980  1.00  0.00    -0.206 F 
ATOM     97  C   UNL A   1      46.713  22.613  34.874  1.00  0.00     0.059 A 
ATOM     98  C   UNL A   1      44.535  21.660  34.434  1.00  0.00     0.059 A 
ATOM     99  F   UNL A   1      42.932  22.873  33.277  1.00  0.00    -0.206 F 
ATOM    100  C   UNL A   1      45.793  21.576  35.018  1.00  0.00     0.060 A 
BRANCH 100 101
ATOM    101  S   UNL A   1      46.248  20.106  35.956  1.00  0.00     0.124 S 
ATOM    102  O   UNL A   1      45.764  20.415  37.297  1.00  0.00    -0.237 OA
ATOM    103  O   UNL A   1      45.510  19.069  35.242  1.00  0.00    -0.237 OA
ATOM    104  O   UNL A   1      47.700  20.055  35.818  1.00  0.00    -0.744 OA
ENDBRANCH 100 101
ENDBRANCH  68  93
ENDBRANCH  42  43
ENDBRANCH  34  37
ENDBRANCH  32  33
ENDBRANCH  31  32
ENDBRANCH  30  31
ENDBRANCH   1  30
TORSDOF 21
ENDMDL
MODEL 2
REMARK VINA RESULT:     -13.0      1.954      2.612
REMARK SMILES COc1cc(S(=O)(=O)Nc2cccc(C(=O)NCCCCCCNC(=O)c3ccc(-c4c5nc(c(-c6c(F)cc(S(=O)(=O)[O-])cc6F)c6ccc([nH]6)c(-c6c(F)cc(S(=O)(=O)[O-])cc6F)c6nc(c(-c7c(F)cc(S(=O)(=O)[O-])cc7F)c7ccc4[nH]7)C=C6)C=C5)cc3)c2)c(OC)cc1C
REMARK SMILES IDX 20 1 19 2 18 3 17 4 15 5 16 6 14 8 10 9 11 10 93 11 12 12
REMARK SMILES IDX 13 13 9 14 6 16 7 17 8 18 5 19 3 20 4 21 98 22 97 23 99 24
REMARK SMILES IDX 94 25 2 26 1 27 95 28 96 29 21 30 22 31 23 32 24 33 25 34
REMARK SMILES IDX 26 36 27 37 28 38 92 39 29 40 91 41 30 42 31 43 32 44 85 45
REMARK SMILES IDX 33 46 90 47 84 48 86 49 34 50 89 51 83 52 82 53 35 55 69 56
REMARK SMILES IDX 48 57 68 58 49 59 52 60 67 61 87 62 50 63 51 64 66 66 88 67
REMARK SMILES IDX 53 68 36 69 37 70 46 71 38 72 39 73 45 74 47 75 40 76 41 77
REMARK SMILES IDX 42 78 43 79 44 80 70 81 71 82 80 83 72 84 73 85 79 86 81 87
REMARK SMILES IDX 74 88 75 89 76 90 77 91 78 92 54 93 55 94 64 95 56 96 57 97
REMARK SMILES IDX 63 98 65 99 58 100 59 101 60 102 61 103 62 104
REMARK H PARENT 17 7 9 15 24 35 86 54 52 65
REMARK Flexibility Score: inf
ROOT
ATOM      1  C   UNL A   1      33.592  28.551  25.034  1.00  0.00     0.002 C 
ENDROOT
BRANCH   1   2
ATOM      2  C   UNL A   1      33.618  28.924  23.545  1.00  0.00     0.021 C 
BRANCH   2   3
ATOM      3  C   UNL A   1      32.238  29.087  22.907  1.00  0.00     0.116 C 
BRANCH   3   4
ATOM      4  N   UNL A   1      31.981  28.030  21.946  1.00  0.00    -0.352 N 
ATOM      5  C   UNL A   1      31.460  26.771  22.094  1.00  0.00     0.251 C 
ATOM      6  O   UNL A   1      31.257  26.089  21.091  1.00  0.00    -0.269 OA
ATOM      7  H   UNL A   1      32.223  28.259  21.020  1.00  0.00     0.163 HD
BRANCH   5   8
ATOM      8  C   UNL A   1      31.026  26.245  23.411  1.00  0.00     0.041 A 
ATOM      9  C   UNL A   1      31.488  24.624  25.166  1.00  0.00     0.050 A 
ATOM     10  C   UNL A   1      30.321  25.004  25.823  1.00  0.00     0.027 A 
ATOM     11  C   UNL A   1      31.867  25.296  24.000  1.00  0.00     0.040 A 
ATOM     12  C   UNL A   1      29.505  26.001  25.272  1.00  0.00     0.003 A 
ATOM     13  C   UNL A   1      29.852  26.619  24.064  1.00  0.00     0.014 A 
BRANCH   9  14
ATOM     14  N   UNL A   1      32.339  23.562  25.572  1.00  0.00    -0.279 N 
ATOM     15  H   UNL A   1      32.909  23.723  26.359  1.00  0.00     0.180 HD
BRANCH  14  16
ATOM     16  S   UNL A   1      32.468  22.070  24.845  1.00  0.00     0.265 S 
ATOM     17  O   UNL A   1      32.325  22.257  23.414  1.00  0.00    -0.201 OA
ATOM     18  O   UNL A   1      31.534  21.221  25.562  1.00  0.00    -0.201 OA
BRANCH  16  19
ATOM     19  C   UNL A   1      34.071  21.342  25.096  1.00  0.00     0.133 A 
ATOM     20  C   UNL A   1      35.355  19.300  24.768  1.00  0.00     0.123 A 
ATOM     21  C   UNL A   1      34.139  19.978  24.753  1.00  0.00     0.073 A 
ATOM     22  C   UNL A   1      36.539  20.002  24.990  1.00  0.00    -0.005 A 
ATOM     23  C   UNL A   1      36.452  21.336  25.418  1.00  0.00     0.055 A 
ATOM     24  C   UNL A   1      37.893  19.380  24.817  1.00  0.00     0.048 C 
ATOM     25  C   UNL A   1      35.221  22.004  25.531  1.00  0.00     0.139 A 
BRANCH  20  26
ATOM     26  O   UNL A   1      35.319  17.960  24.494  1.00  0.00    -0.496 OA
ATOM     27  C   UNL A   1      34.023  17.548  24.050  1.00  0.00     0.278 C 
ENDBRANCH  20  26
BRANCH  25  28
ATOM     28  O   UNL A   1      35.110  23.235  26.105  1.00  0.00    -0.495 OA
ATOM     29  C   UNL A   1      35.705  24.343  25.432  1.00  0.00     0.278 C 
ENDBRANCH  25  28
ENDBRANCH  16  19
ENDBRANCH  14  16
ENDBRANCH   9  14
ENDBRANCH   5   8
ENDBRANCH   3   4
ENDBRANCH   2   3
ENDBRANCH   1   2
BRANCH   1  30
ATOM     30  C   UNL A   1      32.372  29.026  25.839  1.00  0.00     0.002 C 
BRANCH  30  31
ATOM     31  C   UNL A   1      32.670  29.768  27.142  1.00  0.00     0.021 C 
BRANCH  31  32
ATOM     32  C   UNL A   1      34.104  29.588  27.632  1.00  0.00     0.116 C 
BRANCH  32  33
ATOM     33  N   UNL A   1      34.683  30.809  28.176  1.00  0.00    -0.352 N 
ATOM     34  C   UNL A   1      35.886  30.948  28.847  1.00  0.00     0.251 C 
ATOM     35  H   UNL A   1      34.158  31.632  28.052  1.00  0.00     0.163 HD
ATOM     36  O   UNL A   1      36.209  31.972  29.423  1.00  0.00    -0.269 OA
BRANCH  34  37
ATOM     37  C   UNL A   1      36.834  29.821  28.733  1.00  0.00     0.039 A 
ATOM     38  C   UNL A   1      37.076  29.069  29.888  1.00  0.00     0.014 A 
ATOM     39  C   UNL A   1      37.660  29.726  27.617  1.00  0.00     0.014 A 
ATOM     40  C   UNL A   1      38.260  28.344  29.990  1.00  0.00     0.010 A 
ATOM     41  C   UNL A   1      38.872  29.081  27.756  1.00  0.00     0.010 A 
ATOM     42  C   UNL A   1      39.192  28.430  28.958  1.00  0.00    -0.014 A 
BRANCH  42  43
ATOM     43  C   UNL A   1      40.559  27.928  29.057  1.00  0.00     0.031 A 
ATOM     44  C   UNL A   1      40.860  26.537  28.655  1.00  0.00     0.074 A 
ATOM     45  C   UNL A   1      41.558  28.767  29.407  1.00  0.00     0.049 A 
ATOM     46  N   UNL A   1      41.957  25.916  28.931  1.00  0.00    -0.248 NA
ATOM     47  C   UNL A   1      39.907  25.716  27.917  1.00  0.00     0.031 C 
ATOM     48  C   UNL A   1      42.994  28.549  29.254  1.00  0.00     0.029 A 
ATOM     49  N   UNL A   1      41.465  29.922  30.189  1.00  0.00    -0.354 N 
ATOM     50  C   UNL A   1      41.963  24.733  28.230  1.00  0.00     0.074 A 
ATOM     51  C   UNL A   1      40.653  24.646  27.627  1.00  0.00     0.031 C 
ATOM     52  C   UNL A   1      43.647  29.344  30.116  1.00  0.00     0.029 A 
ATOM     53  C   UNL A   1      42.651  29.985  30.955  1.00  0.00     0.049 A 
ATOM     54  H   UNL A   1      40.720  30.566  30.203  1.00  0.00     0.167 HD
ATOM     55  C   UNL A   1      43.113  24.003  28.157  1.00  0.00     0.037 A 
ATOM     56  C   UNL A   1      42.588  29.869  32.316  1.00  0.00     0.037 A 
ATOM     57  C   UNL A   1      44.159  24.568  29.008  1.00  0.00     0.049 A 
ATOM     58  C   UNL A   1      43.228  28.610  32.871  1.00  0.00     0.074 A 
ATOM     59  C   UNL A   1      45.237  25.413  28.800  1.00  0.00     0.029 A 
ATOM     60  N   UNL A   1      43.980  24.513  30.378  1.00  0.00    -0.354 N 
ATOM     61  N   UNL A   1      43.814  27.691  32.152  1.00  0.00    -0.248 NA
ATOM     62  C   UNL A   1      43.195  28.257  34.293  1.00  0.00     0.031 C 
ATOM     63  C   UNL A   1      45.666  25.907  30.069  1.00  0.00     0.029 A 
ATOM     64  C   UNL A   1      44.857  25.349  31.042  1.00  0.00     0.049 A 
ATOM     65  H   UNL A   1      43.311  23.948  30.825  1.00  0.00     0.167 HD
ATOM     66  C   UNL A   1      44.172  26.640  32.955  1.00  0.00     0.074 A 
ATOM     67  C   UNL A   1      43.782  27.048  34.291  1.00  0.00     0.031 C 
ATOM     68  C   UNL A   1      44.725  25.485  32.482  1.00  0.00     0.037 A 
BRANCH  55  69
ATOM     69  C   UNL A   1      43.335  22.901  27.149  1.00  0.00     0.058 A 
ATOM     70  C   UNL A   1      42.650  21.674  27.267  1.00  0.00     0.135 A 
ATOM     71  C   UNL A   1      44.250  22.969  26.080  1.00  0.00     0.135 A 
ATOM     72  F   UNL A   1      41.689  21.494  28.183  1.00  0.00    -0.206 F 
ATOM     73  C   UNL A   1      42.939  20.565  26.467  1.00  0.00     0.059 A 
ATOM     74  C   UNL A   1      44.604  21.857  25.309  1.00  0.00     0.059 A 
ATOM     75  F   UNL A   1      44.811  24.132  25.719  1.00  0.00    -0.206 F 
ATOM     76  C   UNL A   1      43.948  20.652  25.518  1.00  0.00     0.060 A 
BRANCH  76  77
ATOM     77  S   UNL A   1      44.394  19.175  24.584  1.00  0.00     0.124 S 
ATOM     78  O   UNL A   1      44.443  19.680  23.215  1.00  0.00    -0.237 OA
ATOM     79  O   UNL A   1      45.679  18.820  25.176  1.00  0.00    -0.237 OA
ATOM     80  O   UNL A   1      43.297  18.253  24.863  1.00  0.00    -0.744 OA
ENDBRANCH  76  77
ENDBRANCH  55  69
BRANCH  56  81
ATOM     81  C   UNL A   1      41.407  30.582  32.884  1.00  0.00     0.058 A 
ATOM     82  C   UNL A   1      40.272  29.808  33.200  1.00  0.00     0.135 A 
ATOM     83  C   UNL A   1      41.536  31.829  33.507  1.00  0.00     0.135 A 
ATOM     84  F   UNL A   1      40.088  28.614  32.615  1.00  0.00    -0.206 F 
ATOM     85  C   UNL A   1      39.402  30.171  34.223  1.00  0.00     0.059 A 
ATOM     86  C   UNL A   1      40.665  32.219  34.527  1.00  0.00     0.059 A 
ATOM     87  F   UNL A   1      42.591  32.613  33.241  1.00  0.00    -0.206 F 
ATOM     88  C   UNL A   1      39.651  31.346  34.926  1.00  0.00     0.060 A 
BRANCH  88  89
ATOM     89  S   UNL A   1      38.743  31.619  36.467  1.00  0.00     0.124 S 
ATOM     90  O   UNL A   1      38.163  30.304  36.715  1.00  0.00    -0.237 OA
ATOM     91  O   UNL A   1      39.814  32.017  37.380  1.00  0.00    -0.237 OA
ATOM     92  O   UNL A   1      37.798  32.671  36.116  1.00  0.00    -0.744 OA
ENDBRANCH  88  89
ENDBRANCH  56  81
BRANCH  68  93
ATOM     93  C   UNL A   1      45.173  24.372  33.383  1.00  0.00     0.058 A 
ATOM     94  C   UNL A   1      46.463  24.347  33.939  1.00  0.00     0.135 A 
ATOM     95  C   UNL A   1      44.370  23.236  33.615  1.00  0.00     0.135 A 
ATOM     96  F   UNL A   1      47.317  25.363  33.731  1.00  0.00    -0.206 F 
ATOM     97  C   UNL A   1      46.915  23.279  34.714  1.00  0.00     0.059 A 
ATOM     98  C   UNL A   1      44.817  22.139  34.343  1.00  0.00     0.059 A 
ATOM     99  F   UNL A   1      43.110  23.172  33.160  1.00  0.00    -0.206 F 
ATOM    100  C   UNL A   1      46.084  22.179  34.912  1.00  0.00     0.060 A 
BRANCH 100 101
ATOM    101  S   UNL A   1      46.666  20.789  35.900  1.00  0.00     0.124 S 
ATOM    102  O   UNL A   1      47.755  20.251  35.092  1.00  0.00    -0.237 OA
ATOM    103  O   UNL A   1      47.066  21.460  37.133  1.00  0.00    -0.237 OA
ATOM    104  O   UNL A   1      45.489  19.932  36.001  1.00  0.00    -0.744 OA
ENDBRANCH 100 101
ENDBRANCH  68  93
ENDBRANCH  42  43
ENDBRANCH  34  37
ENDBRANCH  32  33
ENDBRANCH  31  32
ENDBRANCH  30  31
ENDBRANCH   1  30
TORSDOF 21
ENDMDL
MODEL 3
REMARK VINA RESULT:     -12.7      1.814      2.601
REMARK SMILES COc1cc(S(=O)(=O)Nc2cccc(C(=O)NCCCCCCNC(=O)c3ccc(-c4c5nc(c(-c6c(F)cc(S(=O)(=O)[O-])cc6F)c6ccc([nH]6)c(-c6c(F)cc(S(=O)(=O)[O-])cc6F)c6nc(c(-c7c(F)cc(S(=O)(=O)[O-])cc7F)c7ccc4[nH]7)C=C6)C=C5)cc3)c2)c(OC)cc1C
REMARK SMILES IDX 20 1 19 2 18 3 17 4 15 5 16 6 14 8 10 9 11 10 93 11 12 12
REMARK SMILES IDX 13 13 9 14 6 16 7 17 8 18 5 19 3 20 4 21 98 22 97 23 99 24
REMARK SMILES IDX 94 25 2 26 1 27 95 28 96 29 21 30 22 31 23 32 24 33 25 34
REMARK SMILES IDX 26 36 27 37 28 38 92 39 29 40 91 41 30 42 31 43 32 44 85 45
REMARK SMILES IDX 33 46 90 47 84 48 86 49 34 50 89 51 83 52 82 53 35 55 69 56
REMARK SMILES IDX 48 57 68 58 49 59 52 60 67 61 87 62 50 63 51 64 66 66 88 67
REMARK SMILES IDX 53 68 36 69 37 70 46 71 38 72 39 73 45 74 47 75 40 76 41 77
REMARK SMILES IDX 42 78 43 79 44 80 70 81 71 82 80 83 72 84 73 85 79 86 81 87
REMARK SMILES IDX 74 88 75 89 76 90 77 91 78 92 54 93 55 94 64 95 56 96 57 97
REMARK SMILES IDX 63 98 65 99 58 100 59 101 60 102 61 103 62 104
REMARK H PARENT 17 7 9 15 24 35 86 54 52 65
REMARK Flexibility Score: inf
ROOT
ATOM      1  C   UNL A   1      33.656  28.874  24.837  1.00  0.00     0.002 C 
ENDROOT
BRANCH   1   2
ATOM      2  C   UNL A   1      33.387  29.227  23.367  1.00  0.00     0.021 C 
BRANCH   2   3
ATOM      3  C   UNL A   1      31.909  29.252  22.980  1.00  0.00     0.116 C 
BRANCH   3   4
ATOM      4  N   UNL A   1      31.609  28.221  22.003  1.00  0.00    -0.352 N 
ATOM      5  C   UNL A   1      31.436  26.867  22.131  1.00  0.00     0.251 C 
ATOM      6  O   UNL A   1      31.095  26.216  21.145  1.00  0.00    -0.269 OA
ATOM      7  H   UNL A   1      31.512  28.554  21.081  1.00  0.00     0.163 HD
BRANCH   5   8
ATOM      8  C   UNL A   1      31.534  26.179  23.440  1.00  0.00     0.041 A 
ATOM      9  C   UNL A   1      32.862  24.666  24.807  1.00  0.00     0.050 A 
ATOM     10  C   UNL A   1      31.868  24.674  25.782  1.00  0.00     0.027 A 
ATOM     11  C   UNL A   1      32.718  25.472  23.675  1.00  0.00     0.040 A 
ATOM     12  C   UNL A   1      30.706  25.432  25.584  1.00  0.00     0.003 A 
ATOM     13  C   UNL A   1      30.534  26.181  24.412  1.00  0.00     0.014 A 
BRANCH   9  14
ATOM     14  N   UNL A   1      34.033  23.863  24.850  1.00  0.00    -0.279 N 
ATOM     15  H   UNL A   1      34.732  24.127  25.493  1.00  0.00     0.180 HD
BRANCH  14  16
ATOM     16  S   UNL A   1      34.340  22.519  23.919  1.00  0.00     0.265 S 
ATOM     17  O   UNL A   1      35.776  22.318  23.883  1.00  0.00    -0.201 OA
ATOM     18  O   UNL A   1      33.609  22.741  22.684  1.00  0.00    -0.201 OA
BRANCH  16  19
ATOM     19  C   UNL A   1      33.647  21.043  24.629  1.00  0.00     0.133 A 
ATOM     20  C   UNL A   1      32.595  18.920  24.068  1.00  0.00     0.123 A 
ATOM     21  C   UNL A   1      33.061  20.175  23.687  1.00  0.00     0.073 A 
ATOM     22  C   UNL A   1      32.828  18.456  25.362  1.00  0.00    -0.005 A 
ATOM     23  C   UNL A   1      33.328  19.359  26.314  1.00  0.00     0.055 A 
ATOM     24  C   UNL A   1      32.539  17.045  25.781  1.00  0.00     0.048 C 
ATOM     25  C   UNL A   1      33.690  20.674  25.976  1.00  0.00     0.139 A 
BRANCH  20  26
ATOM     26  O   UNL A   1      31.973  18.173  23.106  1.00  0.00    -0.496 OA
ATOM     27  C   UNL A   1      32.337  18.601  21.791  1.00  0.00     0.278 C 
ENDBRANCH  20  26
BRANCH  25  28
ATOM     28  O   UNL A   1      34.013  21.606  26.916  1.00  0.00    -0.495 OA
ATOM     29  C   UNL A   1      33.005  21.990  27.849  1.00  0.00     0.278 C 
ENDBRANCH  25  28
ENDBRANCH  16  19
ENDBRANCH  14  16
ENDBRANCH   9  14
ENDBRANCH   5   8
ENDBRANCH   3   4
ENDBRANCH   2   3
ENDBRANCH   1   2
BRANCH   1  30
ATOM     30  C   UNL A   1      32.506  29.129  25.824  1.00  0.00     0.002 C 
BRANCH  30  31
ATOM     31  C   UNL A   1      32.908  29.603  27.222  1.00  0.00     0.021 C 
BRANCH  31  32
ATOM     32  C   UNL A   1      34.405  29.487  27.497  1.00  0.00     0.116 C 
BRANCH  32  33
ATOM     33  N   UNL A   1      34.964  30.669  28.139  1.00  0.00    -0.352 N 
ATOM     34  C   UNL A   1      36.108  30.749  28.915  1.00  0.00     0.251 C 
ATOM     35  H   UNL A   1      34.470  31.510  28.006  1.00  0.00     0.163 HD
ATOM     36  O   UNL A   1      36.404  31.740  29.559  1.00  0.00    -0.269 OA
BRANCH  34  37
ATOM     37  C   UNL A   1      37.035  29.602  28.833  1.00  0.00     0.039 A 
ATOM     38  C   UNL A   1      37.260  28.876  30.008  1.00  0.00     0.014 A 
ATOM     39  C   UNL A   1      37.863  29.463  27.723  1.00  0.00     0.014 A 
ATOM     40  C   UNL A   1      38.430  28.132  30.133  1.00  0.00     0.010 A 
ATOM     41  C   UNL A   1      39.063  28.801  27.884  1.00  0.00     0.010 A 
ATOM     42  C   UNL A   1      39.367  28.174  29.103  1.00  0.00    -0.014 A 
BRANCH  42  43
ATOM     43  C   UNL A   1      40.724  27.651  29.220  1.00  0.00     0.031 A 
ATOM     44  C   UNL A   1      41.027  26.284  28.741  1.00  0.00     0.074 A 
ATOM     45  C   UNL A   1      41.718  28.453  29.661  1.00  0.00     0.049 A 
ATOM     46  N   UNL A   1      42.106  25.634  29.016  1.00  0.00    -0.248 NA
ATOM     47  C   UNL A   1      40.094  25.525  27.915  1.00  0.00     0.031 C 
ATOM     48  C   UNL A   1      43.156  28.227  29.548  1.00  0.00     0.029 A 
ATOM     49  N   UNL A   1      41.606  29.556  30.511  1.00  0.00    -0.354 N 
ATOM     50  C   UNL A   1      42.127  24.498  28.240  1.00  0.00     0.074 A 
ATOM     51  C   UNL A   1      40.840  24.467  27.585  1.00  0.00     0.031 C 
ATOM     52  C   UNL A   1      43.783  28.957  30.483  1.00  0.00     0.029 A 
ATOM     53  C   UNL A   1      42.763  29.555  31.324  1.00  0.00     0.049 A 
ATOM     54  H   UNL A   1      40.867  30.207  30.540  1.00  0.00     0.167 HD
ATOM     55  C   UNL A   1      43.272  23.760  28.164  1.00  0.00     0.037 A 
ATOM     56  C   UNL A   1      42.647  29.353  32.671  1.00  0.00     0.037 A 
ATOM     57  C   UNL A   1      44.291  24.257  29.087  1.00  0.00     0.049 A 
ATOM     58  C   UNL A   1      43.253  28.052  33.167  1.00  0.00     0.074 A 
ATOM     59  C   UNL A   1      45.383  25.101  28.975  1.00  0.00     0.029 A 
ATOM     60  N   UNL A   1      44.059  24.116  30.443  1.00  0.00    -0.354 N 
ATOM     61  N   UNL A   1      43.857  27.175  32.412  1.00  0.00    -0.248 NA
ATOM     62  C   UNL A   1      43.163  27.609  34.561  1.00  0.00     0.031 C 
ATOM     63  C   UNL A   1      45.769  25.506  30.288  1.00  0.00     0.029 A 
ATOM     64  C   UNL A   1      44.919  24.896  31.192  1.00  0.00     0.049 A 
ATOM     65  H   UNL A   1      43.368  23.531  30.828  1.00  0.00     0.167 HD
ATOM     66  C   UNL A   1      44.174  26.070  33.158  1.00  0.00     0.074 A 
ATOM     67  C   UNL A   1      43.737  26.396  34.502  1.00  0.00     0.031 C 
ATOM     68  C   UNL A   1      44.733  24.942  32.632  1.00  0.00     0.037 A 
BRANCH  55  69
ATOM     69  C   UNL A   1      43.521  22.724  27.094  1.00  0.00     0.058 A 
ATOM     70  C   UNL A   1      42.783  21.521  27.077  1.00  0.00     0.135 A 
ATOM     71  C   UNL A   1      44.511  22.826  26.097  1.00  0.00     0.135 A 
ATOM     72  F   UNL A   1      41.755  21.320  27.911  1.00  0.00    -0.206 F 
ATOM     73  C   UNL A   1      43.084  20.460  26.220  1.00  0.00     0.059 A 
ATOM     74  C   UNL A   1      44.874  21.757  25.272  1.00  0.00     0.059 A 
ATOM     75  F   UNL A   1      45.139  23.986  25.860  1.00  0.00    -0.206 F 
ATOM     76  C   UNL A   1      44.160  20.569  25.349  1.00  0.00     0.060 A 
BRANCH  76  77
ATOM     77  S   UNL A   1      44.613  19.144  24.343  1.00  0.00     0.124 S 
ATOM     78  O   UNL A   1      43.655  18.135  24.788  1.00  0.00    -0.237 OA
ATOM     79  O   UNL A   1      44.416  19.653  22.991  1.00  0.00    -0.237 OA
ATOM     80  O   UNL A   1      45.999  18.887  24.722  1.00  0.00    -0.744 OA
ENDBRANCH  76  77
ENDBRANCH  55  69
BRANCH  56  81
ATOM     81  C   UNL A   1      41.453  30.042  33.239  1.00  0.00     0.058 A 
ATOM     82  C   UNL A   1      41.554  31.428  33.474  1.00  0.00     0.135 A 
ATOM     83  C   UNL A   1      40.169  29.496  33.122  1.00  0.00     0.135 A 
ATOM     84  F   UNL A   1      42.761  32.000  33.616  1.00  0.00    -0.206 F 
ATOM     85  C   UNL A   1      40.443  32.264  33.411  1.00  0.00     0.059 A 
ATOM     86  C   UNL A   1      39.039  30.316  33.071  1.00  0.00     0.059 A 
ATOM     87  F   UNL A   1      40.008  28.183  32.905  1.00  0.00    -0.206 F 
ATOM     88  C   UNL A   1      39.200  31.701  33.139  1.00  0.00     0.060 A 
BRANCH  88  89
ATOM     89  S   UNL A   1      37.843  32.816  32.703  1.00  0.00     0.124 S 
ATOM     90  O   UNL A   1      37.879  33.780  33.796  1.00  0.00    -0.237 OA
ATOM     91  O   UNL A   1      38.277  33.322  31.401  1.00  0.00    -0.237 OA
ATOM     92  O   UNL A   1      36.682  31.935  32.674  1.00  0.00    -0.744 OA
ENDBRANCH  88  89
ENDBRANCH  56  81
BRANCH  68  93
ATOM     93  C   UNL A   1      45.136  23.767  33.475  1.00  0.00     0.058 A 
ATOM     94  C   UNL A   1      44.206  22.793  33.877  1.00  0.00     0.135 A 
ATOM     95  C   UNL A   1      46.435  23.649  34.011  1.00  0.00     0.135 A 
ATOM     96  F   UNL A   1      42.931  22.851  33.456  1.00  0.00    -0.206 F 
ATOM     97  C   UNL A   1      44.554  21.741  34.723  1.00  0.00     0.059 A 
ATOM     98  C   UNL A   1      46.792  22.637  34.895  1.00  0.00     0.059 A 
ATOM     99  F   UNL A   1      47.409  24.504  33.665  1.00  0.00    -0.206 F 
ATOM    100  C   UNL A   1      45.851  21.671  35.227  1.00  0.00     0.060 A 
BRANCH 100 101
ATOM    101  S   UNL A   1      46.304  20.322  36.333  1.00  0.00     0.124 S 
ATOM    102  O   UNL A   1      45.748  20.752  37.612  1.00  0.00    -0.237 OA
ATOM    103  O   UNL A   1      45.632  19.192  35.700  1.00  0.00    -0.237 OA
ATOM    104  O   UNL A   1      47.762  20.308  36.265  1.00  0.00    -0.744 OA
ENDBRANCH 100 101
ENDBRANCH  68  93
ENDBRANCH  42  43
ENDBRANCH  34  37
ENDBRANCH  32  33
ENDBRANCH  31  32
ENDBRANCH  30  31
ENDBRANCH   1  30
TORSDOF 21
ENDMDL
