MODEL 1
REMARK VINA RESULT:     -10.0      0.000      0.000
REMARK SMILES Cc1cc(C)n(C)c(=O)c1C(=O)N1CCC2(CC1)C[NH2+][C@@H](C(=O)NCCCCCCNC(=O)c1ccc(-c3c4nc(c(-c5c(F)cc(S(=O)(=O)[O-])cc5F)c5ccc([nH]5)c(-c5c(F)cc(S(=O)(=O)[O-])cc5F)c5nc(c(-c6c(F)cc(S(=O)(=O)[O-])cc6F)c6ccc3[nH]6)C=C5)C=C4)cc1)C2
REMARK SMILES IDX 28 1 27 2 26 3 25 4 24 5 22 6 23 7 21 9 11 10 12 11 13 12
REMARK SMILES IDX 14 13 18 14 15 15 17 16 16 17 19 18 100 19 20 20 10 23 1 24
REMARK SMILES IDX 2 25 3 26 4 27 8 28 5 29 6 30 9 31 7 32 29 33 30 34 31 35
REMARK SMILES IDX 32 36 33 38 34 39 35 40 99 41 36 42 98 43 37 44 38 45 39 46
REMARK SMILES IDX 92 47 40 48 97 49 91 50 93 51 41 52 96 53 90 54 89 55 42 57
REMARK SMILES IDX 76 58 55 59 75 60 56 61 59 62 74 63 94 64 57 65 58 66 73 68
REMARK SMILES IDX 95 69 60 70 43 71 44 72 53 73 45 74 46 75 52 76 54 77 47 78
REMARK SMILES IDX 48 79 49 80 50 81 51 82 77 83 78 84 87 85 79 86 80 87 86 88
REMARK SMILES IDX 88 89 81 90 82 91 83 92 84 93 85 94 61 95 62 96 71 97 63 98
REMARK SMILES IDX 64 99 70 100 72 101 65 102 66 103 67 104 68 105 69 106
REMARK H PARENT 24 8 20 21 20 22 31 37 93 56 59 67
REMARK Flexibility Score: inf
ROOT
ATOM      1  C   UNL A   1      34.779  32.353  31.302  1.00  0.00     0.002 C 
ENDROOT
BRANCH   1   2
ATOM      2  C   UNL A   1      35.894  32.743  32.277  1.00  0.00     0.002 C 
BRANCH   2   3
ATOM      3  C   UNL A   1      37.306  32.411  31.790  1.00  0.00     0.021 C 
BRANCH   3   4
ATOM      4  C   UNL A   1      38.385  32.649  32.842  1.00  0.00     0.116 C 
BRANCH   4   5
ATOM      5  N   UNL A   1      38.053  31.991  34.093  1.00  0.00    -0.351 N 
ATOM      6  C   UNL A   1      38.609  30.885  34.668  1.00  0.00     0.278 C 
ATOM      7  O   UNL A   1      38.144  30.492  35.741  1.00  0.00    -0.268 OA
ATOM      8  H   UNL A   1      37.319  32.403  34.601  1.00  0.00     0.163 HD
BRANCH   6   9
ATOM      9  C   UNL A   1      39.764  30.135  33.996  1.00  0.00     0.273 C 
ATOM     10  C   UNL A   1      44.777  26.156  35.438  1.00  0.00     0.259 C 
ATOM     11  O   UNL A   1      45.894  26.684  35.382  1.00  0.00    -0.269 OA
ATOM     12  N   UNL A   1      43.648  26.963  35.487  1.00  0.00    -0.338 N 
ATOM     13  C   UNL A   1      43.777  28.318  34.978  1.00  0.00     0.120 C 
ATOM     14  C   UNL A   1      42.378  26.690  36.147  1.00  0.00     0.120 C 
ATOM     15  C   UNL A   1      42.782  28.484  33.844  1.00  0.00     0.034 C 
ATOM     16  C   UNL A   1      41.156  27.072  35.287  1.00  0.00     0.034 C 
ATOM     17  C   UNL A   1      41.326  28.285  34.314  1.00  0.00     0.029 C 
ATOM     18  C   UNL A   1      40.440  28.116  33.052  1.00  0.00     0.268 C 
ATOM     19  C   UNL A   1      40.806  29.590  34.966  1.00  0.00     0.088 C 
ATOM     20  N   UNL A   1      39.277  28.960  33.257  1.00  0.00    -0.336 N 
ATOM     21  H   UNL A   1      38.570  28.465  33.803  1.00  0.00     0.346 HD
ATOM     22  H   UNL A   1      38.841  29.224  32.374  1.00  0.00     0.346 HD
BRANCH  10  23
ATOM     23  C   UNL A   1      44.693  24.658  35.276  1.00  0.00     0.108 A 
ATOM     24  C   UNL A   1      44.501  24.591  32.713  1.00  0.00     0.045 C 
ATOM     25  C   UNL A   1      44.618  24.012  34.089  1.00  0.00    -0.031 A 
ATOM     26  C   UNL A   1      44.795  22.575  34.014  1.00  0.00     0.026 A 
ATOM     27  C   UNL A   1      45.290  21.868  35.037  1.00  0.00     0.018 A 
ATOM     28  C   UNL A   1      45.049  23.817  36.492  1.00  0.00     0.263 A 
ATOM     29  C   UNL A   1      45.616  20.417  34.815  1.00  0.00     0.064 C 
ATOM     30  N   UNL A   1      45.473  22.494  36.262  1.00  0.00    -0.315 N 
ATOM     31  O   UNL A   1      44.985  24.292  37.626  1.00  0.00    -0.268 OA
ATOM     32  C   UNL A   1      46.060  21.767  37.380  1.00  0.00     0.153 C 
ENDBRANCH  10  23
ENDBRANCH   6   9
ENDBRANCH   4   5
ENDBRANCH   3   4
ENDBRANCH   2   3
ENDBRANCH   1   2
BRANCH   1  33
ATOM     33  C   UNL A   1      34.580  33.325  30.137  1.00  0.00     0.021 C 
BRANCH  33  34
ATOM     34  C   UNL A   1      35.000  32.768  28.782  1.00  0.00     0.116 C 
BRANCH  34  35
ATOM     35  N   UNL A   1      34.169  31.644  28.382  1.00  0.00    -0.352 N 
ATOM     36  C   UNL A   1      34.545  30.367  28.040  1.00  0.00     0.251 C 
ATOM     37  H   UNL A   1      33.202  31.823  28.353  1.00  0.00     0.163 HD
ATOM     38  O   UNL A   1      33.743  29.610  27.510  1.00  0.00    -0.269 OA
BRANCH  36  39
ATOM     39  C   UNL A   1      35.930  29.928  28.306  1.00  0.00     0.039 A 
ATOM     40  C   UNL A   1      36.888  30.060  27.300  1.00  0.00     0.014 A 
ATOM     41  C   UNL A   1      36.279  29.394  29.551  1.00  0.00     0.014 A 
ATOM     42  C   UNL A   1      38.212  29.704  27.561  1.00  0.00     0.010 A 
ATOM     43  C   UNL A   1      37.610  29.112  29.833  1.00  0.00     0.010 A 
ATOM     44  C   UNL A   1      38.589  29.256  28.839  1.00  0.00    -0.014 A 
BRANCH  44  45
ATOM     45  C   UNL A   1      40.000  28.911  29.142  1.00  0.00     0.031 A 
ATOM     46  C   UNL A   1      40.881  29.907  29.847  1.00  0.00     0.074 A 
ATOM     47  C   UNL A   1      40.495  27.720  28.754  1.00  0.00     0.049 A 
ATOM     48  N   UNL A   1      42.144  29.807  30.166  1.00  0.00    -0.248 NA
ATOM     49  C   UNL A   1      40.266  31.191  30.222  1.00  0.00     0.031 C 
ATOM     50  C   UNL A   1      39.744  26.686  28.038  1.00  0.00     0.029 A 
ATOM     51  N   UNL A   1      41.744  27.174  28.909  1.00  0.00    -0.354 N 
ATOM     52  C   UNL A   1      42.473  31.009  30.782  1.00  0.00     0.074 A 
ATOM     53  C   UNL A   1      41.298  31.849  30.730  1.00  0.00     0.031 C 
ATOM     54  C   UNL A   1      40.536  25.619  27.847  1.00  0.00     0.029 A 
ATOM     55  C   UNL A   1      41.861  25.905  28.390  1.00  0.00     0.049 A 
ATOM     56  H   UNL A   1      42.487  27.645  29.350  1.00  0.00     0.167 HD
ATOM     57  C   UNL A   1      43.640  31.367  31.367  1.00  0.00     0.037 A 
ATOM     58  C   UNL A   1      42.917  25.068  28.355  1.00  0.00     0.037 A 
ATOM     59  C   UNL A   1      44.801  30.519  31.430  1.00  0.00     0.049 A 
ATOM     60  C   UNL A   1      44.217  25.506  28.976  1.00  0.00     0.074 A 
ATOM     61  C   UNL A   1      46.022  30.776  32.030  1.00  0.00     0.029 A 
ATOM     62  N   UNL A   1      44.888  29.250  30.875  1.00  0.00    -0.354 N 
ATOM     63  N   UNL A   1      44.499  26.629  29.593  1.00  0.00    -0.248 NA
ATOM     64  C   UNL A   1      45.343  24.565  28.898  1.00  0.00     0.031 C 
ATOM     65  C   UNL A   1      46.862  29.684  31.793  1.00  0.00     0.029 A 
ATOM     66  C   UNL A   1      46.149  28.722  31.096  1.00  0.00     0.049 A 
ATOM     67  H   UNL A   1      44.159  28.792  30.395  1.00  0.00     0.167 HD
ATOM     68  C   UNL A   1      45.825  26.520  29.996  1.00  0.00     0.074 A 
ATOM     69  C   UNL A   1      46.285  25.216  29.566  1.00  0.00     0.031 C 
ATOM     70  C   UNL A   1      46.591  27.419  30.661  1.00  0.00     0.037 A 
BRANCH  57  71
ATOM     71  C   UNL A   1      43.717  32.728  32.002  1.00  0.00     0.058 A 
ATOM     72  C   UNL A   1      44.124  33.856  31.270  1.00  0.00     0.135 A 
ATOM     73  C   UNL A   1      43.331  32.920  33.338  1.00  0.00     0.135 A 
ATOM     74  F   UNL A   1      44.521  33.727  29.994  1.00  0.00    -0.206 F 
ATOM     75  C   UNL A   1      44.165  35.121  31.846  1.00  0.00     0.059 A 
ATOM     76  C   UNL A   1      43.335  34.183  33.926  1.00  0.00     0.059 A 
ATOM     77  F   UNL A   1      42.937  31.877  34.085  1.00  0.00    -0.206 F 
ATOM     78  C   UNL A   1      43.763  35.275  33.173  1.00  0.00     0.060 A 
BRANCH  78  79
ATOM     79  S   UNL A   1      43.805  36.929  33.894  1.00  0.00     0.124 S 
ATOM     80  O   UNL A   1      45.156  36.973  34.447  1.00  0.00    -0.237 OA
ATOM     81  O   UNL A   1      43.568  37.779  32.731  1.00  0.00    -0.237 OA
ATOM     82  O   UNL A   1      42.728  36.901  34.878  1.00  0.00    -0.744 OA
ENDBRANCH  78  79
ENDBRANCH  57  71
BRANCH  58  83
ATOM     83  C   UNL A   1      42.777  23.723  27.736  1.00  0.00     0.058 A 
ATOM     84  C   UNL A   1      42.882  23.553  26.348  1.00  0.00     0.135 A 
ATOM     85  C   UNL A   1      42.563  22.576  28.519  1.00  0.00     0.135 A 
ATOM     86  F   UNL A   1      43.077  24.618  25.555  1.00  0.00    -0.206 F 
ATOM     87  C   UNL A   1      42.774  22.300  25.755  1.00  0.00     0.059 A 
ATOM     88  C   UNL A   1      42.478  21.308  27.952  1.00  0.00     0.059 A 
ATOM     89  F   UNL A   1      42.469  22.681  29.854  1.00  0.00    -0.206 F 
ATOM     90  C   UNL A   1      42.579  21.182  26.567  1.00  0.00     0.060 A 
BRANCH  90  91
ATOM     91  S   UNL A   1      42.499  19.553  25.790  1.00  0.00     0.124 S 
ATOM     92  O   UNL A   1      41.102  19.492  25.375  1.00  0.00    -0.237 OA
ATOM     93  O   UNL A   1      43.481  19.681  24.718  1.00  0.00    -0.237 OA
ATOM     94  O   UNL A   1      42.875  18.646  26.871  1.00  0.00    -0.744 OA
ENDBRANCH  90  91
ENDBRANCH  58  83
BRANCH  70  95
ATOM     95  C   UNL A   1      48.008  27.028  30.983  1.00  0.00     0.058 A 
ATOM     96  C   UNL A   1      48.319  26.258  32.114  1.00  0.00     0.135 A 
ATOM     97  C   UNL A   1      49.055  27.358  30.105  1.00  0.00     0.135 A 
ATOM     98  F   UNL A   1      47.356  25.921  32.987  1.00  0.00    -0.206 F 
ATOM     99  C   UNL A   1      49.619  25.840  32.371  1.00  0.00     0.059 A 
ATOM    100  C   UNL A   1      50.358  26.925  30.328  1.00  0.00     0.059 A 
ATOM    101  F   UNL A   1      48.810  28.084  29.002  1.00  0.00    -0.206 F 
ATOM    102  C   UNL A   1      50.632  26.171  31.468  1.00  0.00     0.060 A 
BRANCH 102 103
ATOM    103  S   UNL A   1      52.305  25.579  31.795  1.00  0.00     0.124 S 
ATOM    104  O   UNL A   1      52.700  26.420  32.921  1.00  0.00    -0.237 OA
ATOM    105  O   UNL A   1      52.079  24.170  32.105  1.00  0.00    -0.237 OA
ATOM    106  O   UNL A   1      53.009  25.834  30.543  1.00  0.00    -0.744 OA
ENDBRANCH 102 103
ENDBRANCH  70  95
ENDBRANCH  44  45
ENDBRANCH  36  39
ENDBRANCH  34  35
ENDBRANCH  33  34
ENDBRANCH   1  33
TORSDOF 17
ENDMDL
MODEL 2
REMARK VINA RESULT:      -9.8      3.683     11.201
REMARK SMILES Cc1cc(C)n(C)c(=O)c1C(=O)N1CCC2(CC1)C[NH2+][C@@H](C(=O)NCCCCCCNC(=O)c1ccc(-c3c4nc(c(-c5c(F)cc(S(=O)(=O)[O-])cc5F)c5ccc([nH]5)c(-c5c(F)cc(S(=O)(=O)[O-])cc5F)c5nc(c(-c6c(F)cc(S(=O)(=O)[O-])cc6F)c6ccc3[nH]6)C=C5)C=C4)cc1)C2
REMARK SMILES IDX 28 1 27 2 26 3 25 4 24 5 22 6 23 7 21 9 11 10 12 11 13 12
REMARK SMILES IDX 14 13 18 14 15 15 17 16 16 17 19 18 100 19 20 20 10 23 1 24
REMARK SMILES IDX 2 25 3 26 4 27 8 28 5 29 6 30 9 31 7 32 29 33 30 34 31 35
REMARK SMILES IDX 32 36 33 38 34 39 35 40 99 41 36 42 98 43 37 44 38 45 39 46
REMARK SMILES IDX 92 47 40 48 97 49 91 50 93 51 41 52 96 53 90 54 89 55 42 57
REMARK SMILES IDX 76 58 55 59 75 60 56 61 59 62 74 63 94 64 57 65 58 66 73 68
REMARK SMILES IDX 95 69 60 70 43 71 44 72 53 73 45 74 46 75 52 76 54 77 47 78
REMARK SMILES IDX 48 79 49 80 50 81 51 82 77 83 78 84 87 85 79 86 80 87 86 88
REMARK SMILES IDX 88 89 81 90 82 91 83 92 84 93 85 94 61 95 62 96 71 97 63 98
REMARK SMILES IDX 64 99 70 100 72 101 65 102 66 103 67 104 68 105 69 106
REMARK H PARENT 24 8 20 21 20 22 31 37 93 56 59 67
REMARK Flexibility Score: inf
ROOT
ATOM      1  C   UNL A   1      43.205  21.940  26.439  1.00  0.00     0.002 C 
ENDROOT
BRANCH   1   2
ATOM      2  C   UNL A   1      44.317  22.988  26.544  1.00  0.00     0.002 C 
BRANCH   2   3
ATOM      3  C   UNL A   1      43.821  24.417  26.766  1.00  0.00     0.021 C 
BRANCH   3   4
ATOM      4  C   UNL A   1      44.937  25.404  27.102  1.00  0.00     0.116 C 
BRANCH   4   5
ATOM      5  N   UNL A   1      45.391  26.107  25.915  1.00  0.00    -0.351 N 
ATOM      6  C   UNL A   1      45.341  27.438  25.621  1.00  0.00     0.278 C 
ATOM      7  O   UNL A   1      45.777  27.810  24.528  1.00  0.00    -0.268 OA
ATOM      8  H   UNL A   1      45.793  25.539  25.220  1.00  0.00     0.163 HD
BRANCH   6   9
ATOM      9  C   UNL A   1      44.744  28.449  26.607  1.00  0.00     0.273 C 
ATOM     10  C   UNL A   1      45.166  34.773  28.300  1.00  0.00     0.259 C 
ATOM     11  O   UNL A   1      45.741  34.988  29.373  1.00  0.00    -0.269 OA
ATOM     12  N   UNL A   1      45.315  33.536  27.687  1.00  0.00    -0.338 N 
ATOM     13  C   UNL A   1      45.698  32.418  28.533  1.00  0.00     0.120 C 
ATOM     14  C   UNL A   1      45.307  33.233  26.262  1.00  0.00     0.120 C 
ATOM     15  C   UNL A   1      44.609  31.366  28.432  1.00  0.00     0.034 C 
ATOM     16  C   UNL A   1      44.483  31.976  25.916  1.00  0.00     0.034 C 
ATOM     17  C   UNL A   1      44.438  30.841  26.991  1.00  0.00     0.029 C 
ATOM     18  C   UNL A   1      43.097  30.064  26.926  1.00  0.00     0.268 C 
ATOM     19  C   UNL A   1      45.511  29.763  26.698  1.00  0.00     0.088 C 
ATOM     20  N   UNL A   1      43.377  28.829  26.217  1.00  0.00    -0.336 N 
ATOM     21  H   UNL A   1      43.324  28.978  25.208  1.00  0.00     0.346 HD
ATOM     22  H   UNL A   1      42.703  28.099  26.446  1.00  0.00     0.346 HD
BRANCH  10  23
ATOM     23  C   UNL A   1      44.192  35.812  27.798  1.00  0.00     0.108 A 
ATOM     24  C   UNL A   1      42.083  34.904  28.954  1.00  0.00     0.045 C 
ATOM     25  C   UNL A   1      42.882  35.866  28.130  1.00  0.00    -0.031 A 
ATOM     26  C   UNL A   1      42.083  37.032  27.809  1.00  0.00     0.026 A 
ATOM     27  C   UNL A   1      42.639  38.186  27.420  1.00  0.00     0.018 A 
ATOM     28  C   UNL A   1      44.788  37.053  27.154  1.00  0.00     0.263 A 
ATOM     29  C   UNL A   1      41.758  39.398  27.286  1.00  0.00     0.064 C 
ATOM     30  N   UNL A   1      43.999  38.219  27.145  1.00  0.00    -0.315 N 
ATOM     31  O   UNL A   1      45.925  37.033  26.681  1.00  0.00    -0.268 OA
ATOM     32  C   UNL A   1      44.644  39.471  26.771  1.00  0.00     0.153 C 
ENDBRANCH  10  23
ENDBRANCH   6   9
ENDBRANCH   4   5
ENDBRANCH   3   4
ENDBRANCH   2   3
ENDBRANCH   1   2
BRANCH   1  33
ATOM     33  C   UNL A   1      41.888  22.461  25.859  1.00  0.00     0.021 C 
BRANCH  33  34
ATOM     34  C   UNL A   1      40.648  21.997  26.614  1.00  0.00     0.116 C 
BRANCH  34  35
ATOM     35  N   UNL A   1      39.425  22.401  25.938  1.00  0.00    -0.352 N 
ATOM     36  C   UNL A   1      38.669  23.534  26.116  1.00  0.00     0.251 C 
ATOM     37  H   UNL A   1      39.093  21.774  25.256  1.00  0.00     0.163 HD
ATOM     38  O   UNL A   1      37.550  23.612  25.630  1.00  0.00    -0.269 OA
BRANCH  36  39
ATOM     39  C   UNL A   1      39.220  24.648  26.915  1.00  0.00     0.039 A 
ATOM     40  C   UNL A   1      40.019  25.604  26.285  1.00  0.00     0.014 A 
ATOM     41  C   UNL A   1      38.939  24.750  28.281  1.00  0.00     0.014 A 
ATOM     42  C   UNL A   1      40.494  26.693  27.017  1.00  0.00     0.010 A 
ATOM     43  C   UNL A   1      39.349  25.874  28.990  1.00  0.00     0.010 A 
ATOM     44  C   UNL A   1      40.138  26.852  28.367  1.00  0.00    -0.014 A 
BRANCH  44  45
ATOM     45  C   UNL A   1      40.604  28.025  29.147  1.00  0.00     0.031 A 
ATOM     46  C   UNL A   1      41.994  28.039  29.723  1.00  0.00     0.074 A 
ATOM     47  C   UNL A   1      39.767  29.058  29.365  1.00  0.00     0.049 A 
ATOM     48  N   UNL A   1      42.570  28.951  30.462  1.00  0.00    -0.248 NA
ATOM     49  C   UNL A   1      42.839  26.864  29.452  1.00  0.00     0.031 C 
ATOM     50  C   UNL A   1      38.387  29.143  28.882  1.00  0.00     0.029 A 
ATOM     51  N   UNL A   1      39.952  30.235  30.044  1.00  0.00    -0.354 N 
ATOM     52  C   UNL A   1      43.842  28.464  30.738  1.00  0.00     0.074 A 
ATOM     53  C   UNL A   1      43.930  27.146  30.149  1.00  0.00     0.031 C 
ATOM     54  C   UNL A   1      37.864  30.323  29.249  1.00  0.00     0.029 A 
ATOM     55  C   UNL A   1      38.853  31.062  30.028  1.00  0.00     0.049 A 
ATOM     56  H   UNL A   1      40.792  30.467  30.501  1.00  0.00     0.167 HD
ATOM     57  C   UNL A   1      44.856  29.073  31.396  1.00  0.00     0.037 A 
ATOM     58  C   UNL A   1      38.665  32.278  30.579  1.00  0.00     0.037 A 
ATOM     59  C   UNL A   1      44.766  30.392  31.966  1.00  0.00     0.049 A 
ATOM     60  C   UNL A   1      39.794  32.918  31.341  1.00  0.00     0.074 A 
ATOM     61  C   UNL A   1      45.748  31.112  32.624  1.00  0.00     0.029 A 
ATOM     62  N   UNL A   1      43.631  31.189  31.946  1.00  0.00    -0.354 N 
ATOM     63  N   UNL A   1      41.006  32.462  31.556  1.00  0.00    -0.248 NA
ATOM     64  C   UNL A   1      39.534  34.236  31.936  1.00  0.00     0.031 C 
ATOM     65  C   UNL A   1      45.191  32.322  33.047  1.00  0.00     0.029 A 
ATOM     66  C   UNL A   1      43.880  32.383  32.603  1.00  0.00     0.049 A 
ATOM     67  H   UNL A   1      42.774  30.942  31.527  1.00  0.00     0.167 HD
ATOM     68  C   UNL A   1      41.658  33.445  32.290  1.00  0.00     0.074 A 
ATOM     69  C   UNL A   1      40.712  34.528  32.470  1.00  0.00     0.031 C 
ATOM     70  C   UNL A   1      42.926  33.451  32.772  1.00  0.00     0.037 A 
BRANCH  57  71
ATOM     71  C   UNL A   1      46.157  28.329  31.522  1.00  0.00     0.058 A 
ATOM     72  C   UNL A   1      46.395  27.447  32.588  1.00  0.00     0.135 A 
ATOM     73  C   UNL A   1      47.155  28.457  30.543  1.00  0.00     0.135 A 
ATOM     74  F   UNL A   1      45.483  27.299  33.562  1.00  0.00    -0.206 F 
ATOM     75  C   UNL A   1      47.585  26.733  32.690  1.00  0.00     0.059 A 
ATOM     76  C   UNL A   1      48.341  27.729  30.608  1.00  0.00     0.059 A 
ATOM     77  F   UNL A   1      46.981  29.289  29.504  1.00  0.00    -0.206 F 
ATOM     78  C   UNL A   1      48.549  26.877  31.692  1.00  0.00     0.060 A 
BRANCH  78  79
ATOM     79  S   UNL A   1      50.077  25.926  31.833  1.00  0.00     0.124 S 
ATOM     80  O   UNL A   1      50.088  25.202  30.564  1.00  0.00    -0.237 OA
ATOM     81  O   UNL A   1      51.082  26.975  31.973  1.00  0.00    -0.237 OA
ATOM     82  O   UNL A   1      49.860  25.104  33.019  1.00  0.00    -0.744 OA
ENDBRANCH  78  79
ENDBRANCH  57  71
BRANCH  58  83
ATOM     83  C   UNL A   1      37.365  32.979  30.400  1.00  0.00     0.058 A 
ATOM     84  C   UNL A   1      37.102  33.724  29.241  1.00  0.00     0.135 A 
ATOM     85  C   UNL A   1      36.351  32.898  31.368  1.00  0.00     0.135 A 
ATOM     86  F   UNL A   1      38.042  33.839  28.290  1.00  0.00    -0.206 F 
ATOM     87  C   UNL A   1      35.885  34.369  29.048  1.00  0.00     0.059 A 
ATOM     88  C   UNL A   1      35.115  33.513  31.186  1.00  0.00     0.059 A 
ATOM     89  F   UNL A   1      36.545  32.188  32.490  1.00  0.00    -0.206 F 
ATOM     90  C   UNL A   1      34.894  34.252  30.024  1.00  0.00     0.060 A 
BRANCH  90  91
ATOM     91  S   UNL A   1      33.298  35.045  29.734  1.00  0.00     0.124 S 
ATOM     92  O   UNL A   1      32.701  34.154  28.746  1.00  0.00    -0.237 OA
ATOM     93  O   UNL A   1      32.699  35.017  31.065  1.00  0.00    -0.237 OA
ATOM     94  O   UNL A   1      33.665  36.371  29.247  1.00  0.00    -0.744 OA
ENDBRANCH  90  91
ENDBRANCH  58  83
BRANCH  70  95
ATOM     95  C   UNL A   1      43.379  34.668  33.532  1.00  0.00     0.058 A 
ATOM     96  C   UNL A   1      43.750  35.850  32.872  1.00  0.00     0.135 A 
ATOM     97  C   UNL A   1      43.363  34.678  34.937  1.00  0.00     0.135 A 
ATOM     98  F   UNL A   1      43.788  35.892  31.531  1.00  0.00    -0.206 F 
ATOM     99  C   UNL A   1      44.102  36.994  33.579  1.00  0.00     0.059 A 
ATOM    100  C   UNL A   1      43.683  35.821  35.663  1.00  0.00     0.059 A 
ATOM    101  F   UNL A   1      43.005  33.577  35.618  1.00  0.00    -0.206 F 
ATOM    102  C   UNL A   1      44.058  36.973  34.975  1.00  0.00     0.060 A 
BRANCH 102 103
ATOM    103  S   UNL A   1      44.473  38.483  35.871  1.00  0.00     0.124 S 
ATOM    104  O   UNL A   1      45.932  38.454  35.839  1.00  0.00    -0.237 OA
ATOM    105  O   UNL A   1      43.841  39.513  35.052  1.00  0.00    -0.237 OA
ATOM    106  O   UNL A   1      43.871  38.277  37.185  1.00  0.00    -0.744 OA
ENDBRANCH 102 103
ENDBRANCH  70  95
ENDBRANCH  44  45
ENDBRANCH  36  39
ENDBRANCH  34  35
ENDBRANCH  33  34
ENDBRANCH   1  33
TORSDOF 17
ENDMDL
MODEL 3
REMARK VINA RESULT:      -9.5      4.774      8.749
REMARK SMILES Cc1cc(C)n(C)c(=O)c1C(=O)N1CCC2(CC1)C[NH2+][C@@H](C(=O)NCCCCCCNC(=O)c1ccc(-c3c4nc(c(-c5c(F)cc(S(=O)(=O)[O-])cc5F)c5ccc([nH]5)c(-c5c(F)cc(S(=O)(=O)[O-])cc5F)c5nc(c(-c6c(F)cc(S(=O)(=O)[O-])cc6F)c6ccc3[nH]6)C=C5)C=C4)cc1)C2
REMARK SMILES IDX 28 1 27 2 26 3 25 4 24 5 22 6 23 7 21 9 11 10 12 11 13 12
REMARK SMILES IDX 14 13 18 14 15 15 17 16 16 17 19 18 100 19 20 20 10 23 1 24
REMARK SMILES IDX 2 25 3 26 4 27 8 28 5 29 6 30 9 31 7 32 29 33 30 34 31 35
REMARK SMILES IDX 32 36 33 38 34 39 35 40 99 41 36 42 98 43 37 44 38 45 39 46
REMARK SMILES IDX 92 47 40 48 97 49 91 50 93 51 41 52 96 53 90 54 89 55 42 57
REMARK SMILES IDX 76 58 55 59 75 60 56 61 59 62 74 63 94 64 57 65 58 66 73 68
REMARK SMILES IDX 95 69 60 70 43 71 44 72 53 73 45 74 46 75 52 76 54 77 47 78
REMARK SMILES IDX 48 79 49 80 50 81 51 82 77 83 78 84 87 85 79 86 80 87 86 88
REMARK SMILES IDX 88 89 81 90 82 91 83 92 84 93 85 94 61 95 62 96 71 97 63 98
REMARK SMILES IDX 64 99 70 100 72 101 65 102 66 103 67 104 68 105 69 106
REMARK H PARENT 24 8 20 21 20 22 31 37 93 56 59 67
REMARK Flexibility Score: inf
ROOT
ATOM      1  C   UNL A   1      32.929  30.034  27.256  1.00  0.00     0.002 C 
ENDROOT
BRANCH   1   2
ATOM      2  C   UNL A   1      32.700  31.523  26.976  1.00  0.00     0.002 C 
BRANCH   2   3
ATOM      3  C   UNL A   1      31.290  31.867  26.491  1.00  0.00     0.021 C 
BRANCH   3   4
ATOM      4  C   UNL A   1      30.830  31.019  25.308  1.00  0.00     0.116 C 
BRANCH   4   5
ATOM      5  N   UNL A   1      29.847  31.725  24.507  1.00  0.00    -0.351 N 
ATOM      6  C   UNL A   1      29.149  31.301  23.414  1.00  0.00     0.278 C 
ATOM      7  O   UNL A   1      28.369  32.093  22.877  1.00  0.00    -0.268 OA
ATOM      8  H   UNL A   1      29.656  32.647  24.794  1.00  0.00     0.163 HD
BRANCH   6   9
ATOM      9  C   UNL A   1      29.336  29.888  22.849  1.00  0.00     0.273 C 
ATOM     10  C   UNL A   1      33.493  24.818  23.088  1.00  0.00     0.259 C 
ATOM     11  O   UNL A   1      34.176  24.656  22.071  1.00  0.00    -0.269 OA
ATOM     12  N   UNL A   1      32.843  26.029  23.282  1.00  0.00    -0.338 N 
ATOM     13  C   UNL A   1      32.577  26.837  22.103  1.00  0.00     0.120 C 
ATOM     14  C   UNL A   1      32.538  26.693  24.544  1.00  0.00     0.120 C 
ATOM     15  C   UNL A   1      31.076  27.038  22.008  1.00  0.00     0.034 C 
ATOM     16  C   UNL A   1      31.112  27.279  24.589  1.00  0.00     0.034 C 
ATOM     17  C   UNL A   1      30.509  27.781  23.235  1.00  0.00     0.029 C 
ATOM     18  C   UNL A   1      28.966  27.618  23.218  1.00  0.00     0.268 C 
ATOM     19  C   UNL A   1      30.728  29.306  23.069  1.00  0.00     0.088 C 
ATOM     20  N   UNL A   1      28.416  28.934  23.488  1.00  0.00    -0.336 N 
ATOM     21  H   UNL A   1      28.373  29.101  24.495  1.00  0.00     0.346 HD
ATOM     22  H   UNL A   1      27.467  29.028  23.129  1.00  0.00     0.346 HD
BRANCH  10  23
ATOM     23  C   UNL A   1      33.263  23.626  23.985  1.00  0.00     0.108 A 
ATOM     24  C   UNL A   1      30.741  23.354  23.571  1.00  0.00     0.045 C 
ATOM     25  C   UNL A   1      32.078  22.992  24.140  1.00  0.00    -0.031 A 
ATOM     26  C   UNL A   1      32.004  21.713  24.817  1.00  0.00     0.026 A 
ATOM     27  C   UNL A   1      33.096  20.987  25.081  1.00  0.00     0.018 A 
ATOM     28  C   UNL A   1      34.501  22.894  24.481  1.00  0.00     0.263 A 
ATOM     29  C   UNL A   1      32.920  19.592  25.617  1.00  0.00     0.064 C 
ATOM     30  N   UNL A   1      34.347  21.548  24.864  1.00  0.00    -0.315 N 
ATOM     31  O   UNL A   1      35.593  23.461  24.522  1.00  0.00    -0.268 OA
ATOM     32  C   UNL A   1      35.555  20.766  25.091  1.00  0.00     0.153 C 
ENDBRANCH  10  23
ENDBRANCH   6   9
ENDBRANCH   4   5
ENDBRANCH   3   4
ENDBRANCH   2   3
ENDBRANCH   1   2
BRANCH   1  33
ATOM     33  C   UNL A   1      34.181  29.446  26.601  1.00  0.00     0.021 C 
BRANCH  33  34
ATOM     34  C   UNL A   1      35.296  29.106  27.582  1.00  0.00     0.116 C 
BRANCH  34  35
ATOM     35  N   UNL A   1      35.204  29.900  28.797  1.00  0.00    -0.352 N 
ATOM     36  C   UNL A   1      36.182  30.193  29.716  1.00  0.00     0.251 C 
ATOM     37  H   UNL A   1      34.317  30.282  28.985  1.00  0.00     0.163 HD
ATOM     38  O   UNL A   1      35.886  30.684  30.796  1.00  0.00    -0.269 OA
BRANCH  36  39
ATOM     39  C   UNL A   1      37.592  29.895  29.388  1.00  0.00     0.039 A 
ATOM     40  C   UNL A   1      38.466  29.540  30.417  1.00  0.00     0.014 A 
ATOM     41  C   UNL A   1      38.043  29.958  28.066  1.00  0.00     0.014 A 
ATOM     42  C   UNL A   1      39.784  29.197  30.111  1.00  0.00     0.010 A 
ATOM     43  C   UNL A   1      39.333  29.544  27.755  1.00  0.00     0.010 A 
ATOM     44  C   UNL A   1      40.219  29.168  28.775  1.00  0.00    -0.014 A 
BRANCH  44  45
ATOM     45  C   UNL A   1      41.606  28.768  28.431  1.00  0.00     0.031 A 
ATOM     46  C   UNL A   1      42.706  29.795  28.440  1.00  0.00     0.074 A 
ATOM     47  C   UNL A   1      41.867  27.494  28.080  1.00  0.00     0.049 A 
ATOM     48  N   UNL A   1      43.969  29.651  28.135  1.00  0.00    -0.248 NA
ATOM     49  C   UNL A   1      42.333  31.168  28.820  1.00  0.00     0.031 C 
ATOM     50  C   UNL A   1      40.876  26.419  28.006  1.00  0.00     0.029 A 
ATOM     51  N   UNL A   1      43.042  26.885  27.721  1.00  0.00    -0.354 N 
ATOM     52  C   UNL A   1      44.540  30.908  28.291  1.00  0.00     0.074 A 
ATOM     53  C   UNL A   1      43.475  31.817  28.649  1.00  0.00     0.031 C 
ATOM     54  C   UNL A   1      41.490  25.276  27.662  1.00  0.00     0.029 A 
ATOM     55  C   UNL A   1      42.910  25.543  27.449  1.00  0.00     0.049 A 
ATOM     56  H   UNL A   1      43.901  27.363  27.663  1.00  0.00     0.167 HD
ATOM     57  C   UNL A   1      45.841  31.265  28.177  1.00  0.00     0.037 A 
ATOM     58  C   UNL A   1      43.828  24.632  27.071  1.00  0.00     0.037 A 
ATOM     59  C   UNL A   1      46.899  30.351  27.836  1.00  0.00     0.049 A 
ATOM     60  C   UNL A   1      45.262  25.063  26.912  1.00  0.00     0.074 A 
ATOM     61  C   UNL A   1      48.255  30.606  27.728  1.00  0.00     0.029 A 
ATOM     62  N   UNL A   1      46.722  29.005  27.548  1.00  0.00    -0.354 N 
ATOM     63  N   UNL A   1      45.793  26.247  27.106  1.00  0.00    -0.248 NA
ATOM     64  C   UNL A   1      46.223  24.036  26.483  1.00  0.00     0.031 C 
ATOM     65  C   UNL A   1      48.890  29.428  27.325  1.00  0.00     0.029 A 
ATOM     66  C   UNL A   1      47.940  28.423  27.238  1.00  0.00     0.049 A 
ATOM     67  H   UNL A   1      45.857  28.532  27.563  1.00  0.00     0.167 HD
ATOM     68  C   UNL A   1      47.151  26.103  26.845  1.00  0.00     0.074 A 
ATOM     69  C   UNL A   1      47.363  24.713  26.494  1.00  0.00     0.031 C 
ATOM     70  C   UNL A   1      48.133  27.036  26.891  1.00  0.00     0.037 A 
BRANCH  57  71
ATOM     71  C   UNL A   1      46.199  32.702  28.440  1.00  0.00     0.058 A 
ATOM     72  C   UNL A   1      46.572  33.142  29.720  1.00  0.00     0.135 A 
ATOM     73  C   UNL A   1      46.219  33.639  27.395  1.00  0.00     0.135 A 
ATOM     74  F   UNL A   1      46.553  32.292  30.760  1.00  0.00    -0.206 F 
ATOM     75  C   UNL A   1      46.934  34.463  29.959  1.00  0.00     0.059 A 
ATOM     76  C   UNL A   1      46.608  34.960  27.605  1.00  0.00     0.059 A 
ATOM     77  F   UNL A   1      45.868  33.275  26.152  1.00  0.00    -0.206 F 
ATOM     78  C   UNL A   1      46.954  35.364  28.894  1.00  0.00     0.060 A 
BRANCH  78  79
ATOM     79  S   UNL A   1      47.447  37.069  29.222  1.00  0.00     0.124 S 
ATOM     80  O   UNL A   1      48.141  37.416  27.985  1.00  0.00    -0.237 OA
ATOM     81  O   UNL A   1      46.161  37.726  29.433  1.00  0.00    -0.237 OA
ATOM     82  O   UNL A   1      48.294  36.958  30.405  1.00  0.00    -0.744 OA
ENDBRANCH  78  79
ENDBRANCH  57  71
BRANCH  58  83
ATOM     83  C   UNL A   1      43.423  23.218  26.851  1.00  0.00     0.058 A 
ATOM     84  C   UNL A   1      43.383  22.674  25.559  1.00  0.00     0.135 A 
ATOM     85  C   UNL A   1      43.095  22.375  27.925  1.00  0.00     0.135 A 
ATOM     86  F   UNL A   1      43.679  23.441  24.498  1.00  0.00    -0.206 F 
ATOM     87  C   UNL A   1      43.025  21.348  25.336  1.00  0.00     0.059 A 
ATOM     88  C   UNL A   1      42.760  21.038  27.730  1.00  0.00     0.059 A 
ATOM     89  F   UNL A   1      43.130  22.841  29.183  1.00  0.00    -0.206 F 
ATOM     90  C   UNL A   1      42.722  20.535  26.430  1.00  0.00     0.060 A 
BRANCH  90  91
ATOM     91  S   UNL A   1      42.318  18.800  26.131  1.00  0.00     0.124 S 
ATOM     92  O   UNL A   1      43.239  18.465  25.051  1.00  0.00    -0.237 OA
ATOM     93  O   UNL A   1      42.605  18.195  27.427  1.00  0.00    -0.237 OA
ATOM     94  O   UNL A   1      40.906  18.843  25.764  1.00  0.00    -0.744 OA
ENDBRANCH  90  91
ENDBRANCH  58  83
BRANCH  70  95
ATOM     95  C   UNL A   1      49.534  26.594  26.569  1.00  0.00     0.058 A 
ATOM     96  C   UNL A   1      50.365  26.017  27.541  1.00  0.00     0.135 A 
ATOM     97  C   UNL A   1      50.021  26.672  25.252  1.00  0.00     0.135 A 
ATOM     98  F   UNL A   1      49.950  25.923  28.815  1.00  0.00    -0.206 F 
ATOM     99  C   UNL A   1      51.634  25.546  27.225  1.00  0.00     0.059 A 
ATOM    100  C   UNL A   1      51.276  26.180  24.908  1.00  0.00     0.059 A 
ATOM    101  F   UNL A   1      49.263  27.205  24.281  1.00  0.00    -0.206 F 
ATOM    102  C   UNL A   1      52.079  25.624  25.903  1.00  0.00     0.060 A 
BRANCH 102 103
ATOM    103  S   UNL A   1      53.710  24.964  25.503  1.00  0.00     0.124 S 
ATOM    104  O   UNL A   1      54.441  25.216  26.742  1.00  0.00    -0.237 OA
ATOM    105  O   UNL A   1      53.415  23.564  25.214  1.00  0.00    -0.237 OA
ATOM    106  O   UNL A   1      54.129  25.761  24.354  1.00  0.00    -0.744 OA
ENDBRANCH 102 103
ENDBRANCH  70  95
ENDBRANCH  44  45
ENDBRANCH  36  39
ENDBRANCH  34  35
ENDBRANCH  33  34
ENDBRANCH   1  33
TORSDOF 17
ENDMDL
