MODEL 1
REMARK VINA RESULT:     -10.9      0.000      0.000
REMARK SMILES COC(=O)C[C@H](c1ccc(C(=O)NCCCCCCNC(=O)c2ccc(-c3c4nc(c(-c5c(F)cc(S(=O)(=O)[O-])cc5F)c5ccc([nH]5)c(-c5c(F)cc(S(=O)(=O)[O-])cc5F)c5nc(c(-c6c(F)cc(S(=O)(=O)[O-])cc6F)c6ccc3[nH]6)C=C5)C=C4)cc2)cc1)c1c(O)n[nH]c1C
REMARK SMILES IDX 16 1 15 2 14 3 13 4 11 5 12 6 10 8 7 9 8 10 90 11 9 12 89 13
REMARK SMILES IDX 6 14 5 15 3 16 4 17 2 18 1 19 91 20 92 21 96 22 94 23 95 24
REMARK SMILES IDX 97 25 93 27 17 29 18 30 19 31 20 32 21 33 22 35 23 36 24 37
REMARK SMILES IDX 88 38 25 39 87 40 26 41 27 42 28 43 81 44 29 45 86 46 80 47
REMARK SMILES IDX 82 48 30 49 85 50 79 51 78 52 31 54 65 55 44 56 64 57 45 58
REMARK SMILES IDX 48 59 63 60 83 61 46 62 47 63 62 65 84 66 49 67 32 68 33 69
REMARK SMILES IDX 42 70 34 71 35 72 41 73 43 74 36 75 37 76 38 77 39 78 40 79
REMARK SMILES IDX 66 80 67 81 76 82 68 83 69 84 75 85 77 86 70 87 71 88 72 89
REMARK SMILES IDX 73 90 74 91 50 92 51 93 60 94 52 95 53 96 59 97 61 98 54 99
REMARK SMILES IDX 55 100 56 101 57 102 58 103
REMARK H PARENT 13 7 95 26 93 28 20 34 82 53 48 64
REMARK Flexibility Score: inf
ROOT
ATOM      1  C   UNL A   1      36.508  33.222  28.483  1.00  0.00     0.002 C 
ENDROOT
BRANCH   1   2
ATOM      2  C   UNL A   1      34.983  33.255  28.647  1.00  0.00     0.021 C 
BRANCH   2   3
ATOM      3  C   UNL A   1      34.301  32.039  28.015  1.00  0.00     0.116 C 
BRANCH   3   4
ATOM      4  N   UNL A   1      35.265  30.967  27.882  1.00  0.00    -0.352 N 
ATOM      5  C   UNL A   1      35.154  29.660  27.489  1.00  0.00     0.251 C 
ATOM      6  O   UNL A   1      36.155  28.954  27.625  1.00  0.00    -0.269 OA
ATOM      7  H   UNL A   1      36.184  31.231  28.120  1.00  0.00     0.163 HD
BRANCH   5   8
ATOM      8  C   UNL A   1      33.944  29.086  26.828  1.00  0.00     0.039 A 
ATOM      9  C   UNL A   1      31.763  27.576  25.843  1.00  0.00    -0.040 A 
ATOM     10  C   UNL A   1      31.839  27.921  27.199  1.00  0.00     0.005 A 
ATOM     11  C   UNL A   1      32.705  28.133  24.969  1.00  0.00     0.005 A 
ATOM     12  C   UNL A   1      32.932  28.636  27.687  1.00  0.00     0.014 A 
ATOM     13  C   UNL A   1      33.757  28.918  25.456  1.00  0.00     0.014 A 
BRANCH   9  14
ATOM     14  C   UNL A   1      30.718  26.604  25.307  1.00  0.00     0.068 C 
BRANCH  14  15
ATOM     15  C   UNL A   1      30.520  26.691  23.787  1.00  0.00     0.136 C 
BRANCH  15  16
ATOM     16  C   UNL A   1      29.239  27.326  23.293  1.00  0.00     0.306 C 
ATOM     17  O   UNL A   1      28.127  27.090  23.742  1.00  0.00    -0.252 OA
BRANCH  16  18
ATOM     18  O   UNL A   1      29.484  28.208  22.284  1.00  0.00    -0.469 OA
ATOM     19  C   UNL A   1      30.297  29.325  22.657  1.00  0.00     0.282 C 
ENDBRANCH  16  18
ENDBRANCH  15  16
ENDBRANCH  14  15
BRANCH  14  20
ATOM     20  C   UNL A   1      31.004  25.282  25.969  1.00  0.00     0.044 A 
ATOM     21  C   UNL A   1      30.043  24.515  26.667  1.00  0.00     0.234 A 
ATOM     22  C   UNL A   1      32.130  24.468  26.046  1.00  0.00     0.040 A 
ATOM     23  N   UNL A   1      30.485  23.388  27.196  1.00  0.00    -0.137 NA
ATOM     24  N   UNL A   1      31.770  23.389  26.820  1.00  0.00    -0.279 N 
ATOM     25  C   UNL A   1      33.507  24.545  25.507  1.00  0.00     0.066 C 
ATOM     26  H   UNL A   1      32.404  22.680  27.075  1.00  0.00     0.190 HD
BRANCH  21  27
ATOM     27  O   UNL A   1      28.752  24.759  26.876  1.00  0.00    -0.492 OA
ATOM     28  H   UNL A   1      28.447  25.642  26.945  1.00  0.00     0.295 HD
ENDBRANCH  21  27
ENDBRANCH  14  20
ENDBRANCH   9  14
ENDBRANCH   5   8
ENDBRANCH   3   4
ENDBRANCH   2   3
ENDBRANCH   1   2
BRANCH   1  29
ATOM     29  C   UNL A   1      37.266  34.145  29.445  1.00  0.00     0.002 C 
BRANCH  29  30
ATOM     30  C   UNL A   1      36.842  34.025  30.911  1.00  0.00     0.021 C 
BRANCH  30  31
ATOM     31  C   UNL A   1      37.544  32.903  31.669  1.00  0.00     0.116 C 
BRANCH  31  32
ATOM     32  N   UNL A   1      36.688  31.734  31.788  1.00  0.00    -0.352 N 
ATOM     33  C   UNL A   1      36.849  30.487  31.242  1.00  0.00     0.251 C 
ATOM     34  H   UNL A   1      35.879  31.856  32.337  1.00  0.00     0.163 HD
ATOM     35  O   UNL A   1      35.904  29.704  31.213  1.00  0.00    -0.269 OA
BRANCH  33  36
ATOM     36  C   UNL A   1      38.162  30.092  30.690  1.00  0.00     0.039 A 
ATOM     37  C   UNL A   1      38.411  30.285  29.331  1.00  0.00     0.014 A 
ATOM     38  C   UNL A   1      39.131  29.502  31.508  1.00  0.00     0.014 A 
ATOM     39  C   UNL A   1      39.646  29.916  28.796  1.00  0.00     0.010 A 
ATOM     40  C   UNL A   1      40.386  29.199  30.988  1.00  0.00     0.010 A 
ATOM     41  C   UNL A   1      40.650  29.387  29.624  1.00  0.00    -0.014 A 
BRANCH  41  42
ATOM     42  C   UNL A   1      41.972  29.003  29.070  1.00  0.00     0.031 A 
ATOM     43  C   UNL A   1      43.071  30.026  28.964  1.00  0.00     0.074 A 
ATOM     44  C   UNL A   1      42.168  27.747  28.626  1.00  0.00     0.049 A 
ATOM     45  N   UNL A   1      44.281  29.892  28.483  1.00  0.00    -0.248 NA
ATOM     46  C   UNL A   1      42.761  31.387  29.433  1.00  0.00     0.031 C 
ATOM     47  C   UNL A   1      41.161  26.683  28.628  1.00  0.00     0.029 A 
ATOM     48  N   UNL A   1      43.278  27.152  28.083  1.00  0.00    -0.354 N 
ATOM     49  C   UNL A   1      44.870  31.147  28.582  1.00  0.00     0.074 A 
ATOM     50  C   UNL A   1      43.868  32.044  29.115  1.00  0.00     0.031 C 
ATOM     51  C   UNL A   1      41.707  25.560  28.134  1.00  0.00     0.029 A 
ATOM     52  C   UNL A   1      43.090  25.829  27.754  1.00  0.00     0.049 A 
ATOM     53  H   UNL A   1      44.129  27.626  27.942  1.00  0.00     0.167 HD
ATOM     54  C   UNL A   1      46.139  31.514  28.279  1.00  0.00     0.037 A 
ATOM     55  C   UNL A   1      43.938  24.937  27.209  1.00  0.00     0.037 A 
ATOM     56  C   UNL A   1      47.139  30.609  27.776  1.00  0.00     0.049 A 
ATOM     57  C   UNL A   1      45.347  25.364  26.899  1.00  0.00     0.074 A 
ATOM     58  C   UNL A   1      48.469  30.865  27.494  1.00  0.00     0.029 A 
ATOM     59  N   UNL A   1      46.918  29.272  27.477  1.00  0.00    -0.354 N 
ATOM     60  N   UNL A   1      45.908  26.538  27.060  1.00  0.00    -0.248 NA
ATOM     61  C   UNL A   1      46.243  24.340  26.344  1.00  0.00     0.031 C 
ATOM     62  C   UNL A   1      49.043  29.693  26.990  1.00  0.00     0.029 A 
ATOM     63  C   UNL A   1      48.083  28.694  27.000  1.00  0.00     0.049 A 
ATOM     64  H   UNL A   1      46.059  28.802  27.589  1.00  0.00     0.167 HD
ATOM     65  C   UNL A   1      47.227  26.390  26.647  1.00  0.00     0.074 A 
ATOM     66  C   UNL A   1      47.384  25.007  26.246  1.00  0.00     0.031 C 
ATOM     67  C   UNL A   1      48.219  27.314  26.603  1.00  0.00     0.037 A 
BRANCH  54  68
ATOM     68  C   UNL A   1      46.516  32.954  28.494  1.00  0.00     0.058 A 
ATOM     69  C   UNL A   1      46.378  33.911  27.475  1.00  0.00     0.135 A 
ATOM     70  C   UNL A   1      46.998  33.390  29.739  1.00  0.00     0.135 A 
ATOM     71  F   UNL A   1      45.938  33.548  26.261  1.00  0.00    -0.206 F 
ATOM     72  C   UNL A   1      46.734  35.242  27.673  1.00  0.00     0.059 A 
ATOM     73  C   UNL A   1      47.332  34.722  29.968  1.00  0.00     0.059 A 
ATOM     74  F   UNL A   1      47.151  32.518  30.748  1.00  0.00    -0.206 F 
ATOM     75  C   UNL A   1      47.212  35.637  28.923  1.00  0.00     0.060 A 
BRANCH  75  76
ATOM     76  S   UNL A   1      47.667  37.367  29.165  1.00  0.00     0.124 S 
ATOM     77  O   UNL A   1      46.472  38.052  28.681  1.00  0.00    -0.237 OA
ATOM     78  O   UNL A   1      47.896  37.432  30.605  1.00  0.00    -0.237 OA
ATOM     79  O   UNL A   1      48.858  37.525  28.336  1.00  0.00    -0.744 OA
ENDBRANCH  75  76
ENDBRANCH  54  68
BRANCH  55  80
ATOM     80  C   UNL A   1      43.485  23.545  26.952  1.00  0.00     0.058 A 
ATOM     81  C   UNL A   1      43.187  23.111  25.653  1.00  0.00     0.135 A 
ATOM     82  C   UNL A   1      43.356  22.617  27.997  1.00  0.00     0.135 A 
ATOM     83  F   UNL A   1      43.292  23.963  24.620  1.00  0.00    -0.206 F 
ATOM     84  C   UNL A   1      42.759  21.813  25.397  1.00  0.00     0.059 A 
ATOM     85  C   UNL A   1      42.954  21.305  27.764  1.00  0.00     0.059 A 
ATOM     86  F   UNL A   1      43.646  22.978  29.257  1.00  0.00    -0.206 F 
ATOM     87  C   UNL A   1      42.648  20.915  26.460  1.00  0.00     0.060 A 
BRANCH  87  88
ATOM     88  S   UNL A   1      42.139  19.217  26.113  1.00  0.00     0.124 S 
ATOM     89  O   UNL A   1      40.730  19.394  25.786  1.00  0.00    -0.237 OA
ATOM     90  O   UNL A   1      43.015  18.856  25.003  1.00  0.00    -0.237 OA
ATOM     91  O   UNL A   1      42.415  18.524  27.369  1.00  0.00    -0.744 OA
ENDBRANCH  87  88
ENDBRANCH  55  80
BRANCH  67  92
ATOM     92  C   UNL A   1      49.567  26.850  26.126  1.00  0.00     0.058 A 
ATOM     93  C   UNL A   1      50.504  26.285  27.004  1.00  0.00     0.135 A 
ATOM     94  C   UNL A   1      49.913  26.945  24.768  1.00  0.00     0.135 A 
ATOM     95  F   UNL A   1      50.225  26.176  28.312  1.00  0.00    -0.206 F 
ATOM     96  C   UNL A   1      51.753  25.862  26.559  1.00  0.00     0.059 A 
ATOM     97  C   UNL A   1      51.143  26.502  24.296  1.00  0.00     0.059 A 
ATOM     98  F   UNL A   1      49.047  27.466  23.883  1.00  0.00    -0.206 F 
ATOM     99  C   UNL A   1      52.063  25.977  25.203  1.00  0.00     0.060 A 
BRANCH  99 100
ATOM    100  S   UNL A   1      53.682  25.412  24.634  1.00  0.00     0.124 S 
ATOM    101  O   UNL A   1      53.530  23.963  24.711  1.00  0.00    -0.237 OA
ATOM    102  O   UNL A   1      53.754  25.972  23.288  1.00  0.00    -0.237 OA
ATOM    103  O   UNL A   1      54.604  26.000  25.601  1.00  0.00    -0.744 OA
ENDBRANCH  99 100
ENDBRANCH  67  92
ENDBRANCH  41  42
ENDBRANCH  33  36
ENDBRANCH  31  32
ENDBRANCH  30  31
ENDBRANCH  29  30
ENDBRANCH   1  29
TORSDOF 22
ENDMDL
MODEL 2
REMARK VINA RESULT:     -10.8      6.056     11.963
REMARK SMILES COC(=O)C[C@H](c1ccc(C(=O)NCCCCCCNC(=O)c2ccc(-c3c4nc(c(-c5c(F)cc(S(=O)(=O)[O-])cc5F)c5ccc([nH]5)c(-c5c(F)cc(S(=O)(=O)[O-])cc5F)c5nc(c(-c6c(F)cc(S(=O)(=O)[O-])cc6F)c6ccc3[nH]6)C=C5)C=C4)cc2)cc1)c1c(O)n[nH]c1C
REMARK SMILES IDX 16 1 15 2 14 3 13 4 11 5 12 6 10 8 7 9 8 10 90 11 9 12 89 13
REMARK SMILES IDX 6 14 5 15 3 16 4 17 2 18 1 19 91 20 92 21 96 22 94 23 95 24
REMARK SMILES IDX 97 25 93 27 17 29 18 30 19 31 20 32 21 33 22 35 23 36 24 37
REMARK SMILES IDX 88 38 25 39 87 40 26 41 27 42 28 43 81 44 29 45 86 46 80 47
REMARK SMILES IDX 82 48 30 49 85 50 79 51 78 52 31 54 65 55 44 56 64 57 45 58
REMARK SMILES IDX 48 59 63 60 83 61 46 62 47 63 62 65 84 66 49 67 32 68 33 69
REMARK SMILES IDX 42 70 34 71 35 72 41 73 43 74 36 75 37 76 38 77 39 78 40 79
REMARK SMILES IDX 66 80 67 81 76 82 68 83 69 84 75 85 77 86 70 87 71 88 72 89
REMARK SMILES IDX 73 90 74 91 50 92 51 93 60 94 52 95 53 96 59 97 61 98 54 99
REMARK SMILES IDX 55 100 56 101 57 102 58 103
REMARK H PARENT 13 7 95 26 93 28 20 34 82 53 48 64
REMARK Flexibility Score: inf
ROOT
ATOM      1  C   UNL A   1      41.693  21.858  27.169  1.00  0.00     0.002 C 
ENDROOT
BRANCH   1   2
ATOM      2  C   UNL A   1      40.397  22.542  27.623  1.00  0.00     0.021 C 
BRANCH   2   3
ATOM      3  C   UNL A   1      39.537  23.003  26.444  1.00  0.00     0.116 C 
BRANCH   3   4
ATOM      4  N   UNL A   1      39.041  21.844  25.733  1.00  0.00    -0.352 N 
ATOM      5  C   UNL A   1      37.832  21.551  25.159  1.00  0.00     0.251 C 
ATOM      6  O   UNL A   1      37.680  20.398  24.748  1.00  0.00    -0.269 OA
ATOM      7  H   UNL A   1      39.707  21.123  25.642  1.00  0.00     0.163 HD
BRANCH   5   8
ATOM      8  C   UNL A   1      36.755  22.556  24.921  1.00  0.00     0.039 A 
ATOM      9  C   UNL A   1      34.425  24.154  24.761  1.00  0.00    -0.040 A 
ATOM     10  C   UNL A   1      35.080  23.967  25.985  1.00  0.00     0.005 A 
ATOM     11  C   UNL A   1      35.042  23.665  23.604  1.00  0.00     0.005 A 
ATOM     12  C   UNL A   1      36.208  23.152  26.066  1.00  0.00     0.014 A 
ATOM     13  C   UNL A   1      36.220  22.914  23.683  1.00  0.00     0.014 A 
BRANCH   9  14
ATOM     14  C   UNL A   1      33.066  24.838  24.661  1.00  0.00     0.068 C 
BRANCH  14  15
ATOM     15  C   UNL A   1      32.698  25.267  23.234  1.00  0.00     0.136 C 
BRANCH  15  16
ATOM     16  C   UNL A   1      31.775  26.457  23.087  1.00  0.00     0.306 C 
ATOM     17  O   UNL A   1      30.994  26.621  22.162  1.00  0.00    -0.252 OA
BRANCH  16  18
ATOM     18  O   UNL A   1      31.920  27.323  24.128  1.00  0.00    -0.469 OA
ATOM     19  C   UNL A   1      30.980  28.401  24.138  1.00  0.00     0.282 C 
ENDBRANCH  16  18
ENDBRANCH  15  16
ENDBRANCH  14  15
BRANCH  14  20
ATOM     20  C   UNL A   1      32.119  24.000  25.478  1.00  0.00     0.044 A 
ATOM     21  C   UNL A   1      31.186  24.523  26.403  1.00  0.00     0.234 A 
ATOM     22  C   UNL A   1      31.847  22.637  25.539  1.00  0.00     0.040 A 
ATOM     23  N   UNL A   1      30.450  23.630  27.040  1.00  0.00    -0.137 NA
ATOM     24  N   UNL A   1      30.885  22.480  26.510  1.00  0.00    -0.279 N 
ATOM     25  C   UNL A   1      32.355  21.443  24.825  1.00  0.00     0.066 C 
ATOM     26  H   UNL A   1      30.547  21.599  26.790  1.00  0.00     0.190 HD
BRANCH  21  27
ATOM     27  O   UNL A   1      30.935  25.787  26.732  1.00  0.00    -0.492 OA
ATOM     28  H   UNL A   1      30.088  26.153  26.574  1.00  0.00     0.295 HD
ENDBRANCH  21  27
ENDBRANCH  14  20
ENDBRANCH   9  14
ENDBRANCH   5   8
ENDBRANCH   3   4
ENDBRANCH   2   3
ENDBRANCH   1   2
BRANCH   1  29
ATOM     29  C   UNL A   1      42.921  22.204  28.021  1.00  0.00     0.002 C 
BRANCH  29  30
ATOM     30  C   UNL A   1      44.123  22.720  27.227  1.00  0.00     0.021 C 
BRANCH  30  31
ATOM     31  C   UNL A   1      44.160  24.238  27.076  1.00  0.00     0.116 C 
BRANCH  31  32
ATOM     32  N   UNL A   1      43.365  24.672  25.940  1.00  0.00    -0.352 N 
ATOM     33  C   UNL A   1      42.292  25.525  25.913  1.00  0.00     0.251 C 
ATOM     34  H   UNL A   1      43.635  24.302  25.068  1.00  0.00     0.163 HD
ATOM     35  O   UNL A   1      41.569  25.570  24.922  1.00  0.00    -0.269 OA
BRANCH  33  36
ATOM     36  C   UNL A   1      42.011  26.388  27.080  1.00  0.00     0.039 A 
ATOM     37  C   UNL A   1      41.078  25.963  28.027  1.00  0.00     0.014 A 
ATOM     38  C   UNL A   1      42.644  27.626  27.220  1.00  0.00     0.014 A 
ATOM     39  C   UNL A   1      40.802  26.767  29.134  1.00  0.00     0.010 A 
ATOM     40  C   UNL A   1      42.420  28.395  28.359  1.00  0.00     0.010 A 
ATOM     41  C   UNL A   1      41.485  27.981  29.318  1.00  0.00    -0.014 A 
BRANCH  41  42
ATOM     42  C   UNL A   1      41.211  28.839  30.497  1.00  0.00     0.031 A 
ATOM     43  C   UNL A   1      42.048  28.702  31.741  1.00  0.00     0.074 A 
ATOM     44  C   UNL A   1      40.184  29.710  30.462  1.00  0.00     0.049 A 
ATOM     45  N   UNL A   1      41.946  29.338  32.880  1.00  0.00    -0.248 NA
ATOM     46  C   UNL A   1      43.124  27.698  31.711  1.00  0.00     0.031 C 
ATOM     47  C   UNL A   1      39.269  29.894  29.333  1.00  0.00     0.029 A 
ATOM     48  N   UNL A   1      39.733  30.601  31.402  1.00  0.00    -0.354 N 
ATOM     49  C   UNL A   1      42.932  28.806  33.701  1.00  0.00     0.074 A 
ATOM     50  C   UNL A   1      43.586  27.756  32.952  1.00  0.00     0.031 C 
ATOM     51  C   UNL A   1      38.383  30.855  29.637  1.00  0.00     0.029 A 
ATOM     52  C   UNL A   1      38.646  31.336  30.990  1.00  0.00     0.049 A 
ATOM     53  H   UNL A   1      40.148  30.705  32.289  1.00  0.00     0.167 HD
ATOM     54  C   UNL A   1      43.279  29.176  34.958  1.00  0.00     0.037 A 
ATOM     55  C   UNL A   1      37.942  32.288  31.630  1.00  0.00     0.037 A 
ATOM     56  C   UNL A   1      42.642  30.242  35.687  1.00  0.00     0.049 A 
ATOM     57  C   UNL A   1      38.359  32.695  33.017  1.00  0.00     0.074 A 
ATOM     58  C   UNL A   1      42.957  30.736  36.941  1.00  0.00     0.029 A 
ATOM     59  N   UNL A   1      41.560  30.979  35.227  1.00  0.00    -0.354 N 
ATOM     60  N   UNL A   1      39.336  32.226  33.756  1.00  0.00    -0.248 NA
ATOM     61  C   UNL A   1      37.583  33.767  33.655  1.00  0.00     0.031 C 
ATOM     62  C   UNL A   1      42.040  31.746  37.255  1.00  0.00     0.029 A 
ATOM     63  C   UNL A   1      41.184  31.913  36.179  1.00  0.00     0.049 A 
ATOM     64  H   UNL A   1      41.124  30.857  34.353  1.00  0.00     0.167 HD
ATOM     65  C   UNL A   1      39.308  32.961  34.936  1.00  0.00     0.074 A 
ATOM     66  C   UNL A   1      38.227  33.917  34.804  1.00  0.00     0.031 C 
ATOM     67  C   UNL A   1      40.102  32.855  36.030  1.00  0.00     0.037 A 
BRANCH  54  68
ATOM     68  C   UNL A   1      44.404  28.427  35.618  1.00  0.00     0.058 A 
ATOM     69  C   UNL A   1      44.164  27.307  36.433  1.00  0.00     0.135 A 
ATOM     70  C   UNL A   1      45.738  28.814  35.417  1.00  0.00     0.135 A 
ATOM     71  F   UNL A   1      42.908  26.901  36.673  1.00  0.00    -0.206 F 
ATOM     72  C   UNL A   1      45.205  26.618  37.048  1.00  0.00     0.059 A 
ATOM     73  C   UNL A   1      46.797  28.122  35.999  1.00  0.00     0.059 A 
ATOM     74  F   UNL A   1      46.025  29.878  34.649  1.00  0.00    -0.206 F 
ATOM     75  C   UNL A   1      46.518  27.035  36.827  1.00  0.00     0.060 A 
BRANCH  75  76
ATOM     76  S   UNL A   1      47.858  26.130  37.630  1.00  0.00     0.124 S 
ATOM     77  O   UNL A   1      47.947  26.822  38.913  1.00  0.00    -0.237 OA
ATOM     78  O   UNL A   1      47.331  24.770  37.680  1.00  0.00    -0.237 OA
ATOM     79  O   UNL A   1      48.990  26.328  36.731  1.00  0.00    -0.744 OA
ENDBRANCH  75  76
ENDBRANCH  54  68
BRANCH  55  80
ATOM     80  C   UNL A   1      36.793  32.944  30.952  1.00  0.00     0.058 A 
ATOM     81  C   UNL A   1      35.472  32.611  31.286  1.00  0.00     0.135 A 
ATOM     82  C   UNL A   1      36.992  33.925  29.968  1.00  0.00     0.135 A 
ATOM     83  F   UNL A   1      35.232  31.676  32.219  1.00  0.00    -0.206 F 
ATOM     84  C   UNL A   1      34.388  33.214  30.659  1.00  0.00     0.059 A 
ATOM     85  C   UNL A   1      35.923  34.560  29.344  1.00  0.00     0.059 A 
ATOM     86  F   UNL A   1      38.237  34.291  29.626  1.00  0.00    -0.206 F 
ATOM     87  C   UNL A   1      34.623  34.190  29.689  1.00  0.00     0.060 A 
BRANCH  87  88
ATOM     88  S   UNL A   1      33.209  35.003  28.915  1.00  0.00     0.124 S 
ATOM     89  O   UNL A   1      32.751  33.975  27.989  1.00  0.00    -0.237 OA
ATOM     90  O   UNL A   1      32.342  35.266  30.059  1.00  0.00    -0.237 OA
ATOM     91  O   UNL A   1      33.800  36.189  28.302  1.00  0.00    -0.744 OA
ENDBRANCH  87  88
ENDBRANCH  55  80
BRANCH  67  92
ATOM     92  C   UNL A   1      39.845  33.814  37.159  1.00  0.00     0.058 A 
ATOM     93  C   UNL A   1      40.466  35.072  37.212  1.00  0.00     0.135 A 
ATOM     94  C   UNL A   1      38.945  33.482  38.184  1.00  0.00     0.135 A 
ATOM     95  F   UNL A   1      41.339  35.435  36.260  1.00  0.00    -0.206 F 
ATOM     96  C   UNL A   1      40.229  35.953  38.262  1.00  0.00     0.059 A 
ATOM     97  C   UNL A   1      38.671  34.359  39.227  1.00  0.00     0.059 A 
ATOM     98  F   UNL A   1      38.315  32.296  38.174  1.00  0.00    -0.206 F 
ATOM     99  C   UNL A   1      39.331  35.587  39.266  1.00  0.00     0.060 A 
BRANCH  99 100
ATOM    100  S   UNL A   1      39.022  36.745  40.617  1.00  0.00     0.124 S 
ATOM    101  O   UNL A   1      38.538  37.915  39.894  1.00  0.00    -0.237 OA
ATOM    102  O   UNL A   1      38.028  36.036  41.416  1.00  0.00    -0.237 OA
ATOM    103  O   UNL A   1      40.333  36.890  41.244  1.00  0.00    -0.744 OA
ENDBRANCH  99 100
ENDBRANCH  67  92
ENDBRANCH  41  42
ENDBRANCH  33  36
ENDBRANCH  31  32
ENDBRANCH  30  31
ENDBRANCH  29  30
ENDBRANCH   1  29
TORSDOF 22
ENDMDL
MODEL 3
REMARK VINA RESULT:     -10.7      6.224     11.787
REMARK SMILES COC(=O)C[C@H](c1ccc(C(=O)NCCCCCCNC(=O)c2ccc(-c3c4nc(c(-c5c(F)cc(S(=O)(=O)[O-])cc5F)c5ccc([nH]5)c(-c5c(F)cc(S(=O)(=O)[O-])cc5F)c5nc(c(-c6c(F)cc(S(=O)(=O)[O-])cc6F)c6ccc3[nH]6)C=C5)C=C4)cc2)cc1)c1c(O)n[nH]c1C
REMARK SMILES IDX 16 1 15 2 14 3 13 4 11 5 12 6 10 8 7 9 8 10 90 11 9 12 89 13
REMARK SMILES IDX 6 14 5 15 3 16 4 17 2 18 1 19 91 20 92 21 96 22 94 23 95 24
REMARK SMILES IDX 97 25 93 27 17 29 18 30 19 31 20 32 21 33 22 35 23 36 24 37
REMARK SMILES IDX 88 38 25 39 87 40 26 41 27 42 28 43 81 44 29 45 86 46 80 47
REMARK SMILES IDX 82 48 30 49 85 50 79 51 78 52 31 54 65 55 44 56 64 57 45 58
REMARK SMILES IDX 48 59 63 60 83 61 46 62 47 63 62 65 84 66 49 67 32 68 33 69
REMARK SMILES IDX 42 70 34 71 35 72 41 73 43 74 36 75 37 76 38 77 39 78 40 79
REMARK SMILES IDX 66 80 67 81 76 82 68 83 69 84 75 85 77 86 70 87 71 88 72 89
REMARK SMILES IDX 73 90 74 91 50 92 51 93 60 94 52 95 53 96 59 97 61 98 54 99
REMARK SMILES IDX 55 100 56 101 57 102 58 103
REMARK H PARENT 13 7 95 26 93 28 20 34 82 53 48 64
REMARK Flexibility Score: inf
ROOT
ATOM      1  C   UNL A   1      41.412  21.445  27.131  1.00  0.00     0.002 C 
ENDROOT
BRANCH   1   2
ATOM      2  C   UNL A   1      40.418  22.505  27.622  1.00  0.00     0.021 C 
BRANCH   2   3
ATOM      3  C   UNL A   1      39.415  22.910  26.540  1.00  0.00     0.116 C 
BRANCH   3   4
ATOM      4  N   UNL A   1      39.014  21.734  25.796  1.00  0.00    -0.352 N 
ATOM      5  C   UNL A   1      37.850  21.386  25.164  1.00  0.00     0.251 C 
ATOM      6  O   UNL A   1      37.776  20.231  24.738  1.00  0.00    -0.269 OA
ATOM      7  H   UNL A   1      39.719  21.049  25.732  1.00  0.00     0.163 HD
BRANCH   5   8
ATOM      8  C   UNL A   1      36.734  22.337  24.883  1.00  0.00     0.039 A 
ATOM      9  C   UNL A   1      34.350  23.846  24.668  1.00  0.00    -0.040 A 
ATOM     10  C   UNL A   1      35.036  23.765  25.887  1.00  0.00     0.005 A 
ATOM     11  C   UNL A   1      34.959  23.297  23.533  1.00  0.00     0.005 A 
ATOM     12  C   UNL A   1      36.193  22.993  25.997  1.00  0.00     0.014 A 
ATOM     13  C   UNL A   1      36.163  22.591  23.636  1.00  0.00     0.014 A 
BRANCH   9  14
ATOM     14  C   UNL A   1      32.967  24.477  24.553  1.00  0.00     0.068 C 
BRANCH  14  15
ATOM     15  C   UNL A   1      32.543  24.769  23.107  1.00  0.00     0.136 C 
BRANCH  15  16
ATOM     16  C   UNL A   1      32.895  26.129  22.546  1.00  0.00     0.306 C 
ATOM     17  O   UNL A   1      32.722  27.189  23.131  1.00  0.00    -0.252 OA
BRANCH  16  18
ATOM     18  O   UNL A   1      33.442  26.023  21.303  1.00  0.00    -0.469 OA
ATOM     19  C   UNL A   1      32.534  25.581  20.290  1.00  0.00     0.282 C 
ENDBRANCH  16  18
ENDBRANCH  15  16
ENDBRANCH  14  15
BRANCH  14  20
ATOM     20  C   UNL A   1      32.072  23.685  25.469  1.00  0.00     0.044 A 
ATOM     21  C   UNL A   1      31.283  24.250  26.498  1.00  0.00     0.234 A 
ATOM     22  C   UNL A   1      31.728  22.339  25.552  1.00  0.00     0.040 A 
ATOM     23  N   UNL A   1      30.574  23.393  27.210  1.00  0.00    -0.137 NA
ATOM     24  N   UNL A   1      30.876  22.226  26.626  1.00  0.00    -0.279 N 
ATOM     25  C   UNL A   1      32.080  21.127  24.777  1.00  0.00     0.066 C 
ATOM     26  H   UNL A   1      30.522  21.363  26.938  1.00  0.00     0.190 HD
BRANCH  21  27
ATOM     27  O   UNL A   1      31.148  25.522  26.861  1.00  0.00    -0.492 OA
ATOM     28  H   UNL A   1      30.298  25.867  27.052  1.00  0.00     0.295 HD
ENDBRANCH  21  27
ENDBRANCH  14  20
ENDBRANCH   9  14
ENDBRANCH   5   8
ENDBRANCH   3   4
ENDBRANCH   2   3
ENDBRANCH   1   2
BRANCH   1  29
ATOM     29  C   UNL A   1      42.790  22.000  26.749  1.00  0.00     0.002 C 
BRANCH  29  30
ATOM     30  C   UNL A   1      43.440  22.884  27.817  1.00  0.00     0.021 C 
BRANCH  30  31
ATOM     31  C   UNL A   1      43.932  24.228  27.292  1.00  0.00     0.116 C 
BRANCH  31  32
ATOM     32  N   UNL A   1      43.110  24.693  26.187  1.00  0.00    -0.352 N 
ATOM     33  C   UNL A   1      42.057  25.571  26.204  1.00  0.00     0.251 C 
ATOM     34  H   UNL A   1      43.343  24.327  25.303  1.00  0.00     0.163 HD
ATOM     35  O   UNL A   1      41.304  25.643  25.238  1.00  0.00    -0.269 OA
BRANCH  33  36
ATOM     36  C   UNL A   1      41.834  26.427  27.389  1.00  0.00     0.039 A 
ATOM     37  C   UNL A   1      40.822  26.088  28.288  1.00  0.00     0.014 A 
ATOM     38  C   UNL A   1      42.603  27.577  27.592  1.00  0.00     0.014 A 
ATOM     39  C   UNL A   1      40.600  26.887  29.410  1.00  0.00     0.010 A 
ATOM     40  C   UNL A   1      42.427  28.334  28.747  1.00  0.00     0.010 A 
ATOM     41  C   UNL A   1      41.413  28.006  29.658  1.00  0.00    -0.014 A 
BRANCH  41  42
ATOM     42  C   UNL A   1      41.196  28.856  30.855  1.00  0.00     0.031 A 
ATOM     43  C   UNL A   1      40.083  29.870  30.868  1.00  0.00     0.074 A 
ATOM     44  C   UNL A   1      42.025  28.743  31.910  1.00  0.00     0.049 A 
ATOM     45  N   UNL A   1      39.753  30.722  31.805  1.00  0.00    -0.248 NA
ATOM     46  C   UNL A   1      39.249  29.958  29.659  1.00  0.00     0.031 C 
ATOM     47  C   UNL A   1      43.171  27.835  31.991  1.00  0.00     0.029 A 
ATOM     48  N   UNL A   1      42.036  29.399  33.115  1.00  0.00    -0.354 N 
ATOM     49  C   UNL A   1      38.685  31.451  31.297  1.00  0.00     0.074 A 
ATOM     50  C   UNL A   1      38.457  30.982  29.947  1.00  0.00     0.031 C 
ATOM     51  C   UNL A   1      43.758  27.973  33.191  1.00  0.00     0.029 A 
ATOM     52  C   UNL A   1      43.050  28.998  33.952  1.00  0.00     0.049 A 
ATOM     53  H   UNL A   1      41.380  30.092  33.357  1.00  0.00     0.167 HD
ATOM     54  C   UNL A   1      37.944  32.408  31.907  1.00  0.00     0.037 A 
ATOM     55  C   UNL A   1      43.373  29.411  35.192  1.00  0.00     0.037 A 
ATOM     56  C   UNL A   1      38.159  32.850  33.260  1.00  0.00     0.049 A 
ATOM     57  C   UNL A   1      42.524  30.461  35.856  1.00  0.00     0.074 A 
ATOM     58  C   UNL A   1      37.429  33.769  33.993  1.00  0.00     0.029 A 
ATOM     59  N   UNL A   1      39.182  32.403  34.085  1.00  0.00    -0.354 N 
ATOM     60  N   UNL A   1      41.476  31.094  35.385  1.00  0.00    -0.248 NA
ATOM     61  C   UNL A   1      42.894  30.845  37.225  1.00  0.00     0.031 C 
ATOM     62  C   UNL A   1      38.033  33.907  35.248  1.00  0.00     0.029 A 
ATOM     63  C   UNL A   1      39.112  33.040  35.314  1.00  0.00     0.049 A 
ATOM     64  H   UNL A   1      39.858  31.733  33.835  1.00  0.00     0.167 HD
ATOM     65  C   UNL A   1      41.049  31.935  36.406  1.00  0.00     0.074 A 
ATOM     66  C   UNL A   1      41.941  31.716  37.526  1.00  0.00     0.031 C 
ATOM     67  C   UNL A   1      40.012  32.810  36.416  1.00  0.00     0.037 A 
BRANCH  54  68
ATOM     68  C   UNL A   1      36.828  33.034  31.116  1.00  0.00     0.058 A 
ATOM     69  C   UNL A   1      37.083  33.930  30.064  1.00  0.00     0.135 A 
ATOM     70  C   UNL A   1      35.489  32.717  31.393  1.00  0.00     0.135 A 
ATOM     71  F   UNL A   1      38.343  34.281  29.765  1.00  0.00    -0.206 F 
ATOM     72  C   UNL A   1      36.049  34.513  29.338  1.00  0.00     0.059 A 
ATOM     73  C   UNL A   1      34.440  33.265  30.661  1.00  0.00     0.059 A 
ATOM     74  F   UNL A   1      35.187  31.866  32.388  1.00  0.00    -0.206 F 
ATOM     75  C   UNL A   1      34.731  34.175  29.645  1.00  0.00     0.060 A 
BRANCH  75  76
ATOM     76  S   UNL A   1      33.401  34.938  28.692  1.00  0.00     0.124 S 
ATOM     77  O   UNL A   1      32.367  35.096  29.711  1.00  0.00    -0.237 OA
ATOM     78  O   UNL A   1      34.021  36.173  28.223  1.00  0.00    -0.237 OA
ATOM     79  O   UNL A   1      33.115  33.952  27.656  1.00  0.00    -0.744 OA
ENDBRANCH  75  76
ENDBRANCH  54  68
BRANCH  55  80
ATOM     80  C   UNL A   1      44.533  28.806  35.897  1.00  0.00     0.058 A 
ATOM     81  C   UNL A   1      44.372  27.682  36.720  1.00  0.00     0.135 A 
ATOM     82  C   UNL A   1      45.827  29.330  35.752  1.00  0.00     0.135 A 
ATOM     83  F   UNL A   1      43.152  27.147  36.894  1.00  0.00    -0.206 F 
ATOM     84  C   UNL A   1      45.447  27.107  37.388  1.00  0.00     0.059 A 
ATOM     85  C   UNL A   1      46.923  28.757  36.390  1.00  0.00     0.059 A 
ATOM     86  F   UNL A   1      46.037  30.394  34.961  1.00  0.00    -0.206 F 
ATOM     87  C   UNL A   1      46.721  27.650  37.214  1.00  0.00     0.060 A 
BRANCH  87  88
ATOM     88  S   UNL A   1      48.119  26.867  38.047  1.00  0.00     0.124 S 
ATOM     89  O   UNL A   1      47.710  25.468  38.054  1.00  0.00    -0.237 OA
ATOM     90  O   UNL A   1      49.231  27.205  37.163  1.00  0.00    -0.237 OA
ATOM     91  O   UNL A   1      48.144  27.527  39.350  1.00  0.00    -0.744 OA
ENDBRANCH  87  88
ENDBRANCH  55  80
BRANCH  67  92
ATOM     92  C   UNL A   1      39.776  33.576  37.688  1.00  0.00     0.058 A 
ATOM     93  C   UNL A   1      40.448  34.779  37.959  1.00  0.00     0.135 A 
ATOM     94  C   UNL A   1      38.844  33.118  38.633  1.00  0.00     0.135 A 
ATOM     95  F   UNL A   1      41.352  35.258  37.091  1.00  0.00    -0.206 F 
ATOM     96  C   UNL A   1      40.229  35.482  39.140  1.00  0.00     0.059 A 
ATOM     97  C   UNL A   1      38.588  33.819  39.806  1.00  0.00     0.059 A 
ATOM     98  F   UNL A   1      38.164  31.979  38.417  1.00  0.00    -0.206 F 
ATOM     99  C   UNL A   1      39.298  34.992  40.058  1.00  0.00     0.060 A 
BRANCH  99 100
ATOM    100  S   UNL A   1      39.014  35.920  41.580  1.00  0.00     0.124 S 
ATOM    101  O   UNL A   1      38.900  37.284  41.075  1.00  0.00    -0.237 OA
ATOM    102  O   UNL A   1      37.780  35.325  42.084  1.00  0.00    -0.237 OA
ATOM    103  O   UNL A   1      40.206  35.641  42.375  1.00  0.00    -0.744 OA
ENDBRANCH  99 100
ENDBRANCH  67  92
ENDBRANCH  41  42
ENDBRANCH  33  36
ENDBRANCH  31  32
ENDBRANCH  30  31
ENDBRANCH  29  30
ENDBRANCH   1  29
TORSDOF 22
ENDMDL
