MODEL 1
REMARK VINA RESULT:     -10.6      0.000      0.000
REMARK SMILES C[C@H](Cc1ccco1)[NH2+]Cc1cc(C(=O)NCCCCCCNC(=O)c2ccc(-c3c4nc(c(-c5c(F)cc(S(=O)(=O)[O-])cc5F)c5ccc([nH]5)c(-c5c(F)cc(S(=O)(=O)[O-])cc5F)c5nc(c(-c6c(F)cc(S(=O)(=O)[O-])cc6F)c6ccc3[nH]6)C=C5)C=C4)cc2)cs1
REMARK SMILES IDX 18 1 17 2 16 3 14 4 15 5 13 7 11 8 12 9 93 10 92 11 10 12
REMARK SMILES IDX 9 13 2 16 1 17 3 18 4 19 5 20 8 21 6 22 7 23 19 24 20 25
REMARK SMILES IDX 21 26 22 27 23 28 24 29 25 31 26 32 27 33 91 34 28 35 90 36
REMARK SMILES IDX 29 37 30 38 31 39 84 40 32 41 89 42 83 43 85 44 33 45 88 46
REMARK SMILES IDX 82 47 81 48 34 50 68 51 47 52 67 53 48 54 51 55 66 56 86 57
REMARK SMILES IDX 49 58 50 59 65 61 87 62 52 63 35 64 36 65 45 66 37 67 38 68
REMARK SMILES IDX 44 69 46 70 39 71 40 72 41 73 42 74 43 75 69 76 70 77 79 78
REMARK SMILES IDX 71 79 72 80 78 81 80 82 73 83 74 84 75 85 76 86 77 87 53 88
REMARK SMILES IDX 54 89 63 90 55 91 56 92 62 93 64 94 57 95 58 96 59 97 60 98
REMARK SMILES IDX 61 99
REMARK H PARENT 16 6 9 14 9 15 23 30 85 49 51 60
REMARK Flexibility Score: inf
ROOT
ATOM      1  C   UNL A   1      32.129  28.960  23.280  1.00  0.00     0.021 C 
ENDROOT
BRANCH   1   2
ATOM      2  C   UNL A   1      31.196  28.849  24.489  1.00  0.00     0.116 C 
BRANCH   2   3
ATOM      3  N   UNL A   1      29.887  28.386  24.069  1.00  0.00    -0.352 N 
ATOM      4  C   UNL A   1      29.356  27.130  23.901  1.00  0.00     0.252 C 
ATOM      5  O   UNL A   1      28.187  27.063  23.536  1.00  0.00    -0.269 OA
ATOM      6  H   UNL A   1      29.255  29.114  23.866  1.00  0.00     0.163 HD
BRANCH   4   7
ATOM      7  C   UNL A   1      30.125  25.924  24.227  1.00  0.00     0.051 A 
ATOM      8  C   UNL A   1      31.045  24.180  25.481  1.00  0.00     0.059 A 
ATOM      9  C   UNL A   1      30.793  25.540  25.436  1.00  0.00     0.035 A 
ATOM     10  S   UNL A   1      31.058  23.527  23.900  1.00  0.00    -0.142 S 
ATOM     11  C   UNL A   1      30.301  24.926  23.278  1.00  0.00     0.079 A 
BRANCH   8  12
ATOM     12  C   UNL A   1      31.253  23.309  26.688  1.00  0.00     0.308 C 
BRANCH  12  13
ATOM     13  N   UNL A   1      31.857  22.014  26.343  1.00  0.00    -0.339 N 
ATOM     14  H   UNL A   1      31.480  21.320  26.991  1.00  0.00     0.346 HD
ATOM     15  H   UNL A   1      31.618  21.871  25.362  1.00  0.00     0.346 HD
BRANCH  13  16
ATOM     16  C   UNL A   1      33.333  21.906  26.390  1.00  0.00     0.187 C 
ATOM     17  C   UNL A   1      34.050  23.106  27.025  1.00  0.00     0.075 C 
BRANCH  16  18
ATOM     18  C   UNL A   1      33.843  21.570  24.950  1.00  0.00     0.140 C 
BRANCH  18  19
ATOM     19  C   UNL A   1      33.392  20.257  24.411  1.00  0.00     0.109 A 
ATOM     20  C   UNL A   1      32.484  19.883  23.442  1.00  0.00     0.046 A 
ATOM     21  O   UNL A   1      33.929  19.148  25.000  1.00  0.00    -0.469 OA
ATOM     22  C   UNL A   1      32.446  18.467  23.459  1.00  0.00     0.042 A 
ATOM     23  C   UNL A   1      33.353  18.069  24.411  1.00  0.00     0.195 A 
ENDBRANCH  18  19
ENDBRANCH  16  18
ENDBRANCH  13  16
ENDBRANCH  12  13
ENDBRANCH   8  12
ENDBRANCH   4   7
ENDBRANCH   2   3
ENDBRANCH   1   2
BRANCH   1  24
ATOM     24  C   UNL A   1      33.550  28.456  23.568  1.00  0.00     0.002 C 
BRANCH  24  25
ATOM     25  C   UNL A   1      33.671  27.516  24.773  1.00  0.00     0.002 C 
BRANCH  25  26
ATOM     26  C   UNL A   1      34.442  28.086  25.967  1.00  0.00     0.021 C 
BRANCH  26  27
ATOM     27  C   UNL A   1      33.593  28.332  27.211  1.00  0.00     0.116 C 
BRANCH  27  28
ATOM     28  N   UNL A   1      33.485  29.749  27.521  1.00  0.00    -0.352 N 
ATOM     29  C   UNL A   1      34.398  30.573  28.131  1.00  0.00     0.251 C 
ATOM     30  H   UNL A   1      32.639  30.178  27.255  1.00  0.00     0.163 HD
ATOM     31  O   UNL A   1      34.063  31.692  28.507  1.00  0.00    -0.269 OA
BRANCH  29  32
ATOM     32  C   UNL A   1      35.782  30.099  28.347  1.00  0.00     0.039 A 
ATOM     33  C   UNL A   1      36.704  30.189  27.302  1.00  0.00     0.014 A 
ATOM     34  C   UNL A   1      36.164  29.566  29.582  1.00  0.00     0.014 A 
ATOM     35  C   UNL A   1      38.030  29.801  27.515  1.00  0.00     0.010 A 
ATOM     36  C   UNL A   1      37.497  29.239  29.810  1.00  0.00     0.010 A 
ATOM     37  C   UNL A   1      38.443  29.354  28.780  1.00  0.00    -0.014 A 
BRANCH  37  38
ATOM     38  C   UNL A   1      39.859  28.998  29.055  1.00  0.00     0.031 A 
ATOM     39  C   UNL A   1      40.803  30.041  29.586  1.00  0.00     0.074 A 
ATOM     40  C   UNL A   1      40.311  27.767  28.746  1.00  0.00     0.049 A 
ATOM     41  N   UNL A   1      42.096  29.967  29.771  1.00  0.00    -0.248 NA
ATOM     42  C   UNL A   1      40.221  31.349  29.929  1.00  0.00     0.031 C 
ATOM     43  C   UNL A   1      39.500  26.682  28.191  1.00  0.00     0.029 A 
ATOM     44  N   UNL A   1      41.570  27.227  28.835  1.00  0.00    -0.354 N 
ATOM     45  C   UNL A   1      42.485  31.220  30.230  1.00  0.00     0.074 A 
ATOM     46  C   UNL A   1      41.299  32.048  30.254  1.00  0.00     0.031 C 
ATOM     47  C   UNL A   1      40.278  25.604  27.997  1.00  0.00     0.029 A 
ATOM     48  C   UNL A   1      41.649  25.933  28.375  1.00  0.00     0.049 A 
ATOM     49  H   UNL A   1      42.343  27.718  29.195  1.00  0.00     0.167 HD
ATOM     50  C   UNL A   1      43.715  31.636  30.613  1.00  0.00     0.037 A 
ATOM     51  C   UNL A   1      42.709  25.109  28.255  1.00  0.00     0.037 A 
ATOM     52  C   UNL A   1      44.885  30.797  30.613  1.00  0.00     0.049 A 
ATOM     53  C   UNL A   1      44.068  25.594  28.684  1.00  0.00     0.074 A 
ATOM     54  C   UNL A   1      46.165  31.108  31.037  1.00  0.00     0.029 A 
ATOM     55  N   UNL A   1      44.918  29.483  30.168  1.00  0.00    -0.354 N 
ATOM     56  N   UNL A   1      44.409  26.766  29.165  1.00  0.00    -0.248 NA
ATOM     57  C   UNL A   1      45.186  24.649  28.553  1.00  0.00     0.031 C 
ATOM     58  C   UNL A   1      46.981  29.994  30.813  1.00  0.00     0.029 A 
ATOM     59  C   UNL A   1      46.200  28.974  30.291  1.00  0.00     0.049 A 
ATOM     60  H   UNL A   1      44.144  28.987  29.817  1.00  0.00     0.167 HD
ATOM     61  C   UNL A   1      45.773  26.689  29.425  1.00  0.00     0.074 A 
ATOM     62  C   UNL A   1      46.195  25.356  29.049  1.00  0.00     0.031 C 
ATOM     63  C   UNL A   1      46.599  27.637  29.929  1.00  0.00     0.037 A 
BRANCH  50  64
ATOM     64  C   UNL A   1      43.860  33.063  31.067  1.00  0.00     0.058 A 
ATOM     65  C   UNL A   1      43.704  33.426  32.413  1.00  0.00     0.135 A 
ATOM     66  C   UNL A   1      44.192  34.074  30.150  1.00  0.00     0.135 A 
ATOM     67  F   UNL A   1      43.373  32.503  33.329  1.00  0.00    -0.206 F 
ATOM     68  C   UNL A   1      43.841  34.746  32.831  1.00  0.00     0.059 A 
ATOM     69  C   UNL A   1      44.361  35.396  30.550  1.00  0.00     0.059 A 
ATOM     70  F   UNL A   1      44.354  33.782  28.850  1.00  0.00    -0.206 F 
ATOM     71  C   UNL A   1      44.168  35.725  31.891  1.00  0.00     0.060 A 
BRANCH  71  72
ATOM     72  S   UNL A   1      44.341  37.433  32.449  1.00  0.00     0.124 S 
ATOM     73  O   UNL A   1      43.306  37.510  33.476  1.00  0.00    -0.237 OA
ATOM     74  O   UNL A   1      45.718  37.465  32.933  1.00  0.00    -0.237 OA
ATOM     75  O   UNL A   1      44.086  38.213  31.242  1.00  0.00    -0.744 OA
ENDBRANCH  71  72
ENDBRANCH  50  64
BRANCH  51  76
ATOM     76  C   UNL A   1      42.524  23.735  27.719  1.00  0.00     0.058 A 
ATOM     77  C   UNL A   1      42.442  23.505  26.339  1.00  0.00     0.135 A 
ATOM     78  C   UNL A   1      42.445  22.623  28.573  1.00  0.00     0.135 A 
ATOM     79  F   UNL A   1      42.505  24.536  25.483  1.00  0.00    -0.206 F 
ATOM     80  C   UNL A   1      42.275  22.225  25.821  1.00  0.00     0.059 A 
ATOM     81  C   UNL A   1      42.303  21.329  28.078  1.00  0.00     0.059 A 
ATOM     82  F   UNL A   1      42.535  22.786  29.902  1.00  0.00    -0.206 F 
ATOM     83  C   UNL A   1      42.209  21.143  26.700  1.00  0.00     0.060 A 
BRANCH  83  84
ATOM     84  S   UNL A   1      42.044  19.479  26.015  1.00  0.00     0.124 S 
ATOM     85  O   UNL A   1      42.927  19.551  24.856  1.00  0.00    -0.237 OA
ATOM     86  O   UNL A   1      42.505  18.644  27.119  1.00  0.00    -0.237 OA
ATOM     87  O   UNL A   1      40.617  19.380  25.717  1.00  0.00    -0.744 OA
ENDBRANCH  83  84
ENDBRANCH  51  76
BRANCH  63  88
ATOM     88  C   UNL A   1      48.039  27.263  30.148  1.00  0.00     0.058 A 
ATOM     89  C   UNL A   1      48.997  27.401  29.134  1.00  0.00     0.135 A 
ATOM     90  C   UNL A   1      48.476  26.844  31.415  1.00  0.00     0.135 A 
ATOM     91  F   UNL A   1      48.628  27.791  27.903  1.00  0.00    -0.206 F 
ATOM     92  C   UNL A   1      50.343  27.132  29.367  1.00  0.00     0.059 A 
ATOM     93  C   UNL A   1      49.818  26.592  31.677  1.00  0.00     0.059 A 
ATOM     94  F   UNL A   1      47.597  26.704  32.421  1.00  0.00    -0.206 F 
ATOM     95  C   UNL A   1      50.744  26.734  30.644  1.00  0.00     0.060 A 
BRANCH  95  96
ATOM     96  S   UNL A   1      52.501  26.451  30.951  1.00  0.00     0.124 S 
ATOM     97  O   UNL A   1      52.469  25.212  31.720  1.00  0.00    -0.237 OA
ATOM     98  O   UNL A   1      53.040  26.344  29.599  1.00  0.00    -0.237 OA
ATOM     99  O   UNL A   1      52.912  27.640  31.690  1.00  0.00    -0.744 OA
ENDBRANCH  95  96
ENDBRANCH  63  88
ENDBRANCH  37  38
ENDBRANCH  29  32
ENDBRANCH  27  28
ENDBRANCH  26  27
ENDBRANCH  25  26
ENDBRANCH  24  25
ENDBRANCH   1  24
TORSDOF 21
ENDMDL
MODEL 2
REMARK VINA RESULT:     -10.6      2.478      3.446
REMARK SMILES C[C@H](Cc1ccco1)[NH2+]Cc1cc(C(=O)NCCCCCCNC(=O)c2ccc(-c3c4nc(c(-c5c(F)cc(S(=O)(=O)[O-])cc5F)c5ccc([nH]5)c(-c5c(F)cc(S(=O)(=O)[O-])cc5F)c5nc(c(-c6c(F)cc(S(=O)(=O)[O-])cc6F)c6ccc3[nH]6)C=C5)C=C4)cc2)cs1
REMARK SMILES IDX 18 1 17 2 16 3 14 4 15 5 13 7 11 8 12 9 93 10 92 11 10 12
REMARK SMILES IDX 9 13 2 16 1 17 3 18 4 19 5 20 8 21 6 22 7 23 19 24 20 25
REMARK SMILES IDX 21 26 22 27 23 28 24 29 25 31 26 32 27 33 91 34 28 35 90 36
REMARK SMILES IDX 29 37 30 38 31 39 84 40 32 41 89 42 83 43 85 44 33 45 88 46
REMARK SMILES IDX 82 47 81 48 34 50 68 51 47 52 67 53 48 54 51 55 66 56 86 57
REMARK SMILES IDX 49 58 50 59 65 61 87 62 52 63 35 64 36 65 45 66 37 67 38 68
REMARK SMILES IDX 44 69 46 70 39 71 40 72 41 73 42 74 43 75 69 76 70 77 79 78
REMARK SMILES IDX 71 79 72 80 78 81 80 82 73 83 74 84 75 85 76 86 77 87 53 88
REMARK SMILES IDX 54 89 63 90 55 91 56 92 62 93 64 94 57 95 58 96 59 97 60 98
REMARK SMILES IDX 61 99
REMARK H PARENT 16 6 9 14 9 15 23 30 85 49 51 60
REMARK Flexibility Score: inf
ROOT
ATOM      1  C   UNL A   1      33.997  28.603  23.467  1.00  0.00     0.021 C 
ENDROOT
BRANCH   1   2
ATOM      2  C   UNL A   1      33.386  27.774  22.334  1.00  0.00     0.116 C 
BRANCH   2   3
ATOM      3  N   UNL A   1      32.062  28.270  22.009  1.00  0.00    -0.352 N 
ATOM      4  C   UNL A   1      30.806  27.917  22.440  1.00  0.00     0.252 C 
ATOM      5  O   UNL A   1      29.861  28.544  21.975  1.00  0.00    -0.269 OA
ATOM      6  H   UNL A   1      32.064  29.002  21.350  1.00  0.00     0.163 HD
BRANCH   4   7
ATOM      7  C   UNL A   1      30.612  26.897  23.476  1.00  0.00     0.051 A 
ATOM      8  C   UNL A   1      30.872  24.907  24.673  1.00  0.00     0.059 A 
ATOM      9  C   UNL A   1      30.732  25.470  23.417  1.00  0.00     0.035 A 
ATOM     10  S   UNL A   1      30.251  25.963  25.868  1.00  0.00    -0.142 S 
ATOM     11  C   UNL A   1      30.246  27.266  24.764  1.00  0.00     0.079 A 
BRANCH   8  12
ATOM     12  C   UNL A   1      31.495  23.590  25.042  1.00  0.00     0.308 C 
BRANCH  12  13
ATOM     13  N   UNL A   1      31.632  22.693  23.886  1.00  0.00    -0.339 N 
ATOM     14  H   UNL A   1      30.810  22.088  23.871  1.00  0.00     0.346 HD
ATOM     15  H   UNL A   1      31.731  23.318  23.086  1.00  0.00     0.346 HD
BRANCH  13  16
ATOM     16  C   UNL A   1      32.826  21.819  23.828  1.00  0.00     0.187 C 
ATOM     17  C   UNL A   1      32.540  20.357  23.457  1.00  0.00     0.075 C 
BRANCH  16  18
ATOM     18  C   UNL A   1      33.612  21.976  25.171  1.00  0.00     0.140 C 
BRANCH  18  19
ATOM     19  C   UNL A   1      34.994  22.512  25.034  1.00  0.00     0.109 A 
ATOM     20  C   UNL A   1      35.825  22.746  23.958  1.00  0.00     0.046 A 
ATOM     21  O   UNL A   1      35.643  22.811  26.198  1.00  0.00    -0.469 OA
ATOM     22  C   UNL A   1      37.058  23.187  24.497  1.00  0.00     0.042 A 
ATOM     23  C   UNL A   1      36.891  23.225  25.860  1.00  0.00     0.195 A 
ENDBRANCH  18  19
ENDBRANCH  16  18
ENDBRANCH  13  16
ENDBRANCH  12  13
ENDBRANCH   8  12
ENDBRANCH   4   7
ENDBRANCH   2   3
ENDBRANCH   1   2
BRANCH   1  24
ATOM     24  C   UNL A   1      33.748  27.999  24.857  1.00  0.00     0.002 C 
BRANCH  24  25
ATOM     25  C   UNL A   1      33.314  29.005  25.930  1.00  0.00     0.002 C 
BRANCH  25  26
ATOM     26  C   UNL A   1      33.972  28.817  27.300  1.00  0.00     0.021 C 
BRANCH  26  27
ATOM     27  C   UNL A   1      35.246  29.632  27.508  1.00  0.00     0.116 C 
BRANCH  27  28
ATOM     28  N   UNL A   1      35.234  30.339  28.779  1.00  0.00    -0.352 N 
ATOM     29  C   UNL A   1      36.207  30.398  29.746  1.00  0.00     0.251 C 
ATOM     30  H   UNL A   1      34.412  30.847  28.974  1.00  0.00     0.163 HD
ATOM     31  O   UNL A   1      35.951  30.865  30.851  1.00  0.00    -0.269 OA
BRANCH  29  32
ATOM     32  C   UNL A   1      37.561  29.881  29.452  1.00  0.00     0.039 A 
ATOM     33  C   UNL A   1      38.015  29.870  28.131  1.00  0.00     0.014 A 
ATOM     34  C   UNL A   1      38.379  29.410  30.483  1.00  0.00     0.014 A 
ATOM     35  C   UNL A   1      39.315  29.442  27.850  1.00  0.00     0.010 A 
ATOM     36  C   UNL A   1      39.694  29.043  30.209  1.00  0.00     0.010 A 
ATOM     37  C   UNL A   1      40.175  29.056  28.891  1.00  0.00    -0.014 A 
BRANCH  37  38
ATOM     38  C   UNL A   1      41.583  28.660  28.631  1.00  0.00     0.031 A 
ATOM     39  C   UNL A   1      42.666  29.703  28.629  1.00  0.00     0.074 A 
ATOM     40  C   UNL A   1      41.871  27.383  28.313  1.00  0.00     0.049 A 
ATOM     41  N   UNL A   1      43.927  29.584  28.303  1.00  0.00    -0.248 NA
ATOM     42  C   UNL A   1      42.272  31.067  29.020  1.00  0.00     0.031 C 
ATOM     43  C   UNL A   1      40.900  26.288  28.245  1.00  0.00     0.029 A 
ATOM     44  N   UNL A   1      43.060  26.792  27.965  1.00  0.00    -0.354 N 
ATOM     45  C   UNL A   1      44.472  30.857  28.428  1.00  0.00     0.074 A 
ATOM     46  C   UNL A   1      43.395  31.741  28.818  1.00  0.00     0.031 C 
ATOM     47  C   UNL A   1      41.533  25.159  27.888  1.00  0.00     0.029 A 
ATOM     48  C   UNL A   1      42.945  25.456  27.661  1.00  0.00     0.049 A 
ATOM     49  H   UNL A   1      43.915  27.278  27.937  1.00  0.00     0.167 HD
ATOM     50  C   UNL A   1      45.756  31.249  28.251  1.00  0.00     0.037 A 
ATOM     51  C   UNL A   1      43.867  24.572  27.233  1.00  0.00     0.037 A 
ATOM     52  C   UNL A   1      46.827  30.357  27.890  1.00  0.00     0.049 A 
ATOM     53  C   UNL A   1      45.288  25.031  27.039  1.00  0.00     0.074 A 
ATOM     54  C   UNL A   1      48.173  30.645  27.744  1.00  0.00     0.029 A 
ATOM     55  N   UNL A   1      46.675  29.004  27.621  1.00  0.00    -0.354 N 
ATOM     56  N   UNL A   1      45.797  26.227  27.213  1.00  0.00    -0.248 NA
ATOM     57  C   UNL A   1      46.260  24.023  26.592  1.00  0.00     0.031 C 
ATOM     58  C   UNL A   1      48.829  29.474  27.349  1.00  0.00     0.029 A 
ATOM     59  C   UNL A   1      47.899  28.447  27.292  1.00  0.00     0.049 A 
ATOM     60  H   UNL A   1      45.823  28.513  27.659  1.00  0.00     0.167 HD
ATOM     61  C   UNL A   1      47.153  26.109  26.927  1.00  0.00     0.074 A 
ATOM     62  C   UNL A   1      47.386  24.725  26.571  1.00  0.00     0.031 C 
ATOM     63  C   UNL A   1      48.116  27.061  26.958  1.00  0.00     0.037 A 
BRANCH  50  64
ATOM     64  C   UNL A   1      46.075  32.705  28.447  1.00  0.00     0.058 A 
ATOM     65  C   UNL A   1      45.992  33.625  27.390  1.00  0.00     0.135 A 
ATOM     66  C   UNL A   1      46.435  33.194  29.713  1.00  0.00     0.135 A 
ATOM     67  F   UNL A   1      45.666  33.211  26.156  1.00  0.00    -0.206 F 
ATOM     68  C   UNL A   1      46.286  34.973  27.574  1.00  0.00     0.059 A 
ATOM     69  C   UNL A   1      46.707  34.542  29.926  1.00  0.00     0.059 A 
ATOM     70  F   UNL A   1      46.529  32.358  30.759  1.00  0.00    -0.206 F 
ATOM     71  C   UNL A   1      46.644  35.422  28.846  1.00  0.00     0.060 A 
BRANCH  71  72
ATOM     72  S   UNL A   1      47.022  37.172  29.068  1.00  0.00     0.124 S 
ATOM     73  O   UNL A   1      45.804  37.652  29.716  1.00  0.00    -0.237 OA
ATOM     74  O   UNL A   1      48.213  37.131  29.910  1.00  0.00    -0.237 OA
ATOM     75  O   UNL A   1      47.237  37.650  27.706  1.00  0.00    -0.744 OA
ENDBRANCH  71  72
ENDBRANCH  50  64
BRANCH  51  76
ATOM     76  C   UNL A   1      43.479  23.161  26.972  1.00  0.00     0.058 A 
ATOM     77  C   UNL A   1      43.398  22.667  25.662  1.00  0.00     0.135 A 
ATOM     78  C   UNL A   1      43.201  22.274  28.024  1.00  0.00     0.135 A 
ATOM     79  F   UNL A   1      43.648  23.478  24.623  1.00  0.00    -0.206 F 
ATOM     80  C   UNL A   1      43.042  21.348  25.401  1.00  0.00     0.059 A 
ATOM     81  C   UNL A   1      42.867  20.943  27.789  1.00  0.00     0.059 A 
ATOM     82  F   UNL A   1      43.281  22.692  29.296  1.00  0.00    -0.206 F 
ATOM     83  C   UNL A   1      42.781  20.493  26.473  1.00  0.00     0.060 A 
BRANCH  83  84
ATOM     84  S   UNL A   1      42.370  18.768  26.124  1.00  0.00     0.124 S 
ATOM     85  O   UNL A   1      42.654  18.134  27.407  1.00  0.00    -0.237 OA
ATOM     86  O   UNL A   1      40.961  18.856  25.753  1.00  0.00    -0.237 OA
ATOM     87  O   UNL A   1      43.277  18.422  25.033  1.00  0.00    -0.744 OA
ENDBRANCH  83  84
ENDBRANCH  51  76
BRANCH  63  88
ATOM     88  C   UNL A   1      49.524  26.641  26.639  1.00  0.00     0.058 A 
ATOM     89  C   UNL A   1      50.420  26.243  27.642  1.00  0.00     0.135 A 
ATOM     90  C   UNL A   1      49.951  26.555  25.303  1.00  0.00     0.135 A 
ATOM     91  F   UNL A   1      50.062  26.314  28.934  1.00  0.00    -0.206 F 
ATOM     92  C   UNL A   1      51.694  25.777  27.333  1.00  0.00     0.059 A 
ATOM     93  C   UNL A   1      51.211  26.071  24.971  1.00  0.00     0.059 A 
ATOM     94  F   UNL A   1      49.128  26.917  24.306  1.00  0.00    -0.206 F 
ATOM     95  C   UNL A   1      52.078  25.689  25.994  1.00  0.00     0.060 A 
BRANCH  95  96
ATOM     96  S   UNL A   1      53.709  25.021  25.603  1.00  0.00     0.124 S 
ATOM     97  O   UNL A   1      54.168  25.948  24.574  1.00  0.00    -0.237 OA
ATOM     98  O   UNL A   1      54.398  25.108  26.887  1.00  0.00    -0.237 OA
ATOM     99  O   UNL A   1      53.421  23.665  25.145  1.00  0.00    -0.744 OA
ENDBRANCH  95  96
ENDBRANCH  63  88
ENDBRANCH  37  38
ENDBRANCH  29  32
ENDBRANCH  27  28
ENDBRANCH  26  27
ENDBRANCH  25  26
ENDBRANCH  24  25
ENDBRANCH   1  24
TORSDOF 21
ENDMDL
MODEL 3
REMARK VINA RESULT:     -10.5      5.029     10.364
REMARK SMILES C[C@H](Cc1ccco1)[NH2+]Cc1cc(C(=O)NCCCCCCNC(=O)c2ccc(-c3c4nc(c(-c5c(F)cc(S(=O)(=O)[O-])cc5F)c5ccc([nH]5)c(-c5c(F)cc(S(=O)(=O)[O-])cc5F)c5nc(c(-c6c(F)cc(S(=O)(=O)[O-])cc6F)c6ccc3[nH]6)C=C5)C=C4)cc2)cs1
REMARK SMILES IDX 18 1 17 2 16 3 14 4 15 5 13 7 11 8 12 9 93 10 92 11 10 12
REMARK SMILES IDX 9 13 2 16 1 17 3 18 4 19 5 20 8 21 6 22 7 23 19 24 20 25
REMARK SMILES IDX 21 26 22 27 23 28 24 29 25 31 26 32 27 33 91 34 28 35 90 36
REMARK SMILES IDX 29 37 30 38 31 39 84 40 32 41 89 42 83 43 85 44 33 45 88 46
REMARK SMILES IDX 82 47 81 48 34 50 68 51 47 52 67 53 48 54 51 55 66 56 86 57
REMARK SMILES IDX 49 58 50 59 65 61 87 62 52 63 35 64 36 65 45 66 37 67 38 68
REMARK SMILES IDX 44 69 46 70 39 71 40 72 41 73 42 74 43 75 69 76 70 77 79 78
REMARK SMILES IDX 71 79 72 80 78 81 80 82 73 83 74 84 75 85 76 86 77 87 53 88
REMARK SMILES IDX 54 89 63 90 55 91 56 92 62 93 64 94 57 95 58 96 59 97 60 98
REMARK SMILES IDX 61 99
REMARK H PARENT 16 6 9 14 9 15 23 30 85 49 51 60
REMARK Flexibility Score: inf
ROOT
ATOM      1  C   UNL A   1      38.734  23.719  26.472  1.00  0.00     0.021 C 
ENDROOT
BRANCH   1   2
ATOM      2  C   UNL A   1      37.265  23.706  26.042  1.00  0.00     0.116 C 
BRANCH   2   3
ATOM      3  N   UNL A   1      36.808  22.342  25.859  1.00  0.00    -0.352 N 
ATOM      4  C   UNL A   1      35.650  21.811  25.345  1.00  0.00     0.252 C 
ATOM      5  O   UNL A   1      35.562  20.588  25.316  1.00  0.00    -0.269 OA
ATOM      6  H   UNL A   1      37.455  21.664  26.163  1.00  0.00     0.163 HD
BRANCH   4   7
ATOM      7  C   UNL A   1      34.603  22.666  24.775  1.00  0.00     0.051 A 
ATOM      8  C   UNL A   1      32.984  24.343  24.619  1.00  0.00     0.059 A 
ATOM      9  C   UNL A   1      33.486  23.315  25.397  1.00  0.00     0.035 A 
ATOM     10  S   UNL A   1      33.417  24.112  22.979  1.00  0.00    -0.142 S 
ATOM     11  C   UNL A   1      34.596  22.956  23.418  1.00  0.00     0.079 A 
BRANCH   8  12
ATOM     12  C   UNL A   1      32.196  25.546  25.056  1.00  0.00     0.308 C 
BRANCH  12  13
ATOM     13  N   UNL A   1      32.021  26.523  23.972  1.00  0.00    -0.339 N 
ATOM     14  H   UNL A   1      32.755  27.225  24.071  1.00  0.00     0.346 HD
ATOM     15  H   UNL A   1      32.059  25.968  23.117  1.00  0.00     0.346 HD
BRANCH  13  16
ATOM     16  C   UNL A   1      30.729  27.243  23.894  1.00  0.00     0.187 C 
ATOM     17  C   UNL A   1      29.492  26.389  24.204  1.00  0.00     0.075 C 
BRANCH  16  18
ATOM     18  C   UNL A   1      30.654  27.962  22.506  1.00  0.00     0.140 C 
BRANCH  18  19
ATOM     19  C   UNL A   1      29.917  29.256  22.507  1.00  0.00     0.109 A 
ATOM     20  C   UNL A   1      29.512  30.124  23.499  1.00  0.00     0.046 A 
ATOM     21  O   UNL A   1      29.485  29.704  21.291  1.00  0.00    -0.469 OA
ATOM     22  C   UNL A   1      28.769  31.144  22.856  1.00  0.00     0.042 A 
ATOM     23  C   UNL A   1      28.796  30.852  21.513  1.00  0.00     0.195 A 
ENDBRANCH  18  19
ENDBRANCH  16  18
ENDBRANCH  13  16
ENDBRANCH  12  13
ENDBRANCH   8  12
ENDBRANCH   4   7
ENDBRANCH   2   3
ENDBRANCH   1   2
BRANCH   1  24
ATOM     24  C   UNL A   1      39.365  22.319  26.502  1.00  0.00     0.002 C 
BRANCH  24  25
ATOM     25  C   UNL A   1      40.429  22.112  27.587  1.00  0.00     0.002 C 
BRANCH  25  26
ATOM     26  C   UNL A   1      41.872  22.057  27.078  1.00  0.00     0.021 C 
BRANCH  26  27
ATOM     27  C   UNL A   1      42.641  23.369  27.209  1.00  0.00     0.116 C 
BRANCH  27  28
ATOM     28  N   UNL A   1      42.403  24.250  26.075  1.00  0.00    -0.352 N 
ATOM     29  C   UNL A   1      41.892  25.524  26.062  1.00  0.00     0.251 C 
ATOM     30  H   UNL A   1      42.643  23.881  25.194  1.00  0.00     0.163 HD
ATOM     31  O   UNL A   1      41.559  26.044  25.002  1.00  0.00    -0.269 OA
BRANCH  29  32
ATOM     32  C   UNL A   1      41.731  26.260  27.335  1.00  0.00     0.039 A 
ATOM     33  C   UNL A   1      42.616  27.297  27.639  1.00  0.00     0.014 A 
ATOM     34  C   UNL A   1      40.704  25.924  28.223  1.00  0.00     0.014 A 
ATOM     35  C   UNL A   1      42.435  28.039  28.810  1.00  0.00     0.010 A 
ATOM     36  C   UNL A   1      40.489  26.704  29.356  1.00  0.00     0.010 A 
ATOM     37  C   UNL A   1      41.350  27.769  29.660  1.00  0.00    -0.014 A 
BRANCH  37  38
ATOM     38  C   UNL A   1      41.092  28.583  30.875  1.00  0.00     0.031 A 
ATOM     39  C   UNL A   1      39.994  29.610  30.870  1.00  0.00     0.074 A 
ATOM     40  C   UNL A   1      41.900  28.459  31.947  1.00  0.00     0.049 A 
ATOM     41  N   UNL A   1      39.693  30.502  31.777  1.00  0.00    -0.248 NA
ATOM     42  C   UNL A   1      39.138  29.658  29.672  1.00  0.00     0.031 C 
ATOM     43  C   UNL A   1      43.022  27.524  32.058  1.00  0.00     0.029 A 
ATOM     44  N   UNL A   1      41.915  29.136  33.141  1.00  0.00    -0.354 N 
ATOM     45  C   UNL A   1      38.630  31.230  31.255  1.00  0.00     0.074 A 
ATOM     46  C   UNL A   1      38.367  30.703  29.933  1.00  0.00     0.031 C 
ATOM     47  C   UNL A   1      43.609  27.681  33.255  1.00  0.00     0.029 A 
ATOM     48  C   UNL A   1      42.934  28.752  33.981  1.00  0.00     0.049 A 
ATOM     49  H   UNL A   1      41.258  29.830  33.375  1.00  0.00     0.167 HD
ATOM     50  C   UNL A   1      37.927  32.233  31.831  1.00  0.00     0.037 A 
ATOM     51  C   UNL A   1      43.295  29.221  35.191  1.00  0.00     0.037 A 
ATOM     52  C   UNL A   1      38.177  32.732  33.158  1.00  0.00     0.049 A 
ATOM     53  C   UNL A   1      42.501  30.340  35.812  1.00  0.00     0.074 A 
ATOM     54  C   UNL A   1      37.483  33.705  33.856  1.00  0.00     0.029 A 
ATOM     55  N   UNL A   1      39.199  32.296  33.990  1.00  0.00    -0.354 N 
ATOM     56  N   UNL A   1      41.465  30.981  35.325  1.00  0.00    -0.248 NA
ATOM     57  C   UNL A   1      42.922  30.799  37.143  1.00  0.00     0.031 C 
ATOM     58  C   UNL A   1      38.109  33.885  35.093  1.00  0.00     0.029 A 
ATOM     59  C   UNL A   1      39.166  32.993  35.185  1.00  0.00     0.049 A 
ATOM     60  H   UNL A   1      39.851  31.595  33.762  1.00  0.00     0.167 HD
ATOM     61  C   UNL A   1      41.091  31.897  36.303  1.00  0.00     0.074 A 
ATOM     62  C   UNL A   1      42.011  31.726  37.409  1.00  0.00     0.031 C 
ATOM     63  C   UNL A   1      40.079  32.797  36.284  1.00  0.00     0.037 A 
BRANCH  50  64
ATOM     64  C   UNL A   1      36.817  32.857  31.031  1.00  0.00     0.058 A 
ATOM     65  C   UNL A   1      37.080  33.685  29.929  1.00  0.00     0.135 A 
ATOM     66  C   UNL A   1      35.474  32.598  31.349  1.00  0.00     0.135 A 
ATOM     67  F   UNL A   1      38.345  33.979  29.590  1.00  0.00    -0.206 F 
ATOM     68  C   UNL A   1      36.051  34.260  29.189  1.00  0.00     0.059 A 
ATOM     69  C   UNL A   1      34.429  33.139  30.606  1.00  0.00     0.059 A 
ATOM     70  F   UNL A   1      35.165  31.812  32.393  1.00  0.00    -0.206 F 
ATOM     71  C   UNL A   1      34.728  33.983  29.537  1.00  0.00     0.060 A 
BRANCH  71  72
ATOM     72  S   UNL A   1      33.406  34.736  28.567  1.00  0.00     0.124 S 
ATOM     73  O   UNL A   1      32.414  35.020  29.600  1.00  0.00    -0.237 OA
ATOM     74  O   UNL A   1      34.067  35.900  27.986  1.00  0.00    -0.237 OA
ATOM     75  O   UNL A   1      33.040  33.689  27.619  1.00  0.00    -0.744 OA
ENDBRANCH  71  72
ENDBRANCH  50  64
BRANCH  51  76
ATOM     76  C   UNL A   1      44.456  28.624  35.903  1.00  0.00     0.058 A 
ATOM     77  C   UNL A   1      45.750  29.132  35.724  1.00  0.00     0.135 A 
ATOM     78  C   UNL A   1      44.293  27.548  36.790  1.00  0.00     0.135 A 
ATOM     79  F   UNL A   1      45.957  30.156  34.881  1.00  0.00    -0.206 F 
ATOM     80  C   UNL A   1      46.846  28.590  36.387  1.00  0.00     0.059 A 
ATOM     81  C   UNL A   1      45.370  27.003  37.484  1.00  0.00     0.059 A 
ATOM     82  F   UNL A   1      43.073  27.035  37.010  1.00  0.00    -0.206 F 
ATOM     83  C   UNL A   1      46.644  27.525  37.267  1.00  0.00     0.060 A 
BRANCH  83  84
ATOM     84  S   UNL A   1      48.066  26.861  38.162  1.00  0.00     0.124 S 
ATOM     85  O   UNL A   1      48.017  27.628  39.401  1.00  0.00    -0.237 OA
ATOM     86  O   UNL A   1      47.727  25.445  38.272  1.00  0.00    -0.237 OA
ATOM     87  O   UNL A   1      49.188  27.161  37.277  1.00  0.00    -0.744 OA
ENDBRANCH  83  84
ENDBRANCH  51  76
BRANCH  63  88
ATOM     88  C   UNL A   1      39.875  33.644  37.510  1.00  0.00     0.058 A 
ATOM     89  C   UNL A   1      40.522  34.878  37.668  1.00  0.00     0.135 A 
ATOM     90  C   UNL A   1      38.954  33.251  38.495  1.00  0.00     0.135 A 
ATOM     91  F   UNL A   1      41.416  35.293  36.757  1.00  0.00    -0.206 F 
ATOM     92  C   UNL A   1      40.266  35.695  38.765  1.00  0.00     0.059 A 
ATOM     93  C   UNL A   1      38.667  34.062  39.588  1.00  0.00     0.059 A 
ATOM     94  F   UNL A   1      38.304  32.082  38.386  1.00  0.00    -0.206 F 
ATOM     95  C   UNL A   1      39.332  35.281  39.717  1.00  0.00     0.060 A 
BRANCH  95  96
ATOM     96  S   UNL A   1      38.961  36.379  41.101  1.00  0.00     0.124 S 
ATOM     97  O   UNL A   1      40.250  36.440  41.781  1.00  0.00    -0.237 OA
ATOM     98  O   UNL A   1      38.543  37.603  40.424  1.00  0.00    -0.237 OA
ATOM     99  O   UNL A   1      37.903  35.675  41.819  1.00  0.00    -0.744 OA
ENDBRANCH  95  96
ENDBRANCH  63  88
ENDBRANCH  37  38
ENDBRANCH  29  32
ENDBRANCH  27  28
ENDBRANCH  26  27
ENDBRANCH  25  26
ENDBRANCH  24  25
ENDBRANCH   1  24
TORSDOF 21
ENDMDL
