MODEL 1
REMARK VINA RESULT:     -13.3      0.000      0.000
REMARK SMILES COc1ccc(NC(=O)N[C@@H]2C=C[C@H](C(=O)NCCCCCCNC(=O)c3ccc(-c4c5nc(c(-c6c(F)cc(S(=O)(=O)[O-])cc6F)c6ccc([nH]6)c(-c6c(F)cc(S(=O)(=O)[O-])cc6F)c6nc(c(-c7c(F)cc(S(=O)(=O)[O-])cc7F)c7ccc4[nH]7)C=C6)C=C5)cc3)C2)c(C)c1
REMARK SMILES IDX 20 1 19 2 18 3 17 4 15 5 16 6 14 8 11 9 12 10 93 11 13 12
REMARK SMILES IDX 10 13 7 14 8 15 9 17 6 19 3 20 4 21 96 22 5 23 94 24 95 25
REMARK SMILES IDX 2 26 1 27 21 28 22 29 23 30 24 31 25 32 26 34 27 35 28 36
REMARK SMILES IDX 92 37 29 38 91 39 30 40 31 41 32 42 85 43 33 44 90 45 84 46
REMARK SMILES IDX 86 47 34 48 89 49 83 50 82 51 35 53 69 54 48 55 68 56 49 57
REMARK SMILES IDX 52 58 67 59 87 60 50 61 51 62 66 64 88 65 53 66 36 67 37 68
REMARK SMILES IDX 46 69 38 70 39 71 45 72 47 73 40 74 41 75 42 76 43 77 44 78
REMARK SMILES IDX 70 79 71 80 80 81 72 82 73 83 79 84 81 85 74 86 75 87 76 88
REMARK SMILES IDX 77 89 78 90 54 91 55 92 64 93 56 94 57 95 63 96 65 97 58 98
REMARK SMILES IDX 59 99 60 100 61 101 62 102
REMARK H PARENT 17 7 7 16 10 18 24 33 86 52 52 63
REMARK Flexibility Score: inf
ROOT
ATOM      1  C   UNL A   1      35.464  22.552  23.736  1.00  0.00     0.002 C 
ENDROOT
BRANCH   1   2
ATOM      2  C   UNL A   1      34.717  21.572  24.650  1.00  0.00     0.021 C 
BRANCH   2   3
ATOM      3  C   UNL A   1      33.194  21.630  24.560  1.00  0.00     0.116 C 
BRANCH   3   4
ATOM      4  N   UNL A   1      32.595  21.826  25.866  1.00  0.00    -0.356 N 
ATOM      5  C   UNL A   1      32.228  22.958  26.518  1.00  0.00     0.227 C 
ATOM      6  O   UNL A   1      31.854  22.863  27.688  1.00  0.00    -0.274 OA
ATOM      7  H   UNL A   1      32.425  20.996  26.366  1.00  0.00     0.163 HD
BRANCH   5   8
ATOM      8  C   UNL A   1      32.224  24.272  25.766  1.00  0.00     0.103 C 
ATOM      9  C   UNL A   1      33.222  26.446  25.703  1.00  0.00     0.107 C 
ATOM     10  C   UNL A   1      31.981  26.447  26.550  1.00  0.00    -0.006 C 
ATOM     11  C   UNL A   1      33.597  24.965  25.746  1.00  0.00     0.047 C 
ATOM     12  C   UNL A   1      31.387  25.255  26.532  1.00  0.00    -0.016 C 
BRANCH   9  13
ATOM     13  N   UNL A   1      34.119  27.400  26.263  1.00  0.00    -0.332 N 
ATOM     14  N   UNL A   1      33.325  29.588  25.611  1.00  0.00    -0.308 N 
ATOM     15  C   UNL A   1      34.102  28.735  26.306  1.00  0.00     0.319 C 
ATOM     16  H   UNL A   1      33.552  30.511  25.863  1.00  0.00     0.171 HD
ATOM     17  O   UNL A   1      34.946  29.265  27.043  1.00  0.00    -0.248 OA
ATOM     18  H   UNL A   1      34.903  26.997  26.704  1.00  0.00     0.165 HD
BRANCH  14  19
ATOM     19  C   UNL A   1      32.295  29.611  24.640  1.00  0.00     0.046 A 
ATOM     20  C   UNL A   1      30.177  29.375  22.736  1.00  0.00     0.119 A 
ATOM     21  C   UNL A   1      29.970  30.003  23.946  1.00  0.00     0.048 A 
ATOM     22  C   UNL A   1      31.472  28.962  22.428  1.00  0.00     0.052 A 
ATOM     23  C   UNL A   1      31.034  30.154  24.841  1.00  0.00     0.030 A 
ATOM     24  C   UNL A   1      32.540  29.086  23.354  1.00  0.00    -0.024 A 
ATOM     25  C   UNL A   1      33.911  28.730  22.837  1.00  0.00     0.047 C 
BRANCH  20  26
ATOM     26  O   UNL A   1      29.228  29.171  21.776  1.00  0.00    -0.497 OA
ATOM     27  C   UNL A   1      28.612  30.340  21.239  1.00  0.00     0.278 C 
ENDBRANCH  20  26
ENDBRANCH  14  19
ENDBRANCH   9  13
ENDBRANCH   5   8
ENDBRANCH   3   4
ENDBRANCH   2   3
ENDBRANCH   1   2
BRANCH   1  28
ATOM     28  C   UNL A   1      36.617  23.344  24.372  1.00  0.00     0.002 C 
BRANCH  28  29
ATOM     29  C   UNL A   1      37.555  22.554  25.282  1.00  0.00     0.021 C 
BRANCH  29  30
ATOM     30  C   UNL A   1      38.240  23.414  26.332  1.00  0.00     0.116 C 
BRANCH  30  31
ATOM     31  N   UNL A   1      39.678  23.239  26.384  1.00  0.00    -0.352 N 
ATOM     32  C   UNL A   1      40.634  24.217  26.648  1.00  0.00     0.251 C 
ATOM     33  H   UNL A   1      40.015  22.329  26.215  1.00  0.00     0.163 HD
ATOM     34  O   UNL A   1      41.814  24.030  26.534  1.00  0.00    -0.269 OA
BRANCH  32  35
ATOM     35  C   UNL A   1      40.107  25.499  27.179  1.00  0.00     0.039 A 
ATOM     36  C   UNL A   1      40.457  26.665  26.492  1.00  0.00     0.014 A 
ATOM     37  C   UNL A   1      39.544  25.545  28.452  1.00  0.00     0.014 A 
ATOM     38  C   UNL A   1      40.379  27.889  27.153  1.00  0.00     0.010 A 
ATOM     39  C   UNL A   1      39.551  26.749  29.133  1.00  0.00     0.010 A 
ATOM     40  C   UNL A   1      39.999  27.913  28.497  1.00  0.00    -0.014 A 
BRANCH  40  41
ATOM     41  C   UNL A   1      40.114  29.106  29.330  1.00  0.00     0.031 A 
ATOM     42  C   UNL A   1      39.039  30.123  29.320  1.00  0.00     0.074 A 
ATOM     43  C   UNL A   1      41.205  29.311  30.100  1.00  0.00     0.049 A 
ATOM     44  N   UNL A   1      39.243  31.386  29.497  1.00  0.00    -0.248 NA
ATOM     45  C   UNL A   1      37.639  29.791  29.073  1.00  0.00     0.031 C 
ATOM     46  C   UNL A   1      41.372  30.334  31.130  1.00  0.00     0.029 A 
ATOM     47  N   UNL A   1      42.472  28.752  29.959  1.00  0.00    -0.354 N 
ATOM     48  C   UNL A   1      38.015  31.984  29.645  1.00  0.00     0.074 A 
ATOM     49  C   UNL A   1      37.046  30.965  29.308  1.00  0.00     0.031 C 
ATOM     50  C   UNL A   1      42.682  30.506  31.363  1.00  0.00     0.029 A 
ATOM     51  C   UNL A   1      43.410  29.700  30.400  1.00  0.00     0.049 A 
ATOM     52  H   UNL A   1      42.674  27.853  29.615  1.00  0.00     0.167 HD
ATOM     53  C   UNL A   1      37.916  33.234  30.177  1.00  0.00     0.037 A 
ATOM     54  C   UNL A   1      44.387  30.173  29.571  1.00  0.00     0.037 A 
ATOM     55  C   UNL A   1      39.217  33.781  30.532  1.00  0.00     0.049 A 
ATOM     56  C   UNL A   1      44.312  31.662  29.322  1.00  0.00     0.074 A 
ATOM     57  C   UNL A   1      39.922  33.796  31.725  1.00  0.00     0.029 A 
ATOM     58  N   UNL A   1      40.125  34.126  29.535  1.00  0.00    -0.354 N 
ATOM     59  N   UNL A   1      43.261  32.395  29.568  1.00  0.00    -0.248 NA
ATOM     60  C   UNL A   1      45.410  32.441  28.754  1.00  0.00     0.031 C 
ATOM     61  C   UNL A   1      41.271  34.105  31.440  1.00  0.00     0.029 A 
ATOM     62  C   UNL A   1      41.388  34.294  30.075  1.00  0.00     0.049 A 
ATOM     63  H   UNL A   1      39.901  34.234  28.583  1.00  0.00     0.167 HD
ATOM     64  C   UNL A   1      43.493  33.687  29.162  1.00  0.00     0.074 A 
ATOM     65  C   UNL A   1      44.865  33.670  28.693  1.00  0.00     0.031 C 
ATOM     66  C   UNL A   1      42.528  34.652  29.243  1.00  0.00     0.037 A 
BRANCH  53  67
ATOM     67  C   UNL A   1      36.591  33.765  30.661  1.00  0.00     0.058 A 
ATOM     68  C   UNL A   1      35.612  34.225  29.757  1.00  0.00     0.135 A 
ATOM     69  C   UNL A   1      36.272  33.911  32.025  1.00  0.00     0.135 A 
ATOM     70  F   UNL A   1      35.764  34.101  28.432  1.00  0.00    -0.206 F 
ATOM     71  C   UNL A   1      34.451  34.875  30.172  1.00  0.00     0.059 A 
ATOM     72  C   UNL A   1      35.135  34.598  32.465  1.00  0.00     0.059 A 
ATOM     73  F   UNL A   1      37.079  33.405  32.973  1.00  0.00    -0.206 F 
ATOM     74  C   UNL A   1      34.235  35.088  31.526  1.00  0.00     0.060 A 
BRANCH  74  75
ATOM     75  S   UNL A   1      32.801  36.062  32.025  1.00  0.00     0.124 S 
ATOM     76  O   UNL A   1      31.882  35.037  32.513  1.00  0.00    -0.237 OA
ATOM     77  O   UNL A   1      33.371  36.939  33.042  1.00  0.00    -0.237 OA
ATOM     78  O   UNL A   1      32.390  36.717  30.787  1.00  0.00    -0.744 OA
ENDBRANCH  74  75
ENDBRANCH  53  67
BRANCH  54  79
ATOM     79  C   UNL A   1      44.862  29.167  28.583  1.00  0.00     0.058 A 
ATOM     80  C   UNL A   1      44.280  29.168  27.300  1.00  0.00     0.135 A 
ATOM     81  C   UNL A   1      46.094  28.516  28.736  1.00  0.00     0.135 A 
ATOM     82  F   UNL A   1      43.097  29.772  27.101  1.00  0.00    -0.206 F 
ATOM     83  C   UNL A   1      44.953  28.671  26.190  1.00  0.00     0.059 A 
ATOM     84  C   UNL A   1      46.784  28.006  27.635  1.00  0.00     0.059 A 
ATOM     85  F   UNL A   1      46.700  28.486  29.932  1.00  0.00    -0.206 F 
ATOM     86  C   UNL A   1      46.231  28.141  26.361  1.00  0.00     0.060 A 
BRANCH  86  87
ATOM     87  S   UNL A   1      47.208  27.784  24.882  1.00  0.00     0.124 S 
ATOM     88  O   UNL A   1      48.555  28.136  25.320  1.00  0.00    -0.237 OA
ATOM     89  O   UNL A   1      46.959  26.356  24.695  1.00  0.00    -0.237 OA
ATOM     90  O   UNL A   1      46.622  28.656  23.873  1.00  0.00    -0.744 OA
ENDBRANCH  86  87
ENDBRANCH  54  79
BRANCH  66  91
ATOM     91  C   UNL A   1      42.594  36.049  28.662  1.00  0.00     0.058 A 
ATOM     92  C   UNL A   1      41.979  36.442  27.461  1.00  0.00     0.135 A 
ATOM     93  C   UNL A   1      43.197  37.101  29.402  1.00  0.00     0.135 A 
ATOM     94  F   UNL A   1      41.276  35.574  26.721  1.00  0.00    -0.206 F 
ATOM     95  C   UNL A   1      42.018  37.759  26.992  1.00  0.00     0.059 A 
ATOM     96  C   UNL A   1      43.197  38.428  28.980  1.00  0.00     0.059 A 
ATOM     97  F   UNL A   1      43.800  36.875  30.579  1.00  0.00    -0.206 F 
ATOM     98  C   UNL A   1      42.630  38.746  27.757  1.00  0.00     0.060 A 
BRANCH  98  99
ATOM     99  S   UNL A   1      42.627  40.458  27.194  1.00  0.00     0.124 S 
ATOM    100  O   UNL A   1      42.992  41.167  28.417  1.00  0.00    -0.237 OA
ATOM    101  O   UNL A   1      43.638  40.456  26.141  1.00  0.00    -0.237 OA
ATOM    102  O   UNL A   1      41.256  40.654  26.735  1.00  0.00    -0.744 OA
ENDBRANCH  98  99
ENDBRANCH  66  91
ENDBRANCH  40  41
ENDBRANCH  32  35
ENDBRANCH  30  31
ENDBRANCH  29  30
ENDBRANCH  28  29
ENDBRANCH   1  28
TORSDOF 19
ENDMDL
MODEL 2
REMARK VINA RESULT:     -12.1      1.631      2.366
REMARK SMILES COc1ccc(NC(=O)N[C@@H]2C=C[C@H](C(=O)NCCCCCCNC(=O)c3ccc(-c4c5nc(c(-c6c(F)cc(S(=O)(=O)[O-])cc6F)c6ccc([nH]6)c(-c6c(F)cc(S(=O)(=O)[O-])cc6F)c6nc(c(-c7c(F)cc(S(=O)(=O)[O-])cc7F)c7ccc4[nH]7)C=C6)C=C5)cc3)C2)c(C)c1
REMARK SMILES IDX 20 1 19 2 18 3 17 4 15 5 16 6 14 8 11 9 12 10 93 11 13 12
REMARK SMILES IDX 10 13 7 14 8 15 9 17 6 19 3 20 4 21 96 22 5 23 94 24 95 25
REMARK SMILES IDX 2 26 1 27 21 28 22 29 23 30 24 31 25 32 26 34 27 35 28 36
REMARK SMILES IDX 92 37 29 38 91 39 30 40 31 41 32 42 85 43 33 44 90 45 84 46
REMARK SMILES IDX 86 47 34 48 89 49 83 50 82 51 35 53 69 54 48 55 68 56 49 57
REMARK SMILES IDX 52 58 67 59 87 60 50 61 51 62 66 64 88 65 53 66 36 67 37 68
REMARK SMILES IDX 46 69 38 70 39 71 45 72 47 73 40 74 41 75 42 76 43 77 44 78
REMARK SMILES IDX 70 79 71 80 80 81 72 82 73 83 79 84 81 85 74 86 75 87 76 88
REMARK SMILES IDX 77 89 78 90 54 91 55 92 64 93 56 94 57 95 63 96 65 97 58 98
REMARK SMILES IDX 59 99 60 100 61 101 62 102
REMARK H PARENT 17 7 7 16 10 18 24 33 86 52 52 63
REMARK Flexibility Score: inf
ROOT
ATOM      1  C   UNL A   1      36.392  22.925  24.801  1.00  0.00     0.002 C 
ENDROOT
BRANCH   1   2
ATOM      2  C   UNL A   1      35.706  21.554  24.738  1.00  0.00     0.021 C 
BRANCH   2   3
ATOM      3  C   UNL A   1      34.184  21.583  24.844  1.00  0.00     0.116 C 
BRANCH   3   4
ATOM      4  N   UNL A   1      33.750  21.573  26.229  1.00  0.00    -0.356 N 
ATOM      5  C   UNL A   1      33.116  22.515  26.971  1.00  0.00     0.227 C 
ATOM      6  O   UNL A   1      32.973  22.309  28.177  1.00  0.00    -0.274 OA
ATOM      7  H   UNL A   1      33.951  20.741  26.713  1.00  0.00     0.163 HD
BRANCH   5   8
ATOM      8  C   UNL A   1      32.552  23.739  26.280  1.00  0.00     0.103 C 
ATOM      9  C   UNL A   1      32.288  24.779  24.141  1.00  0.00     0.107 C 
ATOM     10  C   UNL A   1      33.560  25.225  24.803  1.00  0.00    -0.006 C 
ATOM     11  C   UNL A   1      32.041  23.451  24.858  1.00  0.00     0.047 C 
ATOM     12  C   UNL A   1      33.677  24.699  26.022  1.00  0.00    -0.016 C 
BRANCH   9  13
ATOM     13  N   UNL A   1      32.521  24.770  22.736  1.00  0.00    -0.332 N 
ATOM     14  N   UNL A   1      32.902  27.061  22.066  1.00  0.00    -0.308 N 
ATOM     15  C   UNL A   1      32.881  25.728  21.877  1.00  0.00     0.319 C 
ATOM     16  H   UNL A   1      33.215  27.500  21.243  1.00  0.00     0.171 HD
ATOM     17  O   UNL A   1      33.187  25.348  20.738  1.00  0.00    -0.248 OA
ATOM     18  H   UNL A   1      32.391  23.888  22.317  1.00  0.00     0.165 HD
BRANCH  14  19
ATOM     19  C   UNL A   1      32.629  28.048  23.044  1.00  0.00     0.046 A 
ATOM     20  C   UNL A   1      32.000  29.823  25.194  1.00  0.00     0.119 A 
ATOM     21  C   UNL A   1      33.311  29.563  24.854  1.00  0.00     0.048 A 
ATOM     22  C   UNL A   1      30.998  29.283  24.389  1.00  0.00     0.052 A 
ATOM     23  C   UNL A   1      33.596  28.734  23.765  1.00  0.00     0.030 A 
ATOM     24  C   UNL A   1      31.291  28.413  23.306  1.00  0.00    -0.024 A 
ATOM     25  C   UNL A   1      30.124  28.020  22.436  1.00  0.00     0.047 C 
BRANCH  20  26
ATOM     26  O   UNL A   1      31.590  30.618  26.225  1.00  0.00    -0.497 OA
ATOM     27  C   UNL A   1      32.604  31.047  27.132  1.00  0.00     0.278 C 
ENDBRANCH  20  26
ENDBRANCH  14  19
ENDBRANCH   9  13
ENDBRANCH   5   8
ENDBRANCH   3   4
ENDBRANCH   2   3
ENDBRANCH   1   2
BRANCH   1  28
ATOM     28  C   UNL A   1      37.661  23.020  25.663  1.00  0.00     0.002 C 
BRANCH  28  29
ATOM     29  C   UNL A   1      38.612  21.828  25.596  1.00  0.00     0.021 C 
BRANCH  29  30
ATOM     30  C   UNL A   1      39.739  21.899  26.613  1.00  0.00     0.116 C 
BRANCH  30  31
ATOM     31  N   UNL A   1      41.049  22.090  26.022  1.00  0.00    -0.352 N 
ATOM     32  C   UNL A   1      41.725  23.296  25.849  1.00  0.00     0.251 C 
ATOM     33  H   UNL A   1      41.512  21.278  25.709  1.00  0.00     0.163 HD
ATOM     34  O   UNL A   1      42.744  23.394  25.223  1.00  0.00    -0.269 OA
BRANCH  32  35
ATOM     35  C   UNL A   1      41.154  24.458  26.575  1.00  0.00     0.039 A 
ATOM     36  C   UNL A   1      41.193  25.695  25.926  1.00  0.00     0.014 A 
ATOM     37  C   UNL A   1      40.869  24.357  27.934  1.00  0.00     0.014 A 
ATOM     38  C   UNL A   1      41.093  26.861  26.684  1.00  0.00     0.010 A 
ATOM     39  C   UNL A   1      40.858  25.513  28.693  1.00  0.00     0.010 A 
ATOM     40  C   UNL A   1      41.003  26.761  28.075  1.00  0.00    -0.014 A 
BRANCH  40  41
ATOM     41  C   UNL A   1      41.129  27.914  28.960  1.00  0.00     0.031 A 
ATOM     42  C   UNL A   1      40.017  28.884  29.077  1.00  0.00     0.074 A 
ATOM     43  C   UNL A   1      42.262  28.127  29.665  1.00  0.00     0.049 A 
ATOM     44  N   UNL A   1      40.184  30.144  29.306  1.00  0.00    -0.248 NA
ATOM     45  C   UNL A   1      38.617  28.506  28.907  1.00  0.00     0.031 C 
ATOM     46  C   UNL A   1      42.461  29.103  30.734  1.00  0.00     0.029 A 
ATOM     47  N   UNL A   1      43.537  27.629  29.410  1.00  0.00    -0.354 N 
ATOM     48  C   UNL A   1      38.947  30.681  29.568  1.00  0.00     0.074 A 
ATOM     49  C   UNL A   1      37.997  29.641  29.243  1.00  0.00     0.031 C 
ATOM     50  C   UNL A   1      43.776  29.318  30.887  1.00  0.00     0.029 A 
ATOM     51  C   UNL A   1      44.466  28.593  29.835  1.00  0.00     0.049 A 
ATOM     52  H   UNL A   1      43.750  26.758  29.005  1.00  0.00     0.167 HD
ATOM     53  C   UNL A   1      38.837  31.898  30.170  1.00  0.00     0.037 A 
ATOM     54  C   UNL A   1      45.364  29.147  28.969  1.00  0.00     0.037 A 
ATOM     55  C   UNL A   1      40.138  32.481  30.465  1.00  0.00     0.049 A 
ATOM     56  C   UNL A   1      45.214  30.643  28.805  1.00  0.00     0.074 A 
ATOM     57  C   UNL A   1      40.922  32.466  31.607  1.00  0.00     0.029 A 
ATOM     58  N   UNL A   1      40.960  32.913  29.429  1.00  0.00    -0.354 N 
ATOM     59  N   UNL A   1      44.155  31.317  29.159  1.00  0.00    -0.248 NA
ATOM     60  C   UNL A   1      46.239  31.495  28.205  1.00  0.00     0.031 C 
ATOM     61  C   UNL A   1      42.236  32.846  31.249  1.00  0.00     0.029 A 
ATOM     62  C   UNL A   1      42.250  33.108  29.891  1.00  0.00     0.049 A 
ATOM     63  H   UNL A   1      40.666  33.060  28.502  1.00  0.00     0.167 HD
ATOM     64  C   UNL A   1      44.309  32.636  28.808  1.00  0.00     0.074 A 
ATOM     65  C   UNL A   1      45.644  32.701  28.246  1.00  0.00     0.031 C 
ATOM     66  C   UNL A   1      43.315  33.555  29.004  1.00  0.00     0.037 A 
BRANCH  53  67
ATOM     67  C   UNL A   1      37.529  32.348  30.770  1.00  0.00     0.058 A 
ATOM     68  C   UNL A   1      36.635  33.165  30.048  1.00  0.00     0.135 A 
ATOM     69  C   UNL A   1      37.148  32.056  32.094  1.00  0.00     0.135 A 
ATOM     70  F   UNL A   1      36.850  33.478  28.764  1.00  0.00    -0.206 F 
ATOM     71  C   UNL A   1      35.503  33.735  30.627  1.00  0.00     0.059 A 
ATOM     72  C   UNL A   1      36.042  32.651  32.710  1.00  0.00     0.059 A 
ATOM     73  F   UNL A   1      37.865  31.196  32.837  1.00  0.00    -0.206 F 
ATOM     74  C   UNL A   1      35.230  33.501  31.967  1.00  0.00     0.060 A 
BRANCH  74  75
ATOM     75  S   UNL A   1      33.845  34.371  32.727  1.00  0.00     0.124 S 
ATOM     76  O   UNL A   1      33.194  34.988  31.574  1.00  0.00    -0.237 OA
ATOM     77  O   UNL A   1      33.112  33.279  33.360  1.00  0.00    -0.237 OA
ATOM     78  O   UNL A   1      34.494  35.308  33.640  1.00  0.00    -0.744 OA
ENDBRANCH  74  75
ENDBRANCH  53  67
BRANCH  54  79
ATOM     79  C   UNL A   1      45.808  28.213  27.899  1.00  0.00     0.058 A 
ATOM     80  C   UNL A   1      45.132  28.247  26.664  1.00  0.00     0.135 A 
ATOM     81  C   UNL A   1      47.076  27.616  27.928  1.00  0.00     0.135 A 
ATOM     82  F   UNL A   1      43.911  28.800  26.583  1.00  0.00    -0.206 F 
ATOM     83  C   UNL A   1      45.740  27.835  25.484  1.00  0.00     0.059 A 
ATOM     84  C   UNL A   1      47.703  27.192  26.756  1.00  0.00     0.059 A 
ATOM     85  F   UNL A   1      47.770  27.560  29.074  1.00  0.00    -0.206 F 
ATOM     86  C   UNL A   1      47.050  27.360  25.534  1.00  0.00     0.060 A 
BRANCH  86  87
ATOM     87  S   UNL A   1      47.928  27.121  23.972  1.00  0.00     0.124 S 
ATOM     88  O   UNL A   1      47.249  28.071  23.097  1.00  0.00    -0.237 OA
ATOM     89  O   UNL A   1      49.298  27.473  24.341  1.00  0.00    -0.237 OA
ATOM     90  O   UNL A   1      47.706  25.713  23.673  1.00  0.00    -0.744 OA
ENDBRANCH  86  87
ENDBRANCH  54  79
BRANCH  66  91
ATOM     91  C   UNL A   1      43.286  34.981  28.495  1.00  0.00     0.058 A 
ATOM     92  C   UNL A   1      43.065  35.343  27.156  1.00  0.00     0.135 A 
ATOM     93  C   UNL A   1      43.356  36.066  29.409  1.00  0.00     0.135 A 
ATOM     94  F   UNL A   1      42.864  34.419  26.206  1.00  0.00    -0.206 F 
ATOM     95  C   UNL A   1      42.989  36.677  26.740  1.00  0.00     0.059 A 
ATOM     96  C   UNL A   1      43.227  37.398  29.024  1.00  0.00     0.059 A 
ATOM     97  F   UNL A   1      43.540  35.866  30.722  1.00  0.00    -0.206 F 
ATOM     98  C   UNL A   1      43.071  37.698  27.681  1.00  0.00     0.060 A 
BRANCH  98  99
ATOM     99  S   UNL A   1      42.908  39.417  27.165  1.00  0.00     0.124 S 
ATOM    100  O   UNL A   1      41.697  39.362  26.351  1.00  0.00    -0.237 OA
ATOM    101  O   UNL A   1      42.782  40.128  28.434  1.00  0.00    -0.237 OA
ATOM    102  O   UNL A   1      44.148  39.665  26.438  1.00  0.00    -0.744 OA
ENDBRANCH  98  99
ENDBRANCH  66  91
ENDBRANCH  40  41
ENDBRANCH  32  35
ENDBRANCH  30  31
ENDBRANCH  29  30
ENDBRANCH  28  29
ENDBRANCH   1  28
TORSDOF 19
ENDMDL
MODEL 3
REMARK VINA RESULT:     -11.9      1.885      2.566
REMARK SMILES COc1ccc(NC(=O)N[C@@H]2C=C[C@H](C(=O)NCCCCCCNC(=O)c3ccc(-c4c5nc(c(-c6c(F)cc(S(=O)(=O)[O-])cc6F)c6ccc([nH]6)c(-c6c(F)cc(S(=O)(=O)[O-])cc6F)c6nc(c(-c7c(F)cc(S(=O)(=O)[O-])cc7F)c7ccc4[nH]7)C=C6)C=C5)cc3)C2)c(C)c1
REMARK SMILES IDX 20 1 19 2 18 3 17 4 15 5 16 6 14 8 11 9 12 10 93 11 13 12
REMARK SMILES IDX 10 13 7 14 8 15 9 17 6 19 3 20 4 21 96 22 5 23 94 24 95 25
REMARK SMILES IDX 2 26 1 27 21 28 22 29 23 30 24 31 25 32 26 34 27 35 28 36
REMARK SMILES IDX 92 37 29 38 91 39 30 40 31 41 32 42 85 43 33 44 90 45 84 46
REMARK SMILES IDX 86 47 34 48 89 49 83 50 82 51 35 53 69 54 48 55 68 56 49 57
REMARK SMILES IDX 52 58 67 59 87 60 50 61 51 62 66 64 88 65 53 66 36 67 37 68
REMARK SMILES IDX 46 69 38 70 39 71 45 72 47 73 40 74 41 75 42 76 43 77 44 78
REMARK SMILES IDX 70 79 71 80 80 81 72 82 73 83 79 84 81 85 74 86 75 87 76 88
REMARK SMILES IDX 77 89 78 90 54 91 55 92 64 93 56 94 57 95 63 96 65 97 58 98
REMARK SMILES IDX 59 99 60 100 61 101 62 102
REMARK H PARENT 17 7 7 16 10 18 24 33 86 52 52 63
REMARK Flexibility Score: inf
ROOT
ATOM      1  C   UNL A   1      37.183  23.503  25.037  1.00  0.00     0.002 C 
ENDROOT
BRANCH   1   2
ATOM      2  C   UNL A   1      36.804  22.381  24.061  1.00  0.00     0.021 C 
BRANCH   2   3
ATOM      3  C   UNL A   1      35.397  21.815  24.235  1.00  0.00     0.116 C 
BRANCH   3   4
ATOM      4  N   UNL A   1      35.146  21.438  25.613  1.00  0.00    -0.356 N 
ATOM      5  C   UNL A   1      34.159  21.800  26.471  1.00  0.00     0.227 C 
ATOM      6  O   UNL A   1      34.243  21.436  27.645  1.00  0.00    -0.274 OA
ATOM      7  H   UNL A   1      35.804  20.812  25.991  1.00  0.00     0.163 HD
BRANCH   5   8
ATOM      8  C   UNL A   1      32.968  22.569  25.939  1.00  0.00     0.103 C 
ATOM      9  C   UNL A   1      31.685  24.566  26.245  1.00  0.00     0.107 C 
ATOM     10  C   UNL A   1      31.123  23.436  27.057  1.00  0.00    -0.006 C 
ATOM     11  C   UNL A   1      33.128  24.094  26.056  1.00  0.00     0.047 C 
ATOM     12  C   UNL A   1      31.794  22.306  26.838  1.00  0.00    -0.016 C 
BRANCH   9  13
ATOM     13  N   UNL A   1      31.445  25.770  26.968  1.00  0.00    -0.332 N 
ATOM     14  N   UNL A   1      31.383  27.566  25.351  1.00  0.00    -0.308 N 
ATOM     15  C   UNL A   1      31.217  27.026  26.573  1.00  0.00     0.319 C 
ATOM     16  H   UNL A   1      31.129  28.516  25.379  1.00  0.00     0.171 HD
ATOM     17  O   UNL A   1      30.853  27.815  27.458  1.00  0.00    -0.248 OA
ATOM     18  H   UNL A   1      31.447  25.654  27.946  1.00  0.00     0.165 HD
BRANCH  14  19
ATOM     19  C   UNL A   1      31.798  27.235  24.038  1.00  0.00     0.046 A 
ATOM     20  C   UNL A   1      32.685  26.299  21.488  1.00  0.00     0.119 A 
ATOM     21  C   UNL A   1      31.346  26.528  21.729  1.00  0.00     0.048 A 
ATOM     22  C   UNL A   1      33.595  26.642  22.486  1.00  0.00     0.052 A 
ATOM     23  C   UNL A   1      30.940  27.037  22.966  1.00  0.00     0.030 A 
ATOM     24  C   UNL A   1      33.175  27.124  23.753  1.00  0.00    -0.024 A 
ATOM     25  C   UNL A   1      34.268  27.590  24.682  1.00  0.00     0.047 C 
BRANCH  20  26
ATOM     26  O   UNL A   1      33.210  25.813  20.325  1.00  0.00    -0.497 OA
ATOM     27  C   UNL A   1      32.271  25.408  19.330  1.00  0.00     0.278 C 
ENDBRANCH  20  26
ENDBRANCH  14  19
ENDBRANCH   9  13
ENDBRANCH   5   8
ENDBRANCH   3   4
ENDBRANCH   2   3
ENDBRANCH   1   2
BRANCH   1  28
ATOM     28  C   UNL A   1      38.232  23.161  26.105  1.00  0.00     0.002 C 
BRANCH  28  29
ATOM     29  C   UNL A   1      39.032  21.880  25.878  1.00  0.00     0.021 C 
BRANCH  29  30
ATOM     30  C   UNL A   1      40.317  21.820  26.688  1.00  0.00     0.116 C 
BRANCH  30  31
ATOM     31  N   UNL A   1      41.508  22.122  25.919  1.00  0.00    -0.352 N 
ATOM     32  C   UNL A   1      42.048  23.382  25.667  1.00  0.00     0.251 C 
ATOM     33  H   UNL A   1      41.988  21.353  25.534  1.00  0.00     0.163 HD
ATOM     34  O   UNL A   1      42.955  23.566  24.903  1.00  0.00    -0.269 OA
BRANCH  32  35
ATOM     35  C   UNL A   1      41.491  24.491  26.480  1.00  0.00     0.039 A 
ATOM     36  C   UNL A   1      41.425  25.751  25.879  1.00  0.00     0.014 A 
ATOM     37  C   UNL A   1      41.322  24.330  27.852  1.00  0.00     0.014 A 
ATOM     38  C   UNL A   1      41.339  26.883  26.687  1.00  0.00     0.010 A 
ATOM     39  C   UNL A   1      41.325  25.456  28.655  1.00  0.00     0.010 A 
ATOM     40  C   UNL A   1      41.368  26.731  28.076  1.00  0.00    -0.014 A 
BRANCH  40  41
ATOM     41  C   UNL A   1      41.517  27.857  28.991  1.00  0.00     0.031 A 
ATOM     42  C   UNL A   1      40.402  28.809  29.183  1.00  0.00     0.074 A 
ATOM     43  C   UNL A   1      42.675  28.059  29.658  1.00  0.00     0.049 A 
ATOM     44  N   UNL A   1      40.565  30.064  29.446  1.00  0.00    -0.248 NA
ATOM     45  C   UNL A   1      38.999  28.421  29.057  1.00  0.00     0.031 C 
ATOM     46  C   UNL A   1      42.907  29.003  30.748  1.00  0.00     0.029 A 
ATOM     47  N   UNL A   1      43.944  27.584  29.336  1.00  0.00    -0.354 N 
ATOM     48  C   UNL A   1      39.334  30.578  29.774  1.00  0.00     0.074 A 
ATOM     49  C   UNL A   1      38.382  29.538  29.454  1.00  0.00     0.031 C 
ATOM     50  C   UNL A   1      44.225  29.228  30.856  1.00  0.00     0.029 A 
ATOM     51  C   UNL A   1      44.880  28.544  29.755  1.00  0.00     0.049 A 
ATOM     52  H   UNL A   1      44.149  26.729  28.895  1.00  0.00     0.167 HD
ATOM     53  C   UNL A   1      39.236  31.774  30.420  1.00  0.00     0.037 A 
ATOM     54  C   UNL A   1      45.737  29.136  28.872  1.00  0.00     0.037 A 
ATOM     55  C   UNL A   1      40.542  32.362  30.681  1.00  0.00     0.049 A 
ATOM     56  C   UNL A   1      45.566  30.634  28.762  1.00  0.00     0.074 A 
ATOM     57  C   UNL A   1      41.371  32.319  31.790  1.00  0.00     0.029 A 
ATOM     58  N   UNL A   1      41.318  32.836  29.628  1.00  0.00    -0.354 N 
ATOM     59  N   UNL A   1      44.515  31.285  29.180  1.00  0.00    -0.248 NA
ATOM     60  C   UNL A   1      46.557  31.516  28.151  1.00  0.00     0.031 C 
ATOM     61  C   UNL A   1      42.666  32.725  31.392  1.00  0.00     0.029 A 
ATOM     62  C   UNL A   1      42.623  33.030  30.044  1.00  0.00     0.049 A 
ATOM     63  H   UNL A   1      40.986  33.009  28.718  1.00  0.00     0.167 HD
ATOM     64  C   UNL A   1      44.641  32.616  28.865  1.00  0.00     0.074 A 
ATOM     65  C   UNL A   1      45.953  32.713  28.254  1.00  0.00     0.031 C 
ATOM     66  C   UNL A   1      43.647  33.517  29.130  1.00  0.00     0.037 A 
BRANCH  53  67
ATOM     67  C   UNL A   1      37.949  32.190  31.084  1.00  0.00     0.058 A 
ATOM     68  C   UNL A   1      37.025  33.030  30.431  1.00  0.00     0.135 A 
ATOM     69  C   UNL A   1      37.618  31.841  32.409  1.00  0.00     0.135 A 
ATOM     70  F   UNL A   1      37.191  33.398  29.154  1.00  0.00    -0.206 F 
ATOM     71  C   UNL A   1      35.912  33.568  31.074  1.00  0.00     0.059 A 
ATOM     72  C   UNL A   1      36.532  32.402  33.088  1.00  0.00     0.059 A 
ATOM     73  F   UNL A   1      38.366  30.955  33.088  1.00  0.00    -0.206 F 
ATOM     74  C   UNL A   1      35.690  33.277  32.413  1.00  0.00     0.060 A 
BRANCH  74  75
ATOM     75  S   UNL A   1      34.329  34.106  33.259  1.00  0.00     0.124 S 
ATOM     76  O   UNL A   1      33.306  33.064  33.298  1.00  0.00    -0.237 OA
ATOM     77  O   UNL A   1      34.934  34.448  34.541  1.00  0.00    -0.237 OA
ATOM     78  O   UNL A   1      34.024  35.234  32.383  1.00  0.00    -0.744 OA
ENDBRANCH  74  75
ENDBRANCH  53  67
BRANCH  54  79
ATOM     79  C   UNL A   1      46.147  28.241  27.756  1.00  0.00     0.058 A 
ATOM     80  C   UNL A   1      45.427  28.313  26.547  1.00  0.00     0.135 A 
ATOM     81  C   UNL A   1      47.418  27.651  27.720  1.00  0.00     0.135 A 
ATOM     82  F   UNL A   1      44.201  28.862  26.529  1.00  0.00    -0.206 F 
ATOM     83  C   UNL A   1      45.995  27.945  25.333  1.00  0.00     0.059 A 
ATOM     84  C   UNL A   1      48.005  27.271  26.512  1.00  0.00     0.059 A 
ATOM     85  F   UNL A   1      48.153  27.560  28.838  1.00  0.00    -0.206 F 
ATOM     86  C   UNL A   1      47.308  27.477  25.321  1.00  0.00     0.060 A 
BRANCH  86  87
ATOM     87  S   UNL A   1      48.131  27.296  23.721  1.00  0.00     0.124 S 
ATOM     88  O   UNL A   1      47.265  28.081  22.847  1.00  0.00    -0.237 OA
ATOM     89  O   UNL A   1      49.444  27.876  23.992  1.00  0.00    -0.237 OA
ATOM     90  O   UNL A   1      48.120  25.856  23.498  1.00  0.00    -0.744 OA
ENDBRANCH  86  87
ENDBRANCH  54  79
BRANCH  66  91
ATOM     91  C   UNL A   1      43.584  34.958  28.669  1.00  0.00     0.058 A 
ATOM     92  C   UNL A   1      43.781  36.070  29.505  1.00  0.00     0.135 A 
ATOM     93  C   UNL A   1      43.444  35.259  27.288  1.00  0.00     0.135 A 
ATOM     94  F   UNL A   1      44.040  35.925  30.811  1.00  0.00    -0.206 F 
ATOM     95  C   UNL A   1      43.770  37.384  29.024  1.00  0.00     0.059 A 
ATOM     96  C   UNL A   1      43.487  36.556  26.782  1.00  0.00     0.059 A 
ATOM     97  F   UNL A   1      43.273  34.294  26.373  1.00  0.00    -0.206 F 
ATOM     98  C   UNL A   1      43.622  37.617  27.661  1.00  0.00     0.060 A 
BRANCH  98  99
ATOM     99  S   UNL A   1      43.674  39.302  27.022  1.00  0.00     0.124 S 
ATOM    100  O   UNL A   1      44.905  39.277  26.236  1.00  0.00    -0.237 OA
ATOM    101  O   UNL A   1      42.437  39.397  26.253  1.00  0.00    -0.237 OA
ATOM    102  O   UNL A   1      43.714  40.115  28.233  1.00  0.00    -0.744 OA
ENDBRANCH  98  99
ENDBRANCH  66  91
ENDBRANCH  40  41
ENDBRANCH  32  35
ENDBRANCH  30  31
ENDBRANCH  29  30
ENDBRANCH  28  29
ENDBRANCH   1  28
TORSDOF 19
ENDMDL
