MODEL 1
REMARK VINA RESULT:     -12.1      0.000      0.000
REMARK SMILES NC(=O)c1ccccc1NC(=O)[C@@H]1CC=CC[C@@H]1C(=O)NCCCCCCNC(=O)c1ccc(-c2c3nc(c(-c4c(F)cc(S(=O)(=O)[O-])cc4F)c4ccc([nH]4)c(-c4c(F)cc(S(=O)(=O)[O-])cc4F)c4nc(c(-c5c(F)cc(S(=O)(=O)[O-])cc5F)c5ccc2[nH]5)C=C4)C=C3)cc1
REMARK SMILES IDX 24 1 23 2 22 3 21 4 19 5 20 6 18 8 13 9 14 10 15 11 17 12
REMARK SMILES IDX 16 13 11 14 10 15 12 17 9 18 4 19 5 20 6 21 8 22 7 23 2 24
REMARK SMILES IDX 1 25 3 28 25 29 26 30 27 31 28 32 29 33 30 35 31 36 32 37
REMARK SMILES IDX 96 38 33 39 95 40 34 41 35 42 36 43 89 44 37 45 94 46 88 47
REMARK SMILES IDX 90 48 38 49 93 50 87 51 86 52 39 54 73 55 52 56 72 57 53 58
REMARK SMILES IDX 56 59 71 60 91 61 54 62 55 63 70 65 92 66 57 67 40 68 41 69
REMARK SMILES IDX 50 70 42 71 43 72 49 73 51 74 44 75 45 76 46 77 47 78 48 79
REMARK SMILES IDX 74 80 75 81 84 82 76 83 77 84 83 85 85 86 78 87 79 88 80 89
REMARK SMILES IDX 81 90 82 91 58 92 59 93 68 94 60 95 61 96 67 97 69 98 62 99
REMARK SMILES IDX 63 100 64 101 65 102 66 103
REMARK H PARENT 21 7 10 16 1 26 1 27 28 34 90 53 56 64
REMARK Flexibility Score: inf
ROOT
ATOM      1  C   UNL A   1      39.048  22.135  26.417  1.00  0.00     0.002 C 
ENDROOT
BRANCH   1   2
ATOM      2  C   UNL A   1      38.546  23.576  26.432  1.00  0.00     0.021 C 
BRANCH   2   3
ATOM      3  C   UNL A   1      37.173  23.756  25.797  1.00  0.00     0.116 C 
BRANCH   3   4
ATOM      4  N   UNL A   1      36.105  23.089  26.511  1.00  0.00    -0.356 N 
ATOM      5  C   UNL A   1      34.756  23.130  26.439  1.00  0.00     0.224 C 
ATOM      6  O   UNL A   1      34.185  22.305  27.171  1.00  0.00    -0.275 OA
ATOM      7  H   UNL A   1      36.435  22.468  27.200  1.00  0.00     0.163 HD
BRANCH   5   8
ATOM      8  C   UNL A   1      33.903  23.972  25.475  1.00  0.00     0.095 C 
ATOM      9  C   UNL A   1      32.380  23.835  25.355  1.00  0.00     0.095 C 
ATOM     10  C   UNL A   1      32.039  22.419  24.783  1.00  0.00     0.041 C 
ATOM     11  C   UNL A   1      32.995  21.927  23.724  1.00  0.00    -0.030 C 
ATOM     12  C   UNL A   1      34.490  23.874  24.041  1.00  0.00     0.041 C 
ATOM     13  C   UNL A   1      34.097  22.600  23.365  1.00  0.00    -0.030 C 
BRANCH   9  14
ATOM     14  C   UNL A   1      31.478  24.243  26.548  1.00  0.00     0.228 C 
ATOM     15  N   UNL A   1      30.771  25.421  26.619  1.00  0.00    -0.325 N 
ATOM     16  H   UNL A   1      30.350  25.593  27.492  1.00  0.00     0.169 HD
ATOM     17  O   UNL A   1      31.405  23.492  27.528  1.00  0.00    -0.274 OA
BRANCH  15  18
ATOM     18  C   UNL A   1      30.546  26.423  25.656  1.00  0.00     0.053 A 
ATOM     19  C   UNL A   1      31.350  27.580  25.604  1.00  0.00     0.063 A 
ATOM     20  C   UNL A   1      31.284  28.438  24.497  1.00  0.00     0.016 A 
ATOM     21  C   UNL A   1      30.358  28.199  23.490  1.00  0.00     0.001 A 
ATOM     22  C   UNL A   1      29.544  26.261  24.697  1.00  0.00     0.027 A 
ATOM     23  C   UNL A   1      29.457  27.142  23.615  1.00  0.00     0.002 A 
BRANCH  19  24
ATOM     24  C   UNL A   1      32.262  27.951  26.702  1.00  0.00     0.250 C 
ATOM     25  N   UNL A   1      31.818  28.909  27.579  1.00  0.00    -0.366 N 
ATOM     26  H   UNL A   1      32.388  29.192  28.330  1.00  0.00     0.159 HD
ATOM     27  H   UNL A   1      30.928  29.313  27.456  1.00  0.00     0.159 HD
ATOM     28  O   UNL A   1      33.354  27.420  26.807  1.00  0.00    -0.269 OA
ENDBRANCH  19  24
ENDBRANCH  15  18
ENDBRANCH   9  14
ENDBRANCH   5   8
ENDBRANCH   3   4
ENDBRANCH   2   3
ENDBRANCH   1   2
BRANCH   1  29
ATOM     29  C   UNL A   1      40.566  21.987  26.554  1.00  0.00     0.002 C 
BRANCH  29  30
ATOM     30  C   UNL A   1      41.197  22.384  27.878  1.00  0.00     0.021 C 
BRANCH  30  31
ATOM     31  C   UNL A   1      42.191  23.518  27.777  1.00  0.00     0.116 C 
BRANCH  31  32
ATOM     32  N   UNL A   1      42.185  24.175  26.477  1.00  0.00    -0.352 N 
ATOM     33  C   UNL A   1      41.849  25.466  26.160  1.00  0.00     0.251 C 
ATOM     34  H   UNL A   1      42.461  23.612  25.717  1.00  0.00     0.163 HD
ATOM     35  O   UNL A   1      41.810  25.829  24.990  1.00  0.00    -0.269 OA
BRANCH  33  36
ATOM     36  C   UNL A   1      41.500  26.391  27.252  1.00  0.00     0.039 A 
ATOM     37  C   UNL A   1      40.448  26.065  28.108  1.00  0.00     0.014 A 
ATOM     38  C   UNL A   1      42.265  27.540  27.465  1.00  0.00     0.014 A 
ATOM     39  C   UNL A   1      40.196  26.876  29.212  1.00  0.00     0.010 A 
ATOM     40  C   UNL A   1      42.097  28.266  28.631  1.00  0.00     0.010 A 
ATOM     41  C   UNL A   1      41.036  27.965  29.494  1.00  0.00    -0.014 A 
BRANCH  41  42
ATOM     42  C   UNL A   1      40.780  28.855  30.649  1.00  0.00     0.031 A 
ATOM     43  C   UNL A   1      41.623  28.709  31.889  1.00  0.00     0.074 A 
ATOM     44  C   UNL A   1      39.770  29.743  30.596  1.00  0.00     0.049 A 
ATOM     45  N   UNL A   1      41.544  29.354  33.022  1.00  0.00    -0.248 NA
ATOM     46  C   UNL A   1      42.661  27.663  31.871  1.00  0.00     0.031 C 
ATOM     47  C   UNL A   1      38.838  29.905  29.476  1.00  0.00     0.029 A 
ATOM     48  N   UNL A   1      39.360  30.681  31.506  1.00  0.00    -0.354 N 
ATOM     49  C   UNL A   1      42.497  28.773  33.851  1.00  0.00     0.074 A 
ATOM     50  C   UNL A   1      43.084  27.673  33.123  1.00  0.00     0.031 C 
ATOM     51  C   UNL A   1      37.995  30.915  29.748  1.00  0.00     0.029 A 
ATOM     52  C   UNL A   1      38.311  31.453  31.067  1.00  0.00     0.049 A 
ATOM     53  H   UNL A   1      39.777  30.791  32.391  1.00  0.00     0.167 HD
ATOM     54  C   UNL A   1      42.881  29.151  35.092  1.00  0.00     0.037 A 
ATOM     55  C   UNL A   1      37.692  32.490  31.662  1.00  0.00     0.037 A 
ATOM     56  C   UNL A   1      42.329  30.289  35.776  1.00  0.00     0.049 A 
ATOM     57  C   UNL A   1      38.188  32.944  33.007  1.00  0.00     0.074 A 
ATOM     58  C   UNL A   1      42.685  30.816  37.003  1.00  0.00     0.029 A 
ATOM     59  N   UNL A   1      41.308  31.086  35.274  1.00  0.00    -0.354 N 
ATOM     60  N   UNL A   1      39.139  32.430  33.752  1.00  0.00    -0.248 NA
ATOM     61  C   UNL A   1      37.544  34.131  33.584  1.00  0.00     0.031 C 
ATOM     62  C   UNL A   1      41.861  31.919  37.255  1.00  0.00     0.029 A 
ATOM     63  C   UNL A   1      41.020  32.101  36.168  1.00  0.00     0.049 A 
ATOM     64  H   UNL A   1      40.858  30.948  34.411  1.00  0.00     0.167 HD
ATOM     65  C   UNL A   1      39.223  33.242  34.877  1.00  0.00     0.074 A 
ATOM     66  C   UNL A   1      38.239  34.294  34.701  1.00  0.00     0.031 C 
ATOM     67  C   UNL A   1      40.033  33.132  35.959  1.00  0.00     0.037 A 
BRANCH  54  68
ATOM     68  C   UNL A   1      43.957  28.340  35.761  1.00  0.00     0.058 A 
ATOM     69  C   UNL A   1      43.650  27.270  36.618  1.00  0.00     0.135 A 
ATOM     70  C   UNL A   1      45.312  28.642  35.555  1.00  0.00     0.135 A 
ATOM     71  F   UNL A   1      42.370  26.951  36.870  1.00  0.00    -0.206 F 
ATOM     72  C   UNL A   1      44.644  26.554  37.278  1.00  0.00     0.059 A 
ATOM     73  C   UNL A   1      46.325  27.919  36.181  1.00  0.00     0.059 A 
ATOM     74  F   UNL A   1      45.665  29.657  34.751  1.00  0.00    -0.206 F 
ATOM     75  C   UNL A   1      45.979  26.890  37.056  1.00  0.00     0.060 A 
BRANCH  75  76
ATOM     76  S   UNL A   1      47.258  25.956  37.923  1.00  0.00     0.124 S 
ATOM     77  O   UNL A   1      46.795  26.044  39.305  1.00  0.00    -0.237 OA
ATOM     78  O   UNL A   1      47.158  24.638  37.305  1.00  0.00    -0.237 OA
ATOM     79  O   UNL A   1      48.480  26.695  37.622  1.00  0.00    -0.744 OA
ENDBRANCH  75  76
ENDBRANCH  54  68
BRANCH  55  80
ATOM     80  C   UNL A   1      36.590  33.202  30.961  1.00  0.00     0.058 A 
ATOM     81  C   UNL A   1      36.859  34.071  29.893  1.00  0.00     0.135 A 
ATOM     82  C   UNL A   1      35.249  33.010  31.324  1.00  0.00     0.135 A 
ATOM     83  F   UNL A   1      38.125  34.288  29.508  1.00  0.00    -0.206 F 
ATOM     84  C   UNL A   1      35.841  34.742  29.224  1.00  0.00     0.059 A 
ATOM     85  C   UNL A   1      34.210  33.652  30.654  1.00  0.00     0.059 A 
ATOM     86  F   UNL A   1      34.936  32.171  32.324  1.00  0.00    -0.206 F 
ATOM     87  C   UNL A   1      34.518  34.525  29.612  1.00  0.00     0.060 A 
BRANCH  87  88
ATOM     88  S   UNL A   1      33.200  35.366  28.706  1.00  0.00     0.124 S 
ATOM     89  O   UNL A   1      33.963  36.256  27.836  1.00  0.00    -0.237 OA
ATOM     90  O   UNL A   1      32.522  34.255  28.046  1.00  0.00    -0.237 OA
ATOM     91  O   UNL A   1      32.432  36.020  29.762  1.00  0.00    -0.744 OA
ENDBRANCH  87  88
ENDBRANCH  55  80
BRANCH  67  92
ATOM     92  C   UNL A   1      39.902  34.191  37.015  1.00  0.00     0.058 A 
ATOM     93  C   UNL A   1      39.057  34.023  38.123  1.00  0.00     0.135 A 
ATOM     94  C   UNL A   1      40.646  35.378  36.925  1.00  0.00     0.135 A 
ATOM     95  F   UNL A   1      38.324  32.906  38.251  1.00  0.00    -0.206 F 
ATOM     96  C   UNL A   1      38.921  35.016  39.085  1.00  0.00     0.059 A 
ATOM     97  C   UNL A   1      40.547  36.372  37.892  1.00  0.00     0.059 A 
ATOM     98  F   UNL A   1      41.480  35.578  35.893  1.00  0.00    -0.206 F 
ATOM     99  C   UNL A   1      39.667  36.190  38.958  1.00  0.00     0.060 A 
BRANCH  99 100
ATOM    100  S   UNL A   1      39.482  37.474  40.211  1.00  0.00     0.124 S 
ATOM    101  O   UNL A   1      40.849  37.974  40.320  1.00  0.00    -0.237 OA
ATOM    102  O   UNL A   1      38.522  38.383  39.594  1.00  0.00    -0.237 OA
ATOM    103  O   UNL A   1      38.985  36.743  41.373  1.00  0.00    -0.744 OA
ENDBRANCH  99 100
ENDBRANCH  67  92
ENDBRANCH  41  42
ENDBRANCH  33  36
ENDBRANCH  31  32
ENDBRANCH  30  31
ENDBRANCH  29  30
ENDBRANCH   1  29
TORSDOF 19
ENDMDL
MODEL 2
REMARK VINA RESULT:     -11.7      2.564      8.932
REMARK SMILES NC(=O)c1ccccc1NC(=O)[C@@H]1CC=CC[C@@H]1C(=O)NCCCCCCNC(=O)c1ccc(-c2c3nc(c(-c4c(F)cc(S(=O)(=O)[O-])cc4F)c4ccc([nH]4)c(-c4c(F)cc(S(=O)(=O)[O-])cc4F)c4nc(c(-c5c(F)cc(S(=O)(=O)[O-])cc5F)c5ccc2[nH]5)C=C4)C=C3)cc1
REMARK SMILES IDX 24 1 23 2 22 3 21 4 19 5 20 6 18 8 13 9 14 10 15 11 17 12
REMARK SMILES IDX 16 13 11 14 10 15 12 17 9 18 4 19 5 20 6 21 8 22 7 23 2 24
REMARK SMILES IDX 1 25 3 28 25 29 26 30 27 31 28 32 29 33 30 35 31 36 32 37
REMARK SMILES IDX 96 38 33 39 95 40 34 41 35 42 36 43 89 44 37 45 94 46 88 47
REMARK SMILES IDX 90 48 38 49 93 50 87 51 86 52 39 54 73 55 52 56 72 57 53 58
REMARK SMILES IDX 56 59 71 60 91 61 54 62 55 63 70 65 92 66 57 67 40 68 41 69
REMARK SMILES IDX 50 70 42 71 43 72 49 73 51 74 44 75 45 76 46 77 47 78 48 79
REMARK SMILES IDX 74 80 75 81 84 82 76 83 77 84 83 85 85 86 78 87 79 88 80 89
REMARK SMILES IDX 81 90 82 91 58 92 59 93 68 94 60 95 61 96 67 97 69 98 62 99
REMARK SMILES IDX 63 100 64 101 65 102 66 103
REMARK H PARENT 21 7 10 16 1 26 1 27 28 34 90 53 56 64
REMARK Flexibility Score: inf
ROOT
ATOM      1  C   UNL A   1      34.814  31.111  28.551  1.00  0.00     0.002 C 
ENDROOT
BRANCH   1   2
ATOM      2  C   UNL A   1      35.435  30.259  27.447  1.00  0.00     0.021 C 
BRANCH   2   3
ATOM      3  C   UNL A   1      34.557  29.098  26.998  1.00  0.00     0.116 C 
BRANCH   3   4
ATOM      4  N   UNL A   1      34.154  29.171  25.610  1.00  0.00    -0.356 N 
ATOM      5  C   UNL A   1      33.653  28.278  24.727  1.00  0.00     0.224 C 
ATOM      6  O   UNL A   1      33.330  28.773  23.635  1.00  0.00    -0.275 OA
ATOM      7  H   UNL A   1      34.271  30.069  25.223  1.00  0.00     0.163 HD
BRANCH   5   8
ATOM      8  C   UNL A   1      33.331  26.797  24.988  1.00  0.00     0.095 C 
ATOM      9  C   UNL A   1      32.732  25.863  23.927  1.00  0.00     0.095 C 
ATOM     10  C   UNL A   1      31.288  26.352  23.576  1.00  0.00     0.041 C 
ATOM     11  C   UNL A   1      30.500  26.871  24.754  1.00  0.00    -0.030 C 
ATOM     12  C   UNL A   1      32.453  26.672  26.262  1.00  0.00     0.041 C 
ATOM     13  C   UNL A   1      31.019  26.993  25.983  1.00  0.00    -0.030 C 
BRANCH   9  14
ATOM     14  C   UNL A   1      33.569  25.487  22.679  1.00  0.00     0.228 C 
ATOM     15  N   UNL A   1      34.150  24.256  22.475  1.00  0.00    -0.325 N 
ATOM     16  H   UNL A   1      34.754  24.213  21.699  1.00  0.00     0.169 HD
ATOM     17  O   UNL A   1      33.773  26.347  21.813  1.00  0.00    -0.274 OA
BRANCH  15  18
ATOM     18  C   UNL A   1      34.026  23.048  23.186  1.00  0.00     0.053 A 
ATOM     19  C   UNL A   1      35.124  22.487  23.869  1.00  0.00     0.063 A 
ATOM     20  C   UNL A   1      34.931  21.434  24.774  1.00  0.00     0.016 A 
ATOM     21  C   UNL A   1      33.668  20.878  24.932  1.00  0.00     0.001 A 
ATOM     22  C   UNL A   1      32.788  22.406  23.268  1.00  0.00     0.027 A 
ATOM     23  C   UNL A   1      32.610  21.330  24.143  1.00  0.00     0.002 A 
BRANCH  19  24
ATOM     24  C   UNL A   1      36.506  22.953  23.648  1.00  0.00     0.250 C 
ATOM     25  N   UNL A   1      37.230  23.291  24.763  1.00  0.00    -0.366 N 
ATOM     26  H   UNL A   1      38.158  23.608  24.671  1.00  0.00     0.159 HD
ATOM     27  H   UNL A   1      36.822  23.217  25.656  1.00  0.00     0.159 HD
ATOM     28  O   UNL A   1      36.963  23.027  22.521  1.00  0.00    -0.269 OA
ENDBRANCH  19  24
ENDBRANCH  15  18
ENDBRANCH   9  14
ENDBRANCH   5   8
ENDBRANCH   3   4
ENDBRANCH   2   3
ENDBRANCH   1   2
BRANCH   1  29
ATOM     29  C   UNL A   1      34.988  32.621  28.365  1.00  0.00     0.002 C 
BRANCH  29  30
ATOM     30  C   UNL A   1      33.738  33.453  28.138  1.00  0.00     0.021 C 
BRANCH  30  31
ATOM     31  C   UNL A   1      33.891  34.914  28.495  1.00  0.00     0.116 C 
BRANCH  31  32
ATOM     32  N   UNL A   1      32.936  35.365  29.499  1.00  0.00    -0.352 N 
ATOM     33  C   UNL A   1      32.979  35.218  30.861  1.00  0.00     0.251 C 
ATOM     34  H   UNL A   1      32.148  35.843  29.150  1.00  0.00     0.163 HD
ATOM     35  O   UNL A   1      32.035  35.579  31.556  1.00  0.00    -0.269 OA
BRANCH  33  36
ATOM     36  C   UNL A   1      34.163  34.582  31.464  1.00  0.00     0.039 A 
ATOM     37  C   UNL A   1      34.015  33.369  32.134  1.00  0.00     0.014 A 
ATOM     38  C   UNL A   1      35.424  35.158  31.298  1.00  0.00     0.014 A 
ATOM     39  C   UNL A   1      35.150  32.707  32.598  1.00  0.00     0.010 A 
ATOM     40  C   UNL A   1      36.555  34.437  31.641  1.00  0.00     0.010 A 
ATOM     41  C   UNL A   1      36.427  33.224  32.330  1.00  0.00    -0.014 A 
BRANCH  41  42
ATOM     42  C   UNL A   1      37.649  32.553  32.827  1.00  0.00     0.031 A 
ATOM     43  C   UNL A   1      38.230  32.975  34.151  1.00  0.00     0.074 A 
ATOM     44  C   UNL A   1      38.250  31.615  32.072  1.00  0.00     0.049 A 
ATOM     45  N   UNL A   1      39.309  32.550  34.752  1.00  0.00    -0.248 NA
ATOM     46  C   UNL A   1      37.534  34.056  34.872  1.00  0.00     0.031 C 
ATOM     47  C   UNL A   1      37.818  31.194  30.735  1.00  0.00     0.029 A 
ATOM     48  N   UNL A   1      39.353  30.843  32.321  1.00  0.00    -0.354 N 
ATOM     49  C   UNL A   1      39.431  33.328  35.898  1.00  0.00     0.074 A 
ATOM     50  C   UNL A   1      38.367  34.304  35.868  1.00  0.00     0.031 C 
ATOM     51  C   UNL A   1      38.621  30.207  30.304  1.00  0.00     0.029 A 
ATOM     52  C   UNL A   1      39.635  29.944  31.320  1.00  0.00     0.049 A 
ATOM     53  H   UNL A   1      39.893  30.923  33.140  1.00  0.00     0.167 HD
ATOM     54  C   UNL A   1      40.322  33.211  36.909  1.00  0.00     0.037 A 
ATOM     55  C   UNL A   1      40.595  29.003  31.246  1.00  0.00     0.037 A 
ATOM     56  C   UNL A   1      41.335  32.191  36.953  1.00  0.00     0.049 A 
ATOM     57  C   UNL A   1      41.525  28.837  32.417  1.00  0.00     0.074 A 
ATOM     58  C   UNL A   1      42.249  31.924  37.954  1.00  0.00     0.029 A 
ATOM     59  N   UNL A   1      41.553  31.259  35.947  1.00  0.00    -0.354 N 
ATOM     60  N   UNL A   1      41.586  29.534  33.528  1.00  0.00    -0.248 NA
ATOM     61  C   UNL A   1      42.502  27.745  32.335  1.00  0.00     0.031 C 
ATOM     62  C   UNL A   1      43.037  30.843  37.543  1.00  0.00     0.029 A 
ATOM     63  C   UNL A   1      42.588  30.414  36.303  1.00  0.00     0.049 A 
ATOM     64  H   UNL A   1      41.045  31.207  35.107  1.00  0.00     0.167 HD
ATOM     65  C   UNL A   1      42.594  28.953  34.288  1.00  0.00     0.074 A 
ATOM     66  C   UNL A   1      43.099  27.833  33.516  1.00  0.00     0.031 C 
ATOM     67  C   UNL A   1      43.064  29.308  35.509  1.00  0.00     0.037 A 
BRANCH  54  68
ATOM     68  C   UNL A   1      40.215  34.191  38.045  1.00  0.00     0.058 A 
ATOM     69  C   UNL A   1      40.914  35.410  38.036  1.00  0.00     0.135 A 
ATOM     70  C   UNL A   1      39.414  33.907  39.162  1.00  0.00     0.135 A 
ATOM     71  F   UNL A   1      41.713  35.725  37.004  1.00  0.00    -0.206 F 
ATOM     72  C   UNL A   1      40.856  36.293  39.110  1.00  0.00     0.059 A 
ATOM     73  C   UNL A   1      39.317  34.790  40.235  1.00  0.00     0.059 A 
ATOM     74  F   UNL A   1      38.728  32.756  39.228  1.00  0.00    -0.206 F 
ATOM     75  C   UNL A   1      40.057  35.971  40.207  1.00  0.00     0.060 A 
BRANCH  75  76
ATOM     76  S   UNL A   1      39.996  37.124  41.596  1.00  0.00     0.124 S 
ATOM     77  O   UNL A   1      41.416  37.326  41.868  1.00  0.00    -0.237 OA
ATOM     78  O   UNL A   1      39.293  38.267  41.024  1.00  0.00    -0.237 OA
ATOM     79  O   UNL A   1      39.260  36.385  42.617  1.00  0.00    -0.744 OA
ENDBRANCH  75  76
ENDBRANCH  54  68
BRANCH  55  80
ATOM     80  C   UNL A   1      40.676  28.112  30.058  1.00  0.00     0.058 A 
ATOM     81  C   UNL A   1      39.741  27.085  29.863  1.00  0.00     0.135 A 
ATOM     82  C   UNL A   1      41.670  28.283  29.084  1.00  0.00     0.135 A 
ATOM     83  F   UNL A   1      38.770  26.882  30.767  1.00  0.00    -0.206 F 
ATOM     84  C   UNL A   1      39.799  26.245  28.757  1.00  0.00     0.059 A 
ATOM     85  C   UNL A   1      41.736  27.469  27.955  1.00  0.00     0.059 A 
ATOM     86  F   UNL A   1      42.576  29.265  29.212  1.00  0.00    -0.206 F 
ATOM     87  C   UNL A   1      40.801  26.446  27.806  1.00  0.00     0.060 A 
BRANCH  87  88
ATOM     88  S   UNL A   1      40.840  25.378  26.349  1.00  0.00     0.124 S 
ATOM     89  O   UNL A   1      41.235  26.319  25.306  1.00  0.00    -0.237 OA
ATOM     90  O   UNL A   1      41.840  24.383  26.724  1.00  0.00    -0.237 OA
ATOM     91  O   UNL A   1      39.471  24.878  26.264  1.00  0.00    -0.744 OA
ENDBRANCH  87  88
ENDBRANCH  55  80
BRANCH  67  92
ATOM     92  C   UNL A   1      44.159  28.459  36.087  1.00  0.00     0.058 A 
ATOM     93  C   UNL A   1      43.877  27.300  36.827  1.00  0.00     0.135 A 
ATOM     94  C   UNL A   1      45.505  28.799  35.878  1.00  0.00     0.135 A 
ATOM     95  F   UNL A   1      42.606  26.936  37.055  1.00  0.00    -0.206 F 
ATOM     96  C   UNL A   1      44.894  26.530  37.379  1.00  0.00     0.059 A 
ATOM     97  C   UNL A   1      46.538  28.026  36.396  1.00  0.00     0.059 A 
ATOM     98  F   UNL A   1      45.826  29.888  35.162  1.00  0.00    -0.206 F 
ATOM     99  C   UNL A   1      46.222  26.905  37.163  1.00  0.00     0.060 A 
BRANCH  99 100
ATOM    100  S   UNL A   1      47.534  25.900  37.884  1.00  0.00     0.124 S 
ATOM    101  O   UNL A   1      46.843  25.284  39.013  1.00  0.00    -0.237 OA
ATOM    102  O   UNL A   1      47.883  25.001  36.789  1.00  0.00    -0.237 OA
ATOM    103  O   UNL A   1      48.558  26.880  38.232  1.00  0.00    -0.744 OA
ENDBRANCH  99 100
ENDBRANCH  67  92
ENDBRANCH  41  42
ENDBRANCH  33  36
ENDBRANCH  31  32
ENDBRANCH  30  31
ENDBRANCH  29  30
ENDBRANCH   1  29
TORSDOF 19
ENDMDL
MODEL 3
REMARK VINA RESULT:     -11.6      6.079     10.606
REMARK SMILES NC(=O)c1ccccc1NC(=O)[C@@H]1CC=CC[C@@H]1C(=O)NCCCCCCNC(=O)c1ccc(-c2c3nc(c(-c4c(F)cc(S(=O)(=O)[O-])cc4F)c4ccc([nH]4)c(-c4c(F)cc(S(=O)(=O)[O-])cc4F)c4nc(c(-c5c(F)cc(S(=O)(=O)[O-])cc5F)c5ccc2[nH]5)C=C4)C=C3)cc1
REMARK SMILES IDX 24 1 23 2 22 3 21 4 19 5 20 6 18 8 13 9 14 10 15 11 17 12
REMARK SMILES IDX 16 13 11 14 10 15 12 17 9 18 4 19 5 20 6 21 8 22 7 23 2 24
REMARK SMILES IDX 1 25 3 28 25 29 26 30 27 31 28 32 29 33 30 35 31 36 32 37
REMARK SMILES IDX 96 38 33 39 95 40 34 41 35 42 36 43 89 44 37 45 94 46 88 47
REMARK SMILES IDX 90 48 38 49 93 50 87 51 86 52 39 54 73 55 52 56 72 57 53 58
REMARK SMILES IDX 56 59 71 60 91 61 54 62 55 63 70 65 92 66 57 67 40 68 41 69
REMARK SMILES IDX 50 70 42 71 43 72 49 73 51 74 44 75 45 76 46 77 47 78 48 79
REMARK SMILES IDX 74 80 75 81 84 82 76 83 77 84 83 85 85 86 78 87 79 88 80 89
REMARK SMILES IDX 81 90 82 91 58 92 59 93 68 94 60 95 61 96 67 97 69 98 62 99
REMARK SMILES IDX 63 100 64 101 65 102 66 103
REMARK H PARENT 21 7 10 16 1 26 1 27 28 34 90 53 56 64
REMARK Flexibility Score: inf
ROOT
ATOM      1  C   UNL A   1      39.505  22.906  26.985  1.00  0.00     0.002 C 
ENDROOT
BRANCH   1   2
ATOM      2  C   UNL A   1      38.575  24.112  26.900  1.00  0.00     0.021 C 
BRANCH   2   3
ATOM      3  C   UNL A   1      37.400  23.917  25.950  1.00  0.00     0.116 C 
BRANCH   3   4
ATOM      4  N   UNL A   1      36.301  23.168  26.523  1.00  0.00    -0.356 N 
ATOM      5  C   UNL A   1      34.958  23.210  26.378  1.00  0.00     0.224 C 
ATOM      6  O   UNL A   1      34.356  22.306  26.981  1.00  0.00    -0.275 OA
ATOM      7  H   UNL A   1      36.598  22.477  27.158  1.00  0.00     0.163 HD
BRANCH   5   8
ATOM      8  C   UNL A   1      34.151  24.148  25.466  1.00  0.00     0.095 C 
ATOM      9  C   UNL A   1      32.625  24.080  25.321  1.00  0.00     0.095 C 
ATOM     10  C   UNL A   1      32.237  22.721  24.649  1.00  0.00     0.041 C 
ATOM     11  C   UNL A   1      33.187  22.265  23.570  1.00  0.00    -0.030 C 
ATOM     12  C   UNL A   1      34.753  24.125  24.034  1.00  0.00     0.041 C 
ATOM     13  C   UNL A   1      34.319  22.916  23.268  1.00  0.00    -0.030 C 
BRANCH   9  14
ATOM     14  C   UNL A   1      31.725  24.443  26.529  1.00  0.00     0.228 C 
ATOM     15  N   UNL A   1      31.067  25.642  26.676  1.00  0.00    -0.325 N 
ATOM     16  H   UNL A   1      30.642  25.770  27.554  1.00  0.00     0.169 HD
ATOM     17  O   UNL A   1      31.607  23.628  27.453  1.00  0.00    -0.274 OA
BRANCH  15  18
ATOM     18  C   UNL A   1      30.899  26.718  25.783  1.00  0.00     0.053 A 
ATOM     19  C   UNL A   1      31.425  27.994  26.070  1.00  0.00     0.063 A 
ATOM     20  C   UNL A   1      31.474  28.979  25.073  1.00  0.00     0.016 A 
ATOM     21  C   UNL A   1      30.919  28.729  23.825  1.00  0.00     0.001 A 
ATOM     22  C   UNL A   1      30.242  26.522  24.566  1.00  0.00     0.027 A 
ATOM     23  C   UNL A   1      30.260  27.523  23.589  1.00  0.00     0.002 A 
BRANCH  19  24
ATOM     24  C   UNL A   1      31.915  28.356  27.413  1.00  0.00     0.250 C 
ATOM     25  N   UNL A   1      32.925  29.283  27.474  1.00  0.00    -0.366 N 
ATOM     26  H   UNL A   1      33.288  29.560  28.346  1.00  0.00     0.159 HD
ATOM     27  H   UNL A   1      33.288  29.671  26.644  1.00  0.00     0.159 HD
ATOM     28  O   UNL A   1      31.432  27.845  28.408  1.00  0.00    -0.269 OA
ENDBRANCH  19  24
ENDBRANCH  15  18
ENDBRANCH   9  14
ENDBRANCH   5   8
ENDBRANCH   3   4
ENDBRANCH   2   3
ENDBRANCH   1   2
BRANCH   1  29
ATOM     29  C   UNL A   1      39.535  22.034  25.726  1.00  0.00     0.002 C 
BRANCH  29  30
ATOM     30  C   UNL A   1      39.453  20.528  25.908  1.00  0.00     0.021 C 
BRANCH  30  31
ATOM     31  C   UNL A   1      40.522  19.952  26.808  1.00  0.00     0.116 C 
BRANCH  31  32
ATOM     32  N   UNL A   1      41.582  19.268  26.079  1.00  0.00    -0.352 N 
ATOM     33  C   UNL A   1      42.766  19.766  25.604  1.00  0.00     0.251 C 
ATOM     34  H   UNL A   1      41.424  18.311  25.902  1.00  0.00     0.163 HD
ATOM     35  O   UNL A   1      43.508  19.066  24.923  1.00  0.00    -0.269 OA
BRANCH  33  36
ATOM     36  C   UNL A   1      43.108  21.169  25.896  1.00  0.00     0.039 A 
ATOM     37  C   UNL A   1      43.483  21.520  27.192  1.00  0.00     0.014 A 
ATOM     38  C   UNL A   1      43.124  22.113  24.867  1.00  0.00     0.014 A 
ATOM     39  C   UNL A   1      43.923  22.818  27.443  1.00  0.00     0.010 A 
ATOM     40  C   UNL A   1      43.685  23.358  25.091  1.00  0.00     0.010 A 
ATOM     41  C   UNL A   1      44.053  23.735  26.388  1.00  0.00    -0.014 A 
BRANCH  41  42
ATOM     42  C   UNL A   1      44.499  25.125  26.629  1.00  0.00     0.031 A 
ATOM     43  C   UNL A   1      43.523  26.120  27.201  1.00  0.00     0.074 A 
ATOM     44  C   UNL A   1      45.748  25.495  26.288  1.00  0.00     0.049 A 
ATOM     45  N   UNL A   1      43.692  27.391  27.453  1.00  0.00    -0.248 NA
ATOM     46  C   UNL A   1      42.160  25.634  27.480  1.00  0.00     0.031 C 
ATOM     47  C   UNL A   1      46.744  24.632  25.646  1.00  0.00     0.029 A 
ATOM     48  N   UNL A   1      46.394  26.692  26.437  1.00  0.00    -0.354 N 
ATOM     49  C   UNL A   1      42.455  27.854  27.889  1.00  0.00     0.074 A 
ATOM     50  C   UNL A   1      41.527  26.752  27.790  1.00  0.00     0.031 C 
ATOM     51  C   UNL A   1      47.890  25.316  25.500  1.00  0.00     0.029 A 
ATOM     52  C   UNL A   1      47.701  26.669  26.013  1.00  0.00     0.049 A 
ATOM     53  H   UNL A   1      45.964  27.494  26.811  1.00  0.00     0.167 HD
ATOM     54  C   UNL A   1      42.132  29.075  28.372  1.00  0.00     0.037 A 
ATOM     55  C   UNL A   1      48.643  27.632  26.055  1.00  0.00     0.037 A 
ATOM     56  C   UNL A   1      43.085  30.141  28.524  1.00  0.00     0.049 A 
ATOM     57  C   UNL A   1      48.284  28.957  26.670  1.00  0.00     0.074 A 
ATOM     58  C   UNL A   1      42.897  31.398  29.068  1.00  0.00     0.029 A 
ATOM     59  N   UNL A   1      44.417  30.062  28.140  1.00  0.00    -0.354 N 
ATOM     60  N   UNL A   1      47.127  29.360  27.145  1.00  0.00    -0.248 NA
ATOM     61  C   UNL A   1      49.359  29.950  26.776  1.00  0.00     0.031 C 
ATOM     62  C   UNL A   1      44.112  32.088  28.989  1.00  0.00     0.029 A 
ATOM     63  C   UNL A   1      45.064  31.248  28.433  1.00  0.00     0.049 A 
ATOM     64  H   UNL A   1      44.838  29.277  27.721  1.00  0.00     0.167 HD
ATOM     65  C   UNL A   1      47.341  30.646  27.625  1.00  0.00     0.074 A 
ATOM     66  C   UNL A   1      48.743  30.943  27.402  1.00  0.00     0.031 C 
ATOM     67  C   UNL A   1      46.463  31.508  28.197  1.00  0.00     0.037 A 
BRANCH  54  68
ATOM     68  C   UNL A   1      40.704  29.300  28.789  1.00  0.00     0.058 A 
ATOM     69  C   UNL A   1      39.681  29.493  27.845  1.00  0.00     0.135 A 
ATOM     70  C   UNL A   1      40.352  29.335  30.147  1.00  0.00     0.135 A 
ATOM     71  F   UNL A   1      39.963  29.492  26.533  1.00  0.00    -0.206 F 
ATOM     72  C   UNL A   1      38.371  29.753  28.231  1.00  0.00     0.059 A 
ATOM     73  C   UNL A   1      39.041  29.563  30.557  1.00  0.00     0.059 A 
ATOM     74  F   UNL A   1      41.288  29.163  31.094  1.00  0.00    -0.206 F 
ATOM     75  C   UNL A   1      38.061  29.791  29.591  1.00  0.00     0.060 A 
BRANCH  75  76
ATOM     76  S   UNL A   1      36.356  30.135  30.077  1.00  0.00     0.124 S 
ATOM     77  O   UNL A   1      35.611  29.484  29.004  1.00  0.00    -0.237 OA
ATOM     78  O   UNL A   1      36.268  29.496  31.386  1.00  0.00    -0.237 OA
ATOM     79  O   UNL A   1      36.296  31.593  30.089  1.00  0.00    -0.744 OA
ENDBRANCH  75  76
ENDBRANCH  54  68
BRANCH  55  80
ATOM     80  C   UNL A   1      50.018  27.352  25.563  1.00  0.00     0.058 A 
ATOM     81  C   UNL A   1      51.007  26.865  26.430  1.00  0.00     0.135 A 
ATOM     82  C   UNL A   1      50.365  27.540  24.218  1.00  0.00     0.135 A 
ATOM     83  F   UNL A   1      50.724  26.668  27.727  1.00  0.00    -0.206 F 
ATOM     84  C   UNL A   1      52.297  26.594  25.987  1.00  0.00     0.059 A 
ATOM     85  C   UNL A   1      51.644  27.255  23.745  1.00  0.00     0.059 A 
ATOM     86  F   UNL A   1      49.449  27.983  23.342  1.00  0.00    -0.206 F 
ATOM     87  C   UNL A   1      52.606  26.792  24.641  1.00  0.00     0.060 A 
BRANCH  87  88
ATOM     88  S   UNL A   1      54.272  26.393  24.066  1.00  0.00     0.124 S 
ATOM     89  O   UNL A   1      54.997  27.617  24.394  1.00  0.00    -0.237 OA
ATOM     90  O   UNL A   1      54.603  25.220  24.870  1.00  0.00    -0.237 OA
ATOM     91  O   UNL A   1      54.082  26.133  22.642  1.00  0.00    -0.744 OA
ENDBRANCH  87  88
ENDBRANCH  55  80
BRANCH  67  92
ATOM     92  C   UNL A   1      47.007  32.835  28.639  1.00  0.00     0.058 A 
ATOM     93  C   UNL A   1      46.996  33.953  27.790  1.00  0.00     0.135 A 
ATOM     94  C   UNL A   1      47.525  32.994  29.934  1.00  0.00     0.135 A 
ATOM     95  F   UNL A   1      46.513  33.850  26.542  1.00  0.00    -0.206 F 
ATOM     96  C   UNL A   1      47.521  35.174  28.196  1.00  0.00     0.059 A 
ATOM     97  C   UNL A   1      48.029  34.214  30.370  1.00  0.00     0.059 A 
ATOM     98  F   UNL A   1      47.541  31.959  30.788  1.00  0.00    -0.206 F 
ATOM     99  C   UNL A   1      48.041  35.293  29.487  1.00  0.00     0.060 A 
BRANCH  99 100
ATOM    100  S   UNL A   1      48.722  36.881  30.004  1.00  0.00     0.124 S 
ATOM    101  O   UNL A   1      49.935  36.955  29.195  1.00  0.00    -0.237 OA
ATOM    102  O   UNL A   1      47.661  37.814  29.641  1.00  0.00    -0.237 OA
ATOM    103  O   UNL A   1      48.932  36.708  31.438  1.00  0.00    -0.744 OA
ENDBRANCH  99 100
ENDBRANCH  67  92
ENDBRANCH  41  42
ENDBRANCH  33  36
ENDBRANCH  31  32
ENDBRANCH  30  31
ENDBRANCH  29  30
ENDBRANCH   1  29
TORSDOF 19
ENDMDL
