MODEL 1
REMARK VINA RESULT:     -13.7      0.000      0.000
REMARK SMILES Cc1ccc(-c2cc(Cl)ccc2Cl)c(C(=O)NCCCCCCNC(=O)c2ccc(-c3c4nc(c(-c5c(F)cc(S(=O)(=O)[O-])cc5F)c5ccc([nH]5)c(-c5c(F)cc(S(=O)(=O)[O-])cc5F)c5nc(c(-c6c(F)cc(S(=O)(=O)[O-])cc6F)c6ccc3[nH]6)C=C5)C=C4)cc2)c1
REMARK SMILES IDX 21 1 20 2 19 3 18 4 17 5 15 6 16 7 14 9 1 10 2 11 3 12 93 13
REMARK SMILES IDX 4 14 5 15 6 16 7 17 12 18 8 19 11 20 13 21 9 22 10 23 22 24
REMARK SMILES IDX 23 25 24 26 25 27 26 29 27 30 28 31 92 32 29 33 91 34 30 35
REMARK SMILES IDX 31 36 32 37 85 38 33 39 90 40 84 41 86 42 34 43 89 44 83 45
REMARK SMILES IDX 82 46 35 48 69 49 48 50 68 51 49 52 52 53 67 54 87 55 50 56
REMARK SMILES IDX 51 57 66 59 88 60 53 61 36 62 37 63 46 64 38 65 39 66 45 67
REMARK SMILES IDX 47 68 40 69 41 70 42 71 43 72 44 73 70 74 71 75 80 76 72 77
REMARK SMILES IDX 73 78 79 79 81 80 74 81 75 82 76 83 77 84 78 85 54 86 55 87
REMARK SMILES IDX 64 88 56 89 57 90 63 91 65 92 58 93 59 94 60 95 61 96 62 97
REMARK H PARENT 17 8 24 28 86 47 52 58
REMARK Flexibility Score: inf
ROOT
ATOM      1  C   UNL A   1      32.617  30.307  25.814  1.00  0.00     0.002 C 
ENDROOT
BRANCH   1   2
ATOM      2  C   UNL A   1      32.424  29.066  24.928  1.00  0.00     0.002 C 
BRANCH   2   3
ATOM      3  C   UNL A   1      33.682  28.537  24.219  1.00  0.00     0.021 C 
BRANCH   3   4
ATOM      4  C   UNL A   1      33.698  28.770  22.705  1.00  0.00     0.116 C 
BRANCH   4   5
ATOM      5  N   UNL A   1      33.436  27.539  21.989  1.00  0.00    -0.352 N 
ATOM      6  C   UNL A   1      32.392  26.656  21.899  1.00  0.00     0.251 C 
ATOM      7  O   UNL A   1      32.582  25.753  21.083  1.00  0.00    -0.269 OA
ATOM      8  H   UNL A   1      34.196  27.269  21.426  1.00  0.00     0.163 HD
BRANCH   6   9
ATOM      9  C   UNL A   1      31.087  26.755  22.659  1.00  0.00     0.047 A 
ATOM     10  C   UNL A   1      28.058  29.094  22.871  1.00  0.00     0.044 C 
ATOM     11  C   UNL A   1      28.963  27.919  23.104  1.00  0.00    -0.050 A 
ATOM     12  C   UNL A   1      28.523  26.844  23.868  1.00  0.00     0.004 A 
ATOM     13  C   UNL A   1      30.259  27.886  22.562  1.00  0.00     0.018 A 
ATOM     14  C   UNL A   1      29.371  25.762  24.089  1.00  0.00     0.010 A 
ATOM     15  C   UNL A   1      30.653  25.687  23.497  1.00  0.00    -0.004 A 
BRANCH  15  16
ATOM     16  C   UNL A   1      31.486  24.514  23.848  1.00  0.00     0.003 A 
ATOM     17  C   UNL A   1      31.441  23.374  23.015  1.00  0.00     0.030 A 
ATOM     18  C   UNL A   1      32.325  24.467  24.979  1.00  0.00     0.049 A 
ATOM     19  C   UNL A   1      32.150  22.219  23.338  1.00  0.00     0.041 A 
ATOM     20  C   UNL A   1      33.061  23.313  25.279  1.00  0.00     0.023 A 
ATOM     21  Cl  UNL A   1      32.490  25.811  26.058  1.00  0.00    -0.084 Cl
ATOM     22  Cl  UNL A   1      32.008  20.818  22.347  1.00  0.00    -0.084 Cl
ATOM     23  C   UNL A   1      32.963  22.185  24.466  1.00  0.00     0.022 A 
ENDBRANCH  15  16
ENDBRANCH   6   9
ENDBRANCH   4   5
ENDBRANCH   3   4
ENDBRANCH   2   3
ENDBRANCH   1   2
BRANCH   1  24
ATOM     24  C   UNL A   1      33.031  30.040  27.263  1.00  0.00     0.021 C 
BRANCH  24  25
ATOM     25  C   UNL A   1      34.526  29.800  27.430  1.00  0.00     0.116 C 
BRANCH  25  26
ATOM     26  N   UNL A   1      35.202  30.940  28.037  1.00  0.00    -0.352 N 
ATOM     27  C   UNL A   1      36.350  30.930  28.807  1.00  0.00     0.251 C 
ATOM     28  H   UNL A   1      34.793  31.822  27.879  1.00  0.00     0.163 HD
ATOM     29  O   UNL A   1      36.700  31.866  29.504  1.00  0.00    -0.269 OA
BRANCH  27  30
ATOM     30  C   UNL A   1      37.230  29.760  28.628  1.00  0.00     0.039 A 
ATOM     31  C   UNL A   1      37.408  28.930  29.741  1.00  0.00     0.014 A 
ATOM     32  C   UNL A   1      38.080  29.703  27.529  1.00  0.00     0.014 A 
ATOM     33  C   UNL A   1      38.556  28.151  29.829  1.00  0.00     0.010 A 
ATOM     34  C   UNL A   1      39.257  28.994  27.656  1.00  0.00     0.010 A 
ATOM     35  C   UNL A   1      39.515  28.258  28.823  1.00  0.00    -0.014 A 
BRANCH  35  36
ATOM     36  C   UNL A   1      40.861  27.713  28.936  1.00  0.00     0.031 A 
ATOM     37  C   UNL A   1      41.135  26.329  28.497  1.00  0.00     0.074 A 
ATOM     38  C   UNL A   1      41.876  28.509  29.336  1.00  0.00     0.049 A 
ATOM     39  N   UNL A   1      42.178  25.658  28.849  1.00  0.00    -0.248 NA
ATOM     40  C   UNL A   1      40.229  25.575  27.636  1.00  0.00     0.031 C 
ATOM     41  C   UNL A   1      43.307  28.250  29.211  1.00  0.00     0.029 A 
ATOM     42  N   UNL A   1      41.799  29.657  30.128  1.00  0.00    -0.354 N 
ATOM     43  C   UNL A   1      42.223  24.519  28.083  1.00  0.00     0.074 A 
ATOM     44  C   UNL A   1      40.964  24.490  27.372  1.00  0.00     0.031 C 
ATOM     45  C   UNL A   1      43.966  29.025  30.087  1.00  0.00     0.029 A 
ATOM     46  C   UNL A   1      42.974  29.694  30.909  1.00  0.00     0.049 A 
ATOM     47  H   UNL A   1      41.066  30.314  30.140  1.00  0.00     0.167 HD
ATOM     48  C   UNL A   1      43.367  23.780  28.047  1.00  0.00     0.037 A 
ATOM     49  C   UNL A   1      42.893  29.593  32.270  1.00  0.00     0.037 A 
ATOM     50  C   UNL A   1      44.384  24.314  28.949  1.00  0.00     0.049 A 
ATOM     51  C   UNL A   1      43.493  28.319  32.844  1.00  0.00     0.074 A 
ATOM     52  C   UNL A   1      45.489  25.135  28.798  1.00  0.00     0.029 A 
ATOM     53  N   UNL A   1      44.141  24.260  30.306  1.00  0.00    -0.354 N 
ATOM     54  N   UNL A   1      44.083  27.390  32.139  1.00  0.00    -0.248 NA
ATOM     55  C   UNL A   1      43.409  27.959  34.261  1.00  0.00     0.031 C 
ATOM     56  C   UNL A   1      45.887  25.589  30.090  1.00  0.00     0.029 A 
ATOM     57  C   UNL A   1      45.032  25.033  31.023  1.00  0.00     0.049 A 
ATOM     58  H   UNL A   1      43.417  23.731  30.716  1.00  0.00     0.167 HD
ATOM     59  C   UNL A   1      44.362  26.312  32.940  1.00  0.00     0.074 A 
ATOM     60  C   UNL A   1      43.948  26.727  34.267  1.00  0.00     0.031 C 
ATOM     61  C   UNL A   1      44.859  25.133  32.462  1.00  0.00     0.037 A 
BRANCH  48  62
ATOM     62  C   UNL A   1      43.611  22.701  27.025  1.00  0.00     0.058 A 
ATOM     63  C   UNL A   1      42.900  21.485  27.083  1.00  0.00     0.135 A 
ATOM     64  C   UNL A   1      44.564  22.791  25.991  1.00  0.00     0.135 A 
ATOM     65  F   UNL A   1      41.922  21.288  27.977  1.00  0.00    -0.206 F 
ATOM     66  C   UNL A   1      43.181  20.407  26.246  1.00  0.00     0.059 A 
ATOM     67  C   UNL A   1      44.903  21.706  25.176  1.00  0.00     0.059 A 
ATOM     68  F   UNL A   1      45.186  23.949  25.724  1.00  0.00    -0.206 F 
ATOM     69  C   UNL A   1      44.209  20.511  25.318  1.00  0.00     0.060 A 
BRANCH  69  70
ATOM     70  S   UNL A   1      44.626  19.062  24.331  1.00  0.00     0.124 S 
ATOM     71  O   UNL A   1      44.482  19.565  22.968  1.00  0.00    -0.237 OA
ATOM     72  O   UNL A   1      45.991  18.783  24.764  1.00  0.00    -0.237 OA
ATOM     73  O   UNL A   1      43.625  18.077  24.733  1.00  0.00    -0.744 OA
ENDBRANCH  69  70
ENDBRANCH  48  62
BRANCH  49  74
ATOM     74  C   UNL A   1      41.715  30.332  32.813  1.00  0.00     0.058 A 
ATOM     75  C   UNL A   1      40.554  29.589  33.112  1.00  0.00     0.135 A 
ATOM     76  C   UNL A   1      41.856  31.583  33.429  1.00  0.00     0.135 A 
ATOM     77  F   UNL A   1      40.360  28.389  32.538  1.00  0.00    -0.206 F 
ATOM     78  C   UNL A   1      39.661  29.987  34.100  1.00  0.00     0.059 A 
ATOM     79  C   UNL A   1      40.963  32.009  34.413  1.00  0.00     0.059 A 
ATOM     80  F   UNL A   1      42.936  32.339  33.185  1.00  0.00    -0.206 F 
ATOM     81  C   UNL A   1      39.911  31.172  34.790  1.00  0.00     0.060 A 
BRANCH  81  82
ATOM     82  S   UNL A   1      38.944  31.509  36.281  1.00  0.00     0.124 S 
ATOM     83  O   UNL A   1      37.986  32.499  35.803  1.00  0.00    -0.237 OA
ATOM     84  O   UNL A   1      38.388  30.192  36.593  1.00  0.00    -0.237 OA
ATOM     85  O   UNL A   1      39.943  32.000  37.222  1.00  0.00    -0.744 OA
ENDBRANCH  81  82
ENDBRANCH  49  74
BRANCH  61  86
ATOM     86  C   UNL A   1      45.198  23.953  33.334  1.00  0.00     0.058 A 
ATOM     87  C   UNL A   1      44.257  22.958  33.646  1.00  0.00     0.135 A 
ATOM     88  C   UNL A   1      46.443  23.855  33.996  1.00  0.00     0.135 A 
ATOM     89  F   UNL A   1      43.025  22.990  33.112  1.00  0.00    -0.206 F 
ATOM     90  C   UNL A   1      44.546  21.911  34.523  1.00  0.00     0.059 A 
ATOM     91  C   UNL A   1      46.733  22.853  34.916  1.00  0.00     0.059 A 
ATOM     92  F   UNL A   1      47.439  24.717  33.747  1.00  0.00    -0.206 F 
ATOM     93  C   UNL A   1      45.787  21.867  35.155  1.00  0.00     0.060 A 
BRANCH  93  94
ATOM     94  S   UNL A   1      46.160  20.529  36.303  1.00  0.00     0.124 S 
ATOM     95  O   UNL A   1      45.704  21.068  37.581  1.00  0.00    -0.237 OA
ATOM     96  O   UNL A   1      45.354  19.444  35.752  1.00  0.00    -0.237 OA
ATOM     97  O   UNL A   1      47.605  20.368  36.179  1.00  0.00    -0.744 OA
ENDBRANCH  93  94
ENDBRANCH  61  86
ENDBRANCH  35  36
ENDBRANCH  27  30
ENDBRANCH  25  26
ENDBRANCH  24  25
ENDBRANCH   1  24
TORSDOF 17
ENDMDL
MODEL 2
REMARK VINA RESULT:     -13.5      4.985     11.116
REMARK SMILES Cc1ccc(-c2cc(Cl)ccc2Cl)c(C(=O)NCCCCCCNC(=O)c2ccc(-c3c4nc(c(-c5c(F)cc(S(=O)(=O)[O-])cc5F)c5ccc([nH]5)c(-c5c(F)cc(S(=O)(=O)[O-])cc5F)c5nc(c(-c6c(F)cc(S(=O)(=O)[O-])cc6F)c6ccc3[nH]6)C=C5)C=C4)cc2)c1
REMARK SMILES IDX 21 1 20 2 19 3 18 4 17 5 15 6 16 7 14 9 1 10 2 11 3 12 93 13
REMARK SMILES IDX 4 14 5 15 6 16 7 17 12 18 8 19 11 20 13 21 9 22 10 23 22 24
REMARK SMILES IDX 23 25 24 26 25 27 26 29 27 30 28 31 92 32 29 33 91 34 30 35
REMARK SMILES IDX 31 36 32 37 85 38 33 39 90 40 84 41 86 42 34 43 89 44 83 45
REMARK SMILES IDX 82 46 35 48 69 49 48 50 68 51 49 52 52 53 67 54 87 55 50 56
REMARK SMILES IDX 51 57 66 59 88 60 53 61 36 62 37 63 46 64 38 65 39 66 45 67
REMARK SMILES IDX 47 68 40 69 41 70 42 71 43 72 44 73 70 74 71 75 80 76 72 77
REMARK SMILES IDX 73 78 79 79 81 80 74 81 75 82 76 83 77 84 78 85 54 86 55 87
REMARK SMILES IDX 64 88 56 89 57 90 63 91 65 92 58 93 59 94 60 95 61 96 62 97
REMARK H PARENT 17 8 24 28 86 47 52 58
REMARK Flexibility Score: inf
ROOT
ATOM      1  C   UNL A   1      36.686  22.708  23.944  1.00  0.00     0.002 C 
ENDROOT
BRANCH   1   2
ATOM      2  C   UNL A   1      35.210  23.058  24.189  1.00  0.00     0.002 C 
BRANCH   2   3
ATOM      3  C   UNL A   1      34.928  24.059  25.322  1.00  0.00     0.021 C 
BRANCH   3   4
ATOM      4  C   UNL A   1      34.427  25.426  24.848  1.00  0.00     0.116 C 
BRANCH   4   5
ATOM      5  N   UNL A   1      34.220  25.433  23.415  1.00  0.00    -0.352 N 
ATOM      6  C   UNL A   1      33.189  25.752  22.571  1.00  0.00     0.251 C 
ATOM      7  O   UNL A   1      33.489  25.675  21.378  1.00  0.00    -0.269 OA
ATOM      8  H   UNL A   1      35.019  25.134  22.924  1.00  0.00     0.163 HD
BRANCH   6   9
ATOM      9  C   UNL A   1      31.812  26.213  22.997  1.00  0.00     0.047 A 
ATOM     10  C   UNL A   1      29.574  29.301  22.619  1.00  0.00     0.044 C 
ATOM     11  C   UNL A   1      30.039  27.923  22.988  1.00  0.00    -0.050 A 
ATOM     12  C   UNL A   1      29.149  27.016  23.553  1.00  0.00     0.004 A 
ATOM     13  C   UNL A   1      31.371  27.529  22.775  1.00  0.00     0.018 A 
ATOM     14  C   UNL A   1      29.590  25.742  23.902  1.00  0.00     0.010 A 
ATOM     15  C   UNL A   1      30.911  25.312  23.635  1.00  0.00    -0.004 A 
BRANCH  15  16
ATOM     16  C   UNL A   1      31.281  23.956  24.101  1.00  0.00     0.003 A 
ATOM     17  C   UNL A   1      31.544  22.955  23.140  1.00  0.00     0.030 A 
ATOM     18  C   UNL A   1      31.381  23.602  25.461  1.00  0.00     0.049 A 
ATOM     19  C   UNL A   1      31.828  21.645  23.525  1.00  0.00     0.041 A 
ATOM     20  C   UNL A   1      31.699  22.291  25.841  1.00  0.00     0.023 A 
ATOM     21  Cl  UNL A   1      31.112  24.748  26.732  1.00  0.00    -0.084 Cl
ATOM     22  Cl  UNL A   1      32.063  20.430  22.328  1.00  0.00    -0.084 Cl
ATOM     23  C   UNL A   1      31.909  21.310  24.872  1.00  0.00     0.022 A 
ENDBRANCH  15  16
ENDBRANCH   6   9
ENDBRANCH   4   5
ENDBRANCH   3   4
ENDBRANCH   2   3
ENDBRANCH   1   2
BRANCH   1  24
ATOM     24  C   UNL A   1      37.513  22.377  25.189  1.00  0.00     0.021 C 
BRANCH  24  25
ATOM     25  C   UNL A   1      38.158  23.600  25.829  1.00  0.00     0.116 C 
BRANCH  25  26
ATOM     26  N   UNL A   1      39.459  23.296  26.409  1.00  0.00    -0.352 N 
ATOM     27  C   UNL A   1      40.409  24.188  26.870  1.00  0.00     0.251 C 
ATOM     28  H   UNL A   1      39.690  22.341  26.482  1.00  0.00     0.163 HD
ATOM     29  O   UNL A   1      41.570  23.886  27.082  1.00  0.00    -0.269 OA
BRANCH  27  30
ATOM     30  C   UNL A   1      39.904  25.523  27.243  1.00  0.00     0.039 A 
ATOM     31  C   UNL A   1      40.401  26.610  26.514  1.00  0.00     0.014 A 
ATOM     32  C   UNL A   1      39.249  25.694  28.458  1.00  0.00     0.014 A 
ATOM     33  C   UNL A   1      40.394  27.874  27.093  1.00  0.00     0.010 A 
ATOM     34  C   UNL A   1      39.319  26.932  29.063  1.00  0.00     0.010 A 
ATOM     35  C   UNL A   1      39.932  28.007  28.402  1.00  0.00    -0.014 A 
BRANCH  35  36
ATOM     36  C   UNL A   1      40.127  29.208  29.203  1.00  0.00     0.031 A 
ATOM     37  C   UNL A   1      39.078  30.247  29.243  1.00  0.00     0.074 A 
ATOM     38  C   UNL A   1      41.216  29.315  29.996  1.00  0.00     0.049 A 
ATOM     39  N   UNL A   1      39.281  31.456  29.639  1.00  0.00    -0.248 NA
ATOM     40  C   UNL A   1      37.706  30.007  28.807  1.00  0.00     0.031 C 
ATOM     41  C   UNL A   1      41.429  30.264  31.085  1.00  0.00     0.029 A 
ATOM     42  N   UNL A   1      42.453  28.687  29.837  1.00  0.00    -0.354 N 
ATOM     43  C   UNL A   1      38.058  32.069  29.761  1.00  0.00     0.074 A 
ATOM     44  C   UNL A   1      37.109  31.140  29.191  1.00  0.00     0.031 C 
ATOM     45  C   UNL A   1      42.745  30.356  31.328  1.00  0.00     0.029 A 
ATOM     46  C   UNL A   1      43.433  29.589  30.306  1.00  0.00     0.049 A 
ATOM     47  H   UNL A   1      42.612  27.789  29.468  1.00  0.00     0.167 HD
ATOM     48  C   UNL A   1      37.965  33.251  30.434  1.00  0.00     0.037 A 
ATOM     49  C   UNL A   1      44.362  30.098  29.442  1.00  0.00     0.037 A 
ATOM     50  C   UNL A   1      39.274  33.733  30.864  1.00  0.00     0.049 A 
ATOM     51  C   UNL A   1      44.236  31.593  29.190  1.00  0.00     0.074 A 
ATOM     52  C   UNL A   1      39.995  33.679  32.046  1.00  0.00     0.029 A 
ATOM     53  N   UNL A   1      40.177  34.115  29.892  1.00  0.00    -0.354 N 
ATOM     54  N   UNL A   1      43.356  32.372  29.760  1.00  0.00    -0.248 NA
ATOM     55  C   UNL A   1      45.055  32.314  28.214  1.00  0.00     0.031 C 
ATOM     56  C   UNL A   1      41.351  34.013  31.756  1.00  0.00     0.029 A 
ATOM     57  C   UNL A   1      41.448  34.282  30.404  1.00  0.00     0.049 A 
ATOM     58  H   UNL A   1      39.941  34.253  28.946  1.00  0.00     0.167 HD
ATOM     59  C   UNL A   1      43.412  33.620  29.192  1.00  0.00     0.074 A 
ATOM     60  C   UNL A   1      44.511  33.543  28.249  1.00  0.00     0.031 C 
ATOM     61  C   UNL A   1      42.524  34.616  29.486  1.00  0.00     0.037 A 
BRANCH  48  62
ATOM     62  C   UNL A   1      36.650  33.840  30.873  1.00  0.00     0.058 A 
ATOM     63  C   UNL A   1      35.703  34.269  29.920  1.00  0.00     0.135 A 
ATOM     64  C   UNL A   1      36.284  34.045  32.217  1.00  0.00     0.135 A 
ATOM     65  F   UNL A   1      35.895  34.079  28.608  1.00  0.00    -0.206 F 
ATOM     66  C   UNL A   1      34.533  34.939  30.269  1.00  0.00     0.059 A 
ATOM     67  C   UNL A   1      35.144  34.764  32.591  1.00  0.00     0.059 A 
ATOM     68  F   UNL A   1      37.015  33.533  33.219  1.00  0.00    -0.206 F 
ATOM     69  C   UNL A   1      34.276  35.216  31.605  1.00  0.00     0.060 A 
BRANCH  69  70
ATOM     70  S   UNL A   1      32.814  36.187  32.017  1.00  0.00     0.124 S 
ATOM     71  O   UNL A   1      33.307  37.048  33.089  1.00  0.00    -0.237 OA
ATOM     72  O   UNL A   1      32.525  36.850  30.751  1.00  0.00    -0.237 OA
ATOM     73  O   UNL A   1      31.844  35.178  32.435  1.00  0.00    -0.744 OA
ENDBRANCH  69  70
ENDBRANCH  48  62
BRANCH  49  74
ATOM     74  C   UNL A   1      44.823  29.076  28.456  1.00  0.00     0.058 A 
ATOM     75  C   UNL A   1      44.212  29.068  27.185  1.00  0.00     0.135 A 
ATOM     76  C   UNL A   1      46.074  28.457  28.575  1.00  0.00     0.135 A 
ATOM     77  F   UNL A   1      43.005  29.634  27.017  1.00  0.00    -0.206 F 
ATOM     78  C   UNL A   1      44.882  28.620  26.051  1.00  0.00     0.059 A 
ATOM     79  C   UNL A   1      46.758  27.988  27.452  1.00  0.00     0.059 A 
ATOM     80  F   UNL A   1      46.706  28.429  29.756  1.00  0.00    -0.206 F 
ATOM     81  C   UNL A   1      46.182  28.139  26.189  1.00  0.00     0.060 A 
BRANCH  81  82
ATOM     82  S   UNL A   1      47.155  27.876  24.686  1.00  0.00     0.124 S 
ATOM     83  O   UNL A   1      48.519  28.023  25.180  1.00  0.00    -0.237 OA
ATOM     84  O   UNL A   1      46.766  26.521  24.299  1.00  0.00    -0.237 OA
ATOM     85  O   UNL A   1      46.688  28.934  23.798  1.00  0.00    -0.744 OA
ENDBRANCH  81  82
ENDBRANCH  49  74
BRANCH  61  86
ATOM     86  C   UNL A   1      42.592  35.999  28.894  1.00  0.00     0.058 A 
ATOM     87  C   UNL A   1      43.137  37.087  29.595  1.00  0.00     0.135 A 
ATOM     88  C   UNL A   1      41.985  36.304  27.654  1.00  0.00     0.135 A 
ATOM     89  F   UNL A   1      43.689  36.913  30.806  1.00  0.00    -0.206 F 
ATOM     90  C   UNL A   1      43.121  38.385  29.081  1.00  0.00     0.059 A 
ATOM     91  C   UNL A   1      41.908  37.598  27.149  1.00  0.00     0.059 A 
ATOM     92  F   UNL A   1      41.471  35.345  26.870  1.00  0.00    -0.206 F 
ATOM     93  C   UNL A   1      42.502  38.631  27.857  1.00  0.00     0.060 A 
BRANCH  93  94
ATOM     94  S   UNL A   1      42.461  40.307  27.197  1.00  0.00     0.124 S 
ATOM     95  O   UNL A   1      41.042  40.505  26.914  1.00  0.00    -0.237 OA
ATOM     96  O   UNL A   1      42.993  41.073  28.320  1.00  0.00    -0.237 OA
ATOM     97  O   UNL A   1      43.322  40.231  26.021  1.00  0.00    -0.744 OA
ENDBRANCH  93  94
ENDBRANCH  61  86
ENDBRANCH  35  36
ENDBRANCH  27  30
ENDBRANCH  25  26
ENDBRANCH  24  25
ENDBRANCH   1  24
TORSDOF 17
ENDMDL
MODEL 3
REMARK VINA RESULT:     -13.5      5.109     11.379
REMARK SMILES Cc1ccc(-c2cc(Cl)ccc2Cl)c(C(=O)NCCCCCCNC(=O)c2ccc(-c3c4nc(c(-c5c(F)cc(S(=O)(=O)[O-])cc5F)c5ccc([nH]5)c(-c5c(F)cc(S(=O)(=O)[O-])cc5F)c5nc(c(-c6c(F)cc(S(=O)(=O)[O-])cc6F)c6ccc3[nH]6)C=C5)C=C4)cc2)c1
REMARK SMILES IDX 21 1 20 2 19 3 18 4 17 5 15 6 16 7 14 9 1 10 2 11 3 12 93 13
REMARK SMILES IDX 4 14 5 15 6 16 7 17 12 18 8 19 11 20 13 21 9 22 10 23 22 24
REMARK SMILES IDX 23 25 24 26 25 27 26 29 27 30 28 31 92 32 29 33 91 34 30 35
REMARK SMILES IDX 31 36 32 37 85 38 33 39 90 40 84 41 86 42 34 43 89 44 83 45
REMARK SMILES IDX 82 46 35 48 69 49 48 50 68 51 49 52 52 53 67 54 87 55 50 56
REMARK SMILES IDX 51 57 66 59 88 60 53 61 36 62 37 63 46 64 38 65 39 66 45 67
REMARK SMILES IDX 47 68 40 69 41 70 42 71 43 72 44 73 70 74 71 75 80 76 72 77
REMARK SMILES IDX 73 78 79 79 81 80 74 81 75 82 76 83 77 84 78 85 54 86 55 87
REMARK SMILES IDX 64 88 56 89 57 90 63 91 65 92 58 93 59 94 60 95 61 96 62 97
REMARK H PARENT 17 8 24 28 86 47 52 58
REMARK Flexibility Score: inf
ROOT
ATOM      1  C   UNL A   1      36.099  21.929  26.002  1.00  0.00     0.002 C 
ENDROOT
BRANCH   1   2
ATOM      2  C   UNL A   1      35.349  23.159  26.536  1.00  0.00     0.002 C 
BRANCH   2   3
ATOM      3  C   UNL A   1      34.709  24.074  25.479  1.00  0.00     0.021 C 
BRANCH   3   4
ATOM      4  C   UNL A   1      33.716  25.095  26.045  1.00  0.00     0.116 C 
BRANCH   4   5
ATOM      5  N   UNL A   1      32.545  24.435  26.581  1.00  0.00    -0.352 N 
ATOM      6  C   UNL A   1      31.767  23.365  26.223  1.00  0.00     0.251 C 
ATOM      7  O   UNL A   1      30.883  23.104  27.041  1.00  0.00    -0.269 OA
ATOM      8  H   UNL A   1      32.228  24.859  27.411  1.00  0.00     0.163 HD
BRANCH   6   9
ATOM      9  C   UNL A   1      31.956  22.514  24.986  1.00  0.00     0.047 A 
ATOM     10  C   UNL A   1      32.848  18.893  24.102  1.00  0.00     0.044 C 
ATOM     11  C   UNL A   1      32.444  20.331  23.956  1.00  0.00    -0.050 A 
ATOM     12  C   UNL A   1      32.068  20.824  22.711  1.00  0.00     0.004 A 
ATOM     13  C   UNL A   1      32.441  21.197  25.062  1.00  0.00     0.018 A 
ATOM     14  C   UNL A   1      31.703  22.161  22.580  1.00  0.00     0.010 A 
ATOM     15  C   UNL A   1      31.635  23.027  23.696  1.00  0.00    -0.004 A 
BRANCH  15  16
ATOM     16  C   UNL A   1      31.288  24.441  23.426  1.00  0.00     0.003 A 
ATOM     17  C   UNL A   1      30.022  24.920  23.828  1.00  0.00     0.030 A 
ATOM     18  C   UNL A   1      32.156  25.345  22.781  1.00  0.00     0.049 A 
ATOM     19  C   UNL A   1      29.619  26.222  23.535  1.00  0.00     0.041 A 
ATOM     20  C   UNL A   1      31.757  26.662  22.520  1.00  0.00     0.023 A 
ATOM     21  Cl  UNL A   1      33.746  24.886  22.269  1.00  0.00    -0.084 Cl
ATOM     22  Cl  UNL A   1      28.037  26.748  23.965  1.00  0.00    -0.084 Cl
ATOM     23  C   UNL A   1      30.483  27.096  22.885  1.00  0.00     0.022 A 
ENDBRANCH  15  16
ENDBRANCH   6   9
ENDBRANCH   4   5
ENDBRANCH   3   4
ENDBRANCH   2   3
ENDBRANCH   1   2
BRANCH   1  24
ATOM     24  C   UNL A   1      37.526  22.174  25.505  1.00  0.00     0.021 C 
BRANCH  24  25
ATOM     25  C   UNL A   1      38.157  23.437  26.078  1.00  0.00     0.116 C 
BRANCH  25  26
ATOM     26  N   UNL A   1      39.508  23.203  26.568  1.00  0.00    -0.352 N 
ATOM     27  C   UNL A   1      40.447  24.147  26.944  1.00  0.00     0.251 C 
ATOM     28  H   UNL A   1      39.787  22.262  26.642  1.00  0.00     0.163 HD
ATOM     29  O   UNL A   1      41.632  23.901  27.077  1.00  0.00    -0.269 OA
BRANCH  27  30
ATOM     30  C   UNL A   1      39.909  25.465  27.327  1.00  0.00     0.039 A 
ATOM     31  C   UNL A   1      40.335  26.564  26.572  1.00  0.00     0.014 A 
ATOM     32  C   UNL A   1      39.298  25.623  28.568  1.00  0.00     0.014 A 
ATOM     33  C   UNL A   1      40.306  27.832  27.142  1.00  0.00     0.010 A 
ATOM     34  C   UNL A   1      39.347  26.867  29.161  1.00  0.00     0.010 A 
ATOM     35  C   UNL A   1      39.893  27.959  28.467  1.00  0.00    -0.014 A 
BRANCH  35  36
ATOM     36  C   UNL A   1      40.076  29.172  29.252  1.00  0.00     0.031 A 
ATOM     37  C   UNL A   1      39.013  30.197  29.285  1.00  0.00     0.074 A 
ATOM     38  C   UNL A   1      41.169  29.305  30.036  1.00  0.00     0.049 A 
ATOM     39  N   UNL A   1      39.202  31.414  29.664  1.00  0.00    -0.248 NA
ATOM     40  C   UNL A   1      37.642  29.932  28.862  1.00  0.00     0.031 C 
ATOM     41  C   UNL A   1      41.375  30.271  31.111  1.00  0.00     0.029 A 
ATOM     42  N   UNL A   1      42.414  28.692  29.877  1.00  0.00    -0.354 N 
ATOM     43  C   UNL A   1      37.971  32.012  29.787  1.00  0.00     0.074 A 
ATOM     44  C   UNL A   1      37.031  31.062  29.235  1.00  0.00     0.031 C 
ATOM     45  C   UNL A   1      42.691  30.384  31.345  1.00  0.00     0.029 A 
ATOM     46  C   UNL A   1      43.384  29.613  30.328  1.00  0.00     0.049 A 
ATOM     47  H   UNL A   1      42.583  27.791  29.519  1.00  0.00     0.167 HD
ATOM     48  C   UNL A   1      37.866  33.200  30.444  1.00  0.00     0.037 A 
ATOM     49  C   UNL A   1      44.300  30.124  29.451  1.00  0.00     0.037 A 
ATOM     50  C   UNL A   1      39.171  33.706  30.860  1.00  0.00     0.049 A 
ATOM     51  C   UNL A   1      44.151  31.613  29.181  1.00  0.00     0.074 A 
ATOM     52  C   UNL A   1      39.901  33.677  32.037  1.00  0.00     0.029 A 
ATOM     53  N   UNL A   1      40.062  34.088  29.878  1.00  0.00    -0.354 N 
ATOM     54  N   UNL A   1      43.264  32.388  29.747  1.00  0.00    -0.248 NA
ATOM     55  C   UNL A   1      44.954  32.333  28.190  1.00  0.00     0.031 C 
ATOM     56  C   UNL A   1      41.250  34.027  31.735  1.00  0.00     0.029 A 
ATOM     57  C   UNL A   1      41.334  34.279  30.378  1.00  0.00     0.049 A 
ATOM     58  H   UNL A   1      39.819  34.210  28.931  1.00  0.00     0.167 HD
ATOM     59  C   UNL A   1      43.299  33.629  29.163  1.00  0.00     0.074 A 
ATOM     60  C   UNL A   1      44.394  33.555  28.213  1.00  0.00     0.031 C 
ATOM     61  C   UNL A   1      42.400  34.616  29.449  1.00  0.00     0.037 A 
BRANCH  48  62
ATOM     62  C   UNL A   1      36.546  33.777  30.884  1.00  0.00     0.058 A 
ATOM     63  C   UNL A   1      35.605  34.220  29.933  1.00  0.00     0.135 A 
ATOM     64  C   UNL A   1      36.170  33.957  32.230  1.00  0.00     0.135 A 
ATOM     65  F   UNL A   1      35.807  34.054  28.619  1.00  0.00    -0.206 F 
ATOM     66  C   UNL A   1      34.429  34.880  30.286  1.00  0.00     0.059 A 
ATOM     67  C   UNL A   1      35.024  34.665  32.609  1.00  0.00     0.059 A 
ATOM     68  F   UNL A   1      36.896  33.429  33.227  1.00  0.00    -0.206 F 
ATOM     69  C   UNL A   1      34.162  35.132  31.625  1.00  0.00     0.060 A 
BRANCH  69  70
ATOM     70  S   UNL A   1      32.694  36.090  32.044  1.00  0.00     0.124 S 
ATOM     71  O   UNL A   1      32.414  36.789  30.793  1.00  0.00    -0.237 OA
ATOM     72  O   UNL A   1      31.746  35.045  32.414  1.00  0.00    -0.237 OA
ATOM     73  O   UNL A   1      33.147  36.944  33.139  1.00  0.00    -0.744 OA
ENDBRANCH  69  70
ENDBRANCH  48  62
BRANCH  49  74
ATOM     74  C   UNL A   1      44.769  29.096  28.476  1.00  0.00     0.058 A 
ATOM     75  C   UNL A   1      44.173  29.083  27.198  1.00  0.00     0.135 A 
ATOM     76  C   UNL A   1      46.017  28.473  28.612  1.00  0.00     0.135 A 
ATOM     77  F   UNL A   1      42.969  29.653  27.013  1.00  0.00    -0.206 F 
ATOM     78  C   UNL A   1      44.853  28.628  26.074  1.00  0.00     0.059 A 
ATOM     79  C   UNL A   1      46.712  27.996  27.499  1.00  0.00     0.059 A 
ATOM     80  F   UNL A   1      46.635  28.449  29.801  1.00  0.00    -0.206 F 
ATOM     81  C   UNL A   1      46.150  28.143  26.228  1.00  0.00     0.060 A 
BRANCH  81  82
ATOM     82  S   UNL A   1      47.140  27.870  24.738  1.00  0.00     0.124 S 
ATOM     83  O   UNL A   1      46.656  28.926  23.857  1.00  0.00    -0.237 OA
ATOM     84  O   UNL A   1      48.504  28.039  25.238  1.00  0.00    -0.237 OA
ATOM     85  O   UNL A   1      46.785  26.511  24.348  1.00  0.00    -0.744 OA
ENDBRANCH  81  82
ENDBRANCH  49  74
BRANCH  61  86
ATOM     86  C   UNL A   1      42.444  35.992  28.839  1.00  0.00     0.058 A 
ATOM     87  C   UNL A   1      41.859  36.278  27.595  1.00  0.00     0.135 A 
ATOM     88  C   UNL A   1      43.196  37.037  29.423  1.00  0.00     0.135 A 
ATOM     89  F   UNL A   1      41.169  35.337  26.930  1.00  0.00    -0.206 F 
ATOM     90  C   UNL A   1      41.975  37.531  26.989  1.00  0.00     0.059 A 
ATOM     91  C   UNL A   1      43.372  38.274  28.812  1.00  0.00     0.059 A 
ATOM     92  F   UNL A   1      43.764  36.902  30.630  1.00  0.00    -0.206 F 
ATOM     93  C   UNL A   1      42.735  38.523  27.606  1.00  0.00     0.060 A 
BRANCH  93  94
ATOM     94  S   UNL A   1      42.905  40.136  26.821  1.00  0.00     0.124 S 
ATOM     95  O   UNL A   1      44.046  39.940  25.930  1.00  0.00    -0.237 OA
ATOM     96  O   UNL A   1      41.609  40.276  26.164  1.00  0.00    -0.237 OA
ATOM     97  O   UNL A   1      43.144  41.037  27.944  1.00  0.00    -0.744 OA
ENDBRANCH  93  94
ENDBRANCH  61  86
ENDBRANCH  35  36
ENDBRANCH  27  30
ENDBRANCH  25  26
ENDBRANCH  24  25
ENDBRANCH   1  24
TORSDOF 17
ENDMDL
