MODEL 1
REMARK VINA RESULT:     -10.6      0.000      0.000
REMARK SMILES CC[C@H](Nc1cccc(C(F)(F)F)c1)C(=O)NCCCCCCNC(=O)c1ccc(-c2c3nc(c(-c4c(F)cc(S(=O)(=O)[O-])cc4F)c4ccc([nH]4)c(-c4c(F)cc(S(=O)(=O)[O-])cc4F)c4nc(c(-c5c(F)cc(S(=O)(=O)[O-])cc5F)c5ccc2[nH]5)C=C4)C=C3)cc1
REMARK SMILES IDX 20 1 19 2 18 3 17 4 15 5 16 6 3 8 2 9 1 10 4 11 5 13 6 14
REMARK SMILES IDX 14 15 7 16 9 17 8 18 10 19 11 20 12 21 13 22 21 23 22 24
REMARK SMILES IDX 23 25 24 26 25 27 26 29 27 30 28 31 92 32 29 33 91 34 30 35
REMARK SMILES IDX 31 36 32 37 85 38 33 39 90 40 84 41 86 42 34 43 89 44 83 45
REMARK SMILES IDX 82 46 35 48 69 49 48 50 68 51 49 52 52 53 67 54 87 55 50 56
REMARK SMILES IDX 51 57 66 59 88 60 53 61 36 62 37 63 46 64 38 65 39 66 45 67
REMARK SMILES IDX 47 68 40 69 41 70 42 71 43 72 44 73 70 74 71 75 80 76 72 77
REMARK SMILES IDX 73 78 79 79 81 80 74 81 75 82 76 83 77 84 78 85 54 86 55 87
REMARK SMILES IDX 64 88 56 89 57 90 63 91 65 92 58 93 59 94 60 95 61 96 62 97
REMARK H PARENT 17 7 4 12 24 28 86 47 52 58
REMARK Flexibility Score: inf
ROOT
ATOM      1  C   UNL A   1      31.589  29.564  25.001  1.00  0.00     0.002 C 
ENDROOT
BRANCH   1   2
ATOM      2  C   UNL A   1      32.750  29.075  24.119  1.00  0.00     0.021 C 
BRANCH   2   3
ATOM      3  C   UNL A   1      32.374  28.872  22.654  1.00  0.00     0.116 C 
BRANCH   3   4
ATOM      4  N   UNL A   1      33.037  27.750  22.023  1.00  0.00    -0.354 N 
ATOM      5  C   UNL A   1      32.793  26.418  21.972  1.00  0.00     0.242 C 
ATOM      6  O   UNL A   1      33.619  25.765  21.313  1.00  0.00    -0.273 OA
ATOM      7  H   UNL A   1      33.842  28.013  21.520  1.00  0.00     0.163 HD
BRANCH   5   8
ATOM      8  C   UNL A   1      31.597  25.693  22.621  1.00  0.00     0.168 C 
BRANCH   8   9
ATOM      9  C   UNL A   1      30.406  26.513  23.160  1.00  0.00     0.031 C 
ATOM     10  C   UNL A   1      29.878  26.207  24.559  1.00  0.00     0.006 C 
ENDBRANCH   8   9
BRANCH   8  11
ATOM     11  N   UNL A   1      31.832  24.465  23.399  1.00  0.00    -0.374 N 
ATOM     12  H   UNL A   1      31.081  23.831  23.345  1.00  0.00     0.161 HD
BRANCH  11  13
ATOM     13  C   UNL A   1      32.860  24.005  24.183  1.00  0.00     0.035 A 
ATOM     14  C   UNL A   1      32.806  24.265  25.563  1.00  0.00     0.026 A 
ATOM     15  C   UNL A   1      33.993  23.346  23.723  1.00  0.00     0.038 A 
ATOM     16  C   UNL A   1      33.860  23.953  26.427  1.00  0.00     0.003 A 
ATOM     17  C   UNL A   1      35.128  23.164  24.547  1.00  0.00     0.058 A 
ATOM     18  C   UNL A   1      35.038  23.435  25.913  1.00  0.00     0.013 A 
BRANCH  17  19
ATOM     19  C   UNL A   1      36.461  22.827  23.930  1.00  0.00     0.416 C 
ATOM     20  F   UNL A   1      36.437  22.758  22.569  1.00  0.00    -0.166 F 
ATOM     21  F   UNL A   1      37.447  23.708  24.244  1.00  0.00    -0.166 F 
ATOM     22  F   UNL A   1      36.897  21.603  24.339  1.00  0.00    -0.166 F 
ENDBRANCH  17  19
ENDBRANCH  11  13
ENDBRANCH   8  11
ENDBRANCH   5   8
ENDBRANCH   3   4
ENDBRANCH   2   3
ENDBRANCH   1   2
BRANCH   1  23
ATOM     23  C   UNL A   1      31.591  29.003  26.424  1.00  0.00     0.002 C 
BRANCH  23  24
ATOM     24  C   UNL A   1      32.656  27.940  26.719  1.00  0.00     0.021 C 
BRANCH  24  25
ATOM     25  C   UNL A   1      33.981  28.474  27.254  1.00  0.00     0.116 C 
BRANCH  25  26
ATOM     26  N   UNL A   1      33.871  29.832  27.756  1.00  0.00    -0.352 N 
ATOM     27  C   UNL A   1      34.814  30.584  28.421  1.00  0.00     0.251 C 
ATOM     28  H   UNL A   1      33.007  30.275  27.599  1.00  0.00     0.163 HD
ATOM     29  O   UNL A   1      34.512  31.657  28.920  1.00  0.00    -0.269 OA
BRANCH  27  30
ATOM     30  C   UNL A   1      36.193  30.062  28.556  1.00  0.00     0.039 A 
ATOM     31  C   UNL A   1      37.047  30.139  27.454  1.00  0.00     0.014 A 
ATOM     32  C   UNL A   1      36.646  29.520  29.763  1.00  0.00     0.014 A 
ATOM     33  C   UNL A   1      38.377  29.732  27.582  1.00  0.00     0.010 A 
ATOM     34  C   UNL A   1      37.989  29.162  29.902  1.00  0.00     0.010 A 
ATOM     35  C   UNL A   1      38.870  29.273  28.816  1.00  0.00    -0.014 A 
BRANCH  35  36
ATOM     36  C   UNL A   1      40.315  28.954  28.976  1.00  0.00     0.031 A 
ATOM     37  C   UNL A   1      40.853  27.604  28.586  1.00  0.00     0.074 A 
ATOM     38  C   UNL A   1      41.141  29.881  29.504  1.00  0.00     0.049 A 
ATOM     39  N   UNL A   1      42.082  27.158  28.653  1.00  0.00    -0.248 NA
ATOM     40  C   UNL A   1      39.889  26.621  28.067  1.00  0.00     0.031 C 
ATOM     41  C   UNL A   1      40.731  31.210  29.967  1.00  0.00     0.029 A 
ATOM     42  N   UNL A   1      42.492  29.852  29.747  1.00  0.00    -0.354 N 
ATOM     43  C   UNL A   1      42.040  25.848  28.191  1.00  0.00     0.074 A 
ATOM     44  C   UNL A   1      40.656  25.556  27.884  1.00  0.00     0.031 C 
ATOM     45  C   UNL A   1      41.808  31.872  30.420  1.00  0.00     0.029 A 
ATOM     46  C   UNL A   1      42.979  31.007  30.314  1.00  0.00     0.049 A 
ATOM     47  H   UNL A   1      43.060  29.076  29.535  1.00  0.00     0.167 HD
ATOM     48  C   UNL A   1      43.064  24.977  28.024  1.00  0.00     0.037 A 
ATOM     49  C   UNL A   1      44.225  31.332  30.714  1.00  0.00     0.037 A 
ATOM     50  C   UNL A   1      44.443  25.281  28.310  1.00  0.00     0.049 A 
ATOM     51  C   UNL A   1      45.340  30.338  30.523  1.00  0.00     0.074 A 
ATOM     52  C   UNL A   1      45.557  24.488  28.098  1.00  0.00     0.029 A 
ATOM     53  N   UNL A   1      44.898  26.462  28.877  1.00  0.00    -0.354 N 
ATOM     54  N   UNL A   1      45.293  29.138  29.995  1.00  0.00    -0.248 NA
ATOM     55  C   UNL A   1      46.679  30.742  30.977  1.00  0.00     0.031 C 
ATOM     56  C   UNL A   1      46.678  25.165  28.588  1.00  0.00     0.029 A 
ATOM     57  C   UNL A   1      46.271  26.404  29.054  1.00  0.00     0.049 A 
ATOM     58  H   UNL A   1      44.329  27.229  29.117  1.00  0.00     0.167 HD
ATOM     59  C   UNL A   1      46.598  28.656  30.033  1.00  0.00     0.074 A 
ATOM     60  C   UNL A   1      47.414  29.700  30.613  1.00  0.00     0.031 C 
ATOM     61  C   UNL A   1      47.076  27.453  29.627  1.00  0.00     0.037 A 
BRANCH  48  62
ATOM     62  C   UNL A   1      42.750  23.602  27.499  1.00  0.00     0.058 A 
ATOM     63  C   UNL A   1      42.843  23.296  26.134  1.00  0.00     0.135 A 
ATOM     64  C   UNL A   1      42.458  22.553  28.388  1.00  0.00     0.135 A 
ATOM     65  F   UNL A   1      43.106  24.263  25.240  1.00  0.00    -0.206 F 
ATOM     66  C   UNL A   1      42.654  22.000  25.664  1.00  0.00     0.059 A 
ATOM     67  C   UNL A   1      42.289  21.245  27.943  1.00  0.00     0.059 A 
ATOM     68  F   UNL A   1      42.356  22.791  29.704  1.00  0.00    -0.206 F 
ATOM     69  C   UNL A   1      42.387  20.979  26.578  1.00  0.00     0.060 A 
BRANCH  69  70
ATOM     70  S   UNL A   1      42.202  19.294  25.957  1.00  0.00     0.124 S 
ATOM     71  O   UNL A   1      42.693  18.511  27.087  1.00  0.00    -0.237 OA
ATOM     72  O   UNL A   1      40.767  19.211  25.704  1.00  0.00    -0.237 OA
ATOM     73  O   UNL A   1      43.048  19.273  24.767  1.00  0.00    -0.744 OA
ENDBRANCH  69  70
ENDBRANCH  48  62
BRANCH  49  74
ATOM     74  C   UNL A   1      44.493  32.652  31.349  1.00  0.00     0.058 A 
ATOM     75  C   UNL A   1      44.889  33.761  30.586  1.00  0.00     0.135 A 
ATOM     76  C   UNL A   1      44.392  32.821  32.740  1.00  0.00     0.135 A 
ATOM     77  F   UNL A   1      45.006  33.652  29.254  1.00  0.00    -0.206 F 
ATOM     78  C   UNL A   1      45.213  34.978  31.180  1.00  0.00     0.059 A 
ATOM     79  C   UNL A   1      44.681  34.035  33.353  1.00  0.00     0.059 A 
ATOM     80  F   UNL A   1      44.001  31.797  33.515  1.00  0.00    -0.206 F 
ATOM     81  C   UNL A   1      45.109  35.103  32.567  1.00  0.00     0.060 A 
BRANCH  81  82
ATOM     82  S   UNL A   1      45.526  36.686  33.331  1.00  0.00     0.124 S 
ATOM     83  O   UNL A   1      44.204  37.266  33.541  1.00  0.00    -0.237 OA
ATOM     84  O   UNL A   1      46.239  36.268  34.534  1.00  0.00    -0.237 OA
ATOM     85  O   UNL A   1      46.350  37.339  32.318  1.00  0.00    -0.744 OA
ENDBRANCH  81  82
ENDBRANCH  49  74
BRANCH  61  86
ATOM     86  C   UNL A   1      48.553  27.207  29.773  1.00  0.00     0.058 A 
ATOM     87  C   UNL A   1      49.477  27.694  28.836  1.00  0.00     0.135 A 
ATOM     88  C   UNL A   1      49.054  26.517  30.890  1.00  0.00     0.135 A 
ATOM     89  F   UNL A   1      49.052  28.353  27.747  1.00  0.00    -0.206 F 
ATOM     90  C   UNL A   1      50.844  27.484  28.986  1.00  0.00     0.059 A 
ATOM     91  C   UNL A   1      50.419  26.323  31.076  1.00  0.00     0.059 A 
ATOM     92  F   UNL A   1      48.214  26.039  31.822  1.00  0.00    -0.206 F 
ATOM     93  C   UNL A   1      51.306  26.799  30.112  1.00  0.00     0.060 A 
BRANCH  93  94
ATOM     94  S   UNL A   1      53.085  26.562  30.310  1.00  0.00     0.124 S 
ATOM     95  O   UNL A   1      53.134  25.595  31.400  1.00  0.00    -0.237 OA
ATOM     96  O   UNL A   1      53.481  26.060  28.998  1.00  0.00    -0.237 OA
ATOM     97  O   UNL A   1      53.572  27.900  30.635  1.00  0.00    -0.744 OA
ENDBRANCH  93  94
ENDBRANCH  61  86
ENDBRANCH  35  36
ENDBRANCH  27  30
ENDBRANCH  25  26
ENDBRANCH  24  25
ENDBRANCH  23  24
ENDBRANCH   1  23
TORSDOF 20
ENDMDL
MODEL 2
REMARK VINA RESULT:     -10.2      1.349      8.443
REMARK SMILES CC[C@H](Nc1cccc(C(F)(F)F)c1)C(=O)NCCCCCCNC(=O)c1ccc(-c2c3nc(c(-c4c(F)cc(S(=O)(=O)[O-])cc4F)c4ccc([nH]4)c(-c4c(F)cc(S(=O)(=O)[O-])cc4F)c4nc(c(-c5c(F)cc(S(=O)(=O)[O-])cc5F)c5ccc2[nH]5)C=C4)C=C3)cc1
REMARK SMILES IDX 20 1 19 2 18 3 17 4 15 5 16 6 3 8 2 9 1 10 4 11 5 13 6 14
REMARK SMILES IDX 14 15 7 16 9 17 8 18 10 19 11 20 12 21 13 22 21 23 22 24
REMARK SMILES IDX 23 25 24 26 25 27 26 29 27 30 28 31 92 32 29 33 91 34 30 35
REMARK SMILES IDX 31 36 32 37 85 38 33 39 90 40 84 41 86 42 34 43 89 44 83 45
REMARK SMILES IDX 82 46 35 48 69 49 48 50 68 51 49 52 52 53 67 54 87 55 50 56
REMARK SMILES IDX 51 57 66 59 88 60 53 61 36 62 37 63 46 64 38 65 39 66 45 67
REMARK SMILES IDX 47 68 40 69 41 70 42 71 43 72 44 73 70 74 71 75 80 76 72 77
REMARK SMILES IDX 73 78 79 79 81 80 74 81 75 82 76 83 77 84 78 85 54 86 55 87
REMARK SMILES IDX 64 88 56 89 57 90 63 91 65 92 58 93 59 94 60 95 61 96 62 97
REMARK H PARENT 17 7 4 12 24 28 86 47 52 58
REMARK Flexibility Score: inf
ROOT
ATOM      1  C   UNL A   1      31.306  28.749  24.370  1.00  0.00     0.002 C 
ENDROOT
BRANCH   1   2
ATOM      2  C   UNL A   1      31.720  27.376  23.816  1.00  0.00     0.021 C 
BRANCH   2   3
ATOM      3  C   UNL A   1      30.565  26.387  23.680  1.00  0.00     0.116 C 
BRANCH   3   4
ATOM      4  N   UNL A   1      30.129  25.812  24.934  1.00  0.00    -0.354 N 
ATOM      5  C   UNL A   1      30.588  24.808  25.721  1.00  0.00     0.242 C 
ATOM      6  O   UNL A   1      29.917  24.606  26.746  1.00  0.00    -0.273 OA
ATOM      7  H   UNL A   1      29.321  26.244  25.295  1.00  0.00     0.163 HD
BRANCH   5   8
ATOM      8  C   UNL A   1      31.848  23.959  25.459  1.00  0.00     0.168 C 
BRANCH   8   9
ATOM      9  C   UNL A   1      32.001  22.585  26.145  1.00  0.00     0.031 C 
ATOM     10  C   UNL A   1      31.886  21.323  25.294  1.00  0.00     0.006 C 
ENDBRANCH   8   9
BRANCH   8  11
ATOM     11  N   UNL A   1      33.142  24.631  25.251  1.00  0.00    -0.374 N 
ATOM     12  H   UNL A   1      33.116  25.587  25.482  1.00  0.00     0.161 HD
BRANCH  11  13
ATOM     13  C   UNL A   1      34.376  24.225  24.809  1.00  0.00     0.035 A 
ATOM     14  C   UNL A   1      34.439  23.476  23.621  1.00  0.00     0.026 A 
ATOM     15  C   UNL A   1      35.580  24.442  25.465  1.00  0.00     0.038 A 
ATOM     16  C   UNL A   1      35.628  22.907  23.155  1.00  0.00     0.003 A 
ATOM     17  C   UNL A   1      36.758  23.750  25.098  1.00  0.00     0.058 A 
ATOM     18  C   UNL A   1      36.783  23.013  23.913  1.00  0.00     0.013 A 
BRANCH  17  19
ATOM     19  C   UNL A   1      37.923  23.686  26.051  1.00  0.00     0.416 C 
ATOM     20  F   UNL A   1      38.432  22.432  26.216  1.00  0.00    -0.166 F 
ATOM     21  F   UNL A   1      38.971  24.472  25.689  1.00  0.00    -0.166 F 
ATOM     22  F   UNL A   1      37.559  24.087  27.302  1.00  0.00    -0.166 F 
ENDBRANCH  17  19
ENDBRANCH  11  13
ENDBRANCH   8  11
ENDBRANCH   5   8
ENDBRANCH   3   4
ENDBRANCH   2   3
ENDBRANCH   1   2
BRANCH   1  23
ATOM     23  C   UNL A   1      31.617  28.956  25.854  1.00  0.00     0.002 C 
BRANCH  23  24
ATOM     24  C   UNL A   1      32.549  27.918  26.489  1.00  0.00     0.021 C 
BRANCH  24  25
ATOM     25  C   UNL A   1      33.839  28.475  27.084  1.00  0.00     0.116 C 
BRANCH  25  26
ATOM     26  N   UNL A   1      33.692  29.844  27.546  1.00  0.00    -0.352 N 
ATOM     27  C   UNL A   1      34.586  30.616  28.254  1.00  0.00     0.251 C 
ATOM     28  H   UNL A   1      32.838  30.279  27.323  1.00  0.00     0.163 HD
ATOM     29  O   UNL A   1      34.248  31.698  28.707  1.00  0.00    -0.269 OA
BRANCH  27  30
ATOM     30  C   UNL A   1      35.956  30.104  28.490  1.00  0.00     0.039 A 
ATOM     31  C   UNL A   1      36.881  30.167  27.447  1.00  0.00     0.014 A 
ATOM     32  C   UNL A   1      36.329  29.586  29.734  1.00  0.00     0.014 A 
ATOM     33  C   UNL A   1      38.201  29.769  27.670  1.00  0.00     0.010 A 
ATOM     34  C   UNL A   1      37.661  29.238  29.969  1.00  0.00     0.010 A 
ATOM     35  C   UNL A   1      38.613  29.335  28.942  1.00  0.00    -0.014 A 
BRANCH  35  36
ATOM     36  C   UNL A   1      40.045  29.027  29.204  1.00  0.00     0.031 A 
ATOM     37  C   UNL A   1      40.961  30.066  29.792  1.00  0.00     0.074 A 
ATOM     38  C   UNL A   1      40.528  27.809  28.882  1.00  0.00     0.049 A 
ATOM     39  N   UNL A   1      42.232  29.969  30.090  1.00  0.00    -0.248 NA
ATOM     40  C   UNL A   1      40.382  31.391  30.071  1.00  0.00     0.031 C 
ATOM     41  C   UNL A   1      39.753  26.732  28.260  1.00  0.00     0.029 A 
ATOM     42  N   UNL A   1      41.783  27.270  29.025  1.00  0.00    -0.354 N 
ATOM     43  C   UNL A   1      42.607  31.212  30.584  1.00  0.00     0.074 A 
ATOM     44  C   UNL A   1      41.438  32.063  30.510  1.00  0.00     0.031 C 
ATOM     45  C   UNL A   1      40.542  25.659  28.092  1.00  0.00     0.029 A 
ATOM     46  C   UNL A   1      41.888  25.979  28.560  1.00  0.00     0.049 A 
ATOM     47  H   UNL A   1      42.537  27.761  29.422  1.00  0.00     0.167 HD
ATOM     48  C   UNL A   1      43.809  31.602  31.071  1.00  0.00     0.037 A 
ATOM     49  C   UNL A   1      42.948  25.148  28.505  1.00  0.00     0.037 A 
ATOM     50  C   UNL A   1      44.964  30.744  31.164  1.00  0.00     0.049 A 
ATOM     51  C   UNL A   1      44.275  25.615  29.045  1.00  0.00     0.074 A 
ATOM     52  C   UNL A   1      46.201  31.030  31.714  1.00  0.00     0.029 A 
ATOM     53  N   UNL A   1      45.030  29.443  30.689  1.00  0.00    -0.354 N 
ATOM     54  N   UNL A   1      44.582  26.765  29.597  1.00  0.00    -0.248 NA
ATOM     55  C   UNL A   1      45.398  24.670  28.962  1.00  0.00     0.031 C 
ATOM     56  C   UNL A   1      47.033  29.923  31.522  1.00  0.00     0.029 A 
ATOM     57  C   UNL A   1      46.297  28.925  30.902  1.00  0.00     0.049 A 
ATOM     58  H   UNL A   1      44.285  28.959  30.264  1.00  0.00     0.167 HD
ATOM     59  C   UNL A   1      45.926  26.671  29.945  1.00  0.00     0.074 A 
ATOM     60  C   UNL A   1      46.366  25.347  29.565  1.00  0.00     0.031 C 
ATOM     61  C   UNL A   1      46.725  27.602  30.525  1.00  0.00     0.037 A 
BRANCH  48  62
ATOM     62  C   UNL A   1      43.957  33.020  31.553  1.00  0.00     0.058 A 
ATOM     63  C   UNL A   1      43.702  33.374  32.886  1.00  0.00     0.135 A 
ATOM     64  C   UNL A   1      44.461  34.012  30.696  1.00  0.00     0.135 A 
ATOM     65  F   UNL A   1      43.207  32.468  33.744  1.00  0.00    -0.206 F 
ATOM     66  C   UNL A   1      43.939  34.663  33.354  1.00  0.00     0.059 A 
ATOM     67  C   UNL A   1      44.729  35.301  31.148  1.00  0.00     0.059 A 
ATOM     68  F   UNL A   1      44.720  33.727  29.410  1.00  0.00    -0.206 F 
ATOM     69  C   UNL A   1      44.462  35.617  32.479  1.00  0.00     0.060 A 
BRANCH  69  70
ATOM     70  S   UNL A   1      44.818  37.268  33.119  1.00  0.00     0.124 S 
ATOM     71  O   UNL A   1      43.532  37.637  33.704  1.00  0.00    -0.237 OA
ATOM     72  O   UNL A   1      45.895  37.008  34.069  1.00  0.00    -0.237 OA
ATOM     73  O   UNL A   1      45.203  38.020  31.928  1.00  0.00    -0.744 OA
ENDBRANCH  69  70
ENDBRANCH  48  62
BRANCH  49  74
ATOM     74  C   UNL A   1      42.814  23.791  27.907  1.00  0.00     0.058 A 
ATOM     75  C   UNL A   1      42.888  23.595  26.520  1.00  0.00     0.135 A 
ATOM     76  C   UNL A   1      42.571  22.666  28.711  1.00  0.00     0.135 A 
ATOM     77  F   UNL A   1      43.112  24.639  25.706  1.00  0.00    -0.206 F 
ATOM     78  C   UNL A   1      42.689  22.342  25.947  1.00  0.00     0.059 A 
ATOM     79  C   UNL A   1      42.400  21.398  28.165  1.00  0.00     0.059 A 
ATOM     80  F   UNL A   1      42.508  22.793  30.046  1.00  0.00    -0.206 F 
ATOM     81  C   UNL A   1      42.441  21.249  26.780  1.00  0.00     0.060 A 
BRANCH  81  82
ATOM     82  S   UNL A   1      42.190  19.625  26.032  1.00  0.00     0.124 S 
ATOM     83  O   UNL A   1      43.011  19.725  24.831  1.00  0.00    -0.237 OA
ATOM     84  O   UNL A   1      42.685  18.728  27.071  1.00  0.00    -0.237 OA
ATOM     85  O   UNL A   1      40.747  19.580  25.810  1.00  0.00    -0.744 OA
ENDBRANCH  81  82
ENDBRANCH  49  74
BRANCH  61  86
ATOM     86  C   UNL A   1      48.151  27.215  30.806  1.00  0.00     0.058 A 
ATOM     87  C   UNL A   1      48.507  26.498  31.959  1.00  0.00     0.135 A 
ATOM     88  C   UNL A   1      49.168  27.525  29.887  1.00  0.00     0.135 A 
ATOM     89  F   UNL A   1      47.576  26.183  32.873  1.00  0.00    -0.206 F 
ATOM     90  C   UNL A   1      49.823  26.123  32.204  1.00  0.00     0.059 A 
ATOM     91  C   UNL A   1      50.486  27.132  30.097  1.00  0.00     0.059 A 
ATOM     92  F   UNL A   1      48.881  28.201  28.763  1.00  0.00    -0.206 F 
ATOM     93  C   UNL A   1      50.807  26.442  31.265  1.00  0.00     0.060 A 
BRANCH  93  94
ATOM     94  S   UNL A   1      52.506  25.921  31.581  1.00  0.00     0.124 S 
ATOM     95  O   UNL A   1      52.313  24.548  32.036  1.00  0.00    -0.237 OA
ATOM     96  O   UNL A   1      53.128  26.074  30.271  1.00  0.00    -0.237 OA
ATOM     97  O   UNL A   1      52.966  26.860  32.600  1.00  0.00    -0.744 OA
ENDBRANCH  93  94
ENDBRANCH  61  86
ENDBRANCH  35  36
ENDBRANCH  27  30
ENDBRANCH  25  26
ENDBRANCH  24  25
ENDBRANCH  23  24
ENDBRANCH   1  23
TORSDOF 20
ENDMDL
MODEL 3
REMARK VINA RESULT:     -10.1      1.210      2.065
REMARK SMILES CC[C@H](Nc1cccc(C(F)(F)F)c1)C(=O)NCCCCCCNC(=O)c1ccc(-c2c3nc(c(-c4c(F)cc(S(=O)(=O)[O-])cc4F)c4ccc([nH]4)c(-c4c(F)cc(S(=O)(=O)[O-])cc4F)c4nc(c(-c5c(F)cc(S(=O)(=O)[O-])cc5F)c5ccc2[nH]5)C=C4)C=C3)cc1
REMARK SMILES IDX 20 1 19 2 18 3 17 4 15 5 16 6 3 8 2 9 1 10 4 11 5 13 6 14
REMARK SMILES IDX 14 15 7 16 9 17 8 18 10 19 11 20 12 21 13 22 21 23 22 24
REMARK SMILES IDX 23 25 24 26 25 27 26 29 27 30 28 31 92 32 29 33 91 34 30 35
REMARK SMILES IDX 31 36 32 37 85 38 33 39 90 40 84 41 86 42 34 43 89 44 83 45
REMARK SMILES IDX 82 46 35 48 69 49 48 50 68 51 49 52 52 53 67 54 87 55 50 56
REMARK SMILES IDX 51 57 66 59 88 60 53 61 36 62 37 63 46 64 38 65 39 66 45 67
REMARK SMILES IDX 47 68 40 69 41 70 42 71 43 72 44 73 70 74 71 75 80 76 72 77
REMARK SMILES IDX 73 78 79 79 81 80 74 81 75 82 76 83 77 84 78 85 54 86 55 87
REMARK SMILES IDX 64 88 56 89 57 90 63 91 65 92 58 93 59 94 60 95 61 96 62 97
REMARK H PARENT 17 7 4 12 24 28 86 47 52 58
REMARK Flexibility Score: inf
ROOT
ATOM      1  C   UNL A   1      31.680  29.179  24.599  1.00  0.00     0.002 C 
ENDROOT
BRANCH   1   2
ATOM      2  C   UNL A   1      32.361  28.235  23.594  1.00  0.00     0.021 C 
BRANCH   2   3
ATOM      3  C   UNL A   1      31.387  27.369  22.799  1.00  0.00     0.116 C 
BRANCH   3   4
ATOM      4  N   UNL A   1      31.941  26.827  21.576  1.00  0.00    -0.354 N 
ATOM      5  C   UNL A   1      32.590  25.679  21.263  1.00  0.00     0.242 C 
ATOM      6  O   UNL A   1      32.919  25.580  20.070  1.00  0.00    -0.273 OA
ATOM      7  H   UNL A   1      31.819  27.424  20.802  1.00  0.00     0.163 HD
BRANCH   5   8
ATOM      8  C   UNL A   1      32.905  24.526  22.235  1.00  0.00     0.168 C 
BRANCH   8   9
ATOM      9  C   UNL A   1      31.765  23.616  22.739  1.00  0.00     0.031 C 
ATOM     10  C   UNL A   1      30.960  24.056  23.960  1.00  0.00     0.006 C 
ENDBRANCH   8   9
BRANCH   8  11
ATOM     11  N   UNL A   1      33.972  24.695  23.236  1.00  0.00    -0.374 N 
ATOM     12  H   UNL A   1      34.363  25.599  23.226  1.00  0.00     0.161 HD
BRANCH  11  13
ATOM     13  C   UNL A   1      34.544  23.879  24.179  1.00  0.00     0.035 A 
ATOM     14  C   UNL A   1      35.576  23.017  23.769  1.00  0.00     0.026 A 
ATOM     15  C   UNL A   1      34.155  23.785  25.509  1.00  0.00     0.038 A 
ATOM     16  C   UNL A   1      36.136  22.059  24.619  1.00  0.00     0.003 A 
ATOM     17  C   UNL A   1      34.595  22.726  26.336  1.00  0.00     0.058 A 
ATOM     18  C   UNL A   1      35.620  21.887  25.894  1.00  0.00     0.013 A 
BRANCH  17  19
ATOM     19  C   UNL A   1      33.862  22.412  27.615  1.00  0.00     0.416 C 
ATOM     20  F   UNL A   1      33.655  21.081  27.819  1.00  0.00    -0.166 F 
ATOM     21  F   UNL A   1      34.488  22.871  28.730  1.00  0.00    -0.166 F 
ATOM     22  F   UNL A   1      32.618  22.969  27.618  1.00  0.00    -0.166 F 
ENDBRANCH  17  19
ENDBRANCH  11  13
ENDBRANCH   8  11
ENDBRANCH   5   8
ENDBRANCH   3   4
ENDBRANCH   2   3
ENDBRANCH   1   2
BRANCH   1  23
ATOM     23  C   UNL A   1      31.618  28.645  26.032  1.00  0.00     0.002 C 
BRANCH  23  24
ATOM     24  C   UNL A   1      32.730  27.668  26.426  1.00  0.00     0.021 C 
BRANCH  24  25
ATOM     25  C   UNL A   1      34.035  28.313  26.883  1.00  0.00     0.116 C 
BRANCH  25  26
ATOM     26  N   UNL A   1      33.833  29.637  27.446  1.00  0.00    -0.352 N 
ATOM     27  C   UNL A   1      34.703  30.398  28.193  1.00  0.00     0.251 C 
ATOM     28  H   UNL A   1      32.955  30.045  27.268  1.00  0.00     0.163 HD
ATOM     29  O   UNL A   1      34.324  31.427  28.729  1.00  0.00    -0.269 OA
BRANCH  27  30
ATOM     30  C   UNL A   1      36.100  29.938  28.371  1.00  0.00     0.039 A 
ATOM     31  C   UNL A   1      36.984  30.057  27.296  1.00  0.00     0.014 A 
ATOM     32  C   UNL A   1      36.538  29.411  29.590  1.00  0.00     0.014 A 
ATOM     33  C   UNL A   1      38.325  29.709  27.465  1.00  0.00     0.010 A 
ATOM     34  C   UNL A   1      37.890  29.112  29.770  1.00  0.00     0.010 A 
ATOM     35  C   UNL A   1      38.799  29.267  28.713  1.00  0.00    -0.014 A 
BRANCH  35  36
ATOM     36  C   UNL A   1      40.252  29.012  28.917  1.00  0.00     0.031 A 
ATOM     37  C   UNL A   1      40.853  27.674  28.582  1.00  0.00     0.074 A 
ATOM     38  C   UNL A   1      41.026  29.987  29.436  1.00  0.00     0.049 A 
ATOM     39  N   UNL A   1      42.097  27.280  28.692  1.00  0.00    -0.248 NA
ATOM     40  C   UNL A   1      39.942  26.638  28.070  1.00  0.00     0.031 C 
ATOM     41  C   UNL A   1      40.552  31.311  29.849  1.00  0.00     0.029 A 
ATOM     42  N   UNL A   1      42.371  30.020  29.713  1.00  0.00    -0.354 N 
ATOM     43  C   UNL A   1      42.119  25.957  28.270  1.00  0.00     0.074 A 
ATOM     44  C   UNL A   1      40.756  25.599  27.938  1.00  0.00     0.031 C 
ATOM     45  C   UNL A   1      41.590  32.029  30.307  1.00  0.00     0.029 A 
ATOM     46  C   UNL A   1      42.797  31.211  30.256  1.00  0.00     0.049 A 
ATOM     47  H   UNL A   1      42.974  29.262  29.539  1.00  0.00     0.167 HD
ATOM     48  C   UNL A   1      43.180  25.123  28.154  1.00  0.00     0.037 A 
ATOM     49  C   UNL A   1      44.018  31.598  30.676  1.00  0.00     0.037 A 
ATOM     50  C   UNL A   1      44.539  25.492  28.465  1.00  0.00     0.049 A 
ATOM     51  C   UNL A   1      45.176  30.644  30.543  1.00  0.00     0.074 A 
ATOM     52  C   UNL A   1      45.688  24.738  28.304  1.00  0.00     0.029 A 
ATOM     53  N   UNL A   1      44.931  26.707  29.006  1.00  0.00    -0.354 N 
ATOM     54  N   UNL A   1      45.191  29.428  30.051  1.00  0.00    -0.248 NA
ATOM     55  C   UNL A   1      46.486  31.116  31.016  1.00  0.00     0.031 C 
ATOM     56  C   UNL A   1      46.769  25.474  28.800  1.00  0.00     0.029 A 
ATOM     57  C   UNL A   1      46.300  26.709  29.218  1.00  0.00     0.049 A 
ATOM     58  H   UNL A   1      44.326  27.456  29.208  1.00  0.00     0.167 HD
ATOM     59  C   UNL A   1      46.512  29.000  30.135  1.00  0.00     0.074 A 
ATOM     60  C   UNL A   1      47.271  30.094  30.703  1.00  0.00     0.031 C 
ATOM     61  C   UNL A   1      47.048  27.806  29.778  1.00  0.00     0.037 A 
BRANCH  48  62
ATOM     62  C   UNL A   1      42.935  23.722  27.665  1.00  0.00     0.058 A 
ATOM     63  C   UNL A   1      42.632  22.676  28.549  1.00  0.00     0.135 A 
ATOM     64  C   UNL A   1      42.900  23.447  26.287  1.00  0.00     0.135 A 
ATOM     65  F   UNL A   1      42.665  22.880  29.876  1.00  0.00    -0.206 F 
ATOM     66  C   UNL A   1      42.305  21.405  28.086  1.00  0.00     0.059 A 
ATOM     67  C   UNL A   1      42.551  22.190  25.802  1.00  0.00     0.059 A 
ATOM     68  F   UNL A   1      43.183  24.411  25.398  1.00  0.00    -0.206 F 
ATOM     69  C   UNL A   1      42.257  21.174  26.710  1.00  0.00     0.060 A 
BRANCH  69  70
ATOM     70  S   UNL A   1      41.774  19.535  26.128  1.00  0.00     0.124 S 
ATOM     71  O   UNL A   1      42.693  19.340  25.010  1.00  0.00    -0.237 OA
ATOM     72  O   UNL A   1      42.019  18.703  27.302  1.00  0.00    -0.237 OA
ATOM     73  O   UNL A   1      40.370  19.702  25.763  1.00  0.00    -0.744 OA
ENDBRANCH  69  70
ENDBRANCH  48  62
BRANCH  49  74
ATOM     74  C   UNL A   1      44.217  32.945  31.277  1.00  0.00     0.058 A 
ATOM     75  C   UNL A   1      44.535  34.058  30.483  1.00  0.00     0.135 A 
ATOM     76  C   UNL A   1      44.128  33.140  32.665  1.00  0.00     0.135 A 
ATOM     77  F   UNL A   1      44.637  33.924  29.152  1.00  0.00    -0.206 F 
ATOM     78  C   UNL A   1      44.794  35.305  31.043  1.00  0.00     0.059 A 
ATOM     79  C   UNL A   1      44.353  34.384  33.246  1.00  0.00     0.059 A 
ATOM     80  F   UNL A   1      43.810  32.114  33.470  1.00  0.00    -0.206 F 
ATOM     81  C   UNL A   1      44.705  35.456  32.429  1.00  0.00     0.060 A 
BRANCH  81  82
ATOM     82  S   UNL A   1      45.039  37.078  33.150  1.00  0.00     0.124 S 
ATOM     83  O   UNL A   1      45.887  37.684  32.130  1.00  0.00    -0.237 OA
ATOM     84  O   UNL A   1      43.697  37.638  33.280  1.00  0.00    -0.237 OA
ATOM     85  O   UNL A   1      45.699  36.753  34.411  1.00  0.00    -0.744 OA
ENDBRANCH  81  82
ENDBRANCH  49  74
BRANCH  61  86
ATOM     86  C   UNL A   1      48.530  27.626  29.967  1.00  0.00     0.058 A 
ATOM     87  C   UNL A   1      49.060  27.055  31.134  1.00  0.00     0.135 A 
ATOM     88  C   UNL A   1      49.427  27.984  28.946  1.00  0.00     0.135 A 
ATOM     89  F   UNL A   1      48.247  26.701  32.142  1.00  0.00    -0.206 F 
ATOM     90  C   UNL A   1      50.429  26.869  31.296  1.00  0.00     0.059 A 
ATOM     91  C   UNL A   1      50.797  27.778  29.074  1.00  0.00     0.059 A 
ATOM     92  F   UNL A   1      48.973  28.525  27.805  1.00  0.00    -0.206 F 
ATOM     93  C   UNL A   1      51.290  27.231  30.258  1.00  0.00     0.060 A 
BRANCH  93  94
ATOM     94  S   UNL A   1      53.062  26.955  30.469  1.00  0.00     0.124 S 
ATOM     95  O   UNL A   1      53.436  26.430  29.160  1.00  0.00    -0.237 OA
ATOM     96  O   UNL A   1      53.552  28.293  30.779  1.00  0.00    -0.237 OA
ATOM     97  O   UNL A   1      53.127  25.999  31.571  1.00  0.00    -0.744 OA
ENDBRANCH  93  94
ENDBRANCH  61  86
ENDBRANCH  35  36
ENDBRANCH  27  30
ENDBRANCH  25  26
ENDBRANCH  24  25
ENDBRANCH  23  24
ENDBRANCH   1  23
TORSDOF 20
ENDMDL
