MODEL 1
REMARK VINA RESULT:     -11.0      0.000      0.000
REMARK SMILES C[C@H]1CC[C@@]1(C(=O)NCCCCCCNC(=O)c1ccc(-c2c3nc(c(-c4c(F)cc(S(=O)(=O)[O-])cc4F)c4ccc([nH]4)c(-c4c(F)cc(S(=O)(=O)[O-])cc4F)c4nc(c(-c5c(F)cc(S(=O)(=O)[O-])cc5F)c5ccc2[nH]5)C=C4)C=C3)cc1)c1cc(F)cc(F)c1
REMARK SMILES IDX 12 1 11 2 10 3 9 4 8 5 6 6 7 7 5 9 1 10 2 11 3 12 4 13 84 14
REMARK SMILES IDX 85 15 91 16 86 17 89 18 87 19 88 20 90 21 13 22 14 23 15 24
REMARK SMILES IDX 16 25 17 27 18 28 19 29 83 30 20 31 82 32 21 33 22 34 23 35
REMARK SMILES IDX 76 36 24 37 81 38 75 39 77 40 25 41 80 42 74 43 73 44 26 46
REMARK SMILES IDX 60 47 39 48 59 49 40 50 43 51 58 52 78 53 41 54 42 55 57 57
REMARK SMILES IDX 79 58 44 59 27 60 28 61 37 62 29 63 30 64 36 65 38 66 31 67
REMARK SMILES IDX 32 68 33 69 34 70 35 71 61 72 62 73 71 74 63 75 64 76 70 77
REMARK SMILES IDX 72 78 65 79 66 80 67 81 68 82 69 83 45 84 46 85 55 86 47 87
REMARK SMILES IDX 48 88 54 89 56 90 49 91 50 92 51 93 52 94 53 95
REMARK H PARENT 8 8 15 26 77 45 43 56
REMARK Flexibility Score: inf
ROOT
ATOM      1  C   UNL A   1      31.644  27.833  26.662  1.00  0.00     0.002 C 
ENDROOT
BRANCH   1   2
ATOM      2  C   UNL A   1      30.708  26.622  26.671  1.00  0.00     0.002 C 
BRANCH   2   3
ATOM      3  C   UNL A   1      30.443  25.999  25.298  1.00  0.00     0.021 C 
BRANCH   3   4
ATOM      4  C   UNL A   1      30.793  24.517  25.183  1.00  0.00     0.116 C 
BRANCH   4   5
ATOM      5  N   UNL A   1      31.222  23.947  26.448  1.00  0.00    -0.355 N 
ATOM      6  C   UNL A   1      32.344  23.203  26.739  1.00  0.00     0.230 C 
ATOM      7  O   UNL A   1      32.443  22.795  27.903  1.00  0.00    -0.274 OA
ATOM      8  H   UNL A   1      30.621  24.116  27.209  1.00  0.00     0.163 HD
BRANCH   6   9
ATOM      9  C   UNL A   1      33.418  22.919  25.575  1.00  0.00     0.077 C 
ATOM     10  C   UNL A   1      35.993  22.076  25.351  1.00  0.00     0.009 C 
ATOM     11  C   UNL A   1      34.927  22.861  26.105  1.00  0.00     0.006 C 
ATOM     12  C   UNL A   1      35.000  24.385  25.857  1.00  0.00     0.006 C 
ATOM     13  C   UNL A   1      33.878  24.228  24.818  1.00  0.00     0.022 C 
BRANCH   9  14
ATOM     14  C   UNL A   1      32.905  21.632  24.699  1.00  0.00    -0.026 A 
ATOM     15  C   UNL A   1      32.826  20.328  25.238  1.00  0.00     0.044 A 
ATOM     16  C   UNL A   1      32.533  21.731  23.337  1.00  0.00     0.044 A 
ATOM     17  C   UNL A   1      32.455  19.223  24.467  1.00  0.00     0.126 A 
ATOM     18  C   UNL A   1      32.202  20.613  22.567  1.00  0.00     0.126 A 
ATOM     19  F   UNL A   1      32.394  18.016  25.043  1.00  0.00    -0.207 F 
ATOM     20  C   UNL A   1      32.163  19.350  23.122  1.00  0.00     0.078 A 
ATOM     21  F   UNL A   1      31.945  20.770  21.261  1.00  0.00    -0.207 F 
ENDBRANCH   9  14
ENDBRANCH   6   9
ENDBRANCH   4   5
ENDBRANCH   3   4
ENDBRANCH   2   3
ENDBRANCH   1   2
BRANCH   1  22
ATOM     22  C   UNL A   1      33.135  27.496  26.682  1.00  0.00     0.021 C 
BRANCH  22  23
ATOM     23  C   UNL A   1      34.049  28.626  26.222  1.00  0.00     0.116 C 
BRANCH  23  24
ATOM     24  N   UNL A   1      33.783  29.868  26.929  1.00  0.00    -0.352 N 
ATOM     25  C   UNL A   1      34.544  30.494  27.884  1.00  0.00     0.251 C 
ATOM     26  H   UNL A   1      32.942  30.322  26.691  1.00  0.00     0.163 HD
ATOM     27  O   UNL A   1      34.082  31.434  28.526  1.00  0.00    -0.269 OA
BRANCH  25  28
ATOM     28  C   UNL A   1      35.917  30.015  28.148  1.00  0.00     0.039 A 
ATOM     29  C   UNL A   1      36.882  30.121  27.143  1.00  0.00     0.014 A 
ATOM     30  C   UNL A   1      36.252  29.474  29.392  1.00  0.00     0.014 A 
ATOM     31  C   UNL A   1      38.199  29.740  27.407  1.00  0.00     0.010 A 
ATOM     32  C   UNL A   1      37.579  29.167  29.677  1.00  0.00     0.010 A 
ATOM     33  C   UNL A   1      38.567  29.291  28.687  1.00  0.00    -0.014 A 
BRANCH  33  34
ATOM     34  C   UNL A   1      39.970  28.929  29.013  1.00  0.00     0.031 A 
ATOM     35  C   UNL A   1      40.888  29.961  29.611  1.00  0.00     0.074 A 
ATOM     36  C   UNL A   1      40.438  27.704  28.703  1.00  0.00     0.049 A 
ATOM     37  N   UNL A   1      42.169  29.882  29.862  1.00  0.00    -0.248 NA
ATOM     38  C   UNL A   1      40.291  31.265  29.944  1.00  0.00     0.031 C 
ATOM     39  C   UNL A   1      39.657  26.629  28.088  1.00  0.00     0.029 A 
ATOM     40  N   UNL A   1      41.691  27.160  28.847  1.00  0.00    -0.354 N 
ATOM     41  C   UNL A   1      42.534  31.126  30.363  1.00  0.00     0.074 A 
ATOM     42  C   UNL A   1      41.352  31.958  30.329  1.00  0.00     0.031 C 
ATOM     43  C   UNL A   1      40.443  25.552  27.922  1.00  0.00     0.029 A 
ATOM     44  C   UNL A   1      41.793  25.873  28.374  1.00  0.00     0.049 A 
ATOM     45  H   UNL A   1      42.446  27.647  29.250  1.00  0.00     0.167 HD
ATOM     46  C   UNL A   1      43.740  31.532  30.829  1.00  0.00     0.037 A 
ATOM     47  C   UNL A   1      42.857  25.050  28.298  1.00  0.00     0.037 A 
ATOM     48  C   UNL A   1      44.907  30.688  30.880  1.00  0.00     0.049 A 
ATOM     49  C   UNL A   1      44.192  25.527  28.807  1.00  0.00     0.074 A 
ATOM     50  C   UNL A   1      46.161  30.987  31.382  1.00  0.00     0.029 A 
ATOM     51  N   UNL A   1      44.964  29.384  30.412  1.00  0.00    -0.354 N 
ATOM     52  N   UNL A   1      44.507  26.690  29.328  1.00  0.00    -0.248 NA
ATOM     53  C   UNL A   1      45.313  24.581  28.726  1.00  0.00     0.031 C 
ATOM     54  C   UNL A   1      46.991  29.881  31.169  1.00  0.00     0.029 A 
ATOM     55  C   UNL A   1      46.238  28.872  30.592  1.00  0.00     0.049 A 
ATOM     56  H   UNL A   1      44.210  28.894  30.009  1.00  0.00     0.167 HD
ATOM     57  C   UNL A   1      45.854  26.602  29.666  1.00  0.00     0.074 A 
ATOM     58  C   UNL A   1      46.290  25.270  29.298  1.00  0.00     0.031 C 
ATOM     59  C   UNL A   1      46.655  27.538  30.232  1.00  0.00     0.037 A 
BRANCH  46  60
ATOM     60  C   UNL A   1      43.860  32.950  31.320  1.00  0.00     0.058 A 
ATOM     61  C   UNL A   1      43.640  33.287  32.665  1.00  0.00     0.135 A 
ATOM     62  C   UNL A   1      44.233  33.979  30.441  1.00  0.00     0.135 A 
ATOM     63  F   UNL A   1      43.265  32.347  33.547  1.00  0.00    -0.206 F 
ATOM     64  C   UNL A   1      43.754  34.599  33.114  1.00  0.00     0.059 A 
ATOM     65  C   UNL A   1      44.386  35.293  30.875  1.00  0.00     0.059 A 
ATOM     66  F   UNL A   1      44.456  33.715  29.144  1.00  0.00    -0.206 F 
ATOM     67  C   UNL A   1      44.128  35.595  32.212  1.00  0.00     0.060 A 
BRANCH  67  68
ATOM     68  S   UNL A   1      44.278  37.291  32.814  1.00  0.00     0.124 S 
ATOM     69  O   UNL A   1      43.059  37.426  33.606  1.00  0.00    -0.237 OA
ATOM     70  O   UNL A   1      45.523  37.243  33.572  1.00  0.00    -0.237 OA
ATOM     71  O   UNL A   1      44.321  38.085  31.590  1.00  0.00    -0.744 OA
ENDBRANCH  67  68
ENDBRANCH  46  60
BRANCH  47  72
ATOM     72  C   UNL A   1      42.703  23.683  27.729  1.00  0.00     0.058 A 
ATOM     73  C   UNL A   1      42.768  23.466  26.344  1.00  0.00     0.135 A 
ATOM     74  C   UNL A   1      42.497  22.567  28.554  1.00  0.00     0.135 A 
ATOM     75  F   UNL A   1      42.955  24.502  25.511  1.00  0.00    -0.206 F 
ATOM     76  C   UNL A   1      42.614  22.197  25.796  1.00  0.00     0.059 A 
ATOM     77  C   UNL A   1      42.370  21.283  28.032  1.00  0.00     0.059 A 
ATOM     78  F   UNL A   1      42.443  22.716  29.887  1.00  0.00    -0.206 F 
ATOM     79  C   UNL A   1      42.420  21.110  26.649  1.00  0.00     0.060 A 
BRANCH  79  80
ATOM     80  S   UNL A   1      42.268  19.460  25.930  1.00  0.00     0.124 S 
ATOM     81  O   UNL A   1      43.175  19.551  24.792  1.00  0.00    -0.237 OA
ATOM     82  O   UNL A   1      42.706  18.607  27.030  1.00  0.00    -0.237 OA
ATOM     83  O   UNL A   1      40.849  19.367  25.602  1.00  0.00    -0.744 OA
ENDBRANCH  79  80
ENDBRANCH  47  72
BRANCH  59  84
ATOM     84  C   UNL A   1      48.076  27.147  30.538  1.00  0.00     0.058 A 
ATOM     85  C   UNL A   1      49.141  27.496  29.694  1.00  0.00     0.135 A 
ATOM     86  C   UNL A   1      48.380  26.464  31.728  1.00  0.00     0.135 A 
ATOM     87  F   UNL A   1      48.906  28.144  28.542  1.00  0.00    -0.206 F 
ATOM     88  C   UNL A   1      50.455  27.162  30.006  1.00  0.00     0.059 A 
ATOM     89  C   UNL A   1      49.689  26.148  32.076  1.00  0.00     0.059 A 
ATOM     90  F   UNL A   1      47.400  26.115  32.577  1.00  0.00    -0.206 F 
ATOM     91  C   UNL A   1      50.720  26.491  31.202  1.00  0.00     0.060 A 
BRANCH  91  92
ATOM     92  S   UNL A   1      52.433  26.100  31.614  1.00  0.00     0.124 S 
ATOM     93  O   UNL A   1      52.796  27.229  32.465  1.00  0.00    -0.237 OA
ATOM     94  O   UNL A   1      52.306  24.813  32.290  1.00  0.00    -0.237 OA
ATOM     95  O   UNL A   1      53.094  26.056  30.314  1.00  0.00    -0.744 OA
ENDBRANCH  91  92
ENDBRANCH  59  84
ENDBRANCH  33  34
ENDBRANCH  25  28
ENDBRANCH  23  24
ENDBRANCH  22  23
ENDBRANCH   1  22
TORSDOF 17
ENDMDL
MODEL 2
REMARK VINA RESULT:     -11.0      4.829     10.228
REMARK SMILES C[C@H]1CC[C@@]1(C(=O)NCCCCCCNC(=O)c1ccc(-c2c3nc(c(-c4c(F)cc(S(=O)(=O)[O-])cc4F)c4ccc([nH]4)c(-c4c(F)cc(S(=O)(=O)[O-])cc4F)c4nc(c(-c5c(F)cc(S(=O)(=O)[O-])cc5F)c5ccc2[nH]5)C=C4)C=C3)cc1)c1cc(F)cc(F)c1
REMARK SMILES IDX 12 1 11 2 10 3 9 4 8 5 6 6 7 7 5 9 1 10 2 11 3 12 4 13 84 14
REMARK SMILES IDX 85 15 91 16 86 17 89 18 87 19 88 20 90 21 13 22 14 23 15 24
REMARK SMILES IDX 16 25 17 27 18 28 19 29 83 30 20 31 82 32 21 33 22 34 23 35
REMARK SMILES IDX 76 36 24 37 81 38 75 39 77 40 25 41 80 42 74 43 73 44 26 46
REMARK SMILES IDX 60 47 39 48 59 49 40 50 43 51 58 52 78 53 41 54 42 55 57 57
REMARK SMILES IDX 79 58 44 59 27 60 28 61 37 62 29 63 30 64 36 65 38 66 31 67
REMARK SMILES IDX 32 68 33 69 34 70 35 71 61 72 62 73 71 74 63 75 64 76 70 77
REMARK SMILES IDX 72 78 65 79 66 80 67 81 68 82 69 83 45 84 46 85 55 86 47 87
REMARK SMILES IDX 48 88 54 89 56 90 49 91 50 92 51 93 52 94 53 95
REMARK H PARENT 8 8 15 26 77 45 43 56
REMARK Flexibility Score: inf
ROOT
ATOM      1  C   UNL A   1      39.777  21.768  26.185  1.00  0.00     0.002 C 
ENDROOT
BRANCH   1   2
ATOM      2  C   UNL A   1      38.466  22.555  26.116  1.00  0.00     0.002 C 
BRANCH   2   3
ATOM      3  C   UNL A   1      37.427  21.995  25.142  1.00  0.00     0.021 C 
BRANCH   3   4
ATOM      4  C   UNL A   1      36.026  22.586  25.284  1.00  0.00     0.116 C 
BRANCH   4   5
ATOM      5  N   UNL A   1      35.298  22.031  26.410  1.00  0.00    -0.355 N 
ATOM      6  C   UNL A   1      34.017  21.527  26.463  1.00  0.00     0.230 C 
ATOM      7  O   UNL A   1      33.621  21.157  27.576  1.00  0.00    -0.274 OA
ATOM      8  H   UNL A   1      35.792  22.012  27.261  1.00  0.00     0.163 HD
BRANCH   6   9
ATOM      9  C   UNL A   1      33.145  21.461  25.113  1.00  0.00     0.077 C 
ATOM     10  C   UNL A   1      33.174  22.557  22.624  1.00  0.00     0.009 C 
ATOM     11  C   UNL A   1      33.419  22.688  24.122  1.00  0.00     0.006 C 
ATOM     12  C   UNL A   1      32.293  23.448  24.861  1.00  0.00     0.006 C 
ATOM     13  C   UNL A   1      31.703  22.090  25.272  1.00  0.00     0.022 C 
BRANCH   9  14
ATOM     14  C   UNL A   1      33.294  19.961  24.471  1.00  0.00    -0.026 A 
ATOM     15  C   UNL A   1      34.316  19.067  24.857  1.00  0.00     0.044 A 
ATOM     16  C   UNL A   1      32.427  19.469  23.465  1.00  0.00     0.044 A 
ATOM     17  C   UNL A   1      34.481  17.816  24.256  1.00  0.00     0.126 A 
ATOM     18  C   UNL A   1      32.626  18.233  22.844  1.00  0.00     0.126 A 
ATOM     19  F   UNL A   1      35.468  17.014  24.676  1.00  0.00    -0.207 F 
ATOM     20  C   UNL A   1      33.655  17.396  23.230  1.00  0.00     0.078 A 
ATOM     21  F   UNL A   1      31.819  17.867  21.839  1.00  0.00    -0.207 F 
ENDBRANCH   9  14
ENDBRANCH   6   9
ENDBRANCH   4   5
ENDBRANCH   3   4
ENDBRANCH   2   3
ENDBRANCH   1   2
BRANCH   1  22
ATOM     22  C   UNL A   1      40.515  21.858  27.521  1.00  0.00     0.021 C 
BRANCH  22  23
ATOM     23  C   UNL A   1      41.670  22.852  27.544  1.00  0.00     0.116 C 
BRANCH  23  24
ATOM     24  N   UNL A   1      41.754  23.624  26.315  1.00  0.00    -0.352 N 
ATOM     25  C   UNL A   1      41.583  24.974  26.133  1.00  0.00     0.251 C 
ATOM     26  H   UNL A   1      41.961  23.108  25.502  1.00  0.00     0.163 HD
ATOM     27  O   UNL A   1      41.490  25.439  25.000  1.00  0.00    -0.269 OA
BRANCH  25  28
ATOM     28  C   UNL A   1      41.490  25.859  27.313  1.00  0.00     0.039 A 
ATOM     29  C   UNL A   1      42.512  26.780  27.557  1.00  0.00     0.014 A 
ATOM     30  C   UNL A   1      40.386  25.787  28.168  1.00  0.00     0.014 A 
ATOM     31  C   UNL A   1      42.397  27.671  28.626  1.00  0.00     0.010 A 
ATOM     32  C   UNL A   1      40.238  26.726  29.185  1.00  0.00     0.010 A 
ATOM     33  C   UNL A   1      41.244  27.674  29.430  1.00  0.00    -0.014 A 
BRANCH  33  34
ATOM     34  C   UNL A   1      41.070  28.645  30.540  1.00  0.00     0.031 A 
ATOM     35  C   UNL A   1      41.924  28.529  31.775  1.00  0.00     0.074 A 
ATOM     36  C   UNL A   1      40.099  29.576  30.473  1.00  0.00     0.049 A 
ATOM     37  N   UNL A   1      41.853  29.200  32.896  1.00  0.00    -0.248 NA
ATOM     38  C   UNL A   1      42.978  27.502  31.757  1.00  0.00     0.031 C 
ATOM     39  C   UNL A   1      39.183  29.766  29.346  1.00  0.00     0.029 A 
ATOM     40  N   UNL A   1      39.707  30.530  31.381  1.00  0.00    -0.354 N 
ATOM     41  C   UNL A   1      42.838  28.666  33.719  1.00  0.00     0.074 A 
ATOM     42  C   UNL A   1      43.455  27.581  32.990  1.00  0.00     0.031 C 
ATOM     43  C   UNL A   1      38.348  30.782  29.623  1.00  0.00     0.029 A 
ATOM     44  C   UNL A   1      38.637  31.285  30.963  1.00  0.00     0.049 A 
ATOM     45  H   UNL A   1      40.151  30.660  32.250  1.00  0.00     0.167 HD
ATOM     46  C   UNL A   1      43.207  29.059  34.962  1.00  0.00     0.037 A 
ATOM     47  C   UNL A   1      37.954  32.261  31.593  1.00  0.00     0.037 A 
ATOM     48  C   UNL A   1      42.602  30.157  35.671  1.00  0.00     0.049 A 
ATOM     49  C   UNL A   1      38.372  32.671  32.980  1.00  0.00     0.074 A 
ATOM     50  C   UNL A   1      42.938  30.668  36.912  1.00  0.00     0.029 A 
ATOM     51  N   UNL A   1      41.535  30.910  35.205  1.00  0.00    -0.354 N 
ATOM     52  N   UNL A   1      39.341  32.190  33.724  1.00  0.00    -0.248 NA
ATOM     53  C   UNL A   1      37.612  33.757  33.611  1.00  0.00     0.031 C 
ATOM     54  C   UNL A   1      42.042  31.696  37.218  1.00  0.00     0.029 A 
ATOM     55  C   UNL A   1      41.186  31.868  36.143  1.00  0.00     0.049 A 
ATOM     56  H   UNL A   1      41.090  30.784  34.335  1.00  0.00     0.167 HD
ATOM     57  C   UNL A   1      39.327  32.939  34.896  1.00  0.00     0.074 A 
ATOM     58  C   UNL A   1      38.259  33.909  34.759  1.00  0.00     0.031 C 
ATOM     59  C   UNL A   1      40.127  32.836  35.987  1.00  0.00     0.037 A 
BRANCH  46  60
ATOM     60  C   UNL A   1      44.318  28.298  35.635  1.00  0.00     0.058 A 
ATOM     61  C   UNL A   1      44.060  27.194  36.464  1.00  0.00     0.135 A 
ATOM     62  C   UNL A   1      45.659  28.655  35.422  1.00  0.00     0.135 A 
ATOM     63  F   UNL A   1      42.797  26.816  36.717  1.00  0.00    -0.206 F 
ATOM     64  C   UNL A   1      45.090  26.491  37.082  1.00  0.00     0.059 A 
ATOM     65  C   UNL A   1      46.707  27.947  36.004  1.00  0.00     0.059 A 
ATOM     66  F   UNL A   1      45.964  29.703  34.640  1.00  0.00    -0.206 F 
ATOM     67  C   UNL A   1      46.410  26.875  36.845  1.00  0.00     0.060 A 
BRANCH  67  68
ATOM     68  S   UNL A   1      47.734  25.949  37.650  1.00  0.00     0.124 S 
ATOM     69  O   UNL A   1      47.793  24.748  36.822  1.00  0.00    -0.237 OA
ATOM     70  O   UNL A   1      48.869  26.858  37.528  1.00  0.00    -0.237 OA
ATOM     71  O   UNL A   1      47.235  25.750  39.008  1.00  0.00    -0.744 OA
ENDBRANCH  67  68
ENDBRANCH  46  60
BRANCH  47  72
ATOM     72  C   UNL A   1      36.810  32.928  30.913  1.00  0.00     0.058 A 
ATOM     73  C   UNL A   1      35.485  32.604  31.243  1.00  0.00     0.135 A 
ATOM     74  C   UNL A   1      37.016  33.907  29.929  1.00  0.00     0.135 A 
ATOM     75  F   UNL A   1      35.235  31.669  32.172  1.00  0.00    -0.206 F 
ATOM     76  C   UNL A   1      34.406  33.212  30.609  1.00  0.00     0.059 A 
ATOM     77  C   UNL A   1      35.953  34.550  29.300  1.00  0.00     0.059 A 
ATOM     78  F   UNL A   1      38.264  34.266  29.587  1.00  0.00    -0.206 F 
ATOM     79  C   UNL A   1      34.650  34.187  29.641  1.00  0.00     0.060 A 
BRANCH  79  80
ATOM     80  S   UNL A   1      33.242  35.001  28.857  1.00  0.00     0.124 S 
ATOM     81  O   UNL A   1      32.403  35.311  30.009  1.00  0.00    -0.237 OA
ATOM     82  O   UNL A   1      33.875  36.142  28.203  1.00  0.00    -0.237 OA
ATOM     83  O   UNL A   1      32.723  33.979  27.954  1.00  0.00    -0.744 OA
ENDBRANCH  79  80
ENDBRANCH  47  72
BRANCH  59  84
ATOM     84  C   UNL A   1      39.918  33.824  37.102  1.00  0.00     0.058 A 
ATOM     85  C   UNL A   1      40.491  35.104  37.077  1.00  0.00     0.135 A 
ATOM     86  C   UNL A   1      39.081  33.502  38.184  1.00  0.00     0.135 A 
ATOM     87  F   UNL A   1      41.304  35.462  36.071  1.00  0.00    -0.206 F 
ATOM     88  C   UNL A   1      40.260  36.024  38.096  1.00  0.00     0.059 A 
ATOM     89  C   UNL A   1      38.810  34.415  39.196  1.00  0.00     0.059 A 
ATOM     90  F   UNL A   1      38.498  32.294  38.252  1.00  0.00    -0.206 F 
ATOM     91  C   UNL A   1      39.414  35.671  39.151  1.00  0.00     0.060 A 
BRANCH  91  92
ATOM     92  S   UNL A   1      39.091  36.888  40.444  1.00  0.00     0.124 S 
ATOM     93  O   UNL A   1      38.494  37.978  39.680  1.00  0.00    -0.237 OA
ATOM     94  O   UNL A   1      38.185  36.165  41.332  1.00  0.00    -0.237 OA
ATOM     95  O   UNL A   1      40.415  37.159  40.995  1.00  0.00    -0.744 OA
ENDBRANCH  91  92
ENDBRANCH  59  84
ENDBRANCH  33  34
ENDBRANCH  25  28
ENDBRANCH  23  24
ENDBRANCH  22  23
ENDBRANCH   1  22
TORSDOF 17
ENDMDL
MODEL 3
REMARK VINA RESULT:     -11.0      2.690      3.217
REMARK SMILES C[C@H]1CC[C@@]1(C(=O)NCCCCCCNC(=O)c1ccc(-c2c3nc(c(-c4c(F)cc(S(=O)(=O)[O-])cc4F)c4ccc([nH]4)c(-c4c(F)cc(S(=O)(=O)[O-])cc4F)c4nc(c(-c5c(F)cc(S(=O)(=O)[O-])cc5F)c5ccc2[nH]5)C=C4)C=C3)cc1)c1cc(F)cc(F)c1
REMARK SMILES IDX 12 1 11 2 10 3 9 4 8 5 6 6 7 7 5 9 1 10 2 11 3 12 4 13 84 14
REMARK SMILES IDX 85 15 91 16 86 17 89 18 87 19 88 20 90 21 13 22 14 23 15 24
REMARK SMILES IDX 16 25 17 27 18 28 19 29 83 30 20 31 82 32 21 33 22 34 23 35
REMARK SMILES IDX 76 36 24 37 81 38 75 39 77 40 25 41 80 42 74 43 73 44 26 46
REMARK SMILES IDX 60 47 39 48 59 49 40 50 43 51 58 52 78 53 41 54 42 55 57 57
REMARK SMILES IDX 79 58 44 59 27 60 28 61 37 62 29 63 30 64 36 65 38 66 31 67
REMARK SMILES IDX 32 68 33 69 34 70 35 71 61 72 62 73 71 74 63 75 64 76 70 77
REMARK SMILES IDX 72 78 65 79 66 80 67 81 68 82 69 83 45 84 46 85 55 86 47 87
REMARK SMILES IDX 48 88 54 89 56 90 49 91 50 92 51 93 52 94 53 95
REMARK H PARENT 8 8 15 26 77 45 43 56
REMARK Flexibility Score: inf
ROOT
ATOM      1  C   UNL A   1      31.816  27.935  26.633  1.00  0.00     0.002 C 
ENDROOT
BRANCH   1   2
ATOM      2  C   UNL A   1      30.855  26.750  26.514  1.00  0.00     0.002 C 
BRANCH   2   3
ATOM      3  C   UNL A   1      30.790  26.108  25.126  1.00  0.00     0.021 C 
BRANCH   3   4
ATOM      4  C   UNL A   1      30.894  24.584  25.114  1.00  0.00     0.116 C 
BRANCH   4   5
ATOM      5  N   UNL A   1      31.325  24.046  26.392  1.00  0.00    -0.355 N 
ATOM      6  C   UNL A   1      32.439  23.295  26.696  1.00  0.00     0.230 C 
ATOM      7  O   UNL A   1      32.541  22.920  27.871  1.00  0.00    -0.274 OA
ATOM      8  H   UNL A   1      30.733  24.247  27.153  1.00  0.00     0.163 HD
BRANCH   6   9
ATOM      9  C   UNL A   1      33.498  22.959  25.532  1.00  0.00     0.077 C 
ATOM     10  C   UNL A   1      36.056  22.064  25.313  1.00  0.00     0.009 C 
ATOM     11  C   UNL A   1      35.010  22.889  26.053  1.00  0.00     0.006 C 
ATOM     12  C   UNL A   1      35.108  24.404  25.762  1.00  0.00     0.006 C 
ATOM     13  C   UNL A   1      33.976  24.239  24.737  1.00  0.00     0.022 C 
BRANCH   9  14
ATOM     14  C   UNL A   1      32.955  21.658  24.697  1.00  0.00    -0.026 A 
ATOM     15  C   UNL A   1      32.924  20.358  25.249  1.00  0.00     0.044 A 
ATOM     16  C   UNL A   1      32.507  21.741  23.356  1.00  0.00     0.044 A 
ATOM     17  C   UNL A   1      32.527  19.242  24.508  1.00  0.00     0.126 A 
ATOM     18  C   UNL A   1      32.149  20.612  22.614  1.00  0.00     0.126 A 
ATOM     19  F   UNL A   1      32.515  18.038  25.096  1.00  0.00    -0.207 F 
ATOM     20  C   UNL A   1      32.159  19.353  23.180  1.00  0.00     0.078 A 
ATOM     21  F   UNL A   1      31.818  20.755  21.324  1.00  0.00    -0.207 F 
ENDBRANCH   9  14
ENDBRANCH   6   9
ENDBRANCH   4   5
ENDBRANCH   3   4
ENDBRANCH   2   3
ENDBRANCH   1   2
BRANCH   1  22
ATOM     22  C   UNL A   1      33.296  27.586  26.470  1.00  0.00     0.021 C 
BRANCH  22  23
ATOM     23  C   UNL A   1      34.127  28.650  25.764  1.00  0.00     0.116 C 
BRANCH  23  24
ATOM     24  N   UNL A   1      33.806  29.991  26.225  1.00  0.00    -0.352 N 
ATOM     25  C   UNL A   1      34.375  30.708  27.249  1.00  0.00     0.251 C 
ATOM     26  H   UNL A   1      33.083  30.447  25.738  1.00  0.00     0.163 HD
ATOM     27  O   UNL A   1      33.855  31.750  27.638  1.00  0.00    -0.269 OA
BRANCH  25  28
ATOM     28  C   UNL A   1      35.607  30.203  27.892  1.00  0.00     0.039 A 
ATOM     29  C   UNL A   1      36.835  30.392  27.254  1.00  0.00     0.014 A 
ATOM     30  C   UNL A   1      35.546  29.557  29.130  1.00  0.00     0.014 A 
ATOM     31  C   UNL A   1      38.012  29.986  27.888  1.00  0.00     0.010 A 
ATOM     32  C   UNL A   1      36.723  29.223  29.793  1.00  0.00     0.010 A 
ATOM     33  C   UNL A   1      37.969  29.428  29.177  1.00  0.00    -0.014 A 
BRANCH  33  34
ATOM     34  C   UNL A   1      39.206  29.035  29.899  1.00  0.00     0.031 A 
ATOM     35  C   UNL A   1      39.621  29.787  31.136  1.00  0.00     0.074 A 
ATOM     36  C   UNL A   1      39.994  28.060  29.403  1.00  0.00     0.049 A 
ATOM     37  N   UNL A   1      40.717  29.677  31.841  1.00  0.00    -0.248 NA
ATOM     38  C   UNL A   1      38.693  30.819  31.625  1.00  0.00     0.031 C 
ATOM     39  C   UNL A   1      39.719  27.282  28.193  1.00  0.00     0.029 A 
ATOM     40  N   UNL A   1      41.196  27.566  29.846  1.00  0.00    -0.354 N 
ATOM     41  C   UNL A   1      40.618  30.635  32.844  1.00  0.00     0.074 A 
ATOM     42  C   UNL A   1      39.382  31.352  32.623  1.00  0.00     0.031 C 
ATOM     43  C   UNL A   1      40.714  26.401  28.000  1.00  0.00     0.029 A 
ATOM     44  C   UNL A   1      41.720  26.581  29.042  1.00  0.00     0.049 A 
ATOM     45  H   UNL A   1      41.642  27.888  30.663  1.00  0.00     0.167 HD
ATOM     46  C   UNL A   1      41.470  30.880  33.869  1.00  0.00     0.037 A 
ATOM     47  C   UNL A   1      42.885  25.910  29.126  1.00  0.00     0.037 A 
ATOM     48  C   UNL A   1      42.688  30.144  34.094  1.00  0.00     0.049 A 
ATOM     49  C   UNL A   1      43.824  26.209  30.264  1.00  0.00     0.074 A 
ATOM     50  C   UNL A   1      43.593  30.279  35.132  1.00  0.00     0.029 A 
ATOM     51  N   UNL A   1      43.172  29.139  33.270  1.00  0.00    -0.354 N 
ATOM     52  N   UNL A   1      43.690  27.082  31.235  1.00  0.00    -0.248 NA
ATOM     53  C   UNL A   1      45.068  25.431  30.324  1.00  0.00     0.031 C 
ATOM     54  C   UNL A   1      44.650  29.392  34.907  1.00  0.00     0.029 A 
ATOM     55  C   UNL A   1      44.375  28.661  33.764  1.00  0.00     0.049 A 
ATOM     56  H   UNL A   1      42.727  28.814  32.454  1.00  0.00     0.167 HD
ATOM     57  C   UNL A   1      44.816  26.933  32.038  1.00  0.00     0.074 A 
ATOM     58  C   UNL A   1      45.616  25.882  31.444  1.00  0.00     0.031 C 
ATOM     59  C   UNL A   1      45.155  27.604  33.167  1.00  0.00     0.037 A 
BRANCH  46  60
ATOM     60  C   UNL A   1      41.116  31.988  34.824  1.00  0.00     0.058 A 
ATOM     61  C   UNL A   1      40.316  31.762  35.955  1.00  0.00     0.135 A 
ATOM     62  C   UNL A   1      41.611  33.287  34.623  1.00  0.00     0.135 A 
ATOM     63  F   UNL A   1      39.802  30.544  36.189  1.00  0.00    -0.206 F 
ATOM     64  C   UNL A   1      39.994  32.790  36.836  1.00  0.00     0.059 A 
ATOM     65  C   UNL A   1      41.328  34.323  35.509  1.00  0.00     0.059 A 
ATOM     66  F   UNL A   1      42.380  33.562  33.557  1.00  0.00    -0.206 F 
ATOM     67  C   UNL A   1      40.505  34.067  36.605  1.00  0.00     0.060 A 
BRANCH  67  68
ATOM     68  S   UNL A   1      40.081  35.387  37.761  1.00  0.00     0.124 S 
ATOM     69  O   UNL A   1      39.998  36.539  36.869  1.00  0.00    -0.237 OA
ATOM     70  O   UNL A   1      38.813  34.921  38.314  1.00  0.00    -0.237 OA
ATOM     71  O   UNL A   1      41.204  35.396  38.695  1.00  0.00    -0.744 OA
ENDBRANCH  67  68
ENDBRANCH  46  60
BRANCH  47  72
ATOM     72  C   UNL A   1      43.225  24.878  28.108  1.00  0.00     0.058 A 
ATOM     73  C   UNL A   1      44.020  25.195  26.996  1.00  0.00     0.135 A 
ATOM     74  C   UNL A   1      42.773  23.555  28.230  1.00  0.00     0.135 A 
ATOM     75  F   UNL A   1      44.471  26.448  26.830  1.00  0.00    -0.206 F 
ATOM     76  C   UNL A   1      44.337  24.244  26.031  1.00  0.00     0.059 A 
ATOM     77  C   UNL A   1      43.100  22.579  27.294  1.00  0.00     0.059 A 
ATOM     78  F   UNL A   1      42.023  23.194  29.284  1.00  0.00    -0.206 F 
ATOM     79  C   UNL A   1      43.875  22.937  26.191  1.00  0.00     0.060 A 
BRANCH  79  80
ATOM     80  S   UNL A   1      44.331  21.700  24.956  1.00  0.00     0.124 S 
ATOM     81  O   UNL A   1      43.378  20.635  25.242  1.00  0.00    -0.237 OA
ATOM     82  O   UNL A   1      44.125  22.426  23.707  1.00  0.00    -0.237 OA
ATOM     83  O   UNL A   1      45.724  21.404  25.277  1.00  0.00    -0.744 OA
ENDBRANCH  79  80
ENDBRANCH  47  72
BRANCH  59  84
ATOM     84  C   UNL A   1      46.422  27.193  33.869  1.00  0.00     0.058 A 
ATOM     85  C   UNL A   1      47.655  27.803  33.592  1.00  0.00     0.135 A 
ATOM     86  C   UNL A   1      46.386  26.214  34.876  1.00  0.00     0.135 A 
ATOM     87  F   UNL A   1      47.746  28.741  32.636  1.00  0.00    -0.206 F 
ATOM     88  C   UNL A   1      48.813  27.443  34.275  1.00  0.00     0.059 A 
ATOM     89  C   UNL A   1      47.524  25.860  35.592  1.00  0.00     0.059 A 
ATOM     90  F   UNL A   1      45.231  25.606  35.187  1.00  0.00    -0.206 F 
ATOM     91  C   UNL A   1      48.737  26.472  35.276  1.00  0.00     0.060 A 
BRANCH  91  92
ATOM     92  S   UNL A   1      50.239  26.042  36.181  1.00  0.00     0.124 S 
ATOM     93  O   UNL A   1      51.050  27.240  35.988  1.00  0.00    -0.237 OA
ATOM     94  O   UNL A   1      49.737  25.827  37.534  1.00  0.00    -0.237 OA
ATOM     95  O   UNL A   1      50.716  24.844  35.497  1.00  0.00    -0.744 OA
ENDBRANCH  91  92
ENDBRANCH  59  84
ENDBRANCH  33  34
ENDBRANCH  25  28
ENDBRANCH  23  24
ENDBRANCH  22  23
ENDBRANCH   1  22
TORSDOF 17
ENDMDL
