MODEL 1
REMARK VINA RESULT:     -12.1      0.000      0.000
REMARK SMILES Cc1ccc2c(c1)C=C(C(=O)NCCCCCCNC(=O)c1ccc(-c3c4nc(c(-c5c(F)cc(S(=O)(=O)[O-])cc5F)c5ccc([nH]5)c(-c5c(F)cc(S(=O)(=O)[O-])cc5F)c5nc(c(-c6c(F)cc(S(=O)(=O)[O-])cc6F)c6ccc3[nH]6)C=C5)C=C4)cc1)[C@@H](C(F)(F)F)O2
REMARK SMILES IDX 16 1 15 2 14 3 13 4 12 5 10 6 11 7 9 9 1 10 2 11 3 12 7 13
REMARK SMILES IDX 4 14 6 15 5 16 8 17 93 18 88 19 89 20 90 21 91 22 92 23
REMARK SMILES IDX 17 24 18 25 19 26 20 27 21 29 22 30 23 31 87 32 24 33 86 34
REMARK SMILES IDX 25 35 26 36 27 37 80 38 28 39 85 40 79 41 81 42 29 43 84 44
REMARK SMILES IDX 78 45 77 46 30 48 64 49 43 50 63 51 44 52 47 53 62 54 82 55
REMARK SMILES IDX 45 56 46 57 61 59 83 60 48 61 31 62 32 63 41 64 33 65 34 66
REMARK SMILES IDX 40 67 42 68 35 69 36 70 37 71 38 72 39 73 65 74 66 75 75 76
REMARK SMILES IDX 67 77 68 78 74 79 76 80 69 81 70 82 71 83 72 84 73 85 49 86
REMARK SMILES IDX 50 87 59 88 51 89 52 90 58 91 60 92 53 93 54 94 55 95 56 96
REMARK SMILES IDX 57 97
REMARK H PARENT 12 8 19 28 81 47 47 58
REMARK Flexibility Score: inf
ROOT
ATOM      1  C   UNL A   1      33.680  28.962  26.270  1.00  0.00     0.002 C 
ENDROOT
BRANCH   1   2
ATOM      2  C   UNL A   1      33.048  27.590  25.998  1.00  0.00     0.002 C 
BRANCH   2   3
ATOM      3  C   UNL A   1      31.713  27.317  26.699  1.00  0.00     0.021 C 
BRANCH   3   4
ATOM      4  C   UNL A   1      30.729  26.474  25.889  1.00  0.00     0.116 C 
BRANCH   4   5
ATOM      5  N   UNL A   1      30.419  25.218  26.548  1.00  0.00    -0.352 N 
ATOM      6  C   UNL A   1      30.947  23.972  26.612  1.00  0.00     0.251 C 
ATOM      7  O   UNL A   1      30.340  23.189  27.352  1.00  0.00    -0.270 OA
ATOM      8  H   UNL A   1      29.605  25.290  27.097  1.00  0.00     0.163 HD
BRANCH   6   9
ATOM      9  C   UNL A   1      32.160  23.498  25.877  1.00  0.00     0.067 C 
ATOM     10  C   UNL A   1      38.332  23.915  26.178  1.00  0.00     0.044 C 
ATOM     11  C   UNL A   1      37.007  23.426  25.671  1.00  0.00    -0.050 A 
ATOM     12  C   UNL A   1      36.940  22.572  24.564  1.00  0.00     0.007 A 
ATOM     13  C   UNL A   1      35.818  23.853  26.281  1.00  0.00     0.015 A 
ATOM     14  C   UNL A   1      35.704  22.137  24.087  1.00  0.00     0.047 A 
ATOM     15  C   UNL A   1      34.577  23.420  25.802  1.00  0.00     0.017 A 
ATOM     16  C   UNL A   1      34.531  22.569  24.701  1.00  0.00     0.128 A 
ATOM     17  C   UNL A   1      33.335  23.812  26.454  1.00  0.00     0.025 C 
ATOM     18  O   UNL A   1      33.365  22.078  24.194  1.00  0.00    -0.475 OA
ATOM     19  C   UNL A   1      32.138  22.767  24.561  1.00  0.00     0.314 C 
BRANCH  19  20
ATOM     20  C   UNL A   1      31.706  23.666  23.389  1.00  0.00     0.429 C 
ATOM     21  F   UNL A   1      32.090  24.947  23.605  1.00  0.00    -0.167 F 
ATOM     22  F   UNL A   1      32.267  23.292  22.215  1.00  0.00    -0.167 F 
ATOM     23  F   UNL A   1      30.367  23.664  23.204  1.00  0.00    -0.167 F 
ENDBRANCH  19  20
ENDBRANCH   6   9
ENDBRANCH   4   5
ENDBRANCH   3   4
ENDBRANCH   2   3
ENDBRANCH   1   2
BRANCH   1  24
ATOM     24  C   UNL A   1      34.519  29.074  27.544  1.00  0.00     0.021 C 
BRANCH  24  25
ATOM     25  C   UNL A   1      35.237  30.405  27.740  1.00  0.00     0.116 C 
BRANCH  25  26
ATOM     26  N   UNL A   1      35.288  30.821  29.132  1.00  0.00    -0.352 N 
ATOM     27  C   UNL A   1      36.295  30.645  30.052  1.00  0.00     0.251 C 
ATOM     28  H   UNL A   1      34.489  31.292  29.464  1.00  0.00     0.163 HD
ATOM     29  O   UNL A   1      36.114  30.945  31.228  1.00  0.00    -0.269 OA
BRANCH  27  30
ATOM     30  C   UNL A   1      37.585  30.060  29.623  1.00  0.00     0.039 A 
ATOM     31  C   UNL A   1      38.446  29.472  30.551  1.00  0.00     0.014 A 
ATOM     32  C   UNL A   1      37.946  30.126  28.273  1.00  0.00     0.014 A 
ATOM     33  C   UNL A   1      39.727  29.092  30.159  1.00  0.00     0.010 A 
ATOM     34  C   UNL A   1      39.207  29.675  27.869  1.00  0.00     0.010 A 
ATOM     35  C   UNL A   1      40.126  29.199  28.817  1.00  0.00    -0.014 A 
BRANCH  35  36
ATOM     36  C   UNL A   1      41.512  28.822  28.432  1.00  0.00     0.031 A 
ATOM     37  C   UNL A   1      42.634  29.821  28.532  1.00  0.00     0.074 A 
ATOM     38  C   UNL A   1      41.769  27.554  28.055  1.00  0.00     0.049 A 
ATOM     39  N   UNL A   1      43.907  29.658  28.268  1.00  0.00    -0.248 NA
ATOM     40  C   UNL A   1      42.287  31.178  28.984  1.00  0.00     0.031 C 
ATOM     41  C   UNL A   1      40.767  26.494  27.930  1.00  0.00     0.029 A 
ATOM     42  N   UNL A   1      42.949  26.935  27.733  1.00  0.00    -0.354 N 
ATOM     43  C   UNL A   1      44.507  30.890  28.507  1.00  0.00     0.074 A 
ATOM     44  C   UNL A   1      43.457  31.799  28.910  1.00  0.00     0.031 C 
ATOM     45  C   UNL A   1      41.382  25.343  27.616  1.00  0.00     0.029 A 
ATOM     46  C   UNL A   1      42.811  25.595  27.461  1.00  0.00     0.049 A 
ATOM     47  H   UNL A   1      43.814  27.405  27.700  1.00  0.00     0.167 HD
ATOM     48  C   UNL A   1      45.817  31.227  28.413  1.00  0.00     0.037 A 
ATOM     49  C   UNL A   1      43.728  24.670  27.118  1.00  0.00     0.037 A 
ATOM     50  C   UNL A   1      46.864  30.314  28.036  1.00  0.00     0.049 A 
ATOM     51  C   UNL A   1      45.167  25.078  26.986  1.00  0.00     0.074 A 
ATOM     52  C   UNL A   1      48.222  30.558  27.929  1.00  0.00     0.029 A 
ATOM     53  N   UNL A   1      46.671  28.980  27.708  1.00  0.00    -0.354 N 
ATOM     54  N   UNL A   1      45.714  26.248  27.210  1.00  0.00    -0.248 NA
ATOM     55  C   UNL A   1      46.112  24.045  26.540  1.00  0.00     0.031 C 
ATOM     56  C   UNL A   1      48.848  29.381  27.505  1.00  0.00     0.029 A 
ATOM     57  C   UNL A   1      47.884  28.393  27.382  1.00  0.00     0.049 A 
ATOM     58  H   UNL A   1      45.802  28.517  27.707  1.00  0.00     0.167 HD
ATOM     59  C   UNL A   1      47.067  26.094  26.934  1.00  0.00     0.074 A 
ATOM     60  C   UNL A   1      47.260  24.712  26.547  1.00  0.00     0.031 C 
ATOM     61  C   UNL A   1      48.057  27.017  26.990  1.00  0.00     0.037 A 
BRANCH  48  62
ATOM     62  C   UNL A   1      46.196  32.649  28.720  1.00  0.00     0.058 A 
ATOM     63  C   UNL A   1      46.532  33.054  30.022  1.00  0.00     0.135 A 
ATOM     64  C   UNL A   1      46.274  33.605  27.695  1.00  0.00     0.135 A 
ATOM     65  F   UNL A   1      46.459  32.184  31.040  1.00  0.00    -0.206 F 
ATOM     66  C   UNL A   1      46.916  34.363  30.298  1.00  0.00     0.059 A 
ATOM     67  C   UNL A   1      46.675  34.914  27.946  1.00  0.00     0.059 A 
ATOM     68  F   UNL A   1      45.962  33.269  26.433  1.00  0.00    -0.206 F 
ATOM     69  C   UNL A   1      46.983  35.286  29.253  1.00  0.00     0.060 A 
BRANCH  69  70
ATOM     70  S   UNL A   1      47.489  36.978  29.630  1.00  0.00     0.124 S 
ATOM     71  O   UNL A   1      48.390  36.767  30.759  1.00  0.00    -0.237 OA
ATOM     72  O   UNL A   1      48.124  37.399  28.385  1.00  0.00    -0.237 OA
ATOM     73  O   UNL A   1      46.231  37.648  29.946  1.00  0.00    -0.744 OA
ENDBRANCH  69  70
ENDBRANCH  48  62
BRANCH  49  74
ATOM     74  C   UNL A   1      43.303  23.267  26.883  1.00  0.00     0.058 A 
ATOM     75  C   UNL A   1      43.267  22.734  25.586  1.00  0.00     0.135 A 
ATOM     76  C   UNL A   1      42.970  22.419  27.950  1.00  0.00     0.135 A 
ATOM     77  F   UNL A   1      43.570  23.509  24.533  1.00  0.00    -0.206 F 
ATOM     78  C   UNL A   1      42.919  21.408  25.356  1.00  0.00     0.059 A 
ATOM     79  C   UNL A   1      42.640  21.083  27.747  1.00  0.00     0.059 A 
ATOM     80  F   UNL A   1      43.003  22.881  29.210  1.00  0.00    -0.206 F 
ATOM     81  C   UNL A   1      42.614  20.588  26.444  1.00  0.00     0.060 A 
BRANCH  81  82
ATOM     82  S   UNL A   1      42.240  18.848  26.140  1.00  0.00     0.124 S 
ATOM     83  O   UNL A   1      42.504  18.259  27.448  1.00  0.00    -0.237 OA
ATOM     84  O   UNL A   1      40.839  18.901  25.734  1.00  0.00    -0.237 OA
ATOM     85  O   UNL A   1      43.177  18.484  25.081  1.00  0.00    -0.744 OA
ENDBRANCH  81  82
ENDBRANCH  49  74
BRANCH  61  86
ATOM     86  C   UNL A   1      49.442  26.567  26.621  1.00  0.00     0.058 A 
ATOM     87  C   UNL A   1      50.295  25.989  27.571  1.00  0.00     0.135 A 
ATOM     88  C   UNL A   1      49.894  26.654  25.295  1.00  0.00     0.135 A 
ATOM     89  F   UNL A   1      49.911  25.891  28.854  1.00  0.00    -0.206 F 
ATOM     90  C   UNL A   1      51.556  25.518  27.222  1.00  0.00     0.059 A 
ATOM     91  C   UNL A   1      51.142  26.172  24.918  1.00  0.00     0.059 A 
ATOM     92  F   UNL A   1      49.110  27.194  24.348  1.00  0.00    -0.206 F 
ATOM     93  C   UNL A   1      51.970  25.610  25.891  1.00  0.00     0.060 A 
BRANCH  93  94
ATOM     94  S   UNL A   1      53.590  24.951  25.443  1.00  0.00     0.124 S 
ATOM     95  O   UNL A   1      54.314  25.066  26.705  1.00  0.00    -0.237 OA
ATOM     96  O   UNL A   1      53.268  23.593  25.017  1.00  0.00    -0.237 OA
ATOM     97  O   UNL A   1      54.037  25.846  24.379  1.00  0.00    -0.744 OA
ENDBRANCH  93  94
ENDBRANCH  61  86
ENDBRANCH  35  36
ENDBRANCH  27  30
ENDBRANCH  25  26
ENDBRANCH  24  25
ENDBRANCH   1  24
TORSDOF 17
ENDMDL
MODEL 2
REMARK VINA RESULT:     -12.0      2.623      8.774
REMARK SMILES Cc1ccc2c(c1)C=C(C(=O)NCCCCCCNC(=O)c1ccc(-c3c4nc(c(-c5c(F)cc(S(=O)(=O)[O-])cc5F)c5ccc([nH]5)c(-c5c(F)cc(S(=O)(=O)[O-])cc5F)c5nc(c(-c6c(F)cc(S(=O)(=O)[O-])cc6F)c6ccc3[nH]6)C=C5)C=C4)cc1)[C@@H](C(F)(F)F)O2
REMARK SMILES IDX 16 1 15 2 14 3 13 4 12 5 10 6 11 7 9 9 1 10 2 11 3 12 7 13
REMARK SMILES IDX 4 14 6 15 5 16 8 17 93 18 88 19 89 20 90 21 91 22 92 23
REMARK SMILES IDX 17 24 18 25 19 26 20 27 21 29 22 30 23 31 87 32 24 33 86 34
REMARK SMILES IDX 25 35 26 36 27 37 80 38 28 39 85 40 79 41 81 42 29 43 84 44
REMARK SMILES IDX 78 45 77 46 30 48 64 49 43 50 63 51 44 52 47 53 62 54 82 55
REMARK SMILES IDX 45 56 46 57 61 59 83 60 48 61 31 62 32 63 41 64 33 65 34 66
REMARK SMILES IDX 40 67 42 68 35 69 36 70 37 71 38 72 39 73 65 74 66 75 75 76
REMARK SMILES IDX 67 77 68 78 74 79 76 80 69 81 70 82 71 83 72 84 73 85 49 86
REMARK SMILES IDX 50 87 59 88 51 89 52 90 58 91 60 92 53 93 54 94 55 95 56 96
REMARK SMILES IDX 57 97
REMARK H PARENT 12 8 19 28 81 47 47 58
REMARK Flexibility Score: inf
ROOT
ATOM      1  C   UNL A   1      31.312  28.010  26.151  1.00  0.00     0.002 C 
ENDROOT
BRANCH   1   2
ATOM      2  C   UNL A   1      31.589  28.035  24.642  1.00  0.00     0.002 C 
BRANCH   2   3
ATOM      3  C   UNL A   1      30.507  27.414  23.752  1.00  0.00     0.021 C 
BRANCH   3   4
ATOM      4  C   UNL A   1      30.774  25.968  23.339  1.00  0.00     0.116 C 
BRANCH   4   5
ATOM      5  N   UNL A   1      31.687  25.883  22.214  1.00  0.00    -0.352 N 
ATOM      6  C   UNL A   1      32.757  25.135  21.855  1.00  0.00     0.251 C 
ATOM      7  O   UNL A   1      33.230  25.403  20.745  1.00  0.00    -0.270 OA
ATOM      8  H   UNL A   1      31.470  26.551  21.523  1.00  0.00     0.163 HD
BRANCH   6   9
ATOM      9  C   UNL A   1      33.383  24.054  22.679  1.00  0.00     0.067 C 
ATOM     10  C   UNL A   1      32.285  18.221  24.444  1.00  0.00     0.044 C 
ATOM     11  C   UNL A   1      33.070  19.491  24.296  1.00  0.00    -0.050 A 
ATOM     12  C   UNL A   1      34.320  19.630  24.909  1.00  0.00     0.007 A 
ATOM     13  C   UNL A   1      32.538  20.567  23.570  1.00  0.00     0.015 A 
ATOM     14  C   UNL A   1      35.035  20.821  24.782  1.00  0.00     0.047 A 
ATOM     15  C   UNL A   1      33.253  21.764  23.445  1.00  0.00     0.017 A 
ATOM     16  C   UNL A   1      34.496  21.882  24.060  1.00  0.00     0.128 A 
ATOM     17  C   UNL A   1      32.739  22.873  22.653  1.00  0.00     0.025 C 
ATOM     18  O   UNL A   1      35.268  23.001  23.960  1.00  0.00    -0.475 OA
ATOM     19  C   UNL A   1      34.610  24.227  23.536  1.00  0.00     0.314 C 
BRANCH  19  20
ATOM     20  C   UNL A   1      34.351  25.103  24.774  1.00  0.00     0.429 C 
ATOM     21  F   UNL A   1      33.145  24.814  25.318  1.00  0.00    -0.167 F 
ATOM     22  F   UNL A   1      35.268  24.904  25.750  1.00  0.00    -0.167 F 
ATOM     23  F   UNL A   1      34.364  26.423  24.483  1.00  0.00    -0.167 F 
ENDBRANCH  19  20
ENDBRANCH   6   9
ENDBRANCH   4   5
ENDBRANCH   3   4
ENDBRANCH   2   3
ENDBRANCH   1   2
BRANCH   1  24
ATOM     24  C   UNL A   1      32.494  27.633  27.046  1.00  0.00     0.021 C 
BRANCH  24  25
ATOM     25  C   UNL A   1      33.735  28.504  26.891  1.00  0.00     0.116 C 
BRANCH  25  26
ATOM     26  N   UNL A   1      33.574  29.828  27.470  1.00  0.00    -0.352 N 
ATOM     27  C   UNL A   1      34.468  30.563  28.213  1.00  0.00     0.251 C 
ATOM     28  H   UNL A   1      32.702  30.257  27.310  1.00  0.00     0.163 HD
ATOM     29  O   UNL A   1      34.113  31.614  28.738  1.00  0.00    -0.269 OA
BRANCH  27  30
ATOM     30  C   UNL A   1      35.847  30.063  28.404  1.00  0.00     0.039 A 
ATOM     31  C   UNL A   1      36.265  29.578  29.645  1.00  0.00     0.014 A 
ATOM     32  C   UNL A   1      36.741  30.104  27.329  1.00  0.00     0.014 A 
ATOM     33  C   UNL A   1      37.610  29.283  29.852  1.00  0.00     0.010 A 
ATOM     34  C   UNL A   1      38.076  29.737  27.522  1.00  0.00     0.010 A 
ATOM     35  C   UNL A   1      38.533  29.369  28.797  1.00  0.00    -0.014 A 
BRANCH  35  36
ATOM     36  C   UNL A   1      39.969  29.085  29.055  1.00  0.00     0.031 A 
ATOM     37  C   UNL A   1      40.566  27.752  28.689  1.00  0.00     0.074 A 
ATOM     38  C   UNL A   1      40.752  30.058  29.562  1.00  0.00     0.049 A 
ATOM     39  N   UNL A   1      41.803  27.341  28.814  1.00  0.00    -0.248 NA
ATOM     40  C   UNL A   1      39.660  26.748  28.109  1.00  0.00     0.031 C 
ATOM     41  C   UNL A   1      40.291  31.394  29.946  1.00  0.00     0.029 A 
ATOM     42  N   UNL A   1      42.099  30.086  29.816  1.00  0.00    -0.354 N 
ATOM     43  C   UNL A   1      41.822  26.033  28.344  1.00  0.00     0.074 A 
ATOM     44  C   UNL A   1      40.467  25.706  27.957  1.00  0.00     0.031 C 
ATOM     45  C   UNL A   1      41.347  32.128  30.332  1.00  0.00     0.029 A 
ATOM     46  C   UNL A   1      42.547  31.300  30.276  1.00  0.00     0.049 A 
ATOM     47  H   UNL A   1      42.690  29.310  29.680  1.00  0.00     0.167 HD
ATOM     48  C   UNL A   1      42.875  25.187  28.232  1.00  0.00     0.037 A 
ATOM     49  C   UNL A   1      43.784  31.705  30.623  1.00  0.00     0.037 A 
ATOM     50  C   UNL A   1      44.227  25.523  28.596  1.00  0.00     0.049 A 
ATOM     51  C   UNL A   1      44.928  30.737  30.524  1.00  0.00     0.074 A 
ATOM     52  C   UNL A   1      45.363  24.739  28.502  1.00  0.00     0.029 A 
ATOM     53  N   UNL A   1      44.626  26.745  29.117  1.00  0.00    -0.354 N 
ATOM     54  N   UNL A   1      44.924  29.502  30.083  1.00  0.00    -0.248 NA
ATOM     55  C   UNL A   1      46.241  31.210  30.982  1.00  0.00     0.031 C 
ATOM     56  C   UNL A   1      46.446  25.474  28.997  1.00  0.00     0.029 A 
ATOM     57  C   UNL A   1      45.990  26.729  29.366  1.00  0.00     0.049 A 
ATOM     58  H   UNL A   1      44.031  27.510  29.285  1.00  0.00     0.167 HD
ATOM     59  C   UNL A   1      46.231  29.050  30.209  1.00  0.00     0.074 A 
ATOM     60  C   UNL A   1      47.004  30.150  30.748  1.00  0.00     0.031 C 
ATOM     61  C   UNL A   1      46.742  27.831  29.912  1.00  0.00     0.037 A 
BRANCH  48  62
ATOM     62  C   UNL A   1      42.609  23.808  27.697  1.00  0.00     0.058 A 
ATOM     63  C   UNL A   1      42.584  23.548  26.317  1.00  0.00     0.135 A 
ATOM     64  C   UNL A   1      42.429  22.724  28.571  1.00  0.00     0.135 A 
ATOM     65  F   UNL A   1      42.735  24.551  25.438  1.00  0.00    -0.206 F 
ATOM     66  C   UNL A   1      42.372  22.264  25.824  1.00  0.00     0.059 A 
ATOM     67  C   UNL A   1      42.236  21.429  28.100  1.00  0.00     0.059 A 
ATOM     68  F   UNL A   1      42.443  22.918  29.900  1.00  0.00    -0.206 F 
ATOM     69  C   UNL A   1      42.197  21.211  26.724  1.00  0.00     0.060 A 
BRANCH  69  70
ATOM     70  S   UNL A   1      41.929  19.551  26.065  1.00  0.00     0.124 S 
ATOM     71  O   UNL A   1      40.510  19.599  25.727  1.00  0.00    -0.237 OA
ATOM     72  O   UNL A   1      42.849  19.512  24.932  1.00  0.00    -0.237 OA
ATOM     73  O   UNL A   1      42.279  18.680  27.183  1.00  0.00    -0.744 OA
ENDBRANCH  69  70
ENDBRANCH  48  62
BRANCH  49  74
ATOM     74  C   UNL A   1      43.996  33.099  31.091  1.00  0.00     0.058 A 
ATOM     75  C   UNL A   1      44.424  34.098  30.205  1.00  0.00     0.135 A 
ATOM     76  C   UNL A   1      43.730  33.468  32.419  1.00  0.00     0.135 A 
ATOM     77  F   UNL A   1      44.697  33.791  28.928  1.00  0.00    -0.206 F 
ATOM     78  C   UNL A   1      44.578  35.416  30.618  1.00  0.00     0.059 A 
ATOM     79  C   UNL A   1      43.857  34.784  32.850  1.00  0.00     0.059 A 
ATOM     80  F   UNL A   1      43.306  32.549  33.300  1.00  0.00    -0.206 F 
ATOM     81  C   UNL A   1      44.285  35.752  31.941  1.00  0.00     0.060 A 
BRANCH  81  82
ATOM     82  S   UNL A   1      44.413  37.480  32.447  1.00  0.00     0.124 S 
ATOM     83  O   UNL A   1      43.395  37.557  33.489  1.00  0.00    -0.237 OA
ATOM     84  O   UNL A   1      45.798  37.566  32.899  1.00  0.00    -0.237 OA
ATOM     85  O   UNL A   1      44.117  38.211  31.218  1.00  0.00    -0.744 OA
ENDBRANCH  81  82
ENDBRANCH  49  74
BRANCH  61  86
ATOM     86  C   UNL A   1      48.207  27.616  30.165  1.00  0.00     0.058 A 
ATOM     87  C   UNL A   1      48.674  27.203  31.420  1.00  0.00     0.135 A 
ATOM     88  C   UNL A   1      49.141  27.760  29.127  1.00  0.00     0.135 A 
ATOM     89  F   UNL A   1      47.820  27.060  32.446  1.00  0.00    -0.206 F 
ATOM     90  C   UNL A   1      50.023  26.947  31.644  1.00  0.00     0.059 A 
ATOM     91  C   UNL A   1      50.492  27.491  29.321  1.00  0.00     0.059 A 
ATOM     92  F   UNL A   1      48.741  28.147  27.906  1.00  0.00    -0.206 F 
ATOM     93  C   UNL A   1      50.924  27.090  30.586  1.00  0.00     0.060 A 
BRANCH  93  94
ATOM     94  S   UNL A   1      52.664  26.708  30.877  1.00  0.00     0.124 S 
ATOM     95  O   UNL A   1      53.216  26.798  29.529  1.00  0.00    -0.237 OA
ATOM     96  O   UNL A   1      53.067  27.765  31.799  1.00  0.00    -0.237 OA
ATOM     97  O   UNL A   1      52.625  25.365  31.450  1.00  0.00    -0.744 OA
ENDBRANCH  93  94
ENDBRANCH  61  86
ENDBRANCH  35  36
ENDBRANCH  27  30
ENDBRANCH  25  26
ENDBRANCH  24  25
ENDBRANCH   1  24
TORSDOF 17
ENDMDL
MODEL 3
REMARK VINA RESULT:     -12.0      2.506      3.399
REMARK SMILES Cc1ccc2c(c1)C=C(C(=O)NCCCCCCNC(=O)c1ccc(-c3c4nc(c(-c5c(F)cc(S(=O)(=O)[O-])cc5F)c5ccc([nH]5)c(-c5c(F)cc(S(=O)(=O)[O-])cc5F)c5nc(c(-c6c(F)cc(S(=O)(=O)[O-])cc6F)c6ccc3[nH]6)C=C5)C=C4)cc1)[C@@H](C(F)(F)F)O2
REMARK SMILES IDX 16 1 15 2 14 3 13 4 12 5 10 6 11 7 9 9 1 10 2 11 3 12 7 13
REMARK SMILES IDX 4 14 6 15 5 16 8 17 93 18 88 19 89 20 90 21 91 22 92 23
REMARK SMILES IDX 17 24 18 25 19 26 20 27 21 29 22 30 23 31 87 32 24 33 86 34
REMARK SMILES IDX 25 35 26 36 27 37 80 38 28 39 85 40 79 41 81 42 29 43 84 44
REMARK SMILES IDX 78 45 77 46 30 48 64 49 43 50 63 51 44 52 47 53 62 54 82 55
REMARK SMILES IDX 45 56 46 57 61 59 83 60 48 61 31 62 32 63 41 64 33 65 34 66
REMARK SMILES IDX 40 67 42 68 35 69 36 70 37 71 38 72 39 73 65 74 66 75 75 76
REMARK SMILES IDX 67 77 68 78 74 79 76 80 69 81 70 82 71 83 72 84 73 85 49 86
REMARK SMILES IDX 50 87 59 88 51 89 52 90 58 91 60 92 53 93 54 94 55 95 56 96
REMARK SMILES IDX 57 97
REMARK H PARENT 12 8 19 28 81 47 47 58
REMARK Flexibility Score: inf
ROOT
ATOM      1  C   UNL A   1      33.441  27.129  25.048  1.00  0.00     0.002 C 
ENDROOT
BRANCH   1   2
ATOM      2  C   UNL A   1      32.278  27.412  24.085  1.00  0.00     0.002 C 
BRANCH   2   3
ATOM      3  C   UNL A   1      30.871  27.192  24.652  1.00  0.00     0.021 C 
BRANCH   3   4
ATOM      4  C   UNL A   1      30.265  25.826  24.339  1.00  0.00     0.116 C 
BRANCH   4   5
ATOM      5  N   UNL A   1      30.089  25.022  25.535  1.00  0.00    -0.352 N 
ATOM      6  C   UNL A   1      30.735  24.005  26.154  1.00  0.00     0.251 C 
ATOM      7  O   UNL A   1      30.220  23.632  27.214  1.00  0.00    -0.270 OA
ATOM      8  H   UNL A   1      29.282  25.288  26.032  1.00  0.00     0.163 HD
BRANCH   6   9
ATOM      9  C   UNL A   1      31.975  23.329  25.662  1.00  0.00     0.067 C 
ATOM     10  C   UNL A   1      38.130  23.809  26.146  1.00  0.00     0.044 C 
ATOM     11  C   UNL A   1      36.825  23.191  25.741  1.00  0.00    -0.050 A 
ATOM     12  C   UNL A   1      36.798  22.042  24.943  1.00  0.00     0.007 A 
ATOM     13  C   UNL A   1      35.614  23.785  26.131  1.00  0.00     0.015 A 
ATOM     14  C   UNL A   1      35.579  21.486  24.556  1.00  0.00     0.047 A 
ATOM     15  C   UNL A   1      34.391  23.229  25.740  1.00  0.00     0.017 A 
ATOM     16  C   UNL A   1      34.385  22.084  24.947  1.00  0.00     0.128 A 
ATOM     17  C   UNL A   1      33.125  23.802  26.178  1.00  0.00     0.025 C 
ATOM     18  O   UNL A   1      33.238  21.464  24.552  1.00  0.00    -0.475 OA
ATOM     19  C   UNL A   1      32.005  22.234  24.629  1.00  0.00     0.314 C 
BRANCH  19  20
ATOM     20  C   UNL A   1      31.648  22.737  23.219  1.00  0.00     0.429 C 
ATOM     21  F   UNL A   1      31.955  21.803  22.288  1.00  0.00    -0.167 F 
ATOM     22  F   UNL A   1      30.325  22.992  23.081  1.00  0.00    -0.167 F 
ATOM     23  F   UNL A   1      32.305  23.873  22.895  1.00  0.00    -0.167 F 
ENDBRANCH  19  20
ENDBRANCH   6   9
ENDBRANCH   4   5
ENDBRANCH   3   4
ENDBRANCH   2   3
ENDBRANCH   1   2
BRANCH   1  24
ATOM     24  C   UNL A   1      34.011  28.341  25.787  1.00  0.00     0.021 C 
BRANCH  24  25
ATOM     25  C   UNL A   1      33.615  28.458  27.254  1.00  0.00     0.116 C 
BRANCH  25  26
ATOM     26  N   UNL A   1      33.517  29.836  27.706  1.00  0.00    -0.352 N 
ATOM     27  C   UNL A   1      34.477  30.623  28.299  1.00  0.00     0.251 C 
ATOM     28  H   UNL A   1      32.641  30.266  27.569  1.00  0.00     0.163 HD
ATOM     29  O   UNL A   1      34.178  31.730  28.739  1.00  0.00    -0.269 OA
BRANCH  27  30
ATOM     30  C   UNL A   1      35.859  30.115  28.436  1.00  0.00     0.039 A 
ATOM     31  C   UNL A   1      36.312  29.594  29.650  1.00  0.00     0.014 A 
ATOM     32  C   UNL A   1      36.722  30.186  27.337  1.00  0.00     0.014 A 
ATOM     33  C   UNL A   1      37.661  29.290  29.809  1.00  0.00     0.010 A 
ATOM     34  C   UNL A   1      38.061  29.810  27.480  1.00  0.00     0.010 A 
ATOM     35  C   UNL A   1      38.553  29.405  28.730  1.00  0.00    -0.014 A 
BRANCH  35  36
ATOM     36  C   UNL A   1      39.995  29.111  28.938  1.00  0.00     0.031 A 
ATOM     37  C   UNL A   1      40.896  30.118  29.604  1.00  0.00     0.074 A 
ATOM     38  C   UNL A   1      40.480  27.904  28.584  1.00  0.00     0.049 A 
ATOM     39  N   UNL A   1      42.169  30.019  29.894  1.00  0.00    -0.248 NA
ATOM     40  C   UNL A   1      40.292  31.402  29.995  1.00  0.00     0.031 C 
ATOM     41  C   UNL A   1      39.703  26.842  27.941  1.00  0.00     0.029 A 
ATOM     42  N   UNL A   1      41.728  27.357  28.737  1.00  0.00    -0.354 N 
ATOM     43  C   UNL A   1      42.522  31.228  30.485  1.00  0.00     0.074 A 
ATOM     44  C   UNL A   1      41.336  32.056  30.488  1.00  0.00     0.031 C 
ATOM     45  C   UNL A   1      40.476  25.753  27.808  1.00  0.00     0.029 A 
ATOM     46  C   UNL A   1      41.815  26.056  28.303  1.00  0.00     0.049 A 
ATOM     47  H   UNL A   1      42.489  27.849  29.122  1.00  0.00     0.167 HD
ATOM     48  C   UNL A   1      43.721  31.606  30.992  1.00  0.00     0.037 A 
ATOM     49  C   UNL A   1      42.856  25.202  28.294  1.00  0.00     0.037 A 
ATOM     50  C   UNL A   1      44.893  30.770  31.009  1.00  0.00     0.049 A 
ATOM     51  C   UNL A   1      44.184  25.658  28.828  1.00  0.00     0.074 A 
ATOM     52  C   UNL A   1      46.148  31.059  31.516  1.00  0.00     0.029 A 
ATOM     53  N   UNL A   1      44.955  29.481  30.501  1.00  0.00    -0.354 N 
ATOM     54  N   UNL A   1      44.498  26.806  29.378  1.00  0.00    -0.248 NA
ATOM     55  C   UNL A   1      45.301  24.710  28.729  1.00  0.00     0.031 C 
ATOM     56  C   UNL A   1      46.978  29.957  31.286  1.00  0.00     0.029 A 
ATOM     57  C   UNL A   1      46.231  28.968  30.668  1.00  0.00     0.049 A 
ATOM     58  H   UNL A   1      44.203  29.000  30.085  1.00  0.00     0.167 HD
ATOM     59  C   UNL A   1      45.849  26.720  29.691  1.00  0.00     0.074 A 
ATOM     60  C   UNL A   1      46.287  25.398  29.290  1.00  0.00     0.031 C 
ATOM     61  C   UNL A   1      46.653  27.653  30.254  1.00  0.00     0.037 A 
BRANCH  48  62
ATOM     62  C   UNL A   1      43.830  32.989  31.569  1.00  0.00     0.058 A 
ATOM     63  C   UNL A   1      44.079  34.107  30.755  1.00  0.00     0.135 A 
ATOM     64  C   UNL A   1      43.634  33.209  32.941  1.00  0.00     0.135 A 
ATOM     65  F   UNL A   1      44.290  33.950  29.439  1.00  0.00    -0.206 F 
ATOM     66  C   UNL A   1      44.146  35.390  31.286  1.00  0.00     0.059 A 
ATOM     67  C   UNL A   1      43.676  34.488  33.491  1.00  0.00     0.059 A 
ATOM     68  F   UNL A   1      43.394  32.175  33.764  1.00  0.00    -0.206 F 
ATOM     69  C   UNL A   1      43.944  35.571  32.656  1.00  0.00     0.060 A 
BRANCH  69  70
ATOM     70  S   UNL A   1      44.029  37.246  33.326  1.00  0.00     0.124 S 
ATOM     71  O   UNL A   1      44.222  38.034  32.113  1.00  0.00    -0.237 OA
ATOM     72  O   UNL A   1      42.729  37.389  33.973  1.00  0.00    -0.237 OA
ATOM     73  O   UNL A   1      45.173  37.193  34.230  1.00  0.00    -0.744 OA
ENDBRANCH  69  70
ENDBRANCH  48  62
BRANCH  49  74
ATOM     74  C   UNL A   1      42.673  23.827  27.764  1.00  0.00     0.058 A 
ATOM     75  C   UNL A   1      42.523  22.735  28.631  1.00  0.00     0.135 A 
ATOM     76  C   UNL A   1      42.598  23.585  26.384  1.00  0.00     0.135 A 
ATOM     77  F   UNL A   1      42.596  22.918  29.958  1.00  0.00    -0.206 F 
ATOM     78  C   UNL A   1      42.302  21.450  28.149  1.00  0.00     0.059 A 
ATOM     79  C   UNL A   1      42.355  22.311  25.878  1.00  0.00     0.059 A 
ATOM     80  F   UNL A   1      42.722  24.600  25.515  1.00  0.00    -0.206 F 
ATOM     81  C   UNL A   1      42.211  21.249  26.770  1.00  0.00     0.060 A 
BRANCH  81  82
ATOM     82  S   UNL A   1      41.845  19.591  26.157  1.00  0.00     0.124 S 
ATOM     83  O   UNL A   1      42.225  18.767  27.299  1.00  0.00    -0.237 OA
ATOM     84  O   UNL A   1      40.415  19.676  25.877  1.00  0.00    -0.237 OA
ATOM     85  O   UNL A   1      42.701  19.473  24.980  1.00  0.00    -0.744 OA
ENDBRANCH  81  82
ENDBRANCH  49  74
BRANCH  61  86
ATOM     86  C   UNL A   1      48.093  27.285  30.468  1.00  0.00     0.058 A 
ATOM     87  C   UNL A   1      49.076  27.615  29.524  1.00  0.00     0.135 A 
ATOM     88  C   UNL A   1      48.503  26.657  31.655  1.00  0.00     0.135 A 
ATOM     89  F   UNL A   1      48.732  28.209  28.370  1.00  0.00    -0.206 F 
ATOM     90  C   UNL A   1      50.419  27.328  29.744  1.00  0.00     0.059 A 
ATOM     91  C   UNL A   1      49.842  26.377  31.906  1.00  0.00     0.059 A 
ATOM     92  F   UNL A   1      47.600  26.327  32.592  1.00  0.00    -0.206 F 
ATOM     93  C   UNL A   1      50.793  26.712  30.941  1.00  0.00     0.060 A 
BRANCH  93  94
ATOM     94  S   UNL A   1      52.545  26.388  31.234  1.00  0.00     0.124 S 
ATOM     95  O   UNL A   1      52.491  25.139  31.988  1.00  0.00    -0.237 OA
ATOM     96  O   UNL A   1      53.075  26.289  29.879  1.00  0.00    -0.237 OA
ATOM     97  O   UNL A   1      52.983  27.558  31.989  1.00  0.00    -0.744 OA
ENDBRANCH  93  94
ENDBRANCH  61  86
ENDBRANCH  35  36
ENDBRANCH  27  30
ENDBRANCH  25  26
ENDBRANCH  24  25
ENDBRANCH   1  24
TORSDOF 17
ENDMDL
