MODEL 1
REMARK VINA RESULT:     -11.2      0.000      0.000
REMARK SMILES CC(C)COc1cccc(N2C[C@@H](C(=O)NCCCCCCNC(=O)c3ccc(-c4c5nc(c(-c6c(F)cc(S(=O)(=O)[O-])cc6F)c6ccc([nH]6)c(-c6c(F)cc(S(=O)(=O)[O-])cc6F)c6nc(c(-c7c(F)cc(S(=O)(=O)[O-])cc7F)c7ccc4[nH]7)C=C6)C=C5)cc3)CC2=O)c1
REMARK SMILES IDX 19 1 18 2 17 3 16 4 14 5 15 6 13 8 11 9 12 10 93 11 92 12
REMARK SMILES IDX 94 13 10 14 6 15 7 16 95 17 8 18 9 19 5 20 4 21 2 22 1 23
REMARK SMILES IDX 3 24 20 25 21 26 22 27 23 28 24 29 25 31 26 32 27 33 91 34
REMARK SMILES IDX 28 35 90 36 29 37 30 38 31 39 84 40 32 41 89 42 83 43 85 44
REMARK SMILES IDX 33 45 88 46 82 47 81 48 34 50 68 51 47 52 67 53 48 54 51 55
REMARK SMILES IDX 66 56 86 57 49 58 50 59 65 61 87 62 52 63 35 64 36 65 45 66
REMARK SMILES IDX 37 67 38 68 44 69 46 70 39 71 40 72 41 73 42 74 43 75 69 76
REMARK SMILES IDX 70 77 79 78 71 79 72 80 78 81 80 82 73 83 74 84 75 85 76 86
REMARK SMILES IDX 77 87 53 88 54 89 63 90 55 91 56 92 62 93 64 94 57 95 58 96
REMARK SMILES IDX 59 97 60 98 61 99
REMARK H PARENT 16 7 23 30 85 49 51 60
REMARK Flexibility Score: inf
ROOT
ATOM      1  C   UNL A   1      35.765  20.141  24.691  1.00  0.00     0.002 C 
ENDROOT
BRANCH   1   2
ATOM      2  C   UNL A   1      34.479  20.979  24.732  1.00  0.00     0.021 C 
BRANCH   2   3
ATOM      3  C   UNL A   1      33.373  20.413  25.627  1.00  0.00     0.116 C 
BRANCH   3   4
ATOM      4  N   UNL A   1      33.323  21.097  26.908  1.00  0.00    -0.356 N 
ATOM      5  C   UNL A   1      32.794  22.287  27.289  1.00  0.00     0.225 C 
ATOM      6  O   UNL A   1      32.919  22.606  28.475  1.00  0.00    -0.275 OA
ATOM      7  H   UNL A   1      33.755  20.602  27.641  1.00  0.00     0.163 HD
BRANCH   5   8
ATOM      8  C   UNL A   1      32.041  23.204  26.347  1.00  0.00     0.107 C 
ATOM      9  N   UNL A   1      31.505  25.488  26.152  1.00  0.00    -0.311 N 
ATOM     10  C   UNL A   1      32.634  24.597  26.284  1.00  0.00     0.139 C 
ATOM     11  C   UNL A   1      30.295  24.839  26.399  1.00  0.00     0.227 C 
ATOM     12  C   UNL A   1      30.563  23.378  26.643  1.00  0.00     0.116 C 
ATOM     13  O   UNL A   1      29.166  25.311  26.421  1.00  0.00    -0.274 OA
BRANCH   9  14
ATOM     14  C   UNL A   1      31.681  26.891  26.043  1.00  0.00     0.047 A 
ATOM     15  C   UNL A   1      31.466  28.900  24.714  1.00  0.00     0.121 A 
ATOM     16  C   UNL A   1      31.658  29.701  25.832  1.00  0.00     0.046 A 
ATOM     17  C   UNL A   1      31.591  27.514  24.798  1.00  0.00     0.072 A 
ATOM     18  C   UNL A   1      31.867  29.095  27.069  1.00  0.00     0.006 A 
ATOM     19  C   UNL A   1      31.830  27.699  27.180  1.00  0.00     0.026 A 
BRANCH  15  20
ATOM     20  O   UNL A   1      31.131  29.460  23.513  1.00  0.00    -0.493 OA
BRANCH  20  21
ATOM     21  C   UNL A   1      29.927  28.873  22.960  1.00  0.00     0.232 C 
BRANCH  21  22
ATOM     22  C   UNL A   1      28.697  29.799  23.107  1.00  0.00     0.020 C 
ATOM     23  C   UNL A   1      29.054  31.167  23.711  1.00  0.00     0.011 C 
ATOM     24  C   UNL A   1      28.014  30.038  21.759  1.00  0.00     0.011 C 
ENDBRANCH  21  22
ENDBRANCH  20  21
ENDBRANCH  15  20
ENDBRANCH   9  14
ENDBRANCH   5   8
ENDBRANCH   3   4
ENDBRANCH   2   3
ENDBRANCH   1   2
BRANCH   1  25
ATOM     25  C   UNL A   1      37.049  20.883  25.074  1.00  0.00     0.002 C 
BRANCH  25  26
ATOM     26  C   UNL A   1      38.338  20.067  24.950  1.00  0.00     0.021 C 
BRANCH  26  27
ATOM     27  C   UNL A   1      39.442  20.452  25.931  1.00  0.00     0.116 C 
BRANCH  27  28
ATOM     28  N   UNL A   1      40.442  19.407  26.073  1.00  0.00    -0.352 N 
ATOM     29  C   UNL A   1      41.803  19.508  26.219  1.00  0.00     0.251 C 
ATOM     30  H   UNL A   1      40.090  18.488  26.063  1.00  0.00     0.163 HD
ATOM     31  O   UNL A   1      42.498  18.498  26.124  1.00  0.00    -0.269 OA
BRANCH  29  32
ATOM     32  C   UNL A   1      42.438  20.823  26.467  1.00  0.00     0.039 A 
ATOM     33  C   UNL A   1      42.877  21.572  25.373  1.00  0.00     0.014 A 
ATOM     34  C   UNL A   1      42.623  21.309  27.765  1.00  0.00     0.014 A 
ATOM     35  C   UNL A   1      43.442  22.832  25.577  1.00  0.00     0.010 A 
ATOM     36  C   UNL A   1      43.117  22.599  27.962  1.00  0.00     0.010 A 
ATOM     37  C   UNL A   1      43.533  23.374  26.871  1.00  0.00    -0.014 A 
BRANCH  37  38
ATOM     38  C   UNL A   1      44.028  24.761  27.077  1.00  0.00     0.031 A 
ATOM     39  C   UNL A   1      43.100  25.855  27.530  1.00  0.00     0.074 A 
ATOM     40  C   UNL A   1      45.321  25.042  26.814  1.00  0.00     0.049 A 
ATOM     41  N   UNL A   1      43.364  27.114  27.768  1.00  0.00    -0.248 NA
ATOM     42  C   UNL A   1      41.686  25.495  27.720  1.00  0.00     0.031 C 
ATOM     43  C   UNL A   1      46.306  24.082  26.309  1.00  0.00     0.029 A 
ATOM     44  N   UNL A   1      46.030  26.210  26.931  1.00  0.00    -0.354 N 
ATOM     45  C   UNL A   1      42.155  27.697  28.129  1.00  0.00     0.074 A 
ATOM     46  C   UNL A   1      41.145  26.666  28.025  1.00  0.00     0.031 C 
ATOM     47  C   UNL A   1      47.495  24.691  26.193  1.00  0.00     0.029 A 
ATOM     48  C   UNL A   1      47.354  26.092  26.575  1.00  0.00     0.049 A 
ATOM     49  H   UNL A   1      45.630  27.055  27.242  1.00  0.00     0.167 HD
ATOM     50  C   UNL A   1      41.912  28.968  28.532  1.00  0.00     0.037 A 
ATOM     51  C   UNL A   1      48.343  27.007  26.554  1.00  0.00     0.037 A 
ATOM     52  C   UNL A   1      42.928  29.986  28.644  1.00  0.00     0.049 A 
ATOM     53  C   UNL A   1      48.050  28.411  27.005  1.00  0.00     0.074 A 
ATOM     54  C   UNL A   1      42.796  31.284  29.105  1.00  0.00     0.029 A 
ATOM     55  N   UNL A   1      44.257  29.827  28.279  1.00  0.00    -0.354 N 
ATOM     56  N   UNL A   1      46.918  28.922  27.426  1.00  0.00    -0.248 NA
ATOM     57  C   UNL A   1      49.169  29.361  26.987  1.00  0.00     0.031 C 
ATOM     58  C   UNL A   1      44.030  31.928  28.962  1.00  0.00     0.029 A 
ATOM     59  C   UNL A   1      44.948  31.014  28.472  1.00  0.00     0.049 A 
ATOM     60  H   UNL A   1      44.652  28.994  27.932  1.00  0.00     0.167 HD
ATOM     61  C   UNL A   1      47.193  30.248  27.741  1.00  0.00     0.074 A 
ATOM     62  C   UNL A   1      48.604  30.452  27.484  1.00  0.00     0.031 C 
ATOM     63  C   UNL A   1      46.352  31.208  28.203  1.00  0.00     0.037 A 
BRANCH  50  64
ATOM     64  C   UNL A   1      40.493  29.336  28.880  1.00  0.00     0.058 A 
ATOM     65  C   UNL A   1      39.501  29.478  27.894  1.00  0.00     0.135 A 
ATOM     66  C   UNL A   1      40.108  29.510  30.219  1.00  0.00     0.135 A 
ATOM     67  F   UNL A   1      39.812  29.335  26.596  1.00  0.00    -0.206 F 
ATOM     68  C   UNL A   1      38.191  29.811  28.221  1.00  0.00     0.059 A 
ATOM     69  C   UNL A   1      38.795  29.813  30.572  1.00  0.00     0.059 A 
ATOM     70  F   UNL A   1      41.013  29.385  31.204  1.00  0.00    -0.206 F 
ATOM     71  C   UNL A   1      37.848  29.976  29.564  1.00  0.00     0.060 A 
BRANCH  71  72
ATOM     72  S   UNL A   1      36.142  30.406  29.970  1.00  0.00     0.124 S 
ATOM     73  O   UNL A   1      36.242  31.851  30.154  1.00  0.00    -0.237 OA
ATOM     74  O   UNL A   1      35.419  29.969  28.780  1.00  0.00    -0.237 OA
ATOM     75  O   UNL A   1      35.874  29.637  31.181  1.00  0.00    -0.744 OA
ENDBRANCH  71  72
ENDBRANCH  50  64
BRANCH  51  76
ATOM     76  C   UNL A   1      49.705  26.611  26.103  1.00  0.00     0.058 A 
ATOM     77  C   UNL A   1      50.574  25.909  26.951  1.00  0.00     0.135 A 
ATOM     78  C   UNL A   1      50.154  26.903  24.806  1.00  0.00     0.135 A 
ATOM     79  F   UNL A   1      50.195  25.611  28.203  1.00  0.00    -0.206 F 
ATOM     80  C   UNL A   1      51.843  25.519  26.534  1.00  0.00     0.059 A 
ATOM     81  C   UNL A   1      51.407  26.500  24.356  1.00  0.00     0.059 A 
ATOM     82  F   UNL A   1      49.354  27.558  23.948  1.00  0.00    -0.206 F 
ATOM     83  C   UNL A   1      52.247  25.814  25.231  1.00  0.00     0.060 A 
BRANCH  83  84
ATOM     84  S   UNL A   1      53.872  25.249  24.678  1.00  0.00     0.124 S 
ATOM     85  O   UNL A   1      53.857  25.640  23.274  1.00  0.00    -0.237 OA
ATOM     86  O   UNL A   1      54.768  26.006  25.545  1.00  0.00    -0.237 OA
ATOM     87  O   UNL A   1      53.830  23.812  24.934  1.00  0.00    -0.744 OA
ENDBRANCH  83  84
ENDBRANCH  51  76
BRANCH  63  88
ATOM     88  C   UNL A   1      46.942  32.567  28.477  1.00  0.00     0.058 A 
ATOM     89  C   UNL A   1      47.089  33.528  27.464  1.00  0.00     0.135 A 
ATOM     90  C   UNL A   1      47.335  32.923  29.778  1.00  0.00     0.135 A 
ATOM     91  F   UNL A   1      46.735  33.238  26.201  1.00  0.00    -0.206 F 
ATOM     92  C   UNL A   1      47.635  34.781  27.723  1.00  0.00     0.059 A 
ATOM     93  C   UNL A   1      47.852  34.182  30.066  1.00  0.00     0.059 A 
ATOM     94  F   UNL A   1      47.207  32.048  30.787  1.00  0.00    -0.206 F 
ATOM     95  C   UNL A   1      48.014  35.099  29.029  1.00  0.00     0.060 A 
BRANCH  95  96
ATOM     96  S   UNL A   1      48.707  36.734  29.354  1.00  0.00     0.124 S 
ATOM     97  O   UNL A   1      48.921  37.237  28.001  1.00  0.00    -0.237 OA
ATOM     98  O   UNL A   1      47.638  37.380  30.109  1.00  0.00    -0.237 OA
ATOM     99  O   UNL A   1      49.918  36.445  30.116  1.00  0.00    -0.744 OA
ENDBRANCH  95  96
ENDBRANCH  63  88
ENDBRANCH  37  38
ENDBRANCH  29  32
ENDBRANCH  27  28
ENDBRANCH  26  27
ENDBRANCH  25  26
ENDBRANCH   1  25
TORSDOF 20
ENDMDL
MODEL 2
REMARK VINA RESULT:     -11.0      3.150      9.838
REMARK SMILES CC(C)COc1cccc(N2C[C@@H](C(=O)NCCCCCCNC(=O)c3ccc(-c4c5nc(c(-c6c(F)cc(S(=O)(=O)[O-])cc6F)c6ccc([nH]6)c(-c6c(F)cc(S(=O)(=O)[O-])cc6F)c6nc(c(-c7c(F)cc(S(=O)(=O)[O-])cc7F)c7ccc4[nH]7)C=C6)C=C5)cc3)CC2=O)c1
REMARK SMILES IDX 19 1 18 2 17 3 16 4 14 5 15 6 13 8 11 9 12 10 93 11 92 12
REMARK SMILES IDX 94 13 10 14 6 15 7 16 95 17 8 18 9 19 5 20 4 21 2 22 1 23
REMARK SMILES IDX 3 24 20 25 21 26 22 27 23 28 24 29 25 31 26 32 27 33 91 34
REMARK SMILES IDX 28 35 90 36 29 37 30 38 31 39 84 40 32 41 89 42 83 43 85 44
REMARK SMILES IDX 33 45 88 46 82 47 81 48 34 50 68 51 47 52 67 53 48 54 51 55
REMARK SMILES IDX 66 56 86 57 49 58 50 59 65 61 87 62 52 63 35 64 36 65 45 66
REMARK SMILES IDX 37 67 38 68 44 69 46 70 39 71 40 72 41 73 42 74 43 75 69 76
REMARK SMILES IDX 70 77 79 78 71 79 72 80 78 81 80 82 73 83 74 84 75 85 76 86
REMARK SMILES IDX 77 87 53 88 54 89 63 90 55 91 56 92 62 93 64 94 57 95 58 96
REMARK SMILES IDX 59 97 60 98 61 99
REMARK H PARENT 16 7 23 30 85 49 51 60
REMARK Flexibility Score: inf
ROOT
ATOM      1  C   UNL A   1      34.460  25.732  25.172  1.00  0.00     0.002 C 
ENDROOT
BRANCH   1   2
ATOM      2  C   UNL A   1      33.508  26.932  25.267  1.00  0.00     0.021 C 
BRANCH   2   3
ATOM      3  C   UNL A   1      32.020  26.580  25.174  1.00  0.00     0.116 C 
BRANCH   3   4
ATOM      4  N   UNL A   1      31.374  27.283  24.079  1.00  0.00    -0.356 N 
ATOM      5  C   UNL A   1      31.117  26.933  22.794  1.00  0.00     0.225 C 
ATOM      6  O   UNL A   1      30.545  27.767  22.086  1.00  0.00    -0.275 OA
ATOM      7  H   UNL A   1      31.061  28.186  24.315  1.00  0.00     0.163 HD
BRANCH   5   8
ATOM      8  C   UNL A   1      31.465  25.579  22.213  1.00  0.00     0.107 C 
ATOM      9  N   UNL A   1      32.134  23.449  22.961  1.00  0.00    -0.311 N 
ATOM     10  C   UNL A   1      31.088  24.431  23.128  1.00  0.00     0.139 C 
ATOM     11  C   UNL A   1      33.231  23.966  22.272  1.00  0.00     0.227 C 
ATOM     12  C   UNL A   1      32.924  25.376  21.847  1.00  0.00     0.116 C 
ATOM     13  O   UNL A   1      34.295  23.420  22.010  1.00  0.00    -0.274 OA
BRANCH   9  14
ATOM     14  C   UNL A   1      32.104  22.215  23.658  1.00  0.00     0.047 A 
ATOM     15  C   UNL A   1      32.517  19.832  23.652  1.00  0.00     0.121 A 
ATOM     16  C   UNL A   1      32.419  19.777  25.036  1.00  0.00     0.046 A 
ATOM     17  C   UNL A   1      32.249  21.013  22.963  1.00  0.00     0.072 A 
ATOM     18  C   UNL A   1      32.158  20.949  25.742  1.00  0.00     0.006 A 
ATOM     19  C   UNL A   1      32.050  22.168  25.059  1.00  0.00     0.026 A 
BRANCH  15  20
ATOM     20  O   UNL A   1      32.898  18.727  22.942  1.00  0.00    -0.493 OA
BRANCH  20  21
ATOM     21  C   UNL A   1      32.485  17.499  23.591  1.00  0.00     0.232 C 
BRANCH  21  22
ATOM     22  C   UNL A   1      33.678  16.566  23.906  1.00  0.00     0.020 C 
ATOM     23  C   UNL A   1      34.961  17.341  24.248  1.00  0.00     0.011 C 
ATOM     24  C   UNL A   1      33.361  15.630  25.074  1.00  0.00     0.011 C 
ENDBRANCH  21  22
ENDBRANCH  20  21
ENDBRANCH  15  20
ENDBRANCH   9  14
ENDBRANCH   5   8
ENDBRANCH   3   4
ENDBRANCH   2   3
ENDBRANCH   1   2
BRANCH   1  25
ATOM     25  C   UNL A   1      34.037  24.490  25.963  1.00  0.00     0.002 C 
BRANCH  25  26
ATOM     26  C   UNL A   1      35.186  23.611  26.464  1.00  0.00     0.021 C 
BRANCH  26  27
ATOM     27  C   UNL A   1      36.458  23.669  25.621  1.00  0.00     0.116 C 
BRANCH  27  28
ATOM     28  N   UNL A   1      37.417  22.645  26.000  1.00  0.00    -0.352 N 
ATOM     29  C   UNL A   1      38.702  22.775  26.465  1.00  0.00     0.251 C 
ATOM     30  H   UNL A   1      37.098  21.719  25.909  1.00  0.00     0.163 HD
ATOM     31  O   UNL A   1      39.421  21.781  26.541  1.00  0.00    -0.269 OA
BRANCH  29  32
ATOM     32  C   UNL A   1      39.231  24.103  26.853  1.00  0.00     0.039 A 
ATOM     33  C   UNL A   1      39.126  24.502  28.187  1.00  0.00     0.014 A 
ATOM     34  C   UNL A   1      39.807  24.962  25.912  1.00  0.00     0.014 A 
ATOM     35  C   UNL A   1      39.653  25.732  28.587  1.00  0.00     0.010 A 
ATOM     36  C   UNL A   1      40.400  26.154  26.327  1.00  0.00     0.010 A 
ATOM     37  C   UNL A   1      40.329  26.553  27.668  1.00  0.00    -0.014 A 
BRANCH  37  38
ATOM     38  C   UNL A   1      40.990  27.807  28.118  1.00  0.00     0.031 A 
ATOM     39  C   UNL A   1      42.483  27.973  28.022  1.00  0.00     0.074 A 
ATOM     40  C   UNL A   1      40.237  28.789  28.655  1.00  0.00     0.049 A 
ATOM     41  N   UNL A   1      43.221  28.999  28.357  1.00  0.00    -0.248 NA
ATOM     42  C   UNL A   1      43.249  26.830  27.502  1.00  0.00     0.031 C 
ATOM     43  C   UNL A   1      38.788  28.723  28.861  1.00  0.00     0.029 A 
ATOM     44  N   UNL A   1      40.581  30.030  29.127  1.00  0.00    -0.354 N 
ATOM     45  C   UNL A   1      44.534  28.627  28.096  1.00  0.00     0.074 A 
ATOM     46  C   UNL A   1      44.497  27.259  27.626  1.00  0.00     0.031 C 
ATOM     47  C   UNL A   1      38.364  29.883  29.384  1.00  0.00     0.029 A 
ATOM     48  C   UNL A   1      39.511  30.762  29.590  1.00  0.00     0.049 A 
ATOM     49  H   UNL A   1      41.506  30.368  29.133  1.00  0.00     0.167 HD
ATOM     50  C   UNL A   1      45.665  29.365  28.216  1.00  0.00     0.037 A 
ATOM     51  C   UNL A   1      39.457  31.998  30.123  1.00  0.00     0.037 A 
ATOM     52  C   UNL A   1      45.691  30.732  28.675  1.00  0.00     0.049 A 
ATOM     53  C   UNL A   1      40.724  32.797  30.246  1.00  0.00     0.074 A 
ATOM     54  C   UNL A   1      46.776  31.586  28.769  1.00  0.00     0.029 A 
ATOM     55  N   UNL A   1      44.587  31.440  29.130  1.00  0.00    -0.354 N 
ATOM     56  N   UNL A   1      41.947  32.460  29.912  1.00  0.00    -0.248 NA
ATOM     57  C   UNL A   1      40.605  34.148  30.808  1.00  0.00     0.031 C 
ATOM     58  C   UNL A   1      46.339  32.789  29.336  1.00  0.00     0.029 A 
ATOM     59  C   UNL A   1      44.972  32.708  29.537  1.00  0.00     0.049 A 
ATOM     60  H   UNL A   1      43.667  31.091  29.159  1.00  0.00     0.167 HD
ATOM     61  C   UNL A   1      42.740  33.563  30.206  1.00  0.00     0.074 A 
ATOM     62  C   UNL A   1      41.853  34.586  30.723  1.00  0.00     0.031 C 
ATOM     63  C   UNL A   1      44.080  33.715  30.061  1.00  0.00     0.037 A 
BRANCH  50  64
ATOM     64  C   UNL A   1      46.972  28.711  27.848  1.00  0.00     0.058 A 
ATOM     65  C   UNL A   1      47.476  28.747  26.537  1.00  0.00     0.135 A 
ATOM     66  C   UNL A   1      47.752  28.075  28.828  1.00  0.00     0.135 A 
ATOM     67  F   UNL A   1      46.769  29.330  25.556  1.00  0.00    -0.206 F 
ATOM     68  C   UNL A   1      48.686  28.147  26.204  1.00  0.00     0.059 A 
ATOM     69  C   UNL A   1      48.982  27.495  28.524  1.00  0.00     0.059 A 
ATOM     70  F   UNL A   1      47.322  28.012  30.098  1.00  0.00    -0.206 F 
ATOM     71  C   UNL A   1      49.432  27.524  27.206  1.00  0.00     0.060 A 
BRANCH  71  72
ATOM     72  S   UNL A   1      51.002  26.752  26.757  1.00  0.00     0.124 S 
ATOM     73  O   UNL A   1      51.838  27.921  26.502  1.00  0.00    -0.237 OA
ATOM     74  O   UNL A   1      51.329  25.990  27.957  1.00  0.00    -0.237 OA
ATOM     75  O   UNL A   1      50.667  25.953  25.582  1.00  0.00    -0.744 OA
ENDBRANCH  71  72
ENDBRANCH  50  64
BRANCH  51  76
ATOM     76  C   UNL A   1      38.149  32.555  30.563  1.00  0.00     0.058 A 
ATOM     77  C   UNL A   1      37.709  32.414  31.888  1.00  0.00     0.135 A 
ATOM     78  C   UNL A   1      37.326  33.264  29.674  1.00  0.00     0.135 A 
ATOM     79  F   UNL A   1      38.456  31.739  32.774  1.00  0.00    -0.206 F 
ATOM     80  C   UNL A   1      36.495  32.945  32.313  1.00  0.00     0.059 A 
ATOM     81  C   UNL A   1      36.122  33.829  30.083  1.00  0.00     0.059 A 
ATOM     82  F   UNL A   1      37.709  33.444  28.400  1.00  0.00    -0.206 F 
ATOM     83  C   UNL A   1      35.712  33.658  31.404  1.00  0.00     0.060 A 
BRANCH  83  84
ATOM     84  S   UNL A   1      34.170  34.399  31.982  1.00  0.00     0.124 S 
ATOM     85  O   UNL A   1      34.650  35.618  32.621  1.00  0.00    -0.237 OA
ATOM     86  O   UNL A   1      33.432  34.577  30.736  1.00  0.00    -0.237 OA
ATOM     87  O   UNL A   1      33.628  33.385  32.882  1.00  0.00    -0.744 OA
ENDBRANCH  83  84
ENDBRANCH  51  76
BRANCH  63  88
ATOM     88  C   UNL A   1      44.670  35.045  30.451  1.00  0.00     0.058 A 
ATOM     89  C   UNL A   1      45.193  35.275  31.734  1.00  0.00     0.135 A 
ATOM     90  C   UNL A   1      44.743  36.093  29.518  1.00  0.00     0.135 A 
ATOM     91  F   UNL A   1      45.144  34.310  32.666  1.00  0.00    -0.206 F 
ATOM     92  C   UNL A   1      45.735  36.506  32.089  1.00  0.00     0.059 A 
ATOM     93  C   UNL A   1      45.311  37.321  29.841  1.00  0.00     0.059 A 
ATOM     94  F   UNL A   1      44.269  35.926  28.274  1.00  0.00    -0.206 F 
ATOM     95  C   UNL A   1      45.791  37.523  31.134  1.00  0.00     0.060 A 
BRANCH  95  96
ATOM     96  S   UNL A   1      46.511  39.111  31.604  1.00  0.00     0.124 S 
ATOM     97  O   UNL A   1      47.432  38.714  32.664  1.00  0.00    -0.237 OA
ATOM     98  O   UNL A   1      47.132  39.551  30.358  1.00  0.00    -0.237 OA
ATOM     99  O   UNL A   1      45.358  39.895  32.035  1.00  0.00    -0.744 OA
ENDBRANCH  95  96
ENDBRANCH  63  88
ENDBRANCH  37  38
ENDBRANCH  29  32
ENDBRANCH  27  28
ENDBRANCH  26  27
ENDBRANCH  25  26
ENDBRANCH   1  25
TORSDOF 20
ENDMDL
MODEL 3
REMARK VINA RESULT:     -11.0      4.430     10.240
REMARK SMILES CC(C)COc1cccc(N2C[C@@H](C(=O)NCCCCCCNC(=O)c3ccc(-c4c5nc(c(-c6c(F)cc(S(=O)(=O)[O-])cc6F)c6ccc([nH]6)c(-c6c(F)cc(S(=O)(=O)[O-])cc6F)c6nc(c(-c7c(F)cc(S(=O)(=O)[O-])cc7F)c7ccc4[nH]7)C=C6)C=C5)cc3)CC2=O)c1
REMARK SMILES IDX 19 1 18 2 17 3 16 4 14 5 15 6 13 8 11 9 12 10 93 11 92 12
REMARK SMILES IDX 94 13 10 14 6 15 7 16 95 17 8 18 9 19 5 20 4 21 2 22 1 23
REMARK SMILES IDX 3 24 20 25 21 26 22 27 23 28 24 29 25 31 26 32 27 33 91 34
REMARK SMILES IDX 28 35 90 36 29 37 30 38 31 39 84 40 32 41 89 42 83 43 85 44
REMARK SMILES IDX 33 45 88 46 82 47 81 48 34 50 68 51 47 52 67 53 48 54 51 55
REMARK SMILES IDX 66 56 86 57 49 58 50 59 65 61 87 62 52 63 35 64 36 65 45 66
REMARK SMILES IDX 37 67 38 68 44 69 46 70 39 71 40 72 41 73 42 74 43 75 69 76
REMARK SMILES IDX 70 77 79 78 71 79 72 80 78 81 80 82 73 83 74 84 75 85 76 86
REMARK SMILES IDX 77 87 53 88 54 89 63 90 55 91 56 92 62 93 64 94 57 95 58 96
REMARK SMILES IDX 59 97 60 98 61 99
REMARK H PARENT 16 7 23 30 85 49 51 60
REMARK Flexibility Score: inf
ROOT
ATOM      1  C   UNL A   1      34.262  26.165  25.359  1.00  0.00     0.002 C 
ENDROOT
BRANCH   1   2
ATOM      2  C   UNL A   1      33.063  26.739  26.127  1.00  0.00     0.021 C 
BRANCH   2   3
ATOM      3  C   UNL A   1      31.850  25.807  26.213  1.00  0.00     0.116 C 
BRANCH   3   4
ATOM      4  N   UNL A   1      30.727  26.323  25.450  1.00  0.00    -0.356 N 
ATOM      5  C   UNL A   1      30.159  25.932  24.282  1.00  0.00     0.225 C 
ATOM      6  O   UNL A   1      29.197  26.590  23.873  1.00  0.00    -0.275 OA
ATOM      7  H   UNL A   1      30.294  27.107  25.859  1.00  0.00     0.163 HD
BRANCH   5   8
ATOM      8  C   UNL A   1      30.625  24.727  23.491  1.00  0.00     0.107 C 
ATOM      9  N   UNL A   1      32.171  22.964  23.696  1.00  0.00    -0.311 N 
ATOM     10  C   UNL A   1      31.051  23.572  24.375  1.00  0.00     0.139 C 
ATOM     11  C   UNL A   1      32.648  23.761  22.656  1.00  0.00     0.227 C 
ATOM     12  C   UNL A   1      31.769  24.976  22.527  1.00  0.00     0.116 C 
ATOM     13  O   UNL A   1      33.608  23.566  21.921  1.00  0.00    -0.274 OA
BRANCH   9  14
ATOM     14  C   UNL A   1      32.826  21.824  24.229  1.00  0.00     0.047 A 
ATOM     15  C   UNL A   1      32.725  19.490  24.851  1.00  0.00     0.121 A 
ATOM     16  C   UNL A   1      34.109  19.418  24.941  1.00  0.00     0.046 A 
ATOM     17  C   UNL A   1      32.086  20.705  24.610  1.00  0.00     0.072 A 
ATOM     18  C   UNL A   1      34.862  20.560  24.677  1.00  0.00     0.006 A 
ATOM     19  C   UNL A   1      34.225  21.742  24.276  1.00  0.00     0.026 A 
BRANCH  15  20
ATOM     20  O   UNL A   1      31.966  18.359  24.977  1.00  0.00    -0.493 OA
BRANCH  20  21
ATOM     21  C   UNL A   1      32.694  17.290  25.631  1.00  0.00     0.232 C 
BRANCH  21  22
ATOM     22  C   UNL A   1      32.871  16.053  24.720  1.00  0.00     0.020 C 
ATOM     23  C   UNL A   1      34.144  16.127  23.861  1.00  0.00     0.011 C 
ATOM     24  C   UNL A   1      32.924  14.761  25.538  1.00  0.00     0.011 C 
ENDBRANCH  21  22
ENDBRANCH  20  21
ENDBRANCH  15  20
ENDBRANCH   9  14
ENDBRANCH   5   8
ENDBRANCH   3   4
ENDBRANCH   2   3
ENDBRANCH   1   2
BRANCH   1  25
ATOM     25  C   UNL A   1      34.566  24.687  25.620  1.00  0.00     0.002 C 
BRANCH  25  26
ATOM     26  C   UNL A   1      35.980  24.390  26.126  1.00  0.00     0.021 C 
BRANCH  26  27
ATOM     27  C   UNL A   1      36.986  24.009  25.043  1.00  0.00     0.116 C 
BRANCH  27  28
ATOM     28  N   UNL A   1      37.910  22.979  25.487  1.00  0.00    -0.352 N 
ATOM     29  C   UNL A   1      39.051  23.089  26.242  1.00  0.00     0.251 C 
ATOM     30  H   UNL A   1      37.685  22.065  25.202  1.00  0.00     0.163 HD
ATOM     31  O   UNL A   1      39.805  22.123  26.344  1.00  0.00    -0.269 OA
BRANCH  29  32
ATOM     32  C   UNL A   1      39.388  24.365  26.914  1.00  0.00     0.039 A 
ATOM     33  C   UNL A   1      38.967  24.560  28.232  1.00  0.00     0.014 A 
ATOM     34  C   UNL A   1      40.094  25.374  26.252  1.00  0.00     0.014 A 
ATOM     35  C   UNL A   1      39.306  25.737  28.902  1.00  0.00     0.010 A 
ATOM     36  C   UNL A   1      40.497  26.515  26.946  1.00  0.00     0.010 A 
ATOM     37  C   UNL A   1      40.107  26.710  28.278  1.00  0.00    -0.014 A 
BRANCH  37  38
ATOM     38  C   UNL A   1      40.563  27.908  29.030  1.00  0.00     0.031 A 
ATOM     39  C   UNL A   1      41.934  27.957  29.651  1.00  0.00     0.074 A 
ATOM     40  C   UNL A   1      39.717  28.946  29.187  1.00  0.00     0.049 A 
ATOM     41  N   UNL A   1      42.497  28.923  30.330  1.00  0.00    -0.248 NA
ATOM     42  C   UNL A   1      42.773  26.757  29.510  1.00  0.00     0.031 C 
ATOM     43  C   UNL A   1      38.340  28.994  28.687  1.00  0.00     0.029 A 
ATOM     44  N   UNL A   1      39.883  30.158  29.809  1.00  0.00    -0.354 N 
ATOM     45  C   UNL A   1      43.750  28.449  30.701  1.00  0.00     0.074 A 
ATOM     46  C   UNL A   1      43.843  27.088  30.220  1.00  0.00     0.031 C 
ATOM     47  C   UNL A   1      37.802  30.184  28.992  1.00  0.00     0.029 A 
ATOM     48  C   UNL A   1      38.776  30.971  29.743  1.00  0.00     0.049 A 
ATOM     49  H   UNL A   1      40.718  30.422  30.260  1.00  0.00     0.167 HD
ATOM     50  C   UNL A   1      44.740  29.096  31.364  1.00  0.00     0.037 A 
ATOM     51  C   UNL A   1      38.563  32.208  30.232  1.00  0.00     0.037 A 
ATOM     52  C   UNL A   1      44.641  30.457  31.830  1.00  0.00     0.049 A 
ATOM     53  C   UNL A   1      39.676  32.906  30.964  1.00  0.00     0.074 A 
ATOM     54  C   UNL A   1      45.611  31.225  32.452  1.00  0.00     0.029 A 
ATOM     55  N   UNL A   1      43.505  31.249  31.740  1.00  0.00    -0.354 N 
ATOM     56  N   UNL A   1      40.885  32.474  31.229  1.00  0.00    -0.248 NA
ATOM     57  C   UNL A   1      39.400  34.262  31.453  1.00  0.00     0.031 C 
ATOM     58  C   UNL A   1      45.044  32.458  32.792  1.00  0.00     0.029 A 
ATOM     59  C   UNL A   1      43.740  32.484  32.325  1.00  0.00     0.049 A 
ATOM     60  H   UNL A   1      42.657  30.974  31.322  1.00  0.00     0.167 HD
ATOM     61  C   UNL A   1      41.521  33.512  31.901  1.00  0.00     0.074 A 
ATOM     62  C   UNL A   1      40.569  34.601  31.979  1.00  0.00     0.031 C 
ATOM     63  C   UNL A   1      42.779  33.558  32.406  1.00  0.00     0.037 A 
BRANCH  50  64
ATOM     64  C   UNL A   1      46.017  28.342  31.628  1.00  0.00     0.058 A 
ATOM     65  C   UNL A   1      46.209  27.600  32.806  1.00  0.00     0.135 A 
ATOM     66  C   UNL A   1      47.048  28.328  30.675  1.00  0.00     0.135 A 
ATOM     67  F   UNL A   1      45.264  27.586  33.759  1.00  0.00    -0.206 F 
ATOM     68  C   UNL A   1      47.388  26.900  33.043  1.00  0.00     0.059 A 
ATOM     69  C   UNL A   1      48.224  27.609  30.877  1.00  0.00     0.059 A 
ATOM     70  F   UNL A   1      46.919  29.017  29.530  1.00  0.00    -0.206 F 
ATOM     71  C   UNL A   1      48.390  26.911  32.071  1.00  0.00     0.060 A 
BRANCH  71  72
ATOM     72  S   UNL A   1      49.912  25.995  32.394  1.00  0.00     0.124 S 
ATOM     73  O   UNL A   1      50.857  26.684  31.520  1.00  0.00    -0.237 OA
ATOM     74  O   UNL A   1      50.105  26.207  33.825  1.00  0.00    -0.237 OA
ATOM     75  O   UNL A   1      49.579  24.629  32.004  1.00  0.00    -0.744 OA
ENDBRANCH  71  72
ENDBRANCH  50  64
BRANCH  51  76
ATOM     76  C   UNL A   1      37.243  32.866  30.028  1.00  0.00     0.058 A 
ATOM     77  C   UNL A   1      36.194  32.686  30.941  1.00  0.00     0.135 A 
ATOM     78  C   UNL A   1      37.016  33.710  28.930  1.00  0.00     0.135 A 
ATOM     79  F   UNL A   1      36.359  31.883  32.003  1.00  0.00    -0.206 F 
ATOM     80  C   UNL A   1      34.962  33.310  30.768  1.00  0.00     0.059 A 
ATOM     81  C   UNL A   1      35.803  34.367  28.751  1.00  0.00     0.059 A 
ATOM     82  F   UNL A   1      37.993  33.931  28.036  1.00  0.00    -0.206 F 
ATOM     83  C   UNL A   1      34.780  34.155  29.672  1.00  0.00     0.060 A 
BRANCH  83  84
ATOM     84  S   UNL A   1      33.199  35.010  29.491  1.00  0.00     0.124 S 
ATOM     85  O   UNL A   1      32.533  34.189  28.487  1.00  0.00    -0.237 OA
ATOM     86  O   UNL A   1      32.656  34.935  30.843  1.00  0.00    -0.237 OA
ATOM     87  O   UNL A   1      33.590  36.348  29.055  1.00  0.00    -0.744 OA
ENDBRANCH  83  84
ENDBRANCH  51  76
BRANCH  63  88
ATOM     88  C   UNL A   1      43.207  34.839  33.075  1.00  0.00     0.058 A 
ATOM     89  C   UNL A   1      43.784  35.895  32.351  1.00  0.00     0.135 A 
ATOM     90  C   UNL A   1      43.006  35.024  34.453  1.00  0.00     0.135 A 
ATOM     91  F   UNL A   1      44.004  35.769  31.032  1.00  0.00    -0.206 F 
ATOM     92  C   UNL A   1      44.178  37.074  32.974  1.00  0.00     0.059 A 
ATOM     93  C   UNL A   1      43.362  36.208  35.091  1.00  0.00     0.059 A 
ATOM     94  F   UNL A   1      42.449  34.053  35.193  1.00  0.00    -0.206 F 
ATOM     95  C   UNL A   1      43.962  37.222  34.346  1.00  0.00     0.060 A 
BRANCH  95  96
ATOM     96  S   UNL A   1      44.464  38.764  35.139  1.00  0.00     0.124 S 
ATOM     97  O   UNL A   1      45.893  38.794  34.846  1.00  0.00    -0.237 OA
ATOM     98  O   UNL A   1      43.652  39.753  34.437  1.00  0.00    -0.237 OA
ATOM     99  O   UNL A   1      44.115  38.555  36.541  1.00  0.00    -0.744 OA
ENDBRANCH  95  96
ENDBRANCH  63  88
ENDBRANCH  37  38
ENDBRANCH  29  32
ENDBRANCH  27  28
ENDBRANCH  26  27
ENDBRANCH  25  26
ENDBRANCH   1  25
TORSDOF 20
ENDMDL
