MODEL 1
REMARK VINA RESULT:     -11.8      0.000      0.000
REMARK SMILES C=Cc1cccc(-c2ccc([C@@H](C)C(=O)NCCCCCCNC(=O)c3ccc(-c4c5nc(c(-c6c(F)cc(S(=O)(=O)[O-])cc6F)c6ccc([nH]6)c(-c6c(F)cc(S(=O)(=O)[O-])cc6F)c6nc(c(-c7c(F)cc(S(=O)(=O)[O-])cc7F)c7ccc4[nH]7)C=C6)C=C5)cc3)cc2)c1
REMARK SMILES IDX 19 1 18 2 17 3 16 4 14 5 15 6 12 8 13 9 11 10 8 11 9 12
REMARK SMILES IDX 93 13 10 14 92 15 7 16 3 17 4 18 94 19 5 20 6 21 2 22 1 23
REMARK SMILES IDX 20 24 21 25 22 26 23 27 24 28 25 30 26 31 27 32 91 33 28 34
REMARK SMILES IDX 90 35 29 36 30 37 31 38 84 39 32 40 89 41 83 42 85 43 33 44
REMARK SMILES IDX 88 45 82 46 81 47 34 49 68 50 47 51 67 52 48 53 51 54 66 55
REMARK SMILES IDX 86 56 49 57 50 58 65 60 87 61 52 62 35 63 36 64 45 65 37 66
REMARK SMILES IDX 38 67 44 68 46 69 39 70 40 71 41 72 42 73 43 74 69 75 70 76
REMARK SMILES IDX 79 77 71 78 72 79 78 80 80 81 73 82 74 83 75 84 76 85 77 86
REMARK SMILES IDX 53 87 54 88 63 89 55 90 56 91 62 92 64 93 57 94 58 95 59 96
REMARK SMILES IDX 60 97 61 98
REMARK H PARENT 16 7 23 29 85 48 51 59
REMARK Flexibility Score: inf
ROOT
ATOM      1  C   UNL A   1      34.911  24.296  25.896  1.00  0.00     0.002 C 
ENDROOT
BRANCH   1   2
ATOM      2  C   UNL A   1      34.693  24.919  24.513  1.00  0.00     0.021 C 
BRANCH   2   3
ATOM      3  C   UNL A   1      33.932  26.246  24.546  1.00  0.00     0.116 C 
BRANCH   3   4
ATOM      4  N   UNL A   1      33.178  26.400  25.774  1.00  0.00    -0.356 N 
ATOM      5  C   UNL A   1      31.884  26.110  26.078  1.00  0.00     0.227 C 
ATOM      6  O   UNL A   1      31.498  26.444  27.206  1.00  0.00    -0.274 OA
ATOM      7  H   UNL A   1      33.694  26.783  26.519  1.00  0.00     0.163 HD
BRANCH   5   8
ATOM      8  C   UNL A   1      30.923  25.388  25.123  1.00  0.00     0.105 C 
ATOM      9  C   UNL A   1      29.446  25.555  25.487  1.00  0.00     0.023 C 
BRANCH   8  10
ATOM     10  C   UNL A   1      31.364  23.979  24.759  1.00  0.00    -0.036 A 
ATOM     11  C   UNL A   1      32.075  21.273  24.150  1.00  0.00    -0.018 A 
ATOM     12  C   UNL A   1      31.911  22.238  23.146  1.00  0.00     0.009 A 
ATOM     13  C   UNL A   1      31.899  21.703  25.473  1.00  0.00     0.009 A 
ATOM     14  C   UNL A   1      31.599  23.569  23.445  1.00  0.00     0.005 A 
ATOM     15  C   UNL A   1      31.530  23.023  25.773  1.00  0.00     0.005 A 
BRANCH  11  16
ATOM     16  C   UNL A   1      32.423  19.872  23.811  1.00  0.00    -0.018 A 
ATOM     17  C   UNL A   1      33.248  17.646  24.455  1.00  0.00    -0.026 A 
ATOM     18  C   UNL A   1      33.049  17.195  23.147  1.00  0.00     0.008 A 
ATOM     19  C   UNL A   1      32.935  18.979  24.773  1.00  0.00     0.016 A 
ATOM     20  C   UNL A   1      32.540  18.054  22.178  1.00  0.00     0.001 A 
ATOM     21  C   UNL A   1      32.240  19.376  22.506  1.00  0.00     0.009 A 
BRANCH  17  22
ATOM     22  C   UNL A   1      33.832  16.722  25.435  1.00  0.00     0.000 C 
ATOM     23  C   UNL A   1      34.972  16.045  25.248  1.00  0.00     0.009 C 
ENDBRANCH  17  22
ENDBRANCH  11  16
ENDBRANCH   8  10
ENDBRANCH   5   8
ENDBRANCH   3   4
ENDBRANCH   2   3
ENDBRANCH   1   2
BRANCH   1  24
ATOM     24  C   UNL A   1      35.968  23.185  25.947  1.00  0.00     0.002 C 
BRANCH  24  25
ATOM     25  C   UNL A   1      37.368  23.583  25.466  1.00  0.00     0.021 C 
BRANCH  25  26
ATOM     26  C   UNL A   1      38.263  24.191  26.543  1.00  0.00     0.116 C 
BRANCH  26  27
ATOM     27  N   UNL A   1      39.673  23.976  26.254  1.00  0.00    -0.352 N 
ATOM     28  C   UNL A   1      40.763  24.728  26.614  1.00  0.00     0.251 C 
ATOM     29  H   UNL A   1      39.874  23.173  25.721  1.00  0.00     0.163 HD
ATOM     30  O   UNL A   1      41.847  24.530  26.071  1.00  0.00    -0.269 OA
BRANCH  28  31
ATOM     31  C   UNL A   1      40.632  25.777  27.647  1.00  0.00     0.039 A 
ATOM     32  C   UNL A   1      39.629  25.659  28.612  1.00  0.00     0.014 A 
ATOM     33  C   UNL A   1      41.476  26.893  27.644  1.00  0.00     0.014 A 
ATOM     34  C   UNL A   1      39.507  26.632  29.607  1.00  0.00     0.010 A 
ATOM     35  C   UNL A   1      41.397  27.826  28.675  1.00  0.00     0.010 A 
ATOM     36  C   UNL A   1      40.408  27.709  29.664  1.00  0.00    -0.014 A 
BRANCH  36  37
ATOM     37  C   UNL A   1      40.331  28.723  30.745  1.00  0.00     0.031 A 
ATOM     38  C   UNL A   1      41.216  28.605  31.957  1.00  0.00     0.074 A 
ATOM     39  C   UNL A   1      39.423  29.716  30.664  1.00  0.00     0.049 A 
ATOM     40  N   UNL A   1      41.242  29.344  33.036  1.00  0.00    -0.248 NA
ATOM     41  C   UNL A   1      42.180  27.492  31.969  1.00  0.00     0.031 C 
ATOM     42  C   UNL A   1      38.481  29.913  29.559  1.00  0.00     0.029 A 
ATOM     43  N   UNL A   1      39.133  30.741  31.530  1.00  0.00    -0.354 N 
ATOM     44  C   UNL A   1      42.214  28.784  33.857  1.00  0.00     0.074 A 
ATOM     45  C   UNL A   1      42.717  27.611  33.175  1.00  0.00     0.031 C 
ATOM     46  C   UNL A   1      37.735  31.001  29.804  1.00  0.00     0.029 A 
ATOM     47  C   UNL A   1      38.116  31.559  31.099  1.00  0.00     0.049 A 
ATOM     48  H   UNL A   1      39.611  30.877  32.381  1.00  0.00     0.167 HD
ATOM     49  C   UNL A   1      42.663  29.220  35.058  1.00  0.00     0.037 A 
ATOM     50  C   UNL A   1      37.547  32.630  31.684  1.00  0.00     0.037 A 
ATOM     51  C   UNL A   1      42.175  30.402  35.720  1.00  0.00     0.049 A 
ATOM     52  C   UNL A   1      38.058  33.091  33.023  1.00  0.00     0.074 A 
ATOM     53  C   UNL A   1      42.596  30.955  36.916  1.00  0.00     0.029 A 
ATOM     54  N   UNL A   1      41.156  31.214  35.242  1.00  0.00    -0.354 N 
ATOM     55  N   UNL A   1      39.016  32.579  33.760  1.00  0.00    -0.248 NA
ATOM     56  C   UNL A   1      37.418  34.278  33.606  1.00  0.00     0.031 C 
ATOM     57  C   UNL A   1      41.806  32.078  37.182  1.00  0.00     0.029 A 
ATOM     58  C   UNL A   1      40.924  32.253  36.128  1.00  0.00     0.049 A 
ATOM     59  H   UNL A   1      40.669  31.072  34.399  1.00  0.00     0.167 HD
ATOM     60  C   UNL A   1      39.111  33.398  34.879  1.00  0.00     0.074 A 
ATOM     61  C   UNL A   1      38.123  34.444  34.718  1.00  0.00     0.031 C 
ATOM     62  C   UNL A   1      39.942  33.294  35.945  1.00  0.00     0.037 A 
BRANCH  49  63
ATOM     63  C   UNL A   1      43.747  28.421  35.731  1.00  0.00     0.058 A 
ATOM     64  C   UNL A   1      45.107  28.689  35.504  1.00  0.00     0.135 A 
ATOM     65  C   UNL A   1      43.425  27.402  36.642  1.00  0.00     0.135 A 
ATOM     66  F   UNL A   1      45.472  29.643  34.632  1.00  0.00    -0.206 F 
ATOM     67  C   UNL A   1      46.108  27.958  36.133  1.00  0.00     0.059 A 
ATOM     68  C   UNL A   1      44.411  26.676  37.304  1.00  0.00     0.059 A 
ATOM     69  F   UNL A   1      42.142  27.103  36.897  1.00  0.00    -0.206 F 
ATOM     70  C   UNL A   1      45.751  26.952  37.032  1.00  0.00     0.060 A 
BRANCH  70  71
ATOM     71  S   UNL A   1      47.063  26.018  37.847  1.00  0.00     0.124 S 
ATOM     72  O   UNL A   1      46.836  26.358  39.248  1.00  0.00    -0.237 OA
ATOM     73  O   UNL A   1      46.748  24.644  37.469  1.00  0.00    -0.237 OA
ATOM     74  O   UNL A   1      48.283  26.562  37.259  1.00  0.00    -0.744 OA
ENDBRANCH  70  71
ENDBRANCH  49  63
BRANCH  50  75
ATOM     75  C   UNL A   1      36.444  33.357  30.999  1.00  0.00     0.058 A 
ATOM     76  C   UNL A   1      35.123  33.259  31.459  1.00  0.00     0.135 A 
ATOM     77  C   UNL A   1      36.687  34.164  29.878  1.00  0.00     0.135 A 
ATOM     78  F   UNL A   1      34.839  32.495  32.526  1.00  0.00    -0.206 F 
ATOM     79  C   UNL A   1      34.077  33.919  30.821  1.00  0.00     0.059 A 
ATOM     80  C   UNL A   1      35.663  34.854  29.237  1.00  0.00     0.059 A 
ATOM     81  F   UNL A   1      37.937  34.306  29.408  1.00  0.00    -0.206 F 
ATOM     82  C   UNL A   1      34.358  34.715  29.710  1.00  0.00     0.060 A 
BRANCH  82  83
ATOM     83  S   UNL A   1      33.000  35.597  28.911  1.00  0.00     0.124 S 
ATOM     84  O   UNL A   1      33.719  36.607  28.142  1.00  0.00    -0.237 OA
ATOM     85  O   UNL A   1      32.360  34.539  28.135  1.00  0.00    -0.237 OA
ATOM     86  O   UNL A   1      32.218  36.098  30.037  1.00  0.00    -0.744 OA
ENDBRANCH  82  83
ENDBRANCH  50  75
BRANCH  62  87
ATOM     87  C   UNL A   1      39.850  34.358  37.003  1.00  0.00     0.058 A 
ATOM     88  C   UNL A   1      39.046  34.198  38.142  1.00  0.00     0.135 A 
ATOM     89  C   UNL A   1      40.614  35.531  36.898  1.00  0.00     0.135 A 
ATOM     90  F   UNL A   1      38.290  33.099  38.287  1.00  0.00    -0.206 F 
ATOM     91  C   UNL A   1      38.986  35.175  39.131  1.00  0.00     0.059 A 
ATOM     92  C   UNL A   1      40.592  36.509  37.888  1.00  0.00     0.059 A 
ATOM     93  F   UNL A   1      41.407  35.728  35.833  1.00  0.00    -0.206 F 
ATOM     94  C   UNL A   1      39.765  36.326  38.996  1.00  0.00     0.060 A 
BRANCH  94  95
ATOM     95  S   UNL A   1      39.707  37.570  40.303  1.00  0.00     0.124 S 
ATOM     96  O   UNL A   1      38.358  38.103  40.142  1.00  0.00    -0.237 OA
ATOM     97  O   UNL A   1      39.933  36.771  41.505  1.00  0.00    -0.237 OA
ATOM     98  O   UNL A   1      40.790  38.483  39.953  1.00  0.00    -0.744 OA
ENDBRANCH  94  95
ENDBRANCH  62  87
ENDBRANCH  36  37
ENDBRANCH  28  31
ENDBRANCH  26  27
ENDBRANCH  25  26
ENDBRANCH  24  25
ENDBRANCH   1  24
TORSDOF 19
ENDMDL
MODEL 2
REMARK VINA RESULT:     -11.7      2.566      4.951
REMARK SMILES C=Cc1cccc(-c2ccc([C@@H](C)C(=O)NCCCCCCNC(=O)c3ccc(-c4c5nc(c(-c6c(F)cc(S(=O)(=O)[O-])cc6F)c6ccc([nH]6)c(-c6c(F)cc(S(=O)(=O)[O-])cc6F)c6nc(c(-c7c(F)cc(S(=O)(=O)[O-])cc7F)c7ccc4[nH]7)C=C6)C=C5)cc3)cc2)c1
REMARK SMILES IDX 19 1 18 2 17 3 16 4 14 5 15 6 12 8 13 9 11 10 8 11 9 12
REMARK SMILES IDX 93 13 10 14 92 15 7 16 3 17 4 18 94 19 5 20 6 21 2 22 1 23
REMARK SMILES IDX 20 24 21 25 22 26 23 27 24 28 25 30 26 31 27 32 91 33 28 34
REMARK SMILES IDX 90 35 29 36 30 37 31 38 84 39 32 40 89 41 83 42 85 43 33 44
REMARK SMILES IDX 88 45 82 46 81 47 34 49 68 50 47 51 67 52 48 53 51 54 66 55
REMARK SMILES IDX 86 56 49 57 50 58 65 60 87 61 52 62 35 63 36 64 45 65 37 66
REMARK SMILES IDX 38 67 44 68 46 69 39 70 40 71 41 72 42 73 43 74 69 75 70 76
REMARK SMILES IDX 79 77 71 78 72 79 78 80 80 81 73 82 74 83 75 84 76 85 77 86
REMARK SMILES IDX 53 87 54 88 63 89 55 90 56 91 62 92 64 93 57 94 58 95 59 96
REMARK SMILES IDX 60 97 61 98
REMARK H PARENT 16 7 23 29 85 48 51 59
REMARK Flexibility Score: inf
ROOT
ATOM      1  C   UNL A   1      44.194  24.365  29.774  1.00  0.00     0.002 C 
ENDROOT
BRANCH   1   2
ATOM      2  C   UNL A   1      43.907  22.934  29.307  1.00  0.00     0.021 C 
BRANCH   2   3
ATOM      3  C   UNL A   1      42.555  22.771  28.609  1.00  0.00     0.116 C 
BRANCH   3   4
ATOM      4  N   UNL A   1      42.703  22.669  27.172  1.00  0.00    -0.356 N 
ATOM      5  C   UNL A   1      42.021  21.942  26.246  1.00  0.00     0.227 C 
ATOM      6  O   UNL A   1      42.446  21.995  25.084  1.00  0.00    -0.274 OA
ATOM      7  H   UNL A   1      43.425  23.224  26.800  1.00  0.00     0.163 HD
BRANCH   5   8
ATOM      8  C   UNL A   1      40.773  21.105  26.566  1.00  0.00     0.105 C 
ATOM      9  C   UNL A   1      40.915  19.623  26.215  1.00  0.00     0.023 C 
BRANCH   8  10
ATOM     10  C   UNL A   1      39.468  21.766  26.152  1.00  0.00    -0.036 A 
ATOM     11  C   UNL A   1      37.091  23.125  25.313  1.00  0.00    -0.018 A 
ATOM     12  C   UNL A   1      37.349  21.794  24.952  1.00  0.00     0.009 A 
ATOM     13  C   UNL A   1      38.044  23.753  26.128  1.00  0.00     0.009 A 
ATOM     14  C   UNL A   1      38.493  21.118  25.391  1.00  0.00     0.005 A 
ATOM     15  C   UNL A   1      39.219  23.096  26.524  1.00  0.00     0.005 A 
BRANCH  11  16
ATOM     16  C   UNL A   1      35.865  23.816  24.850  1.00  0.00    -0.018 A 
ATOM     17  C   UNL A   1      34.046  25.435  25.203  1.00  0.00    -0.026 A 
ATOM     18  C   UNL A   1      33.543  25.145  23.932  1.00  0.00     0.008 A 
ATOM     19  C   UNL A   1      35.199  24.767  25.650  1.00  0.00     0.016 A 
ATOM     20  C   UNL A   1      34.183  24.215  23.119  1.00  0.00     0.001 A 
ATOM     21  C   UNL A   1      35.323  23.555  23.578  1.00  0.00     0.009 A 
BRANCH  17  22
ATOM     22  C   UNL A   1      33.314  26.387  26.047  1.00  0.00     0.000 C 
ATOM     23  C   UNL A   1      33.096  27.668  25.725  1.00  0.00     0.009 C 
ENDBRANCH  17  22
ENDBRANCH  11  16
ENDBRANCH   8  10
ENDBRANCH   5   8
ENDBRANCH   3   4
ENDBRANCH   2   3
ENDBRANCH   1   2
BRANCH   1  24
ATOM     24  C   UNL A   1      45.316  25.083  29.013  1.00  0.00     0.002 C 
BRANCH  24  25
ATOM     25  C   UNL A   1      45.596  24.559  27.600  1.00  0.00     0.021 C 
BRANCH  25  26
ATOM     26  C   UNL A   1      45.535  25.619  26.504  1.00  0.00     0.116 C 
BRANCH  26  27
ATOM     27  N   UNL A   1      44.382  25.432  25.637  1.00  0.00    -0.352 N 
ATOM     28  C   UNL A   1      43.061  25.727  25.862  1.00  0.00     0.251 C 
ATOM     29  H   UNL A   1      44.579  25.032  24.758  1.00  0.00     0.163 HD
ATOM     30  O   UNL A   1      42.198  25.271  25.117  1.00  0.00    -0.269 OA
BRANCH  28  31
ATOM     31  C   UNL A   1      42.677  26.587  27.002  1.00  0.00     0.039 A 
ATOM     32  C   UNL A   1      41.738  26.116  27.922  1.00  0.00     0.014 A 
ATOM     33  C   UNL A   1      43.219  27.868  27.145  1.00  0.00     0.014 A 
ATOM     34  C   UNL A   1      41.381  26.908  29.016  1.00  0.00     0.010 A 
ATOM     35  C   UNL A   1      42.914  28.629  28.272  1.00  0.00     0.010 A 
ATOM     36  C   UNL A   1      41.989  28.160  29.216  1.00  0.00    -0.014 A 
BRANCH  36  37
ATOM     37  C   UNL A   1      41.666  28.994  30.401  1.00  0.00     0.031 A 
ATOM     38  C   UNL A   1      42.485  28.869  31.658  1.00  0.00     0.074 A 
ATOM     39  C   UNL A   1      40.601  29.818  30.367  1.00  0.00     0.049 A 
ATOM     40  N   UNL A   1      42.314  29.452  32.817  1.00  0.00    -0.248 NA
ATOM     41  C   UNL A   1      43.632  27.946  31.615  1.00  0.00     0.031 C 
ATOM     42  C   UNL A   1      39.706  29.996  29.220  1.00  0.00     0.029 A 
ATOM     43  N   UNL A   1      40.081  30.654  31.323  1.00  0.00    -0.354 N 
ATOM     44  C   UNL A   1      43.322  28.962  33.641  1.00  0.00     0.074 A 
ATOM     45  C   UNL A   1      44.067  27.994  32.865  1.00  0.00     0.031 C 
ATOM     46  C   UNL A   1      38.763  30.898  29.533  1.00  0.00     0.029 A 
ATOM     47  C   UNL A   1      38.960  31.336  30.912  1.00  0.00     0.049 A 
ATOM     48  H   UNL A   1      40.475  30.756  32.220  1.00  0.00     0.167 HD
ATOM     49  C   UNL A   1      43.613  29.306  34.918  1.00  0.00     0.037 A 
ATOM     50  C   UNL A   1      38.174  32.207  31.573  1.00  0.00     0.037 A 
ATOM     51  C   UNL A   1      42.882  30.288  35.675  1.00  0.00     0.049 A 
ATOM     52  C   UNL A   1      38.514  32.567  32.995  1.00  0.00     0.074 A 
ATOM     53  C   UNL A   1      43.126  30.741  36.960  1.00  0.00     0.029 A 
ATOM     54  N   UNL A   1      41.764  30.970  35.217  1.00  0.00    -0.354 N 
ATOM     55  N   UNL A   1      39.503  32.133  33.741  1.00  0.00    -0.248 NA
ATOM     56  C   UNL A   1      37.638  33.538  33.663  1.00  0.00     0.031 C 
ATOM     57  C   UNL A   1      42.132  31.668  37.293  1.00  0.00     0.029 A 
ATOM     58  C   UNL A   1      41.296  31.827  36.200  1.00  0.00     0.049 A 
ATOM     59  H   UNL A   1      41.361  30.860  34.326  1.00  0.00     0.167 HD
ATOM     60  C   UNL A   1      39.384  32.800  34.954  1.00  0.00     0.074 A 
ATOM     61  C   UNL A   1      38.234  33.674  34.840  1.00  0.00     0.031 C 
ATOM     62  C   UNL A   1      40.156  32.699  36.064  1.00  0.00     0.037 A 
BRANCH  49  63
ATOM     63  C   UNL A   1      44.781  28.622  35.576  1.00  0.00     0.058 A 
ATOM     64  C   UNL A   1      44.619  27.441  36.318  1.00  0.00     0.135 A 
ATOM     65  C   UNL A   1      46.083  29.129  35.433  1.00  0.00     0.135 A 
ATOM     66  F   UNL A   1      43.394  26.919  36.499  1.00  0.00    -0.206 F 
ATOM     67  C   UNL A   1      45.698  26.803  36.918  1.00  0.00     0.059 A 
ATOM     68  C   UNL A   1      47.182  28.492  36.002  1.00  0.00     0.059 A 
ATOM     69  F   UNL A   1      46.297  30.255  34.735  1.00  0.00    -0.206 F 
ATOM     70  C   UNL A   1      46.978  27.336  36.755  1.00  0.00     0.060 A 
BRANCH  70  71
ATOM     71  S   UNL A   1      48.370  26.491  37.534  1.00  0.00     0.124 S 
ATOM     72  O   UNL A   1      48.577  25.371  36.621  1.00  0.00    -0.237 OA
ATOM     73  O   UNL A   1      49.406  27.520  37.521  1.00  0.00    -0.237 OA
ATOM     74  O   UNL A   1      47.858  26.138  38.854  1.00  0.00    -0.744 OA
ENDBRANCH  70  71
ENDBRANCH  49  63
BRANCH  50  75
ATOM     75  C   UNL A   1      37.001  32.818  30.893  1.00  0.00     0.058 A 
ATOM     76  C   UNL A   1      37.148  33.957  30.088  1.00  0.00     0.135 A 
ATOM     77  C   UNL A   1      35.714  32.276  31.029  1.00  0.00     0.135 A 
ATOM     78  F   UNL A   1      38.358  34.515  29.929  1.00  0.00    -0.206 F 
ATOM     79  C   UNL A   1      36.058  34.551  29.457  1.00  0.00     0.059 A 
ATOM     80  C   UNL A   1      34.613  32.836  30.390  1.00  0.00     0.059 A 
ATOM     81  F   UNL A   1      35.522  31.176  31.775  1.00  0.00    -0.206 F 
ATOM     82  C   UNL A   1      34.794  33.982  29.615  1.00  0.00     0.060 A 
BRANCH  82  83
ATOM     83  S   UNL A   1      33.391  34.737  28.763  1.00  0.00     0.124 S 
ATOM     84  O   UNL A   1      32.477  34.990  29.871  1.00  0.00    -0.237 OA
ATOM     85  O   UNL A   1      34.000  35.916  28.155  1.00  0.00    -0.237 OA
ATOM     86  O   UNL A   1      32.975  33.701  27.823  1.00  0.00    -0.744 OA
ENDBRANCH  82  83
ENDBRANCH  50  75
BRANCH  62  87
ATOM     87  C   UNL A   1      39.811  33.582  37.231  1.00  0.00     0.058 A 
ATOM     88  C   UNL A   1      38.856  33.202  38.187  1.00  0.00     0.135 A 
ATOM     89  C   UNL A   1      40.481  34.801  37.421  1.00  0.00     0.135 A 
ATOM     90  F   UNL A   1      38.181  32.051  38.048  1.00  0.00    -0.206 F 
ATOM     91  C   UNL A   1      38.561  34.012  39.280  1.00  0.00     0.059 A 
ATOM     92  C   UNL A   1      40.223  35.613  38.521  1.00  0.00     0.059 A 
ATOM     93  F   UNL A   1      41.411  35.206  36.541  1.00  0.00    -0.206 F 
ATOM     94  C   UNL A   1      39.252  35.214  39.439  1.00  0.00     0.060 A 
BRANCH  94  95
ATOM     95  S   UNL A   1      38.887  36.238  40.881  1.00  0.00     0.124 S 
ATOM     96  O   UNL A   1      37.796  35.493  41.501  1.00  0.00    -0.237 OA
ATOM     97  O   UNL A   1      40.155  36.224  41.604  1.00  0.00    -0.237 OA
ATOM     98  O   UNL A   1      38.518  37.525  40.299  1.00  0.00    -0.744 OA
ENDBRANCH  94  95
ENDBRANCH  62  87
ENDBRANCH  36  37
ENDBRANCH  28  31
ENDBRANCH  26  27
ENDBRANCH  25  26
ENDBRANCH  24  25
ENDBRANCH   1  24
TORSDOF 19
ENDMDL
MODEL 3
REMARK VINA RESULT:     -11.7      3.455      9.760
REMARK SMILES C=Cc1cccc(-c2ccc([C@@H](C)C(=O)NCCCCCCNC(=O)c3ccc(-c4c5nc(c(-c6c(F)cc(S(=O)(=O)[O-])cc6F)c6ccc([nH]6)c(-c6c(F)cc(S(=O)(=O)[O-])cc6F)c6nc(c(-c7c(F)cc(S(=O)(=O)[O-])cc7F)c7ccc4[nH]7)C=C6)C=C5)cc3)cc2)c1
REMARK SMILES IDX 19 1 18 2 17 3 16 4 14 5 15 6 12 8 13 9 11 10 8 11 9 12
REMARK SMILES IDX 93 13 10 14 92 15 7 16 3 17 4 18 94 19 5 20 6 21 2 22 1 23
REMARK SMILES IDX 20 24 21 25 22 26 23 27 24 28 25 30 26 31 27 32 91 33 28 34
REMARK SMILES IDX 90 35 29 36 30 37 31 38 84 39 32 40 89 41 83 42 85 43 33 44
REMARK SMILES IDX 88 45 82 46 81 47 34 49 68 50 47 51 67 52 48 53 51 54 66 55
REMARK SMILES IDX 86 56 49 57 50 58 65 60 87 61 52 62 35 63 36 64 45 65 37 66
REMARK SMILES IDX 38 67 44 68 46 69 39 70 40 71 41 72 42 73 43 74 69 75 70 76
REMARK SMILES IDX 79 77 71 78 72 79 78 80 80 81 73 82 74 83 75 84 76 85 77 86
REMARK SMILES IDX 53 87 54 88 63 89 55 90 56 91 62 92 64 93 57 94 58 95 59 96
REMARK SMILES IDX 60 97 61 98
REMARK H PARENT 16 7 23 29 85 48 51 59
REMARK Flexibility Score: inf
ROOT
ATOM      1  C   UNL A   1      34.175  25.551  25.644  1.00  0.00     0.002 C 
ENDROOT
BRANCH   1   2
ATOM      2  C   UNL A   1      35.195  24.443  25.359  1.00  0.00     0.021 C 
BRANCH   2   3
ATOM      3  C   UNL A   1      34.608  23.031  25.426  1.00  0.00     0.116 C 
BRANCH   3   4
ATOM      4  N   UNL A   1      33.945  22.787  26.691  1.00  0.00    -0.356 N 
ATOM      5  C   UNL A   1      32.638  22.564  26.994  1.00  0.00     0.227 C 
ATOM      6  O   UNL A   1      32.360  22.477  28.198  1.00  0.00    -0.274 OA
ATOM      7  H   UNL A   1      34.548  22.781  27.469  1.00  0.00     0.163 HD
BRANCH   5   8
ATOM      8  C   UNL A   1      31.532  22.398  25.940  1.00  0.00     0.105 C 
ATOM      9  C   UNL A   1      31.718  21.178  25.037  1.00  0.00     0.023 C 
BRANCH   8  10
ATOM     10  C   UNL A   1      31.151  23.693  25.242  1.00  0.00    -0.036 A 
ATOM     11  C   UNL A   1      30.527  26.206  24.018  1.00  0.00    -0.018 A 
ATOM     12  C   UNL A   1      30.959  25.104  23.266  1.00  0.00     0.009 A 
ATOM     13  C   UNL A   1      30.389  26.011  25.400  1.00  0.00     0.009 A 
ATOM     14  C   UNL A   1      31.230  23.866  23.858  1.00  0.00     0.005 A 
ATOM     15  C   UNL A   1      30.713  24.787  26.005  1.00  0.00     0.005 A 
BRANCH  11  16
ATOM     16  C   UNL A   1      30.230  27.504  23.367  1.00  0.00    -0.018 A 
ATOM     17  C   UNL A   1      28.828  29.509  23.110  1.00  0.00    -0.026 A 
ATOM     18  C   UNL A   1      29.701  29.993  22.133  1.00  0.00     0.008 A 
ATOM     19  C   UNL A   1      29.099  28.270  23.716  1.00  0.00     0.016 A 
ATOM     20  C   UNL A   1      30.827  29.260  21.772  1.00  0.00     0.001 A 
ATOM     21  C   UNL A   1      31.081  28.029  22.377  1.00  0.00     0.009 A 
BRANCH  17  22
ATOM     22  C   UNL A   1      27.626  30.290  23.427  1.00  0.00     0.000 C 
ATOM     23  C   UNL A   1      27.471  31.588  23.136  1.00  0.00     0.009 C 
ENDBRANCH  17  22
ENDBRANCH  11  16
ENDBRANCH   8  10
ENDBRANCH   5   8
ENDBRANCH   3   4
ENDBRANCH   2   3
ENDBRANCH   1   2
BRANCH   1  24
ATOM     24  C   UNL A   1      34.075  26.633  24.561  1.00  0.00     0.002 C 
BRANCH  24  25
ATOM     25  C   UNL A   1      33.562  27.997  25.037  1.00  0.00     0.021 C 
BRANCH  25  26
ATOM     26  C   UNL A   1      34.070  28.424  26.412  1.00  0.00     0.116 C 
BRANCH  26  27
ATOM     27  N   UNL A   1      33.905  29.854  26.625  1.00  0.00    -0.352 N 
ATOM     28  C   UNL A   1      34.584  30.697  27.470  1.00  0.00     0.251 C 
ATOM     29  H   UNL A   1      33.201  30.280  26.084  1.00  0.00     0.163 HD
ATOM     30  O   UNL A   1      34.141  31.819  27.697  1.00  0.00    -0.269 OA
BRANCH  28  31
ATOM     31  C   UNL A   1      35.840  30.251  28.109  1.00  0.00     0.039 A 
ATOM     32  C   UNL A   1      37.049  30.432  27.432  1.00  0.00     0.014 A 
ATOM     33  C   UNL A   1      35.824  29.628  29.361  1.00  0.00     0.014 A 
ATOM     34  C   UNL A   1      38.246  30.035  28.032  1.00  0.00     0.010 A 
ATOM     35  C   UNL A   1      37.023  29.295  29.987  1.00  0.00     0.010 A 
ATOM     36  C   UNL A   1      38.246  29.490  29.328  1.00  0.00    -0.014 A 
BRANCH  36  37
ATOM     37  C   UNL A   1      39.511  29.114  30.006  1.00  0.00     0.031 A 
ATOM     38  C   UNL A   1      39.974  29.876  31.219  1.00  0.00     0.074 A 
ATOM     39  C   UNL A   1      40.273  28.126  29.496  1.00  0.00     0.049 A 
ATOM     40  N   UNL A   1      41.083  29.749  31.902  1.00  0.00    -0.248 NA
ATOM     41  C   UNL A   1      39.084  30.940  31.714  1.00  0.00     0.031 C 
ATOM     42  C   UNL A   1      39.952  27.341  28.301  1.00  0.00     0.029 A 
ATOM     43  N   UNL A   1      41.480  27.619  29.909  1.00  0.00    -0.354 N 
ATOM     44  C   UNL A   1      41.029  30.718  32.897  1.00  0.00     0.074 A 
ATOM     45  C   UNL A   1      39.804  31.462  32.696  1.00  0.00     0.031 C 
ATOM     46  C   UNL A   1      40.925  26.441  28.091  1.00  0.00     0.029 A 
ATOM     47  C   UNL A   1      41.958  26.607  29.110  1.00  0.00     0.049 A 
ATOM     48  H   UNL A   1      41.959  27.950  30.704  1.00  0.00     0.167 HD
ATOM     49  C   UNL A   1      41.909  30.951  33.900  1.00  0.00     0.037 A 
ATOM     50  C   UNL A   1      43.101  25.900  29.184  1.00  0.00     0.037 A 
ATOM     51  C   UNL A   1      43.114  30.192  34.108  1.00  0.00     0.049 A 
ATOM     52  C   UNL A   1      44.067  26.183  30.303  1.00  0.00     0.074 A 
ATOM     53  C   UNL A   1      44.048  30.319  35.121  1.00  0.00     0.029 A 
ATOM     54  N   UNL A   1      43.553  29.163  33.288  1.00  0.00    -0.354 N 
ATOM     55  N   UNL A   1      43.974  27.069  31.267  1.00  0.00    -0.248 NA
ATOM     56  C   UNL A   1      45.288  25.369  30.350  1.00  0.00     0.031 C 
ATOM     57  C   UNL A   1      45.072  29.394  34.892  1.00  0.00     0.029 A 
ATOM     58  C   UNL A   1      44.753  28.658  33.762  1.00  0.00     0.049 A 
ATOM     59  H   UNL A   1      43.083  28.840  32.486  1.00  0.00     0.167 HD
ATOM     60  C   UNL A   1      45.110  26.898  32.050  1.00  0.00     0.074 A 
ATOM     61  C   UNL A   1      45.869  25.818  31.454  1.00  0.00     0.031 C 
ATOM     62  C   UNL A   1      45.490  27.573  33.162  1.00  0.00     0.037 A 
BRANCH  49  63
ATOM     63  C   UNL A   1      41.595  32.068  34.859  1.00  0.00     0.058 A 
ATOM     64  C   UNL A   1      42.097  33.366  34.665  1.00  0.00     0.135 A 
ATOM     65  C   UNL A   1      40.753  31.852  35.962  1.00  0.00     0.135 A 
ATOM     66  F   UNL A   1      42.919  33.626  33.635  1.00  0.00    -0.206 F 
ATOM     67  C   UNL A   1      41.800  34.401  35.545  1.00  0.00     0.059 A 
ATOM     68  C   UNL A   1      40.419  32.880  36.839  1.00  0.00     0.059 A 
ATOM     69  F   UNL A   1      40.245  30.632  36.196  1.00  0.00    -0.206 F 
ATOM     70  C   UNL A   1      40.960  34.149  36.630  1.00  0.00     0.060 A 
BRANCH  70  71
ATOM     71  S   UNL A   1      40.577  35.505  37.758  1.00  0.00     0.124 S 
ATOM     72  O   UNL A   1      41.898  35.818  38.294  1.00  0.00    -0.237 OA
ATOM     73  O   UNL A   1      40.005  36.504  36.862  1.00  0.00    -0.237 OA
ATOM     74  O   UNL A   1      39.641  34.907  38.705  1.00  0.00    -0.744 OA
ENDBRANCH  70  71
ENDBRANCH  49  63
BRANCH  50  75
ATOM     75  C   UNL A   1      43.388  24.839  28.181  1.00  0.00     0.058 A 
ATOM     76  C   UNL A   1      44.110  25.127  27.014  1.00  0.00     0.135 A 
ATOM     77  C   UNL A   1      42.953  23.519  28.370  1.00  0.00     0.135 A 
ATOM     78  F   UNL A   1      44.544  26.377  26.786  1.00  0.00    -0.206 F 
ATOM     79  C   UNL A   1      44.374  24.151  26.059  1.00  0.00     0.059 A 
ATOM     80  C   UNL A   1      43.224  22.519  27.442  1.00  0.00     0.059 A 
ATOM     81  F   UNL A   1      42.273  23.186  29.479  1.00  0.00    -0.206 F 
ATOM     82  C   UNL A   1      43.926  22.848  26.282  1.00  0.00     0.060 A 
BRANCH  82  83
ATOM     83  S   UNL A   1      44.305  21.579  25.055  1.00  0.00     0.124 S 
ATOM     84  O   UNL A   1      43.313  20.558  25.373  1.00  0.00    -0.237 OA
ATOM     85  O   UNL A   1      44.105  22.296  23.799  1.00  0.00    -0.237 OA
ATOM     86  O   UNL A   1      45.690  21.229  25.353  1.00  0.00    -0.744 OA
ENDBRANCH  82  83
ENDBRANCH  50  75
BRANCH  62  87
ATOM     87  C   UNL A   1      46.764  27.141  33.834  1.00  0.00     0.058 A 
ATOM     88  C   UNL A   1      47.999  27.730  33.523  1.00  0.00     0.135 A 
ATOM     89  C   UNL A   1      46.739  26.159  34.838  1.00  0.00     0.135 A 
ATOM     90  F   UNL A   1      48.079  28.668  32.566  1.00  0.00    -0.206 F 
ATOM     91  C   UNL A   1      49.170  27.345  34.168  1.00  0.00     0.059 A 
ATOM     92  C   UNL A   1      47.893  25.778  35.516  1.00  0.00     0.059 A 
ATOM     93  F   UNL A   1      45.581  25.571  35.180  1.00  0.00    -0.206 F 
ATOM     94  C   UNL A   1      49.106  26.369  35.165  1.00  0.00     0.060 A 
BRANCH  94  95
ATOM     95  S   UNL A   1      50.626  25.904  36.020  1.00  0.00     0.124 S 
ATOM     96  O   UNL A   1      50.539  26.709  37.233  1.00  0.00    -0.237 OA
ATOM     97  O   UNL A   1      50.456  24.465  36.200  1.00  0.00    -0.237 OA
ATOM     98  O   UNL A   1      51.676  26.292  35.082  1.00  0.00    -0.744 OA
ENDBRANCH  94  95
ENDBRANCH  62  87
ENDBRANCH  36  37
ENDBRANCH  28  31
ENDBRANCH  26  27
ENDBRANCH  25  26
ENDBRANCH  24  25
ENDBRANCH   1  24
TORSDOF 19
ENDMDL
