MODEL 1
REMARK VINA RESULT:     -12.1      0.000      0.000
REMARK SMILES O=C(NCCCCCCNC(=O)c1ccc(-c2c3nc(c(-c4c(F)cc(S(=O)(=O)[O-])cc4F)c4ccc([nH]4)c(-c4c(F)cc(S(=O)(=O)[O-])cc4F)c4nc(c(-c5c(F)cc(S(=O)(=O)[O-])cc5F)c5ccc2[nH]5)C=C4)C=C3)cc1)C1=Cc2cc(Cl)cc(Cl)c2O[C@@H]1C(F)(F)F
REMARK SMILES IDX 7 1 6 2 5 3 4 4 3 5 1 6 2 7 79 9 80 10 90 11 81 12 89 13
REMARK SMILES IDX 82 14 88 15 83 16 86 17 84 18 85 19 87 20 91 21 92 22 93 23
REMARK SMILES IDX 94 24 8 25 9 26 10 27 11 28 12 30 13 31 14 32 78 33 15 34
REMARK SMILES IDX 77 35 16 36 17 37 18 38 71 39 19 40 76 41 70 42 72 43 20 44
REMARK SMILES IDX 75 45 69 46 68 47 21 49 55 50 34 51 54 52 35 53 38 54 53 55
REMARK SMILES IDX 73 56 36 57 37 58 52 60 74 61 39 62 22 63 23 64 32 65 24 66
REMARK SMILES IDX 25 67 31 68 33 69 26 70 27 71 28 72 29 73 30 74 56 75 57 76
REMARK SMILES IDX 66 77 58 78 59 79 65 80 67 81 60 82 61 83 62 84 63 85 64 86
REMARK SMILES IDX 40 87 41 88 50 89 42 90 43 91 49 92 51 93 44 94 45 95 46 96
REMARK SMILES IDX 47 97 48 98
REMARK H PARENT 3 8 10 29 72 48 38 59
REMARK Flexibility Score: inf
ROOT
ATOM      1  C   UNL A   1      36.747  23.730  24.616  1.00  0.00     0.002 C 
ENDROOT
BRANCH   1   2
ATOM      2  C   UNL A   1      35.217  23.634  24.651  1.00  0.00     0.002 C 
BRANCH   2   3
ATOM      3  C   UNL A   1      34.525  23.200  23.362  1.00  0.00     0.021 C 
BRANCH   3   4
ATOM      4  C   UNL A   1      33.370  24.072  22.882  1.00  0.00     0.116 C 
BRANCH   4   5
ATOM      5  N   UNL A   1      33.701  25.458  22.608  1.00  0.00    -0.352 N 
ATOM      6  O   UNL A   1      33.939  27.654  22.998  1.00  0.00    -0.270 OA
ATOM      7  C   UNL A   1      33.457  26.577  23.353  1.00  0.00     0.251 C 
ATOM      8  H   UNL A   1      34.172  25.615  21.758  1.00  0.00     0.163 HD
BRANCH   7   9
ATOM      9  C   UNL A   1      32.697  26.543  24.641  1.00  0.00     0.067 C 
ATOM     10  C   UNL A   1      33.251  26.843  25.830  1.00  0.00     0.025 C 
ATOM     11  C   UNL A   1      31.225  26.836  24.447  1.00  0.00     0.314 C 
ATOM     12  C   UNL A   1      32.826  28.195  26.285  1.00  0.00     0.020 A 
ATOM     13  O   UNL A   1      30.932  28.226  24.750  1.00  0.00    -0.474 OA
ATOM     14  C   UNL A   1      33.671  28.889  27.159  1.00  0.00     0.032 A 
ATOM     15  C   UNL A   1      31.766  28.861  25.641  1.00  0.00     0.146 A 
ATOM     16  C   UNL A   1      33.524  30.267  27.302  1.00  0.00     0.043 A 
ATOM     17  C   UNL A   1      31.623  30.243  25.815  1.00  0.00     0.085 A 
ATOM     18  Cl  UNL A   1      34.686  31.148  28.215  1.00  0.00    -0.084 Cl
ATOM     19  C   UNL A   1      32.514  30.949  26.627  1.00  0.00     0.045 A 
ATOM     20  Cl  UNL A   1      30.442  31.133  24.926  1.00  0.00    -0.080 Cl
BRANCH  11  21
ATOM     21  C   UNL A   1      30.317  25.880  25.237  1.00  0.00     0.429 C 
ATOM     22  F   UNL A   1      30.757  24.601  25.160  1.00  0.00    -0.167 F 
ATOM     23  F   UNL A   1      30.277  26.203  26.552  1.00  0.00    -0.167 F 
ATOM     24  F   UNL A   1      29.038  25.892  24.789  1.00  0.00    -0.167 F 
ENDBRANCH  11  21
ENDBRANCH   7   9
ENDBRANCH   4   5
ENDBRANCH   3   4
ENDBRANCH   2   3
ENDBRANCH   1   2
BRANCH   1  25
ATOM     25  C   UNL A   1      37.513  23.114  25.791  1.00  0.00     0.021 C 
BRANCH  25  26
ATOM     26  C   UNL A   1      38.431  24.051  26.571  1.00  0.00     0.116 C 
BRANCH  26  27
ATOM     27  N   UNL A   1      39.790  24.069  26.061  1.00  0.00    -0.352 N 
ATOM     28  C   UNL A   1      40.858  24.863  26.407  1.00  0.00     0.251 C 
ATOM     29  H   UNL A   1      39.977  23.408  25.356  1.00  0.00     0.163 HD
ATOM     30  O   UNL A   1      41.890  24.802  25.745  1.00  0.00    -0.269 OA
BRANCH  28  31
ATOM     31  C   UNL A   1      40.768  25.803  27.550  1.00  0.00     0.039 A 
ATOM     32  C   UNL A   1      41.721  26.822  27.653  1.00  0.00     0.014 A 
ATOM     33  C   UNL A   1      39.786  25.672  28.534  1.00  0.00     0.014 A 
ATOM     34  C   UNL A   1      41.655  27.736  28.708  1.00  0.00     0.010 A 
ATOM     35  C   UNL A   1      39.678  26.628  29.545  1.00  0.00     0.010 A 
ATOM     36  C   UNL A   1      40.614  27.668  29.647  1.00  0.00    -0.014 A 
BRANCH  36  37
ATOM     37  C   UNL A   1      40.496  28.670  30.740  1.00  0.00     0.031 A 
ATOM     38  C   UNL A   1      41.376  28.573  31.959  1.00  0.00     0.074 A 
ATOM     39  C   UNL A   1      39.561  29.639  30.658  1.00  0.00     0.049 A 
ATOM     40  N   UNL A   1      41.385  29.321  33.033  1.00  0.00    -0.248 NA
ATOM     41  C   UNL A   1      42.359  27.478  31.986  1.00  0.00     0.031 C 
ATOM     42  C   UNL A   1      38.622  29.817  29.548  1.00  0.00     0.029 A 
ATOM     43  N   UNL A   1      39.241  30.655  31.526  1.00  0.00    -0.354 N 
ATOM     44  C   UNL A   1      42.356  28.778  33.869  1.00  0.00     0.074 A 
ATOM     45  C   UNL A   1      42.884  27.612  33.196  1.00  0.00     0.031 C 
ATOM     46  C   UNL A   1      37.853  30.891  29.788  1.00  0.00     0.029 A 
ATOM     47  C   UNL A   1      38.210  31.454  31.086  1.00  0.00     0.049 A 
ATOM     48  H   UNL A   1      39.704  30.797  32.382  1.00  0.00     0.167 HD
ATOM     49  C   UNL A   1      42.779  29.222  35.076  1.00  0.00     0.037 A 
ATOM     50  C   UNL A   1      37.617  32.517  31.665  1.00  0.00     0.037 A 
ATOM     51  C   UNL A   1      42.272  30.406  35.722  1.00  0.00     0.049 A 
ATOM     52  C   UNL A   1      38.104  32.985  33.010  1.00  0.00     0.074 A 
ATOM     53  C   UNL A   1      42.690  30.981  36.910  1.00  0.00     0.029 A 
ATOM     54  N   UNL A   1      41.236  31.192  35.242  1.00  0.00    -0.354 N 
ATOM     55  N   UNL A   1      39.074  32.502  33.751  1.00  0.00    -0.248 NA
ATOM     56  C   UNL A   1      37.420  34.145  33.599  1.00  0.00     0.031 C 
ATOM     57  C   UNL A   1      41.870  32.081  37.175  1.00  0.00     0.029 A 
ATOM     58  C   UNL A   1      40.981  32.229  36.124  1.00  0.00     0.049 A 
ATOM     59  H   UNL A   1      40.753  31.036  34.398  1.00  0.00     0.167 HD
ATOM     60  C   UNL A   1      39.139  33.321  34.873  1.00  0.00     0.074 A 
ATOM     61  C   UNL A   1      38.118  34.335  34.710  1.00  0.00     0.031 C 
ATOM     62  C   UNL A   1      39.970  33.241  35.942  1.00  0.00     0.037 A 
BRANCH  49  63
ATOM     63  C   UNL A   1      43.846  28.432  35.786  1.00  0.00     0.058 A 
ATOM     64  C   UNL A   1      43.531  27.406  36.691  1.00  0.00     0.135 A 
ATOM     65  C   UNL A   1      45.204  28.665  35.509  1.00  0.00     0.135 A 
ATOM     66  F   UNL A   1      42.251  27.150  37.004  1.00  0.00    -0.206 F 
ATOM     67  C   UNL A   1      44.523  26.653  37.311  1.00  0.00     0.059 A 
ATOM     68  C   UNL A   1      46.212  27.905  36.096  1.00  0.00     0.059 A 
ATOM     69  F   UNL A   1      45.563  29.635  34.654  1.00  0.00    -0.206 F 
ATOM     70  C   UNL A   1      45.861  26.908  37.004  1.00  0.00     0.060 A 
BRANCH  70  71
ATOM     71  S   UNL A   1      47.133  25.904  37.800  1.00  0.00     0.124 S 
ATOM     72  O   UNL A   1      46.333  25.080  38.701  1.00  0.00    -0.237 OA
ATOM     73  O   UNL A   1      47.733  25.206  36.668  1.00  0.00    -0.237 OA
ATOM     74  O   UNL A   1      47.990  26.892  38.449  1.00  0.00    -0.744 OA
ENDBRANCH  70  71
ENDBRANCH  49  63
BRANCH  50  75
ATOM     75  C   UNL A   1      36.507  33.228  30.972  1.00  0.00     0.058 A 
ATOM     76  C   UNL A   1      36.758  34.049  29.863  1.00  0.00     0.135 A 
ATOM     77  C   UNL A   1      35.178  33.113  31.410  1.00  0.00     0.135 A 
ATOM     78  F   UNL A   1      38.013  34.197  29.410  1.00  0.00    -0.206 F 
ATOM     79  C   UNL A   1      35.741  34.753  29.230  1.00  0.00     0.059 A 
ATOM     80  C   UNL A   1      34.138  33.784  30.775  1.00  0.00     0.059 A 
ATOM     81  F   UNL A   1      34.879  32.327  32.456  1.00  0.00    -0.206 F 
ATOM     82  C   UNL A   1      34.431  34.614  29.694  1.00  0.00     0.060 A 
BRANCH  82  83
ATOM     83  S   UNL A   1      33.112  35.514  28.850  1.00  0.00     0.124 S 
ATOM     84  O   UNL A   1      33.871  36.494  28.082  1.00  0.00    -0.237 OA
ATOM     85  O   UNL A   1      32.467  34.457  28.077  1.00  0.00    -0.237 OA
ATOM     86  O   UNL A   1      32.316  36.051  29.949  1.00  0.00    -0.744 OA
ENDBRANCH  82  83
ENDBRANCH  50  75
BRANCH  62  87
ATOM     87  C   UNL A   1      39.845  34.303  37.000  1.00  0.00     0.058 A 
ATOM     88  C   UNL A   1      40.444  35.564  36.860  1.00  0.00     0.135 A 
ATOM     89  C   UNL A   1      39.067  34.071  38.148  1.00  0.00     0.135 A 
ATOM     90  F   UNL A   1      41.203  35.836  35.787  1.00  0.00    -0.206 F 
ATOM     91  C   UNL A   1      40.299  36.549  37.831  1.00  0.00     0.059 A 
ATOM     92  C   UNL A   1      38.883  35.052  39.116  1.00  0.00     0.059 A 
ATOM     93  F   UNL A   1      38.462  32.886  38.326  1.00  0.00    -0.206 F 
ATOM     94  C   UNL A   1      39.513  36.284  38.956  1.00  0.00     0.060 A 
BRANCH  94  95
ATOM     95  S   UNL A   1      39.303  37.585  40.190  1.00  0.00     0.124 S 
ATOM     96  O   UNL A   1      40.633  38.185  40.212  1.00  0.00    -0.237 OA
ATOM     97  O   UNL A   1      38.247  38.403  39.604  1.00  0.00    -0.237 OA
ATOM     98  O   UNL A   1      38.926  36.852  41.394  1.00  0.00    -0.744 OA
ENDBRANCH  94  95
ENDBRANCH  62  87
ENDBRANCH  36  37
ENDBRANCH  28  31
ENDBRANCH  26  27
ENDBRANCH  25  26
ENDBRANCH   1  25
TORSDOF 17
ENDMDL
MODEL 2
REMARK VINA RESULT:     -12.0      5.066     10.469
REMARK SMILES O=C(NCCCCCCNC(=O)c1ccc(-c2c3nc(c(-c4c(F)cc(S(=O)(=O)[O-])cc4F)c4ccc([nH]4)c(-c4c(F)cc(S(=O)(=O)[O-])cc4F)c4nc(c(-c5c(F)cc(S(=O)(=O)[O-])cc5F)c5ccc2[nH]5)C=C4)C=C3)cc1)C1=Cc2cc(Cl)cc(Cl)c2O[C@@H]1C(F)(F)F
REMARK SMILES IDX 7 1 6 2 5 3 4 4 3 5 1 6 2 7 79 9 80 10 90 11 81 12 89 13
REMARK SMILES IDX 82 14 88 15 83 16 86 17 84 18 85 19 87 20 91 21 92 22 93 23
REMARK SMILES IDX 94 24 8 25 9 26 10 27 11 28 12 30 13 31 14 32 78 33 15 34
REMARK SMILES IDX 77 35 16 36 17 37 18 38 71 39 19 40 76 41 70 42 72 43 20 44
REMARK SMILES IDX 75 45 69 46 68 47 21 49 55 50 34 51 54 52 35 53 38 54 53 55
REMARK SMILES IDX 73 56 36 57 37 58 52 60 74 61 39 62 22 63 23 64 32 65 24 66
REMARK SMILES IDX 25 67 31 68 33 69 26 70 27 71 28 72 29 73 30 74 56 75 57 76
REMARK SMILES IDX 66 77 58 78 59 79 65 80 67 81 60 82 61 83 62 84 63 85 64 86
REMARK SMILES IDX 40 87 41 88 50 89 42 90 43 91 49 92 51 93 44 94 45 95 46 96
REMARK SMILES IDX 47 97 48 98
REMARK H PARENT 3 8 10 29 72 48 38 59
REMARK Flexibility Score: inf
ROOT
ATOM      1  C   UNL A   1      32.203  28.219  24.788  1.00  0.00     0.002 C 
ENDROOT
BRANCH   1   2
ATOM      2  C   UNL A   1      31.078  27.178  24.818  1.00  0.00     0.002 C 
BRANCH   2   3
ATOM      3  C   UNL A   1      30.822  26.479  26.150  1.00  0.00     0.021 C 
BRANCH   3   4
ATOM      4  C   UNL A   1      30.496  24.992  26.087  1.00  0.00     0.116 C 
BRANCH   4   5
ATOM      5  N   UNL A   1      31.292  24.137  26.949  1.00  0.00    -0.352 N 
ATOM      6  O   UNL A   1      33.076  22.965  27.637  1.00  0.00    -0.270 OA
ATOM      7  C   UNL A   1      32.506  23.554  26.717  1.00  0.00     0.251 C 
ATOM      8  H   UNL A   1      30.899  23.950  27.831  1.00  0.00     0.163 HD
BRANCH   7   9
ATOM      9  C   UNL A   1      33.227  23.673  25.412  1.00  0.00     0.067 C 
ATOM     10  C   UNL A   1      34.469  24.177  25.300  1.00  0.00     0.025 C 
ATOM     11  C   UNL A   1      32.796  22.613  24.421  1.00  0.00     0.314 C 
ATOM     12  C   UNL A   1      35.463  23.089  25.088  1.00  0.00     0.020 A 
ATOM     13  O   UNL A   1      33.737  21.507  24.406  1.00  0.00    -0.474 OA
ATOM     14  C   UNL A   1      36.785  23.322  25.486  1.00  0.00     0.032 A 
ATOM     15  C   UNL A   1      35.035  21.787  24.770  1.00  0.00     0.146 A 
ATOM     16  C   UNL A   1      37.644  22.240  25.671  1.00  0.00     0.043 A 
ATOM     17  C   UNL A   1      35.920  20.716  24.943  1.00  0.00     0.085 A 
ATOM     18  Cl  UNL A   1      39.200  22.508  26.353  1.00  0.00    -0.084 Cl
ATOM     19  C   UNL A   1      37.216  20.940  25.414  1.00  0.00     0.045 A 
ATOM     20  Cl  UNL A   1      35.399  19.086  24.720  1.00  0.00    -0.080 Cl
BRANCH  11  21
ATOM     21  C   UNL A   1      32.561  23.176  23.009  1.00  0.00     0.429 C 
ATOM     22  F   UNL A   1      33.633  22.968  22.208  1.00  0.00    -0.167 F 
ATOM     23  F   UNL A   1      31.500  22.586  22.407  1.00  0.00    -0.167 F 
ATOM     24  F   UNL A   1      32.319  24.509  23.018  1.00  0.00    -0.167 F 
ENDBRANCH  11  21
ENDBRANCH   7   9
ENDBRANCH   4   5
ENDBRANCH   3   4
ENDBRANCH   2   3
ENDBRANCH   1   2
BRANCH   1  25
ATOM     25  C   UNL A   1      33.618  27.728  25.113  1.00  0.00     0.021 C 
BRANCH  25  26
ATOM     26  C   UNL A   1      34.117  27.982  26.533  1.00  0.00     0.116 C 
BRANCH  26  27
ATOM     27  N   UNL A   1      33.798  29.313  27.017  1.00  0.00    -0.352 N 
ATOM     28  C   UNL A   1      34.550  30.191  27.761  1.00  0.00     0.251 C 
ATOM     29  H   UNL A   1      32.900  29.638  26.776  1.00  0.00     0.163 HD
ATOM     30  O   UNL A   1      34.028  31.219  28.184  1.00  0.00    -0.269 OA
BRANCH  28  31
ATOM     31  C   UNL A   1      35.969  29.900  28.076  1.00  0.00     0.039 A 
ATOM     32  C   UNL A   1      36.285  29.426  29.353  1.00  0.00     0.014 A 
ATOM     33  C   UNL A   1      36.989  30.123  27.148  1.00  0.00     0.014 A 
ATOM     34  C   UNL A   1      37.611  29.125  29.679  1.00  0.00     0.010 A 
ATOM     35  C   UNL A   1      38.301  29.754  27.449  1.00  0.00     0.010 A 
ATOM     36  C   UNL A   1      38.628  29.256  28.719  1.00  0.00    -0.014 A 
BRANCH  36  37
ATOM     37  C   UNL A   1      40.034  28.882  29.032  1.00  0.00     0.031 A 
ATOM     38  C   UNL A   1      40.955  29.873  29.693  1.00  0.00     0.074 A 
ATOM     39  C   UNL A   1      40.496  27.666  28.675  1.00  0.00     0.049 A 
ATOM     40  N   UNL A   1      42.222  29.748  29.997  1.00  0.00    -0.248 NA
ATOM     41  C   UNL A   1      40.386  31.187  30.036  1.00  0.00     0.031 C 
ATOM     42  C   UNL A   1      39.714  26.631  27.993  1.00  0.00     0.029 A 
ATOM     43  N   UNL A   1      41.735  27.094  28.828  1.00  0.00    -0.354 N 
ATOM     44  C   UNL A   1      42.605  30.967  30.547  1.00  0.00     0.074 A 
ATOM     45  C   UNL A   1      41.449  31.834  30.494  1.00  0.00     0.031 C 
ATOM     46  C   UNL A   1      40.481  25.544  27.814  1.00  0.00     0.029 A 
ATOM     47  C   UNL A   1      41.820  25.816  28.325  1.00  0.00     0.049 A 
ATOM     48  H   UNL A   1      42.491  27.556  29.256  1.00  0.00     0.167 HD
ATOM     49  C   UNL A   1      43.805  31.323  31.064  1.00  0.00     0.037 A 
ATOM     50  C   UNL A   1      42.862  24.962  28.276  1.00  0.00     0.037 A 
ATOM     51  C   UNL A   1      44.942  30.442  31.144  1.00  0.00     0.049 A 
ATOM     52  C   UNL A   1      44.186  25.387  28.853  1.00  0.00     0.074 A 
ATOM     53  C   UNL A   1      46.177  30.686  31.720  1.00  0.00     0.029 A 
ATOM     54  N   UNL A   1      44.987  29.154  30.633  1.00  0.00    -0.354 N 
ATOM     55  N   UNL A   1      44.507  26.518  29.436  1.00  0.00    -0.248 NA
ATOM     56  C   UNL A   1      45.290  24.419  28.770  1.00  0.00     0.031 C 
ATOM     57  C   UNL A   1      46.986  29.566  31.507  1.00  0.00     0.029 A 
ATOM     58  C   UNL A   1      46.238  28.601  30.853  1.00  0.00     0.049 A 
ATOM     59  H   UNL A   1      44.240  28.700  30.181  1.00  0.00     0.167 HD
ATOM     60  C   UNL A   1      45.838  26.383  29.820  1.00  0.00     0.074 A 
ATOM     61  C   UNL A   1      46.258  25.058  29.413  1.00  0.00     0.031 C 
ATOM     62  C   UNL A   1      46.638  27.275  30.454  1.00  0.00     0.037 A 
BRANCH  49  63
ATOM     63  C   UNL A   1      43.961  32.726  31.588  1.00  0.00     0.058 A 
ATOM     64  C   UNL A   1      43.721  33.047  32.933  1.00  0.00     0.135 A 
ATOM     65  C   UNL A   1      44.418  33.753  30.744  1.00  0.00     0.135 A 
ATOM     66  F   UNL A   1      43.270  32.109  33.782  1.00  0.00    -0.206 F 
ATOM     67  C   UNL A   1      43.909  34.337  33.419  1.00  0.00     0.059 A 
ATOM     68  C   UNL A   1      44.641  35.044  31.215  1.00  0.00     0.059 A 
ATOM     69  F   UNL A   1      44.662  33.504  29.448  1.00  0.00    -0.206 F 
ATOM     70  C   UNL A   1      44.372  35.328  32.552  1.00  0.00     0.060 A 
BRANCH  70  71
ATOM     71  S   UNL A   1      44.633  36.991  33.206  1.00  0.00     0.124 S 
ATOM     72  O   UNL A   1      44.728  36.729  34.639  1.00  0.00    -0.237 OA
ATOM     73  O   UNL A   1      45.875  37.392  32.551  1.00  0.00    -0.237 OA
ATOM     74  O   UNL A   1      43.440  37.716  32.779  1.00  0.00    -0.744 OA
ENDBRANCH  70  71
ENDBRANCH  49  63
BRANCH  50  75
ATOM     75  C   UNL A   1      42.698  23.609  27.675  1.00  0.00     0.058 A 
ATOM     76  C   UNL A   1      42.359  22.503  28.471  1.00  0.00     0.135 A 
ATOM     77  C   UNL A   1      42.886  23.389  26.302  1.00  0.00     0.135 A 
ATOM     78  F   UNL A   1      42.174  22.660  29.791  1.00  0.00    -0.206 F 
ATOM     79  C   UNL A   1      42.242  21.226  27.935  1.00  0.00     0.059 A 
ATOM     80  C   UNL A   1      42.745  22.126  25.737  1.00  0.00     0.059 A 
ATOM     81  F   UNL A   1      43.194  24.415  25.493  1.00  0.00    -0.206 F 
ATOM     82  C   UNL A   1      42.438  21.047  26.564  1.00  0.00     0.060 A 
BRANCH  82  83
ATOM     83  S   UNL A   1      42.260  19.388  25.873  1.00  0.00     0.124 S 
ATOM     84  O   UNL A   1      43.071  19.485  24.665  1.00  0.00    -0.237 OA
ATOM     85  O   UNL A   1      42.800  18.552  26.941  1.00  0.00    -0.237 OA
ATOM     86  O   UNL A   1      40.821  19.267  25.660  1.00  0.00    -0.744 OA
ENDBRANCH  82  83
ENDBRANCH  50  75
BRANCH  62  87
ATOM     87  C   UNL A   1      48.038  26.836  30.791  1.00  0.00     0.058 A 
ATOM     88  C   UNL A   1      49.130  27.142  29.964  1.00  0.00     0.135 A 
ATOM     89  C   UNL A   1      48.295  26.145  31.987  1.00  0.00     0.135 A 
ATOM     90  F   UNL A   1      48.939  27.796  28.807  1.00  0.00    -0.206 F 
ATOM     91  C   UNL A   1      50.423  26.757  30.299  1.00  0.00     0.059 A 
ATOM     92  C   UNL A   1      49.584  25.778  32.356  1.00  0.00     0.059 A 
ATOM     93  F   UNL A   1      47.287  25.836  32.819  1.00  0.00    -0.206 F 
ATOM     94  C   UNL A   1      50.642  26.077  31.499  1.00  0.00     0.060 A 
BRANCH  94  95
ATOM     95  S   UNL A   1      52.331  25.616  31.937  1.00  0.00     0.124 S 
ATOM     96  O   UNL A   1      53.038  25.866  30.686  1.00  0.00    -0.237 OA
ATOM     97  O   UNL A   1      52.632  26.535  33.030  1.00  0.00    -0.237 OA
ATOM     98  O   UNL A   1      52.211  24.213  32.322  1.00  0.00    -0.744 OA
ENDBRANCH  94  95
ENDBRANCH  62  87
ENDBRANCH  36  37
ENDBRANCH  28  31
ENDBRANCH  26  27
ENDBRANCH  25  26
ENDBRANCH   1  25
TORSDOF 17
ENDMDL
MODEL 3
REMARK VINA RESULT:     -11.9      1.722      2.452
REMARK SMILES O=C(NCCCCCCNC(=O)c1ccc(-c2c3nc(c(-c4c(F)cc(S(=O)(=O)[O-])cc4F)c4ccc([nH]4)c(-c4c(F)cc(S(=O)(=O)[O-])cc4F)c4nc(c(-c5c(F)cc(S(=O)(=O)[O-])cc5F)c5ccc2[nH]5)C=C4)C=C3)cc1)C1=Cc2cc(Cl)cc(Cl)c2O[C@@H]1C(F)(F)F
REMARK SMILES IDX 7 1 6 2 5 3 4 4 3 5 1 6 2 7 79 9 80 10 90 11 81 12 89 13
REMARK SMILES IDX 82 14 88 15 83 16 86 17 84 18 85 19 87 20 91 21 92 22 93 23
REMARK SMILES IDX 94 24 8 25 9 26 10 27 11 28 12 30 13 31 14 32 78 33 15 34
REMARK SMILES IDX 77 35 16 36 17 37 18 38 71 39 19 40 76 41 70 42 72 43 20 44
REMARK SMILES IDX 75 45 69 46 68 47 21 49 55 50 34 51 54 52 35 53 38 54 53 55
REMARK SMILES IDX 73 56 36 57 37 58 52 60 74 61 39 62 22 63 23 64 32 65 24 66
REMARK SMILES IDX 25 67 31 68 33 69 26 70 27 71 28 72 29 73 30 74 56 75 57 76
REMARK SMILES IDX 66 77 58 78 59 79 65 80 67 81 60 82 61 83 62 84 63 85 64 86
REMARK SMILES IDX 40 87 41 88 50 89 42 90 43 91 49 92 51 93 44 94 45 95 46 96
REMARK SMILES IDX 47 97 48 98
REMARK H PARENT 3 8 10 29 72 48 38 59
REMARK Flexibility Score: inf
ROOT
ATOM      1  C   UNL A   1      37.123  22.025  25.288  1.00  0.00     0.002 C 
ENDROOT
BRANCH   1   2
ATOM      2  C   UNL A   1      35.712  21.428  25.352  1.00  0.00     0.002 C 
BRANCH   2   3
ATOM      3  C   UNL A   1      34.899  21.717  26.611  1.00  0.00     0.021 C 
BRANCH   3   4
ATOM      4  C   UNL A   1      33.384  21.736  26.453  1.00  0.00     0.116 C 
BRANCH   4   5
ATOM      5  N   UNL A   1      32.714  22.920  26.958  1.00  0.00    -0.352 N 
ATOM      6  O   UNL A   1      31.448  24.772  26.907  1.00  0.00    -0.270 OA
ATOM      7  C   UNL A   1      32.066  23.913  26.276  1.00  0.00     0.251 C 
ATOM      8  H   UNL A   1      32.728  23.025  27.936  1.00  0.00     0.163 HD
BRANCH   7   9
ATOM      9  C   UNL A   1      31.997  23.958  24.783  1.00  0.00     0.067 C 
ATOM     10  C   UNL A   1      30.888  24.313  24.109  1.00  0.00     0.025 C 
ATOM     11  C   UNL A   1      33.340  24.263  24.156  1.00  0.00     0.314 C 
ATOM     12  C   UNL A   1      31.017  25.693  23.567  1.00  0.00     0.020 A 
ATOM     13  O   UNL A   1      33.443  25.671  23.815  1.00  0.00    -0.474 OA
ATOM     14  C   UNL A   1      29.843  26.420  23.335  1.00  0.00     0.032 A 
ATOM     15  C   UNL A   1      32.268  26.340  23.560  1.00  0.00     0.146 A 
ATOM     16  C   UNL A   1      29.911  27.806  23.208  1.00  0.00     0.043 A 
ATOM     17  C   UNL A   1      32.315  27.731  23.410  1.00  0.00     0.085 A 
ATOM     18  Cl  UNL A   1      28.454  28.716  23.128  1.00  0.00    -0.084 Cl
ATOM     19  C   UNL A   1      31.137  28.466  23.256  1.00  0.00     0.045 A 
ATOM     20  Cl  UNL A   1      33.805  28.591  23.553  1.00  0.00    -0.080 Cl
BRANCH  11  21
ATOM     21  C   UNL A   1      33.653  23.364  22.948  1.00  0.00     0.429 C 
ATOM     22  F   UNL A   1      33.119  22.129  23.099  1.00  0.00    -0.167 F 
ATOM     23  F   UNL A   1      33.143  23.874  21.801  1.00  0.00    -0.167 F 
ATOM     24  F   UNL A   1      34.984  23.205  22.752  1.00  0.00    -0.167 F 
ENDBRANCH  11  21
ENDBRANCH   7   9
ENDBRANCH   4   5
ENDBRANCH   3   4
ENDBRANCH   2   3
ENDBRANCH   1   2
BRANCH   1  25
ATOM     25  C   UNL A   1      37.243  23.548  25.406  1.00  0.00     0.021 C 
BRANCH  25  26
ATOM     26  C   UNL A   1      38.191  24.075  26.480  1.00  0.00     0.116 C 
BRANCH  26  27
ATOM     27  N   UNL A   1      39.591  23.926  26.125  1.00  0.00    -0.352 N 
ATOM     28  C   UNL A   1      40.688  24.656  26.517  1.00  0.00     0.251 C 
ATOM     29  H   UNL A   1      39.785  23.186  25.506  1.00  0.00     0.163 HD
ATOM     30  O   UNL A   1      41.772  24.443  25.982  1.00  0.00    -0.269 OA
BRANCH  28  31
ATOM     31  C   UNL A   1      40.572  25.707  27.555  1.00  0.00     0.039 A 
ATOM     32  C   UNL A   1      39.568  25.585  28.520  1.00  0.00     0.014 A 
ATOM     33  C   UNL A   1      41.410  26.825  27.567  1.00  0.00     0.014 A 
ATOM     34  C   UNL A   1      39.441  26.549  29.524  1.00  0.00     0.010 A 
ATOM     35  C   UNL A   1      41.329  27.749  28.610  1.00  0.00     0.010 A 
ATOM     36  C   UNL A   1      40.341  27.625  29.597  1.00  0.00    -0.014 A 
BRANCH  36  37
ATOM     37  C   UNL A   1      40.256  28.626  30.694  1.00  0.00     0.031 A 
ATOM     38  C   UNL A   1      41.142  28.503  31.906  1.00  0.00     0.074 A 
ATOM     39  C   UNL A   1      39.345  29.619  30.623  1.00  0.00     0.049 A 
ATOM     40  N   UNL A   1      41.178  29.247  32.983  1.00  0.00    -0.248 NA
ATOM     41  C   UNL A   1      42.098  27.384  31.922  1.00  0.00     0.031 C 
ATOM     42  C   UNL A   1      38.401  29.823  29.521  1.00  0.00     0.029 A 
ATOM     43  N   UNL A   1      39.056  30.638  31.496  1.00  0.00    -0.354 N 
ATOM     44  C   UNL A   1      42.141  28.677  33.809  1.00  0.00     0.074 A 
ATOM     45  C   UNL A   1      42.636  27.500  33.128  1.00  0.00     0.031 C 
ATOM     46  C   UNL A   1      37.661  30.915  29.770  1.00  0.00     0.029 A 
ATOM     47  C   UNL A   1      38.042  31.464  31.067  1.00  0.00     0.049 A 
ATOM     48  H   UNL A   1      39.530  30.766  32.349  1.00  0.00     0.167 HD
ATOM     49  C   UNL A   1      42.585  29.106  35.014  1.00  0.00     0.037 A 
ATOM     50  C   UNL A   1      37.480  32.539  31.654  1.00  0.00     0.037 A 
ATOM     51  C   UNL A   1      42.112  30.299  35.668  1.00  0.00     0.049 A 
ATOM     52  C   UNL A   1      37.989  32.990  32.997  1.00  0.00     0.074 A 
ATOM     53  C   UNL A   1      42.554  30.859  36.855  1.00  0.00     0.029 A 
ATOM     54  N   UNL A   1      41.092  31.112  35.198  1.00  0.00    -0.354 N 
ATOM     55  N   UNL A   1      38.952  32.481  33.728  1.00  0.00    -0.248 NA
ATOM     56  C   UNL A   1      37.339  34.165  33.595  1.00  0.00     0.031 C 
ATOM     57  C   UNL A   1      41.763  31.979  37.130  1.00  0.00     0.029 A 
ATOM     58  C   UNL A   1      40.870  32.153  36.087  1.00  0.00     0.049 A 
ATOM     59  H   UNL A   1      40.600  30.972  34.358  1.00  0.00     0.167 HD
ATOM     60  C   UNL A   1      39.046  33.294  34.854  1.00  0.00     0.074 A 
ATOM     61  C   UNL A   1      38.049  34.334  34.702  1.00  0.00     0.031 C 
ATOM     62  C   UNL A   1      39.883  33.190  35.915  1.00  0.00     0.037 A 
BRANCH  49  63
ATOM     63  C   UNL A   1      43.637  28.287  35.713  1.00  0.00     0.058 A 
ATOM     64  C   UNL A   1      43.304  27.280  36.632  1.00  0.00     0.135 A 
ATOM     65  C   UNL A   1      44.998  28.473  35.412  1.00  0.00     0.135 A 
ATOM     66  F   UNL A   1      42.022  27.067  36.968  1.00  0.00    -0.206 F 
ATOM     67  C   UNL A   1      44.282  26.499  37.242  1.00  0.00     0.059 A 
ATOM     68  C   UNL A   1      45.990  27.685  35.988  1.00  0.00     0.059 A 
ATOM     69  F   UNL A   1      45.373  29.424  34.542  1.00  0.00    -0.206 F 
ATOM     70  C   UNL A   1      45.622  26.708  36.911  1.00  0.00     0.060 A 
BRANCH  70  71
ATOM     71  S   UNL A   1      46.874  25.669  37.694  1.00  0.00     0.124 S 
ATOM     72  O   UNL A   1      47.628  26.653  38.465  1.00  0.00    -0.237 OA
ATOM     73  O   UNL A   1      46.064  24.739  38.475  1.00  0.00    -0.237 OA
ATOM     74  O   UNL A   1      47.585  25.081  36.564  1.00  0.00    -0.744 OA
ENDBRANCH  70  71
ENDBRANCH  49  63
BRANCH  50  75
ATOM     75  C   UNL A   1      36.382  33.280  30.973  1.00  0.00     0.058 A 
ATOM     76  C   UNL A   1      36.647  34.106  29.869  1.00  0.00     0.135 A 
ATOM     77  C   UNL A   1      35.054  33.190  31.415  1.00  0.00     0.135 A 
ATOM     78  F   UNL A   1      37.902  34.230  29.412  1.00  0.00    -0.206 F 
ATOM     79  C   UNL A   1      35.642  34.837  29.247  1.00  0.00     0.059 A 
ATOM     80  C   UNL A   1      34.025  33.889  30.790  1.00  0.00     0.059 A 
ATOM     81  F   UNL A   1      34.742  32.402  32.456  1.00  0.00    -0.206 F 
ATOM     82  C   UNL A   1      34.332  34.722  29.716  1.00  0.00     0.060 A 
BRANCH  82  83
ATOM     83  S   UNL A   1      33.029  35.657  28.885  1.00  0.00     0.124 S 
ATOM     84  O   UNL A   1      32.464  34.648  27.998  1.00  0.00    -0.237 OA
ATOM     85  O   UNL A   1      32.187  36.070  30.004  1.00  0.00    -0.237 OA
ATOM     86  O   UNL A   1      33.759  36.738  28.228  1.00  0.00    -0.744 OA
ENDBRANCH  82  83
ENDBRANCH  50  75
BRANCH  62  87
ATOM     87  C   UNL A   1      39.792  34.251  36.978  1.00  0.00     0.058 A 
ATOM     88  C   UNL A   1      40.480  35.469  36.871  1.00  0.00     0.135 A 
ATOM     89  C   UNL A   1      38.960  34.064  38.096  1.00  0.00     0.135 A 
ATOM     90  F   UNL A   1      41.293  35.697  35.827  1.00  0.00    -0.206 F 
ATOM     91  C   UNL A   1      40.367  36.455  37.845  1.00  0.00     0.059 A 
ATOM     92  C   UNL A   1      38.808  35.049  39.065  1.00  0.00     0.059 A 
ATOM     93  F   UNL A   1      38.271  32.921  38.242  1.00  0.00    -0.206 F 
ATOM     94  C   UNL A   1      39.526  36.237  38.939  1.00  0.00     0.060 A 
BRANCH  94  95
ATOM     95  S   UNL A   1      39.361  37.540  40.177  1.00  0.00     0.124 S 
ATOM     96  O   UNL A   1      40.691  38.140  40.151  1.00  0.00    -0.237 OA
ATOM     97  O   UNL A   1      38.285  38.359  39.627  1.00  0.00    -0.237 OA
ATOM     98  O   UNL A   1      39.024  36.811  41.395  1.00  0.00    -0.744 OA
ENDBRANCH  94  95
ENDBRANCH  62  87
ENDBRANCH  36  37
ENDBRANCH  28  31
ENDBRANCH  26  27
ENDBRANCH  25  26
ENDBRANCH   1  25
TORSDOF 17
ENDMDL
