MODEL 1
REMARK VINA RESULT:     -13.4      0.000      0.000
REMARK SMILES CC1=Nc2c(c(C)nn2-c2ccc(F)cc2)[C@H](c2ccc(C(=O)NCCCCCCNC(=O)c3ccc(-c4c5nc(c(-c6c(F)cc(S(=O)(=O)[O-])cc6F)c6ccc([nH]6)c(-c6c(F)cc(S(=O)(=O)[O-])cc6F)c6nc(c(-c7c(F)cc(S(=O)(=O)[O-])cc7F)c7ccc4[nH]7)C=C6)C=C5)cc3)cc2)S1
REMARK SMILES IDX 28 1 27 2 26 3 25 4 24 5 22 6 23 7 21 9 18 10 19 11 101 12
REMARK SMILES IDX 20 13 100 14 17 15 1 16 2 17 3 18 102 19 4 20 5 21 9 22 6 23
REMARK SMILES IDX 8 24 7 25 10 26 11 27 16 28 12 29 15 30 13 31 14 32 29 33
REMARK SMILES IDX 30 34 31 35 32 36 33 38 34 39 35 40 99 41 36 42 98 43 37 44
REMARK SMILES IDX 38 45 39 46 92 47 40 48 97 49 91 50 93 51 41 52 96 53 90 54
REMARK SMILES IDX 89 55 42 57 76 58 55 59 75 60 56 61 59 62 74 63 94 64 57 65
REMARK SMILES IDX 58 66 73 68 95 69 60 70 43 71 44 72 53 73 45 74 46 75 52 76
REMARK SMILES IDX 54 77 47 78 48 79 49 80 50 81 51 82 77 83 78 84 87 85 79 86
REMARK SMILES IDX 80 87 86 88 88 89 81 90 82 91 83 92 84 93 85 94 61 95 62 96
REMARK SMILES IDX 71 97 63 98 64 99 70 100 72 101 65 102 66 103 67 104 68 105
REMARK SMILES IDX 69 106
REMARK H PARENT 24 8 31 37 93 56 59 67
REMARK Flexibility Score: inf
ROOT
ATOM      1  C   UNL A   1      33.994  29.998  27.440  1.00  0.00     0.002 C 
ENDROOT
BRANCH   1   2
ATOM      2  C   UNL A   1      32.975  29.227  26.584  1.00  0.00     0.002 C 
BRANCH   2   3
ATOM      3  C   UNL A   1      32.665  29.837  25.211  1.00  0.00     0.021 C 
BRANCH   3   4
ATOM      4  C   UNL A   1      31.170  30.030  24.955  1.00  0.00     0.116 C 
BRANCH   4   5
ATOM      5  N   UNL A   1      30.804  29.445  23.679  1.00  0.00    -0.352 N 
ATOM      6  C   UNL A   1      31.034  28.209  23.138  1.00  0.00     0.251 C 
ATOM      7  O   UNL A   1      30.570  27.969  22.024  1.00  0.00    -0.269 OA
ATOM      8  H   UNL A   1      30.294  30.050  23.094  1.00  0.00     0.163 HD
BRANCH   6   9
ATOM      9  C   UNL A   1      31.730  27.131  23.884  1.00  0.00     0.039 A 
ATOM     10  C   UNL A   1      32.949  25.150  25.496  1.00  0.00    -0.030 A 
ATOM     11  C   UNL A   1      31.686  25.673  25.823  1.00  0.00     0.006 A 
ATOM     12  C   UNL A   1      33.566  25.608  24.318  1.00  0.00     0.006 A 
ATOM     13  C   UNL A   1      31.081  26.640  25.022  1.00  0.00     0.014 A 
ATOM     14  C   UNL A   1      32.953  26.573  23.510  1.00  0.00     0.014 A 
BRANCH  10  15
ATOM     15  C   UNL A   1      33.548  24.067  26.380  1.00  0.00     0.119 C 
ATOM     16  C   UNL A   1      37.164  23.067  24.625  1.00  0.00     0.075 C 
ATOM     17  C   UNL A   1      35.779  22.919  25.199  1.00  0.00     0.074 C 
ATOM     18  N   UNL A   1      35.040  21.950  24.767  1.00  0.00    -0.227 NA
ATOM     19  S   UNL A   1      35.368  24.091  26.446  1.00  0.00    -0.098 SA
ATOM     20  C   UNL A   1      33.758  21.866  25.195  1.00  0.00     0.161 A 
ATOM     21  C   UNL A   1      33.003  22.786  25.882  1.00  0.00     0.038 A 
ATOM     22  N   UNL A   1      32.902  20.825  24.867  1.00  0.00    -0.215 N 
ATOM     23  C   UNL A   1      31.699  22.230  25.930  1.00  0.00     0.067 A 
ATOM     24  N   UNL A   1      31.626  21.075  25.259  1.00  0.00    -0.171 NA
ATOM     25  C   UNL A   1      30.477  22.780  26.569  1.00  0.00     0.069 C 
BRANCH  22  26
ATOM     26  C   UNL A   1      33.259  19.593  24.275  1.00  0.00     0.067 A 
ATOM     27  C   UNL A   1      32.429  19.040  23.289  1.00  0.00     0.031 A 
ATOM     28  C   UNL A   1      34.411  18.923  24.702  1.00  0.00     0.031 A 
ATOM     29  C   UNL A   1      32.757  17.811  22.725  1.00  0.00     0.041 A 
ATOM     30  C   UNL A   1      34.697  17.662  24.173  1.00  0.00     0.041 A 
ATOM     31  C   UNL A   1      33.879  17.126  23.182  1.00  0.00     0.123 A 
ATOM     32  F   UNL A   1      34.171  15.933  22.647  1.00  0.00    -0.207 F 
ENDBRANCH  22  26
ENDBRANCH  10  15
ENDBRANCH   6   9
ENDBRANCH   4   5
ENDBRANCH   3   4
ENDBRANCH   2   3
ENDBRANCH   1   2
BRANCH   1  33
ATOM     33  C   UNL A   1      33.725  31.499  27.635  1.00  0.00     0.021 C 
BRANCH  33  34
ATOM     34  C   UNL A   1      34.883  32.253  28.272  1.00  0.00     0.116 C 
BRANCH  34  35
ATOM     35  N   UNL A   1      34.567  32.705  29.630  1.00  0.00    -0.352 N 
ATOM     36  C   UNL A   1      34.973  32.185  30.848  1.00  0.00     0.251 C 
ATOM     37  H   UNL A   1      33.981  33.495  29.685  1.00  0.00     0.163 HD
ATOM     38  O   UNL A   1      34.341  32.416  31.864  1.00  0.00    -0.269 OA
BRANCH  36  39
ATOM     39  C   UNL A   1      36.194  31.358  30.890  1.00  0.00     0.039 A 
ATOM     40  C   UNL A   1      36.156  29.959  30.879  1.00  0.00     0.014 A 
ATOM     41  C   UNL A   1      37.408  32.028  30.928  1.00  0.00     0.014 A 
ATOM     42  C   UNL A   1      37.361  29.259  30.846  1.00  0.00     0.010 A 
ATOM     43  C   UNL A   1      38.560  31.357  30.647  1.00  0.00     0.010 A 
ATOM     44  C   UNL A   1      38.561  29.974  30.722  1.00  0.00    -0.014 A 
BRANCH  44  45
ATOM     45  C   UNL A   1      39.856  29.325  30.593  1.00  0.00     0.031 A 
ATOM     46  C   UNL A   1      40.571  29.141  31.880  1.00  0.00     0.074 A 
ATOM     47  C   UNL A   1      40.218  28.688  29.455  1.00  0.00     0.049 A 
ATOM     48  N   UNL A   1      41.652  29.726  32.278  1.00  0.00    -0.248 NA
ATOM     49  C   UNL A   1      39.912  28.339  32.926  1.00  0.00     0.031 C 
ATOM     50  C   UNL A   1      39.431  28.497  28.225  1.00  0.00     0.029 A 
ATOM     51  N   UNL A   1      41.333  27.958  29.196  1.00  0.00    -0.354 N 
ATOM     52  C   UNL A   1      41.943  29.167  33.518  1.00  0.00     0.074 A 
ATOM     53  C   UNL A   1      40.736  28.520  33.959  1.00  0.00     0.031 C 
ATOM     54  C   UNL A   1      39.985  27.520  27.474  1.00  0.00     0.029 A 
ATOM     55  C   UNL A   1      41.251  27.141  28.070  1.00  0.00     0.049 A 
ATOM     56  H   UNL A   1      42.139  28.002  29.761  1.00  0.00     0.167 HD
ATOM     57  C   UNL A   1      43.228  29.040  33.952  1.00  0.00     0.037 A 
ATOM     58  C   UNL A   1      42.154  26.203  27.683  1.00  0.00     0.037 A 
ATOM     59  C   UNL A   1      44.126  29.834  33.149  1.00  0.00     0.049 A 
ATOM     60  C   UNL A   1      43.427  26.535  28.379  1.00  0.00     0.074 A 
ATOM     61  C   UNL A   1      44.228  31.178  32.851  1.00  0.00     0.029 A 
ATOM     62  N   UNL A   1      44.851  29.179  32.182  1.00  0.00    -0.354 N 
ATOM     63  N   UNL A   1      44.113  27.625  28.160  1.00  0.00    -0.248 NA
ATOM     64  C   UNL A   1      43.683  25.884  29.654  1.00  0.00     0.031 C 
ATOM     65  C   UNL A   1      44.595  31.226  31.474  1.00  0.00     0.029 A 
ATOM     66  C   UNL A   1      44.774  29.915  31.026  1.00  0.00     0.049 A 
ATOM     67  H   UNL A   1      45.341  28.333  32.298  1.00  0.00     0.167 HD
ATOM     68  C   UNL A   1      44.555  28.027  29.413  1.00  0.00     0.074 A 
ATOM     69  C   UNL A   1      44.331  26.871  30.280  1.00  0.00     0.031 C 
ATOM     70  C   UNL A   1      44.788  29.344  29.695  1.00  0.00     0.037 A 
BRANCH  57  71
ATOM     71  C   UNL A   1      43.720  27.928  34.848  1.00  0.00     0.058 A 
ATOM     72  C   UNL A   1      43.882  26.587  34.431  1.00  0.00     0.135 A 
ATOM     73  C   UNL A   1      44.304  28.248  36.091  1.00  0.00     0.135 A 
ATOM     74  F   UNL A   1      43.486  26.156  33.227  1.00  0.00    -0.206 F 
ATOM     75  C   UNL A   1      44.550  25.636  35.189  1.00  0.00     0.059 A 
ATOM     76  C   UNL A   1      45.033  27.323  36.841  1.00  0.00     0.059 A 
ATOM     77  F   UNL A   1      44.234  29.500  36.574  1.00  0.00    -0.206 F 
ATOM     78  C   UNL A   1      45.149  26.017  36.379  1.00  0.00     0.060 A 
BRANCH  78  79
ATOM     79  S   UNL A   1      46.152  24.794  37.237  1.00  0.00     0.124 S 
ATOM     80  O   UNL A   1      46.829  25.620  38.231  1.00  0.00    -0.237 OA
ATOM     81  O   UNL A   1      45.138  23.881  37.751  1.00  0.00    -0.237 OA
ATOM     82  O   UNL A   1      47.002  24.256  36.179  1.00  0.00    -0.744 OA
ENDBRANCH  78  79
ENDBRANCH  57  71
BRANCH  58  83
ATOM     83  C   UNL A   1      41.901  24.864  27.078  1.00  0.00     0.058 A 
ATOM     84  C   UNL A   1      40.914  23.996  27.586  1.00  0.00     0.135 A 
ATOM     85  C   UNL A   1      42.828  24.288  26.187  1.00  0.00     0.135 A 
ATOM     86  F   UNL A   1      40.001  24.425  28.470  1.00  0.00    -0.206 F 
ATOM     87  C   UNL A   1      40.886  22.634  27.285  1.00  0.00     0.059 A 
ATOM     88  C   UNL A   1      42.824  22.922  25.874  1.00  0.00     0.059 A 
ATOM     89  F   UNL A   1      43.808  25.038  25.660  1.00  0.00    -0.206 F 
ATOM     90  C   UNL A   1      41.866  22.096  26.457  1.00  0.00     0.060 A 
BRANCH  90  91
ATOM     91  S   UNL A   1      41.908  20.300  26.244  1.00  0.00     0.124 S 
ATOM     92  O   UNL A   1      40.539  20.016  25.822  1.00  0.00    -0.237 OA
ATOM     93  O   UNL A   1      42.928  20.138  25.214  1.00  0.00    -0.237 OA
ATOM     94  O   UNL A   1      42.272  19.805  27.568  1.00  0.00    -0.744 OA
ENDBRANCH  90  91
ENDBRANCH  58  83
BRANCH  70  95
ATOM     95  C   UNL A   1      44.850  30.325  28.547  1.00  0.00     0.058 A 
ATOM     96  C   UNL A   1      46.111  30.819  28.179  1.00  0.00     0.135 A 
ATOM     97  C   UNL A   1      43.730  30.917  27.931  1.00  0.00     0.135 A 
ATOM     98  F   UNL A   1      47.218  30.335  28.765  1.00  0.00    -0.206 F 
ATOM     99  C   UNL A   1      46.260  31.852  27.261  1.00  0.00     0.059 A 
ATOM    100  C   UNL A   1      43.857  31.934  26.980  1.00  0.00     0.059 A 
ATOM    101  F   UNL A   1      42.486  30.572  28.287  1.00  0.00    -0.206 F 
ATOM    102  C   UNL A   1      45.129  32.406  26.665  1.00  0.00     0.060 A 
BRANCH 102 103
ATOM    103  S   UNL A   1      45.363  33.767  25.502  1.00  0.00     0.124 S 
ATOM    104  O   UNL A   1      46.818  33.857  25.428  1.00  0.00    -0.237 OA
ATOM    105  O   UNL A   1      44.703  33.265  24.300  1.00  0.00    -0.237 OA
ATOM    106  O   UNL A   1      44.701  34.898  26.147  1.00  0.00    -0.744 OA
ENDBRANCH 102 103
ENDBRANCH  70  95
ENDBRANCH  44  45
ENDBRANCH  36  39
ENDBRANCH  34  35
ENDBRANCH  33  34
ENDBRANCH   1  33
TORSDOF 18
ENDMDL
MODEL 2
REMARK VINA RESULT:     -13.2      1.886      2.747
REMARK SMILES CC1=Nc2c(c(C)nn2-c2ccc(F)cc2)[C@H](c2ccc(C(=O)NCCCCCCNC(=O)c3ccc(-c4c5nc(c(-c6c(F)cc(S(=O)(=O)[O-])cc6F)c6ccc([nH]6)c(-c6c(F)cc(S(=O)(=O)[O-])cc6F)c6nc(c(-c7c(F)cc(S(=O)(=O)[O-])cc7F)c7ccc4[nH]7)C=C6)C=C5)cc3)cc2)S1
REMARK SMILES IDX 28 1 27 2 26 3 25 4 24 5 22 6 23 7 21 9 18 10 19 11 101 12
REMARK SMILES IDX 20 13 100 14 17 15 1 16 2 17 3 18 102 19 4 20 5 21 9 22 6 23
REMARK SMILES IDX 8 24 7 25 10 26 11 27 16 28 12 29 15 30 13 31 14 32 29 33
REMARK SMILES IDX 30 34 31 35 32 36 33 38 34 39 35 40 99 41 36 42 98 43 37 44
REMARK SMILES IDX 38 45 39 46 92 47 40 48 97 49 91 50 93 51 41 52 96 53 90 54
REMARK SMILES IDX 89 55 42 57 76 58 55 59 75 60 56 61 59 62 74 63 94 64 57 65
REMARK SMILES IDX 58 66 73 68 95 69 60 70 43 71 44 72 53 73 45 74 46 75 52 76
REMARK SMILES IDX 54 77 47 78 48 79 49 80 50 81 51 82 77 83 78 84 87 85 79 86
REMARK SMILES IDX 80 87 86 88 88 89 81 90 82 91 83 92 84 93 85 94 61 95 62 96
REMARK SMILES IDX 71 97 63 98 64 99 70 100 72 101 65 102 66 103 67 104 68 105
REMARK SMILES IDX 69 106
REMARK H PARENT 24 8 31 37 93 56 59 67
REMARK Flexibility Score: inf
ROOT
ATOM      1  C   UNL A   1      34.439  28.751  26.504  1.00  0.00     0.002 C 
ENDROOT
BRANCH   1   2
ATOM      2  C   UNL A   1      33.250  28.292  25.642  1.00  0.00     0.002 C 
BRANCH   2   3
ATOM      3  C   UNL A   1      32.743  29.314  24.615  1.00  0.00     0.021 C 
BRANCH   3   4
ATOM      4  C   UNL A   1      31.351  29.857  24.936  1.00  0.00     0.116 C 
BRANCH   4   5
ATOM      5  N   UNL A   1      30.509  29.798  23.756  1.00  0.00    -0.352 N 
ATOM      6  C   UNL A   1      30.091  28.749  22.981  1.00  0.00     0.251 C 
ATOM      7  O   UNL A   1      29.338  28.990  22.038  1.00  0.00    -0.269 OA
ATOM      8  H   UNL A   1      30.176  30.674  23.458  1.00  0.00     0.163 HD
BRANCH   6   9
ATOM      9  C   UNL A   1      30.430  27.340  23.299  1.00  0.00     0.039 A 
ATOM     10  C   UNL A   1      31.103  24.617  23.677  1.00  0.00    -0.030 A 
ATOM     11  C   UNL A   1      31.594  25.337  22.575  1.00  0.00     0.006 A 
ATOM     12  C   UNL A   1      30.306  25.305  24.610  1.00  0.00     0.006 A 
ATOM     13  C   UNL A   1      31.272  26.682  22.395  1.00  0.00     0.014 A 
ATOM     14  C   UNL A   1      29.991  26.657  24.433  1.00  0.00     0.014 A 
BRANCH  10  15
ATOM     15  C   UNL A   1      31.517  23.164  23.850  1.00  0.00     0.119 C 
ATOM     16  C   UNL A   1      32.251  22.686  27.898  1.00  0.00     0.075 C 
ATOM     17  C   UNL A   1      32.473  22.684  26.408  1.00  0.00     0.074 C 
ATOM     18  N   UNL A   1      33.683  22.821  25.972  1.00  0.00    -0.227 NA
ATOM     19  S   UNL A   1      31.020  22.440  25.446  1.00  0.00    -0.098 SA
ATOM     20  C   UNL A   1      33.887  22.926  24.637  1.00  0.00     0.161 A 
ATOM     21  C   UNL A   1      32.978  23.126  23.627  1.00  0.00     0.038 A 
ATOM     22  N   UNL A   1      35.143  22.991  24.052  1.00  0.00    -0.215 N 
ATOM     23  C   UNL A   1      33.760  23.304  22.457  1.00  0.00     0.067 A 
ATOM     24  N   UNL A   1      35.070  23.287  22.728  1.00  0.00    -0.171 NA
ATOM     25  C   UNL A   1      33.309  23.534  21.062  1.00  0.00     0.069 C 
BRANCH  22  26
ATOM     26  C   UNL A   1      36.379  22.712  24.675  1.00  0.00     0.067 A 
ATOM     27  C   UNL A   1      36.908  21.415  24.599  1.00  0.00     0.031 A 
ATOM     28  C   UNL A   1      37.042  23.717  25.389  1.00  0.00     0.031 A 
ATOM     29  C   UNL A   1      38.110  21.125  25.239  1.00  0.00     0.041 A 
ATOM     30  C   UNL A   1      38.215  23.398  26.078  1.00  0.00     0.041 A 
ATOM     31  C   UNL A   1      38.745  22.114  25.984  1.00  0.00     0.123 A 
ATOM     32  F   UNL A   1      39.889  21.815  26.614  1.00  0.00    -0.207 F 
ENDBRANCH  22  26
ENDBRANCH  10  15
ENDBRANCH   6   9
ENDBRANCH   4   5
ENDBRANCH   3   4
ENDBRANCH   2   3
ENDBRANCH   1   2
BRANCH   1  33
ATOM     33  C   UNL A   1      34.113  29.699  27.669  1.00  0.00     0.021 C 
BRANCH  33  34
ATOM     34  C   UNL A   1      34.731  31.082  27.527  1.00  0.00     0.116 C 
BRANCH  34  35
ATOM     35  N   UNL A   1      34.465  31.929  28.694  1.00  0.00    -0.352 N 
ATOM     36  C   UNL A   1      34.999  31.861  29.970  1.00  0.00     0.251 C 
ATOM     37  H   UNL A   1      33.812  32.651  28.548  1.00  0.00     0.163 HD
ATOM     38  O   UNL A   1      34.417  32.367  30.914  1.00  0.00    -0.269 OA
BRANCH  36  39
ATOM     39  C   UNL A   1      36.292  31.177  30.160  1.00  0.00     0.039 A 
ATOM     40  C   UNL A   1      36.395  29.790  30.304  1.00  0.00     0.014 A 
ATOM     41  C   UNL A   1      37.428  31.973  30.176  1.00  0.00     0.014 A 
ATOM     42  C   UNL A   1      37.665  29.221  30.403  1.00  0.00     0.010 A 
ATOM     43  C   UNL A   1      38.656  31.401  30.024  1.00  0.00     0.010 A 
ATOM     44  C   UNL A   1      38.791  30.042  30.254  1.00  0.00    -0.014 A 
BRANCH  44  45
ATOM     45  C   UNL A   1      40.150  29.524  30.257  1.00  0.00     0.031 A 
ATOM     46  C   UNL A   1      40.694  29.260  31.612  1.00  0.00     0.074 A 
ATOM     47  C   UNL A   1      40.729  29.050  29.128  1.00  0.00     0.049 A 
ATOM     48  N   UNL A   1      41.645  29.887  32.221  1.00  0.00    -0.248 NA
ATOM     49  C   UNL A   1      39.980  28.294  32.465  1.00  0.00     0.031 C 
ATOM     50  C   UNL A   1      40.144  28.930  27.783  1.00  0.00     0.029 A 
ATOM     51  N   UNL A   1      41.937  28.450  28.968  1.00  0.00    -0.354 N 
ATOM     52  C   UNL A   1      41.816  29.221  33.430  1.00  0.00     0.074 A 
ATOM     53  C   UNL A   1      40.629  28.429  33.622  1.00  0.00     0.031 C 
ATOM     54  C   UNL A   1      40.892  28.093  27.031  1.00  0.00     0.029 A 
ATOM     55  C   UNL A   1      42.094  27.759  27.769  1.00  0.00     0.049 A 
ATOM     56  H   UNL A   1      42.648  28.500  29.649  1.00  0.00     0.167 HD
ATOM     57  C   UNL A   1      43.034  29.157  34.037  1.00  0.00     0.037 A 
ATOM     58  C   UNL A   1      43.132  26.951  27.431  1.00  0.00     0.037 A 
ATOM     59  C   UNL A   1      43.950  30.107  33.457  1.00  0.00     0.049 A 
ATOM     60  C   UNL A   1      44.256  27.310  28.338  1.00  0.00     0.074 A 
ATOM     61  C   UNL A   1      43.958  31.480  33.310  1.00  0.00     0.029 A 
ATOM     62  N   UNL A   1      44.866  29.627  32.549  1.00  0.00    -0.354 N 
ATOM     63  N   UNL A   1      44.853  28.472  28.330  1.00  0.00    -0.248 NA
ATOM     64  C   UNL A   1      44.396  26.546  29.568  1.00  0.00     0.031 C 
ATOM     65  C   UNL A   1      44.506  31.711  32.014  1.00  0.00     0.029 A 
ATOM     66  C   UNL A   1      44.876  30.478  31.473  1.00  0.00     0.049 A 
ATOM     67  H   UNL A   1      45.417  28.819  32.655  1.00  0.00     0.167 HD
ATOM     68  C   UNL A   1      45.074  28.769  29.669  1.00  0.00     0.074 A 
ATOM     69  C   UNL A   1      44.848  27.509  30.375  1.00  0.00     0.031 C 
ATOM     70  C   UNL A   1      45.132  30.061  30.109  1.00  0.00     0.037 A 
BRANCH  57  71
ATOM     71  C   UNL A   1      43.506  27.998  34.883  1.00  0.00     0.058 A 
ATOM     72  C   UNL A   1      43.764  26.703  34.380  1.00  0.00     0.135 A 
ATOM     73  C   UNL A   1      43.971  28.242  36.192  1.00  0.00     0.135 A 
ATOM     74  F   UNL A   1      43.489  26.352  33.118  1.00  0.00    -0.206 F 
ATOM     75  C   UNL A   1      44.414  25.722  35.117  1.00  0.00     0.059 A 
ATOM     76  C   UNL A   1      44.681  27.291  36.928  1.00  0.00     0.059 A 
ATOM     77  F   UNL A   1      43.802  29.447  36.761  1.00  0.00    -0.206 F 
ATOM     78  C   UNL A   1      44.897  26.032  36.379  1.00  0.00     0.060 A 
BRANCH  78  79
ATOM     79  S   UNL A   1      45.886  24.787  37.222  1.00  0.00     0.124 S 
ATOM     80  O   UNL A   1      45.417  23.563  36.582  1.00  0.00    -0.237 OA
ATOM     81  O   UNL A   1      47.243  25.203  36.885  1.00  0.00    -0.237 OA
ATOM     82  O   UNL A   1      45.509  24.952  38.622  1.00  0.00    -0.744 OA
ENDBRANCH  78  79
ENDBRANCH  57  71
BRANCH  58  83
ATOM     83  C   UNL A   1      43.101  25.670  26.668  1.00  0.00     0.058 A 
ATOM     84  C   UNL A   1      42.659  24.468  27.255  1.00  0.00     0.135 A 
ATOM     85  C   UNL A   1      43.791  25.540  25.447  1.00  0.00     0.135 A 
ATOM     86  F   UNL A   1      42.023  24.466  28.436  1.00  0.00    -0.206 F 
ATOM     87  C   UNL A   1      42.940  23.216  26.706  1.00  0.00     0.059 A 
ATOM     88  C   UNL A   1      44.090  24.295  24.878  1.00  0.00     0.059 A 
ATOM     89  F   UNL A   1      44.256  26.632  24.819  1.00  0.00    -0.206 F 
ATOM     90  C   UNL A   1      43.687  23.136  25.536  1.00  0.00     0.060 A 
BRANCH  90  91
ATOM     91  S   UNL A   1      44.190  21.497  24.959  1.00  0.00     0.124 S 
ATOM     92  O   UNL A   1      44.379  21.726  23.530  1.00  0.00    -0.237 OA
ATOM     93  O   UNL A   1      45.411  21.264  25.724  1.00  0.00    -0.237 OA
ATOM     94  O   UNL A   1      43.059  20.645  25.314  1.00  0.00    -0.744 OA
ENDBRANCH  90  91
ENDBRANCH  58  83
BRANCH  70  95
ATOM     95  C   UNL A   1      45.255  31.165  29.084  1.00  0.00     0.058 A 
ATOM     96  C   UNL A   1      44.070  31.730  28.588  1.00  0.00     0.135 A 
ATOM     97  C   UNL A   1      46.455  31.553  28.458  1.00  0.00     0.135 A 
ATOM     98  F   UNL A   1      42.885  31.365  29.106  1.00  0.00    -0.206 F 
ATOM     99  C   UNL A   1      44.066  32.621  27.521  1.00  0.00     0.059 A 
ATOM    100  C   UNL A   1      46.479  32.474  27.405  1.00  0.00     0.059 A 
ATOM    101  F   UNL A   1      47.623  30.999  28.804  1.00  0.00    -0.206 F 
ATOM    102  C   UNL A   1      45.275  32.989  26.934  1.00  0.00     0.060 A 
BRANCH 102 103
ATOM    103  S   UNL A   1      45.225  34.125  25.531  1.00  0.00     0.124 S 
ATOM    104  O   UNL A   1      44.591  33.306  24.501  1.00  0.00    -0.237 OA
ATOM    105  O   UNL A   1      44.415  35.223  26.048  1.00  0.00    -0.237 OA
ATOM    106  O   UNL A   1      46.629  34.447  25.292  1.00  0.00    -0.744 OA
ENDBRANCH 102 103
ENDBRANCH  70  95
ENDBRANCH  44  45
ENDBRANCH  36  39
ENDBRANCH  34  35
ENDBRANCH  33  34
ENDBRANCH   1  33
TORSDOF 18
ENDMDL
MODEL 3
REMARK VINA RESULT:     -12.9      3.201      9.669
REMARK SMILES CC1=Nc2c(c(C)nn2-c2ccc(F)cc2)[C@H](c2ccc(C(=O)NCCCCCCNC(=O)c3ccc(-c4c5nc(c(-c6c(F)cc(S(=O)(=O)[O-])cc6F)c6ccc([nH]6)c(-c6c(F)cc(S(=O)(=O)[O-])cc6F)c6nc(c(-c7c(F)cc(S(=O)(=O)[O-])cc7F)c7ccc4[nH]7)C=C6)C=C5)cc3)cc2)S1
REMARK SMILES IDX 28 1 27 2 26 3 25 4 24 5 22 6 23 7 21 9 18 10 19 11 101 12
REMARK SMILES IDX 20 13 100 14 17 15 1 16 2 17 3 18 102 19 4 20 5 21 9 22 6 23
REMARK SMILES IDX 8 24 7 25 10 26 11 27 16 28 12 29 15 30 13 31 14 32 29 33
REMARK SMILES IDX 30 34 31 35 32 36 33 38 34 39 35 40 99 41 36 42 98 43 37 44
REMARK SMILES IDX 38 45 39 46 92 47 40 48 97 49 91 50 93 51 41 52 96 53 90 54
REMARK SMILES IDX 89 55 42 57 76 58 55 59 75 60 56 61 59 62 74 63 94 64 57 65
REMARK SMILES IDX 58 66 73 68 95 69 60 70 43 71 44 72 53 73 45 74 46 75 52 76
REMARK SMILES IDX 54 77 47 78 48 79 49 80 50 81 51 82 77 83 78 84 87 85 79 86
REMARK SMILES IDX 80 87 86 88 88 89 81 90 82 91 83 92 84 93 85 94 61 95 62 96
REMARK SMILES IDX 71 97 63 98 64 99 70 100 72 101 65 102 66 103 67 104 68 105
REMARK SMILES IDX 69 106
REMARK H PARENT 24 8 31 37 93 56 59 67
REMARK Flexibility Score: inf
ROOT
ATOM      1  C   UNL A   1      41.301  20.257  26.955  1.00  0.00     0.002 C 
ENDROOT
BRANCH   1   2
ATOM      2  C   UNL A   1      40.985  21.576  26.228  1.00  0.00     0.002 C 
BRANCH   2   3
ATOM      3  C   UNL A   1      39.805  22.379  26.793  1.00  0.00     0.021 C 
BRANCH   3   4
ATOM      4  C   UNL A   1      38.562  22.336  25.906  1.00  0.00     0.116 C 
BRANCH   4   5
ATOM      5  N   UNL A   1      38.276  20.969  25.513  1.00  0.00    -0.352 N 
ATOM      6  C   UNL A   1      37.139  20.370  25.042  1.00  0.00     0.251 C 
ATOM      7  O   UNL A   1      37.191  19.175  24.752  1.00  0.00    -0.269 OA
ATOM      8  H   UNL A   1      39.043  20.359  25.602  1.00  0.00     0.163 HD
BRANCH   6   9
ATOM      9  C   UNL A   1      35.891  21.128  24.778  1.00  0.00     0.039 A 
ATOM     10  C   UNL A   1      33.405  22.371  24.243  1.00  0.00    -0.030 A 
ATOM     11  C   UNL A   1      33.465  21.087  24.811  1.00  0.00     0.006 A 
ATOM     12  C   UNL A   1      34.619  23.037  23.993  1.00  0.00     0.006 A 
ATOM     13  C   UNL A   1      34.690  20.481  25.085  1.00  0.00     0.014 A 
ATOM     14  C   UNL A   1      35.848  22.430  24.276  1.00  0.00     0.014 A 
BRANCH  10  15
ATOM     15  C   UNL A   1      32.045  23.006  24.001  1.00  0.00     0.119 C 
ATOM     16  C   UNL A   1      32.625  25.772  20.974  1.00  0.00     0.075 C 
ATOM     17  C   UNL A   1      32.239  25.195  22.310  1.00  0.00     0.074 C 
ATOM     18  N   UNL A   1      32.255  25.978  23.340  1.00  0.00    -0.227 NA
ATOM     19  S   UNL A   1      31.759  23.502  22.272  1.00  0.00    -0.098 SA
ATOM     20  C   UNL A   1      32.011  25.451  24.564  1.00  0.00     0.161 A 
ATOM     21  C   UNL A   1      31.946  24.135  24.952  1.00  0.00     0.038 A 
ATOM     22  N   UNL A   1      31.919  26.206  25.723  1.00  0.00    -0.215 N 
ATOM     23  C   UNL A   1      31.814  24.173  26.363  1.00  0.00     0.067 A 
ATOM     24  N   UNL A   1      31.864  25.425  26.833  1.00  0.00    -0.171 NA
ATOM     25  C   UNL A   1      31.678  23.043  27.316  1.00  0.00     0.069 C 
BRANCH  22  26
ATOM     26  C   UNL A   1      31.806  27.611  25.809  1.00  0.00     0.067 A 
ATOM     27  C   UNL A   1      32.052  28.245  27.036  1.00  0.00     0.031 A 
ATOM     28  C   UNL A   1      31.417  28.349  24.685  1.00  0.00     0.031 A 
ATOM     29  C   UNL A   1      31.911  29.626  27.135  1.00  0.00     0.041 A 
ATOM     30  C   UNL A   1      31.218  29.726  24.813  1.00  0.00     0.041 A 
ATOM     31  C   UNL A   1      31.481  30.352  26.029  1.00  0.00     0.123 A 
ATOM     32  F   UNL A   1      31.327  31.678  26.145  1.00  0.00    -0.207 F 
ENDBRANCH  22  26
ENDBRANCH  10  15
ENDBRANCH   6   9
ENDBRANCH   4   5
ENDBRANCH   3   4
ENDBRANCH   2   3
ENDBRANCH   1   2
BRANCH   1  33
ATOM     33  C   UNL A   1      42.080  19.204  26.151  1.00  0.00     0.021 C 
BRANCH  33  34
ATOM     34  C   UNL A   1      43.587  19.270  26.351  1.00  0.00     0.116 C 
BRANCH  34  35
ATOM     35  N   UNL A   1      44.309  19.372  25.079  1.00  0.00    -0.352 N 
ATOM     36  C   UNL A   1      44.530  20.480  24.278  1.00  0.00     0.251 C 
ATOM     37  H   UNL A   1      44.694  18.529  24.745  1.00  0.00     0.163 HD
ATOM     38  O   UNL A   1      44.801  20.349  23.097  1.00  0.00    -0.269 OA
BRANCH  36  39
ATOM     39  C   UNL A   1      44.445  21.820  24.888  1.00  0.00     0.039 A 
ATOM     40  C   UNL A   1      43.667  22.848  24.342  1.00  0.00     0.014 A 
ATOM     41  C   UNL A   1      45.165  22.028  26.055  1.00  0.00     0.014 A 
ATOM     42  C   UNL A   1      43.586  24.060  25.028  1.00  0.00     0.010 A 
ATOM     43  C   UNL A   1      44.889  23.109  26.838  1.00  0.00     0.010 A 
ATOM     44  C   UNL A   1      44.199  24.174  26.283  1.00  0.00    -0.014 A 
BRANCH  44  45
ATOM     45  C   UNL A   1      44.094  25.368  27.106  1.00  0.00     0.031 A 
ATOM     46  C   UNL A   1      45.124  26.396  26.815  1.00  0.00     0.074 A 
ATOM     47  C   UNL A   1      42.986  25.627  27.840  1.00  0.00     0.049 A 
ATOM     48  N   UNL A   1      46.102  26.775  27.568  1.00  0.00    -0.248 NA
ATOM     49  C   UNL A   1      45.178  26.950  25.450  1.00  0.00     0.031 C 
ATOM     50  C   UNL A   1      41.742  24.844  27.923  1.00  0.00     0.029 A 
ATOM     51  N   UNL A   1      42.681  26.724  28.580  1.00  0.00    -0.354 N 
ATOM     52  C   UNL A   1      46.736  27.797  26.869  1.00  0.00     0.074 A 
ATOM     53  C   UNL A   1      46.285  27.691  25.507  1.00  0.00     0.031 C 
ATOM     54  C   UNL A   1      40.759  25.600  28.459  1.00  0.00     0.029 A 
ATOM     55  C   UNL A   1      41.336  26.848  28.920  1.00  0.00     0.049 A 
ATOM     56  H   UNL A   1      43.360  27.382  28.856  1.00  0.00     0.167 HD
ATOM     57  C   UNL A   1      47.359  28.818  27.521  1.00  0.00     0.037 A 
ATOM     58  C   UNL A   1      40.746  27.918  29.512  1.00  0.00     0.037 A 
ATOM     59  C   UNL A   1      47.546  28.503  28.916  1.00  0.00     0.049 A 
ATOM     60  C   UNL A   1      41.840  28.700  30.149  1.00  0.00     0.074 A 
ATOM     61  C   UNL A   1      48.201  27.500  29.603  1.00  0.00     0.029 A 
ATOM     62  N   UNL A   1      46.661  29.055  29.811  1.00  0.00    -0.354 N 
ATOM     63  N   UNL A   1      42.570  28.258  31.139  1.00  0.00    -0.248 NA
ATOM     64  C   UNL A   1      42.431  29.780  29.374  1.00  0.00     0.031 C 
ATOM     65  C   UNL A   1      47.349  27.188  30.704  1.00  0.00     0.029 A 
ATOM     66  C   UNL A   1      46.263  28.066  30.675  1.00  0.00     0.049 A 
ATOM     67  H   UNL A   1      46.366  29.994  29.830  1.00  0.00     0.167 HD
ATOM     68  C   UNL A   1      43.857  28.693  30.855  1.00  0.00     0.074 A 
ATOM     69  C   UNL A   1      43.693  29.695  29.802  1.00  0.00     0.031 C 
ATOM     70  C   UNL A   1      44.952  27.998  31.287  1.00  0.00     0.037 A 
BRANCH  57  71
ATOM     71  C   UNL A   1      47.460  30.231  26.996  1.00  0.00     0.058 A 
ATOM     72  C   UNL A   1      46.347  31.059  26.730  1.00  0.00     0.135 A 
ATOM     73  C   UNL A   1      48.711  30.883  27.001  1.00  0.00     0.135 A 
ATOM     74  F   UNL A   1      45.086  30.615  26.801  1.00  0.00    -0.206 F 
ATOM     75  C   UNL A   1      46.461  32.419  26.473  1.00  0.00     0.059 A 
ATOM     76  C   UNL A   1      48.843  32.260  26.808  1.00  0.00     0.059 A 
ATOM     77  F   UNL A   1      49.835  30.197  27.267  1.00  0.00    -0.206 F 
ATOM     78  C   UNL A   1      47.708  33.018  26.544  1.00  0.00     0.060 A 
BRANCH  78  79
ATOM     79  S   UNL A   1      47.783  34.809  26.380  1.00  0.00     0.124 S 
ATOM     80  O   UNL A   1      46.440  35.112  25.896  1.00  0.00    -0.237 OA
ATOM     81  O   UNL A   1      48.076  35.224  27.747  1.00  0.00    -0.237 OA
ATOM     82  O   UNL A   1      48.861  35.013  25.418  1.00  0.00    -0.744 OA
ENDBRANCH  78  79
ENDBRANCH  57  71
BRANCH  58  83
ATOM     83  C   UNL A   1      39.398  28.500  29.248  1.00  0.00     0.058 A 
ATOM     84  C   UNL A   1      39.106  29.179  28.049  1.00  0.00     0.135 A 
ATOM     85  C   UNL A   1      38.468  28.667  30.292  1.00  0.00     0.135 A 
ATOM     86  F   UNL A   1      39.939  29.122  26.999  1.00  0.00    -0.206 F 
ATOM     87  C   UNL A   1      38.002  30.021  27.913  1.00  0.00     0.059 A 
ATOM     88  C   UNL A   1      37.355  29.511  30.182  1.00  0.00     0.059 A 
ATOM     89  F   UNL A   1      38.669  28.064  31.474  1.00  0.00    -0.206 F 
ATOM     90  C   UNL A   1      37.150  30.211  28.996  1.00  0.00     0.060 A 
BRANCH  90  91
ATOM     91  S   UNL A   1      35.843  31.452  28.842  1.00  0.00     0.124 S 
ATOM     92  O   UNL A   1      34.887  30.775  27.971  1.00  0.00    -0.237 OA
ATOM     93  O   UNL A   1      35.418  31.623  30.227  1.00  0.00    -0.237 OA
ATOM     94  O   UNL A   1      36.526  32.600  28.252  1.00  0.00    -0.744 OA
ENDBRANCH  90  91
ENDBRANCH  58  83
BRANCH  70  95
ATOM     95  C   UNL A   1      44.755  26.921  32.329  1.00  0.00     0.058 A 
ATOM     96  C   UNL A   1      44.597  25.601  31.881  1.00  0.00     0.135 A 
ATOM     97  C   UNL A   1      44.543  27.157  33.701  1.00  0.00     0.135 A 
ATOM     98  F   UNL A   1      44.733  25.315  30.576  1.00  0.00    -0.206 F 
ATOM     99  C   UNL A   1      44.235  24.568  32.739  1.00  0.00     0.059 A 
ATOM    100  C   UNL A   1      44.212  26.129  34.589  1.00  0.00     0.059 A 
ATOM    101  F   UNL A   1      44.585  28.399  34.201  1.00  0.00    -0.206 F 
ATOM    102  C   UNL A   1      44.044  24.838  34.092  1.00  0.00     0.060 A 
BRANCH 102 103
ATOM    103  S   UNL A   1      43.545  23.477  35.168  1.00  0.00     0.124 S 
ATOM    104  O   UNL A   1      43.648  22.329  34.271  1.00  0.00    -0.237 OA
ATOM    105  O   UNL A   1      44.546  23.536  36.229  1.00  0.00    -0.237 OA
ATOM    106  O   UNL A   1      42.187  23.830  35.573  1.00  0.00    -0.744 OA
ENDBRANCH 102 103
ENDBRANCH  70  95
ENDBRANCH  44  45
ENDBRANCH  36  39
ENDBRANCH  34  35
ENDBRANCH  33  34
ENDBRANCH   1  33
TORSDOF 18
ENDMDL
