MODEL 1
REMARK VINA RESULT:     -11.6      0.000      0.000
REMARK SMILES COc1cccc([C@@H]2CC(c3cccc(C)c3)=NN2C(=O)CCC(=O)NCCCCCCNC(=O)c2ccc(-c3c4nc(c(-c5c(F)cc(S(=O)(=O)[O-])cc5F)c5ccc([nH]5)c(-c5c(F)cc(S(=O)(=O)[O-])cc5F)c5nc(c(-c6c(F)cc(S(=O)(=O)[O-])cc6F)c6ccc3[nH]6)C=C5)C=C4)cc2)c1
REMARK SMILES IDX 28 1 27 2 26 3 24 4 25 5 23 7 22 8 20 9 21 10 19 11 8 12
REMARK SMILES IDX 9 13 10 14 18 15 7 16 3 17 4 18 102 19 5 20 6 21 2 22 1 23
REMARK SMILES IDX 11 24 12 25 17 26 13 27 15 28 14 29 16 30 29 31 30 32 31 33
REMARK SMILES IDX 32 34 33 35 34 36 35 38 36 39 37 40 101 41 38 42 100 43
REMARK SMILES IDX 39 44 40 45 41 46 94 47 42 48 99 49 93 50 95 51 43 52 98 53
REMARK SMILES IDX 92 54 91 55 44 57 78 58 57 59 77 60 58 61 61 62 76 63 96 64
REMARK SMILES IDX 59 65 60 66 75 68 97 69 62 70 45 71 46 72 55 73 47 74 48 75
REMARK SMILES IDX 54 76 56 77 49 78 50 79 51 80 52 81 53 82 79 83 80 84 89 85
REMARK SMILES IDX 81 86 82 87 88 88 90 89 83 90 84 91 85 92 86 93 87 94 63 95
REMARK SMILES IDX 64 96 73 97 65 98 66 99 72 100 74 101 67 102 68 103 69 104
REMARK SMILES IDX 70 105 71 106
REMARK H PARENT 26 6 33 37 95 56 61 67
REMARK Flexibility Score: inf
ROOT
ATOM      1  C   UNL A   1      34.233  20.232  24.931  1.00  0.00     0.021 C 
ENDROOT
BRANCH   1   2
ATOM      2  C   UNL A   1      32.828  20.821  24.805  1.00  0.00     0.116 C 
BRANCH   2   3
ATOM      3  N   UNL A   1      32.172  20.727  23.512  1.00  0.00    -0.356 N 
ATOM      4  C   UNL A   1      32.337  21.462  22.382  1.00  0.00     0.220 C 
ATOM      5  O   UNL A   1      31.874  21.038  21.319  1.00  0.00    -0.275 OA
ATOM      6  H   UNL A   1      31.497  20.013  23.444  1.00  0.00     0.163 HD
BRANCH   4   7
ATOM      7  C   UNL A   1      32.982  22.825  22.450  1.00  0.00     0.110 C 
BRANCH   7   8
ATOM      8  C   UNL A   1      31.971  23.919  22.105  1.00  0.00     0.112 C 
BRANCH   8   9
ATOM      9  C   UNL A   1      32.648  25.277  22.050  1.00  0.00     0.243 C 
ATOM     10  O   UNL A   1      33.646  25.420  21.343  1.00  0.00    -0.273 OA
BRANCH   9  11
ATOM     11  N   UNL A   1      32.145  26.254  22.897  1.00  0.00    -0.225 N 
ATOM     12  C   UNL A   1      32.651  26.629  24.224  1.00  0.00     0.147 C 
ATOM     13  C   UNL A   1      31.748  27.787  24.648  1.00  0.00     0.091 C 
ATOM     14  C   UNL A   1      30.746  27.744  23.535  1.00  0.00     0.071 C 
ATOM     15  N   UNL A   1      30.954  26.860  22.613  1.00  0.00    -0.174 NA
BRANCH  12  16
ATOM     16  C   UNL A   1      32.600  25.390  25.109  1.00  0.00    -0.019 A 
ATOM     17  C   UNL A   1      31.325  24.063  26.697  1.00  0.00     0.119 A 
ATOM     18  C   UNL A   1      32.517  23.530  27.194  1.00  0.00     0.046 A 
ATOM     19  C   UNL A   1      31.370  24.978  25.644  1.00  0.00     0.052 A 
ATOM     20  C   UNL A   1      33.742  23.884  26.634  1.00  0.00     0.004 A 
ATOM     21  C   UNL A   1      33.784  24.799  25.588  1.00  0.00     0.006 A 
BRANCH  17  22
ATOM     22  O   UNL A   1      30.195  23.653  27.350  1.00  0.00    -0.497 OA
ATOM     23  C   UNL A   1      29.574  22.468  26.867  1.00  0.00     0.278 C 
ENDBRANCH  17  22
ENDBRANCH  12  16
BRANCH  14  24
ATOM     24  C   UNL A   1      29.595  28.650  23.491  1.00  0.00    -0.002 A 
ATOM     25  C   UNL A   1      28.353  28.111  23.154  1.00  0.00     0.010 A 
ATOM     26  C   UNL A   1      29.773  30.034  23.616  1.00  0.00     0.013 A 
ATOM     27  C   UNL A   1      27.262  28.958  22.995  1.00  0.00     0.001 A 
ATOM     28  C   UNL A   1      28.681  30.892  23.419  1.00  0.00    -0.050 A 
ATOM     29  C   UNL A   1      27.425  30.337  23.139  1.00  0.00     0.003 A 
ATOM     30  C   UNL A   1      28.849  32.384  23.363  1.00  0.00     0.044 C 
ENDBRANCH  14  24
ENDBRANCH   9  11
ENDBRANCH   8   9
ENDBRANCH   7   8
ENDBRANCH   4   7
ENDBRANCH   2   3
ENDBRANCH   1   2
BRANCH   1  31
ATOM     31  C   UNL A   1      35.408  21.132  25.335  1.00  0.00     0.002 C 
BRANCH  31  32
ATOM     32  C   UNL A   1      36.427  21.518  24.260  1.00  0.00     0.002 C 
BRANCH  32  33
ATOM     33  C   UNL A   1      36.758  23.006  24.220  1.00  0.00     0.021 C 
BRANCH  33  34
ATOM     34  C   UNL A   1      37.492  23.480  25.465  1.00  0.00     0.116 C 
BRANCH  34  35
ATOM     35  N   UNL A   1      38.725  22.745  25.747  1.00  0.00    -0.352 N 
ATOM     36  C   UNL A   1      39.826  23.226  26.428  1.00  0.00     0.251 C 
ATOM     37  H   UNL A   1      38.773  21.818  25.419  1.00  0.00     0.163 HD
ATOM     38  O   UNL A   1      40.869  22.603  26.542  1.00  0.00    -0.269 OA
BRANCH  36  39
ATOM     39  C   UNL A   1      39.709  24.587  26.970  1.00  0.00     0.039 A 
ATOM     40  C   UNL A   1      39.186  24.739  28.254  1.00  0.00     0.014 A 
ATOM     41  C   UNL A   1      40.366  25.629  26.312  1.00  0.00     0.014 A 
ATOM     42  C   UNL A   1      39.437  25.921  28.939  1.00  0.00     0.010 A 
ATOM     43  C   UNL A   1      40.691  26.766  27.030  1.00  0.00     0.010 A 
ATOM     44  C   UNL A   1      40.251  26.905  28.355  1.00  0.00    -0.014 A 
BRANCH  44  45
ATOM     45  C   UNL A   1      40.681  28.084  29.135  1.00  0.00     0.031 A 
ATOM     46  C   UNL A   1      42.052  28.093  29.736  1.00  0.00     0.074 A 
ATOM     47  C   UNL A   1      39.807  29.089  29.345  1.00  0.00     0.049 A 
ATOM     48  N   UNL A   1      42.614  28.997  30.492  1.00  0.00    -0.248 NA
ATOM     49  C   UNL A   1      42.893  26.909  29.484  1.00  0.00     0.031 C 
ATOM     50  C   UNL A   1      38.425  29.125  28.858  1.00  0.00     0.029 A 
ATOM     51  N   UNL A   1      39.947  30.271  30.023  1.00  0.00    -0.354 N 
ATOM     52  C   UNL A   1      43.863  28.485  30.818  1.00  0.00     0.074 A 
ATOM     53  C   UNL A   1      43.954  27.167  30.232  1.00  0.00     0.031 C 
ATOM     54  C   UNL A   1      37.856  30.285  29.223  1.00  0.00     0.029 A 
ATOM     55  C   UNL A   1      38.820  31.062  29.993  1.00  0.00     0.049 A 
ATOM     56  H   UNL A   1      40.774  30.531  30.487  1.00  0.00     0.167 HD
ATOM     57  C   UNL A   1      44.854  29.079  31.520  1.00  0.00     0.037 A 
ATOM     58  C   UNL A   1      38.604  32.280  30.526  1.00  0.00     0.037 A 
ATOM     59  C   UNL A   1      44.744  30.404  32.065  1.00  0.00     0.049 A 
ATOM     60  C   UNL A   1      39.737  32.941  31.263  1.00  0.00     0.074 A 
ATOM     61  C   UNL A   1      45.691  31.136  32.755  1.00  0.00     0.029 A 
ATOM     62  N   UNL A   1      43.606  31.198  31.974  1.00  0.00    -0.354 N 
ATOM     63  N   UNL A   1      40.939  32.474  31.507  1.00  0.00    -0.248 NA
ATOM     64  C   UNL A   1      39.495  34.291  31.788  1.00  0.00     0.031 C 
ATOM     65  C   UNL A   1      45.116  32.363  33.105  1.00  0.00     0.029 A 
ATOM     66  C   UNL A   1      43.824  32.411  32.600  1.00  0.00     0.049 A 
ATOM     67  H   UNL A   1      42.769  30.935  31.529  1.00  0.00     0.167 HD
ATOM     68  C   UNL A   1      41.607  33.479  32.196  1.00  0.00     0.074 A 
ATOM     69  C   UNL A   1      40.676  34.584  32.317  1.00  0.00     0.031 C 
ATOM     70  C   UNL A   1      42.871  33.490  32.686  1.00  0.00     0.037 A 
BRANCH  57  71
ATOM     71  C   UNL A   1      46.121  28.297  31.717  1.00  0.00     0.058 A 
ATOM     72  C   UNL A   1      47.151  28.311  30.761  1.00  0.00     0.135 A 
ATOM     73  C   UNL A   1      46.302  27.503  32.860  1.00  0.00     0.135 A 
ATOM     74  F   UNL A   1      47.021  29.035  29.638  1.00  0.00    -0.206 F 
ATOM     75  C   UNL A   1      48.294  27.531  30.909  1.00  0.00     0.059 A 
ATOM     76  C   UNL A   1      47.451  26.738  33.044  1.00  0.00     0.059 A 
ATOM     77  F   UNL A   1      45.349  27.448  33.803  1.00  0.00    -0.206 F 
ATOM     78  C   UNL A   1      48.432  26.743  32.052  1.00  0.00     0.060 A 
BRANCH  78  79
ATOM     79  S   UNL A   1      49.912  25.724  32.223  1.00  0.00     0.124 S 
ATOM     80  O   UNL A   1      50.476  25.805  30.878  1.00  0.00    -0.237 OA
ATOM     81  O   UNL A   1      50.657  26.425  33.264  1.00  0.00    -0.237 OA
ATOM     82  O   UNL A   1      49.383  24.418  32.605  1.00  0.00    -0.744 OA
ENDBRANCH  78  79
ENDBRANCH  57  71
BRANCH  58  83
ATOM     83  C   UNL A   1      37.291  32.957  30.341  1.00  0.00     0.058 A 
ATOM     84  C   UNL A   1      36.347  33.000  31.377  1.00  0.00     0.135 A 
ATOM     85  C   UNL A   1      36.965  33.606  29.138  1.00  0.00     0.135 A 
ATOM     86  F   UNL A   1      36.607  32.395  32.546  1.00  0.00    -0.206 F 
ATOM     87  C   UNL A   1      35.124  33.649  31.228  1.00  0.00     0.059 A 
ATOM     88  C   UNL A   1      35.757  34.280  28.972  1.00  0.00     0.059 A 
ATOM     89  F   UNL A   1      37.839  33.614  28.121  1.00  0.00    -0.206 F 
ATOM     90  C   UNL A   1      34.840  34.290  30.021  1.00  0.00     0.060 A 
BRANCH  90  91
ATOM     91  S   UNL A   1      33.275  35.181  29.859  1.00  0.00     0.124 S 
ATOM     92  O   UNL A   1      32.674  34.514  28.710  1.00  0.00    -0.237 OA
ATOM     93  O   UNL A   1      32.642  34.929  31.149  1.00  0.00    -0.237 OA
ATOM     94  O   UNL A   1      33.697  36.561  29.638  1.00  0.00    -0.744 OA
ENDBRANCH  90  91
ENDBRANCH  58  83
BRANCH  70  95
ATOM     95  C   UNL A   1      43.327  34.743  33.373  1.00  0.00     0.058 A 
ATOM     96  C   UNL A   1      43.708  35.879  32.643  1.00  0.00     0.135 A 
ATOM     97  C   UNL A   1      43.299  34.833  34.773  1.00  0.00     0.135 A 
ATOM     98  F   UNL A   1      43.755  35.837  31.302  1.00  0.00    -0.206 F 
ATOM     99  C   UNL A   1      44.055  37.062  33.282  1.00  0.00     0.059 A 
ATOM    100  C   UNL A   1      43.620  36.014  35.431  1.00  0.00     0.059 A 
ATOM    101  F   UNL A   1      42.932  33.774  35.512  1.00  0.00    -0.206 F 
ATOM    102  C   UNL A   1      44.002  37.122  34.676  1.00  0.00     0.060 A 
BRANCH 102 103
ATOM    103  S   UNL A   1      44.397  38.683  35.490  1.00  0.00     0.124 S 
ATOM    104  O   UNL A   1      43.748  38.510  36.785  1.00  0.00    -0.237 OA
ATOM    105  O   UNL A   1      45.857  38.669  35.506  1.00  0.00    -0.237 OA
ATOM    106  O   UNL A   1      43.795  39.684  34.614  1.00  0.00    -0.744 OA
ENDBRANCH 102 103
ENDBRANCH  70  95
ENDBRANCH  44  45
ENDBRANCH  36  39
ENDBRANCH  34  35
ENDBRANCH  33  34
ENDBRANCH  32  33
ENDBRANCH  31  32
ENDBRANCH   1  31
TORSDOF 22
ENDMDL
MODEL 2
REMARK VINA RESULT:     -11.3      3.135      4.424
REMARK SMILES COc1cccc([C@@H]2CC(c3cccc(C)c3)=NN2C(=O)CCC(=O)NCCCCCCNC(=O)c2ccc(-c3c4nc(c(-c5c(F)cc(S(=O)(=O)[O-])cc5F)c5ccc([nH]5)c(-c5c(F)cc(S(=O)(=O)[O-])cc5F)c5nc(c(-c6c(F)cc(S(=O)(=O)[O-])cc6F)c6ccc3[nH]6)C=C5)C=C4)cc2)c1
REMARK SMILES IDX 28 1 27 2 26 3 24 4 25 5 23 7 22 8 20 9 21 10 19 11 8 12
REMARK SMILES IDX 9 13 10 14 18 15 7 16 3 17 4 18 102 19 5 20 6 21 2 22 1 23
REMARK SMILES IDX 11 24 12 25 17 26 13 27 15 28 14 29 16 30 29 31 30 32 31 33
REMARK SMILES IDX 32 34 33 35 34 36 35 38 36 39 37 40 101 41 38 42 100 43
REMARK SMILES IDX 39 44 40 45 41 46 94 47 42 48 99 49 93 50 95 51 43 52 98 53
REMARK SMILES IDX 92 54 91 55 44 57 78 58 57 59 77 60 58 61 61 62 76 63 96 64
REMARK SMILES IDX 59 65 60 66 75 68 97 69 62 70 45 71 46 72 55 73 47 74 48 75
REMARK SMILES IDX 54 76 56 77 49 78 50 79 51 80 52 81 53 82 79 83 80 84 89 85
REMARK SMILES IDX 81 86 82 87 88 88 90 89 83 90 84 91 85 92 86 93 87 94 63 95
REMARK SMILES IDX 64 96 73 97 65 98 66 99 72 100 74 101 67 102 68 103 69 104
REMARK SMILES IDX 70 105 71 106
REMARK H PARENT 26 6 33 37 95 56 61 67
REMARK Flexibility Score: inf
ROOT
ATOM      1  C   UNL A   1      39.655  23.016  27.125  1.00  0.00     0.021 C 
ENDROOT
BRANCH   1   2
ATOM      2  C   UNL A   1      38.503  23.052  26.120  1.00  0.00     0.116 C 
BRANCH   2   3
ATOM      3  N   UNL A   1      37.731  21.834  25.938  1.00  0.00    -0.356 N 
ATOM      4  C   UNL A   1      36.586  21.610  25.243  1.00  0.00     0.220 C 
ATOM      5  O   UNL A   1      36.252  20.447  24.998  1.00  0.00    -0.275 OA
ATOM      6  H   UNL A   1      38.098  21.042  26.392  1.00  0.00     0.163 HD
BRANCH   4   7
ATOM      7  C   UNL A   1      35.683  22.763  24.873  1.00  0.00     0.110 C 
BRANCH   7   8
ATOM      8  C   UNL A   1      35.493  23.704  26.062  1.00  0.00     0.112 C 
BRANCH   8   9
ATOM      9  C   UNL A   1      34.208  23.378  26.803  1.00  0.00     0.243 C 
ATOM     10  O   UNL A   1      34.207  22.458  27.623  1.00  0.00    -0.273 OA
BRANCH   9  11
ATOM     11  N   UNL A   1      33.077  24.086  26.423  1.00  0.00    -0.225 N 
ATOM     12  C   UNL A   1      31.720  23.559  26.228  1.00  0.00     0.147 C 
ATOM     13  C   UNL A   1      30.893  24.795  25.874  1.00  0.00     0.091 C 
ATOM     14  C   UNL A   1      31.994  25.805  25.748  1.00  0.00     0.071 C 
ATOM     15  N   UNL A   1      33.189  25.381  26.002  1.00  0.00    -0.174 NA
BRANCH  12  16
ATOM     16  C   UNL A   1      31.789  22.478  25.157  1.00  0.00    -0.019 A 
ATOM     17  C   UNL A   1      32.216  20.143  24.632  1.00  0.00     0.119 A 
ATOM     18  C   UNL A   1      32.519  20.504  23.317  1.00  0.00     0.046 A 
ATOM     19  C   UNL A   1      31.834  21.129  25.543  1.00  0.00     0.052 A 
ATOM     20  C   UNL A   1      32.420  21.830  22.903  1.00  0.00     0.004 A 
ATOM     21  C   UNL A   1      32.044  22.812  23.814  1.00  0.00     0.006 A 
BRANCH  17  22
ATOM     22  O   UNL A   1      32.377  18.815  24.915  1.00  0.00    -0.497 OA
ATOM     23  C   UNL A   1      33.381  18.124  24.182  1.00  0.00     0.278 C 
ENDBRANCH  17  22
ENDBRANCH  12  16
BRANCH  14  24
ATOM     24  C   UNL A   1      31.732  27.193  25.360  1.00  0.00    -0.002 A 
ATOM     25  C   UNL A   1      32.085  28.199  26.259  1.00  0.00     0.010 A 
ATOM     26  C   UNL A   1      30.999  27.482  24.202  1.00  0.00     0.013 A 
ATOM     27  C   UNL A   1      31.753  29.518  25.973  1.00  0.00     0.001 A 
ATOM     28  C   UNL A   1      30.630  28.808  23.931  1.00  0.00    -0.050 A 
ATOM     29  C   UNL A   1      31.041  29.819  24.810  1.00  0.00     0.003 A 
ATOM     30  C   UNL A   1      29.696  29.155  22.806  1.00  0.00     0.044 C 
ENDBRANCH  14  24
ENDBRANCH   9  11
ENDBRANCH   8   9
ENDBRANCH   7   8
ENDBRANCH   4   7
ENDBRANCH   2   3
ENDBRANCH   1   2
BRANCH   1  31
ATOM     31  C   UNL A   1      40.706  21.901  27.046  1.00  0.00     0.002 C 
BRANCH  31  32
ATOM     32  C   UNL A   1      41.945  22.009  27.938  1.00  0.00     0.002 C 
BRANCH  32  33
ATOM     33  C   UNL A   1      42.010  23.290  28.762  1.00  0.00     0.021 C 
BRANCH  33  34
ATOM     34  C   UNL A   1      43.022  24.289  28.219  1.00  0.00     0.116 C 
BRANCH  34  35
ATOM     35  N   UNL A   1      42.997  24.432  26.764  1.00  0.00    -0.352 N 
ATOM     36  C   UNL A   1      42.383  25.444  26.052  1.00  0.00     0.251 C 
ATOM     37  H   UNL A   1      43.463  23.740  26.242  1.00  0.00     0.163 HD
ATOM     38  O   UNL A   1      42.304  25.455  24.835  1.00  0.00    -0.269 OA
BRANCH  36  39
ATOM     39  C   UNL A   1      41.751  26.505  26.849  1.00  0.00     0.039 A 
ATOM     40  C   UNL A   1      40.672  26.159  27.662  1.00  0.00     0.014 A 
ATOM     41  C   UNL A   1      42.408  27.731  26.975  1.00  0.00     0.014 A 
ATOM     42  C   UNL A   1      40.326  27.009  28.705  1.00  0.00     0.010 A 
ATOM     43  C   UNL A   1      42.120  28.528  28.069  1.00  0.00     0.010 A 
ATOM     44  C   UNL A   1      41.095  28.157  28.953  1.00  0.00    -0.014 A 
BRANCH  44  45
ATOM     45  C   UNL A   1      40.861  28.971  30.163  1.00  0.00     0.031 A 
ATOM     46  C   UNL A   1      41.706  28.730  31.375  1.00  0.00     0.074 A 
ATOM     47  C   UNL A   1      39.849  29.862  30.170  1.00  0.00     0.049 A 
ATOM     48  N   UNL A   1      41.640  29.292  32.550  1.00  0.00    -0.248 NA
ATOM     49  C   UNL A   1      42.742  27.688  31.260  1.00  0.00     0.031 C 
ATOM     50  C   UNL A   1      38.927  30.107  29.055  1.00  0.00     0.029 A 
ATOM     51  N   UNL A   1      39.420  30.725  31.144  1.00  0.00    -0.354 N 
ATOM     52  C   UNL A   1      42.612  28.663  33.318  1.00  0.00     0.074 A 
ATOM     53  C   UNL A   1      43.209  27.635  32.497  1.00  0.00     0.031 C 
ATOM     54  C   UNL A   1      38.066  31.079  29.397  1.00  0.00     0.029 A 
ATOM     55  C   UNL A   1      38.354  31.507  30.761  1.00  0.00     0.049 A 
ATOM     56  H   UNL A   1      39.836  30.781  32.034  1.00  0.00     0.167 HD
ATOM     57  C   UNL A   1      42.987  28.944  34.586  1.00  0.00     0.037 A 
ATOM     58  C   UNL A   1      37.695  32.464  31.441  1.00  0.00     0.037 A 
ATOM     59  C   UNL A   1      42.393  29.994  35.367  1.00  0.00     0.049 A 
ATOM     60  C   UNL A   1      38.160  32.791  32.834  1.00  0.00     0.074 A 
ATOM     61  C   UNL A   1      42.714  30.408  36.645  1.00  0.00     0.029 A 
ATOM     62  N   UNL A   1      41.347  30.800  34.931  1.00  0.00    -0.354 N 
ATOM     63  N   UNL A   1      39.126  32.234  33.527  1.00  0.00    -0.248 NA
ATOM     64  C   UNL A   1      37.461  33.874  33.536  1.00  0.00     0.031 C 
ATOM     65  C   UNL A   1      41.845  31.448  36.993  1.00  0.00     0.029 A 
ATOM     66  C   UNL A   1      41.007  31.707  35.916  1.00  0.00     0.049 A 
ATOM     67  H   UNL A   1      40.914  30.734  34.050  1.00  0.00     0.167 HD
ATOM     68  C   UNL A   1      39.167  32.912  34.739  1.00  0.00     0.074 A 
ATOM     69  C   UNL A   1      38.136  33.929  34.678  1.00  0.00     0.031 C 
ATOM     70  C   UNL A   1      39.979  32.713  35.807  1.00  0.00     0.037 A 
BRANCH  57  71
ATOM     71  C   UNL A   1      44.084  28.106  35.179  1.00  0.00     0.058 A 
ATOM     72  C   UNL A   1      43.807  26.931  35.898  1.00  0.00     0.135 A 
ATOM     73  C   UNL A   1      45.428  28.493  35.055  1.00  0.00     0.135 A 
ATOM     74  F   UNL A   1      42.537  26.526  36.068  1.00  0.00    -0.206 F 
ATOM     75  C   UNL A   1      44.816  26.194  36.508  1.00  0.00     0.059 A 
ATOM     76  C   UNL A   1      46.457  27.754  35.632  1.00  0.00     0.059 A 
ATOM     77  F   UNL A   1      45.751  29.610  34.384  1.00  0.00    -0.206 F 
ATOM     78  C   UNL A   1      46.139  26.617  36.374  1.00  0.00     0.060 A 
BRANCH  78  79
ATOM     79  S   UNL A   1      47.437  25.660  37.185  1.00  0.00     0.124 S 
ATOM     80  O   UNL A   1      47.510  24.483  36.325  1.00  0.00    -0.237 OA
ATOM     81  O   UNL A   1      48.581  26.564  37.119  1.00  0.00    -0.237 OA
ATOM     82  O   UNL A   1      46.902  25.428  38.523  1.00  0.00    -0.744 OA
ENDBRANCH  78  79
ENDBRANCH  57  71
BRANCH  58  83
ATOM     83  C   UNL A   1      36.570  33.200  30.801  1.00  0.00     0.058 A 
ATOM     84  C   UNL A   1      35.246  33.004  31.220  1.00  0.00     0.135 A 
ATOM     85  C   UNL A   1      36.796  34.140  29.781  1.00  0.00     0.135 A 
ATOM     86  F   UNL A   1      34.974  32.117  32.189  1.00  0.00    -0.206 F 
ATOM     87  C   UNL A   1      34.185  33.701  30.647  1.00  0.00     0.059 A 
ATOM     88  C   UNL A   1      35.754  34.865  29.207  1.00  0.00     0.059 A 
ATOM     89  F   UNL A   1      38.045  34.381  29.355  1.00  0.00    -0.206 F 
ATOM     90  C   UNL A   1      34.451  34.634  29.642  1.00  0.00     0.060 A 
BRANCH  90  91
ATOM     91  S   UNL A   1      33.074  35.577  28.947  1.00  0.00     0.124 S 
ATOM     92  O   UNL A   1      33.769  36.703  28.334  1.00  0.00    -0.237 OA
ATOM     93  O   UNL A   1      32.476  34.616  28.027  1.00  0.00    -0.237 OA
ATOM     94  O   UNL A   1      32.263  35.897  30.118  1.00  0.00    -0.744 OA
ENDBRANCH  90  91
ENDBRANCH  58  83
BRANCH  70  95
ATOM     95  C   UNL A   1      39.801  33.630  36.981  1.00  0.00     0.058 A 
ATOM     96  C   UNL A   1      40.489  34.850  37.066  1.00  0.00     0.135 A 
ATOM     97  C   UNL A   1      38.869  33.323  37.984  1.00  0.00     0.135 A 
ATOM     98  F   UNL A   1      41.395  35.182  36.133  1.00  0.00    -0.206 F 
ATOM     99  C   UNL A   1      40.264  35.732  38.115  1.00  0.00     0.059 A 
ATOM    100  C   UNL A   1      38.612  34.201  39.029  1.00  0.00     0.059 A 
ATOM    101  F   UNL A   1      38.180  32.171  37.937  1.00  0.00    -0.206 F 
ATOM    102  C   UNL A   1      39.319  35.402  39.088  1.00  0.00     0.060 A 
BRANCH 102 103
ATOM    103  S   UNL A   1      38.992  36.584  40.412  1.00  0.00     0.124 S 
ATOM    104  O   UNL A   1      37.983  35.877  41.193  1.00  0.00    -0.237 OA
ATOM    105  O   UNL A   1      40.302  36.719  41.043  1.00  0.00    -0.237 OA
ATOM    106  O   UNL A   1      38.521  37.768  39.700  1.00  0.00    -0.744 OA
ENDBRANCH 102 103
ENDBRANCH  70  95
ENDBRANCH  44  45
ENDBRANCH  36  39
ENDBRANCH  34  35
ENDBRANCH  33  34
ENDBRANCH  32  33
ENDBRANCH  31  32
ENDBRANCH   1  31
TORSDOF 22
ENDMDL
MODEL 3
REMARK VINA RESULT:     -11.0      4.487     10.592
REMARK SMILES COc1cccc([C@@H]2CC(c3cccc(C)c3)=NN2C(=O)CCC(=O)NCCCCCCNC(=O)c2ccc(-c3c4nc(c(-c5c(F)cc(S(=O)(=O)[O-])cc5F)c5ccc([nH]5)c(-c5c(F)cc(S(=O)(=O)[O-])cc5F)c5nc(c(-c6c(F)cc(S(=O)(=O)[O-])cc6F)c6ccc3[nH]6)C=C5)C=C4)cc2)c1
REMARK SMILES IDX 28 1 27 2 26 3 24 4 25 5 23 7 22 8 20 9 21 10 19 11 8 12
REMARK SMILES IDX 9 13 10 14 18 15 7 16 3 17 4 18 102 19 5 20 6 21 2 22 1 23
REMARK SMILES IDX 11 24 12 25 17 26 13 27 15 28 14 29 16 30 29 31 30 32 31 33
REMARK SMILES IDX 32 34 33 35 34 36 35 38 36 39 37 40 101 41 38 42 100 43
REMARK SMILES IDX 39 44 40 45 41 46 94 47 42 48 99 49 93 50 95 51 43 52 98 53
REMARK SMILES IDX 92 54 91 55 44 57 78 58 57 59 77 60 58 61 61 62 76 63 96 64
REMARK SMILES IDX 59 65 60 66 75 68 97 69 62 70 45 71 46 72 55 73 47 74 48 75
REMARK SMILES IDX 54 76 56 77 49 78 50 79 51 80 52 81 53 82 79 83 80 84 89 85
REMARK SMILES IDX 81 86 82 87 88 88 90 89 83 90 84 91 85 92 86 93 87 94 63 95
REMARK SMILES IDX 64 96 73 97 65 98 66 99 72 100 74 101 67 102 68 103 69 104
REMARK SMILES IDX 70 105 71 106
REMARK H PARENT 26 6 33 37 95 56 61 67
REMARK Flexibility Score: inf
ROOT
ATOM      1  C   UNL A   1      34.547  34.179  29.283  1.00  0.00     0.021 C 
ENDROOT
BRANCH   1   2
ATOM      2  C   UNL A   1      34.729  33.412  27.972  1.00  0.00     0.116 C 
BRANCH   2   3
ATOM      3  N   UNL A   1      35.341  32.094  28.043  1.00  0.00    -0.356 N 
ATOM      4  C   UNL A   1      34.870  30.881  27.657  1.00  0.00     0.220 C 
ATOM      5  O   UNL A   1      35.659  29.936  27.559  1.00  0.00    -0.275 OA
ATOM      6  H   UNL A   1      36.244  32.080  28.434  1.00  0.00     0.163 HD
BRANCH   4   7
ATOM      7  C   UNL A   1      33.388  30.668  27.459  1.00  0.00     0.110 C 
BRANCH   7   8
ATOM      8  C   UNL A   1      33.114  29.994  26.115  1.00  0.00     0.112 C 
BRANCH   8   9
ATOM      9  C   UNL A   1      32.469  28.634  26.320  1.00  0.00     0.243 C 
ATOM     10  O   UNL A   1      31.614  28.503  27.196  1.00  0.00    -0.273 OA
BRANCH   9  11
ATOM     11  N   UNL A   1      32.973  27.589  25.558  1.00  0.00    -0.225 N 
ATOM     12  C   UNL A   1      33.069  27.520  24.094  1.00  0.00     0.147 C 
ATOM     13  C   UNL A   1      33.750  26.175  23.834  1.00  0.00     0.091 C 
ATOM     14  C   UNL A   1      33.755  25.623  25.227  1.00  0.00     0.071 C 
ATOM     15  N   UNL A   1      33.275  26.394  26.149  1.00  0.00    -0.174 NA
BRANCH  12  16
ATOM     16  C   UNL A   1      31.664  27.671  23.527  1.00  0.00    -0.019 A 
ATOM     17  C   UNL A   1      29.993  29.158  22.573  1.00  0.00     0.119 A 
ATOM     18  C   UNL A   1      28.988  28.284  22.996  1.00  0.00     0.046 A 
ATOM     19  C   UNL A   1      31.329  28.840  22.824  1.00  0.00     0.052 A 
ATOM     20  C   UNL A   1      29.308  27.092  23.641  1.00  0.00     0.004 A 
ATOM     21  C   UNL A   1      30.640  26.780  23.894  1.00  0.00     0.006 A 
BRANCH  17  22
ATOM     22  O   UNL A   1      29.545  30.304  21.976  1.00  0.00    -0.497 OA
ATOM     23  C   UNL A   1      28.206  30.291  21.496  1.00  0.00     0.278 C 
ENDBRANCH  17  22
ENDBRANCH  12  16
BRANCH  14  24
ATOM     24  C   UNL A   1      34.272  24.287  25.530  1.00  0.00    -0.002 A 
ATOM     25  C   UNL A   1      33.579  23.514  26.462  1.00  0.00     0.010 A 
ATOM     26  C   UNL A   1      35.513  23.872  25.027  1.00  0.00     0.013 A 
ATOM     27  C   UNL A   1      34.101  22.288  26.855  1.00  0.00     0.001 A 
ATOM     28  C   UNL A   1      36.058  22.652  25.451  1.00  0.00    -0.050 A 
ATOM     29  C   UNL A   1      35.326  21.856  26.343  1.00  0.00     0.003 A 
ATOM     30  C   UNL A   1      37.457  22.242  25.087  1.00  0.00     0.044 C 
ENDBRANCH  14  24
ENDBRANCH   9  11
ENDBRANCH   8   9
ENDBRANCH   7   8
ENDBRANCH   4   7
ENDBRANCH   2   3
ENDBRANCH   1   2
BRANCH   1  31
ATOM     31  C   UNL A   1      34.413  33.414  30.606  1.00  0.00     0.002 C 
BRANCH  31  32
ATOM     32  C   UNL A   1      35.104  33.987  31.846  1.00  0.00     0.002 C 
BRANCH  32  33
ATOM     33  C   UNL A   1      36.611  33.757  31.882  1.00  0.00     0.021 C 
BRANCH  33  34
ATOM     34  C   UNL A   1      36.997  32.499  32.647  1.00  0.00     0.116 C 
BRANCH  34  35
ATOM     35  N   UNL A   1      36.295  31.294  32.207  1.00  0.00    -0.352 N 
ATOM     36  C   UNL A   1      36.796  30.314  31.372  1.00  0.00     0.251 C 
ATOM     37  H   UNL A   1      35.376  31.170  32.537  1.00  0.00     0.163 HD
ATOM     38  O   UNL A   1      36.128  29.384  30.953  1.00  0.00    -0.269 OA
BRANCH  36  39
ATOM     39  C   UNL A   1      38.192  30.481  30.944  1.00  0.00     0.039 A 
ATOM     40  C   UNL A   1      39.200  30.124  31.840  1.00  0.00     0.014 A 
ATOM     41  C   UNL A   1      38.455  30.719  29.593  1.00  0.00     0.014 A 
ATOM     42  C   UNL A   1      40.475  29.880  31.344  1.00  0.00     0.010 A 
ATOM     43  C   UNL A   1      39.701  30.386  29.091  1.00  0.00     0.010 A 
ATOM     44  C   UNL A   1      40.708  29.940  29.961  1.00  0.00    -0.014 A 
BRANCH  44  45
ATOM     45  C   UNL A   1      42.002  29.505  29.398  1.00  0.00     0.031 A 
ATOM     46  C   UNL A   1      43.112  30.503  29.276  1.00  0.00     0.074 A 
ATOM     47  C   UNL A   1      42.130  28.242  28.944  1.00  0.00     0.049 A 
ATOM     48  N   UNL A   1      44.305  30.350  28.770  1.00  0.00    -0.248 NA
ATOM     49  C   UNL A   1      42.829  31.868  29.754  1.00  0.00     0.031 C 
ATOM     50  C   UNL A   1      41.073  27.226  28.955  1.00  0.00     0.029 A 
ATOM     51  N   UNL A   1      43.200  27.596  28.382  1.00  0.00    -0.354 N 
ATOM     52  C   UNL A   1      44.907  31.599  28.854  1.00  0.00     0.074 A 
ATOM     53  C   UNL A   1      43.929  32.512  29.400  1.00  0.00     0.031 C 
ATOM     54  C   UNL A   1      41.557  26.076  28.458  1.00  0.00     0.029 A 
ATOM     55  C   UNL A   1      42.947  26.280  28.066  1.00  0.00     0.049 A 
ATOM     56  H   UNL A   1      44.067  28.031  28.219  1.00  0.00     0.167 HD
ATOM     57  C   UNL A   1      46.175  31.940  28.530  1.00  0.00     0.037 A 
ATOM     58  C   UNL A   1      43.757  25.349  27.527  1.00  0.00     0.037 A 
ATOM     59  C   UNL A   1      47.134  31.001  28.016  1.00  0.00     0.049 A 
ATOM     60  C   UNL A   1      45.177  25.739  27.218  1.00  0.00     0.074 A 
ATOM     61  C   UNL A   1      48.460  31.210  27.693  1.00  0.00     0.029 A 
ATOM     62  N   UNL A   1      46.859  29.663  27.754  1.00  0.00    -0.354 N 
ATOM     63  N   UNL A   1      45.756  26.908  27.364  1.00  0.00    -0.248 NA
ATOM     64  C   UNL A   1      46.057  24.694  26.681  1.00  0.00     0.031 C 
ATOM     65  C   UNL A   1      48.981  30.005  27.210  1.00  0.00     0.029 A 
ATOM     66  C   UNL A   1      47.990  29.035  27.268  1.00  0.00     0.049 A 
ATOM     67  H   UNL A   1      45.988  29.229  27.895  1.00  0.00     0.167 HD
ATOM     68  C   UNL A   1      47.074  26.736  26.959  1.00  0.00     0.074 A 
ATOM     69  C   UNL A   1      47.208  25.345  26.573  1.00  0.00     0.031 C 
ATOM     70  C   UNL A   1      48.081  27.641  26.907  1.00  0.00     0.037 A 
BRANCH  57  71
ATOM     71  C   UNL A   1      46.574  33.374  28.733  1.00  0.00     0.058 A 
ATOM     72  C   UNL A   1      46.431  34.329  27.712  1.00  0.00     0.135 A 
ATOM     73  C   UNL A   1      47.129  33.797  29.950  1.00  0.00     0.135 A 
ATOM     74  F   UNL A   1      45.927  33.974  26.519  1.00  0.00    -0.206 F 
ATOM     75  C   UNL A   1      46.866  35.640  27.874  1.00  0.00     0.059 A 
ATOM     76  C   UNL A   1      47.544  35.112  30.146  1.00  0.00     0.059 A 
ATOM     77  F   UNL A   1      47.294  32.927  30.958  1.00  0.00    -0.206 F 
ATOM     78  C   UNL A   1      47.427  36.021  29.094  1.00  0.00     0.060 A 
BRANCH  78  79
ATOM     79  S   UNL A   1      48.003  37.721  29.285  1.00  0.00     0.124 S 
ATOM     80  O   UNL A   1      49.260  37.687  28.542  1.00  0.00    -0.237 OA
ATOM     81  O   UNL A   1      46.925  38.489  28.669  1.00  0.00    -0.237 OA
ATOM     82  O   UNL A   1      48.132  37.876  30.731  1.00  0.00    -0.744 OA
ENDBRANCH  78  79
ENDBRANCH  57  71
BRANCH  58  83
ATOM     83  C   UNL A   1      43.259  23.965  27.294  1.00  0.00     0.058 A 
ATOM     84  C   UNL A   1      43.221  23.025  28.335  1.00  0.00     0.135 A 
ATOM     85  C   UNL A   1      42.778  23.562  26.037  1.00  0.00     0.135 A 
ATOM     86  F   UNL A   1      43.670  23.358  29.555  1.00  0.00    -0.206 F 
ATOM     87  C   UNL A   1      42.737  21.735  28.139  1.00  0.00     0.059 A 
ATOM     88  C   UNL A   1      42.269  22.283  25.822  1.00  0.00     0.059 A 
ATOM     89  F   UNL A   1      42.772  24.426  25.012  1.00  0.00    -0.206 F 
ATOM     90  C   UNL A   1      42.259  21.374  26.878  1.00  0.00     0.060 A 
BRANCH  90  91
ATOM     91  S   UNL A   1      41.576  19.715  26.650  1.00  0.00     0.124 S 
ATOM     92  O   UNL A   1      40.769  19.561  27.855  1.00  0.00    -0.237 OA
ATOM     93  O   UNL A   1      40.838  19.856  25.399  1.00  0.00    -0.237 OA
ATOM     94  O   UNL A   1      42.765  18.872  26.574  1.00  0.00    -0.744 OA
ENDBRANCH  90  91
ENDBRANCH  58  83
BRANCH  70  95
ATOM     95  C   UNL A   1      49.420  27.149  26.443  1.00  0.00     0.058 A 
ATOM     96  C   UNL A   1      50.378  26.670  27.348  1.00  0.00     0.135 A 
ATOM     97  C   UNL A   1      49.710  27.077  25.071  1.00  0.00     0.135 A 
ATOM     98  F   UNL A   1      50.146  26.725  28.670  1.00  0.00    -0.206 F 
ATOM     99  C   UNL A   1      51.585  26.142  26.909  1.00  0.00     0.059 A 
ATOM    100  C   UNL A   1      50.902  26.532  24.609  1.00  0.00     0.059 A 
ATOM    101  F   UNL A   1      48.819  27.515  24.167  1.00  0.00    -0.206 F 
ATOM    102  C   UNL A   1      51.835  26.072  25.537  1.00  0.00     0.060 A 
BRANCH 102 103
ATOM    103  S   UNL A   1      53.381  25.328  24.978  1.00  0.00     0.124 S 
ATOM    104  O   UNL A   1      53.138  23.914  25.242  1.00  0.00    -0.237 OA
ATOM    105  O   UNL A   1      53.422  25.712  23.569  1.00  0.00    -0.237 OA
ATOM    106  O   UNL A   1      54.388  25.962  25.823  1.00  0.00    -0.744 OA
ENDBRANCH 102 103
ENDBRANCH  70  95
ENDBRANCH  44  45
ENDBRANCH  36  39
ENDBRANCH  34  35
ENDBRANCH  33  34
ENDBRANCH  32  33
ENDBRANCH  31  32
ENDBRANCH   1  31
TORSDOF 22
ENDMDL
