MODEL 1
REMARK VINA RESULT:      -9.5      0.000      0.000
REMARK SMILES O=C(NCCCCCCNC(=O)c1ccc(-c2c3nc(c(-c4c(F)cc(S(=O)(=O)[O-])cc4F)c4ccc([nH]4)c(-c4c(F)cc(S(=O)(=O)[O-])cc4F)c4nc(c(-c5c(F)cc(S(=O)(=O)[O-])cc5F)c5ccc2[nH]5)C=C4)C=C3)cc1)C1=CN(c2ccccc2)C[NH2+][C@H]1c1ccc(NC(=S)NC(=O)c2cc3ccccc3o2)cc1
REMARK SMILES IDX 5 1 4 2 3 3 1 4 2 5 79 7 80 8 90 9 81 10 89 11 88 12 91 15
REMARK SMILES IDX 92 16 111 17 93 18 110 19 94 20 95 21 96 23 97 24 98 25
REMARK SMILES IDX 99 26 100 28 101 29 102 30 109 31 103 32 108 33 104 34
REMARK SMILES IDX 107 35 105 36 106 37 82 38 83 39 87 40 84 41 86 42 85 43
REMARK SMILES IDX 6 44 7 45 8 46 9 47 10 48 11 49 12 51 13 52 14 53 78 54
REMARK SMILES IDX 15 55 77 56 16 57 17 58 18 59 71 60 19 61 76 62 70 63 72 64
REMARK SMILES IDX 20 65 75 66 69 67 68 68 21 70 55 71 34 72 54 73 35 74 38 75
REMARK SMILES IDX 53 76 73 77 36 78 37 79 52 81 74 82 39 83 22 84 23 85 32 86
REMARK SMILES IDX 24 87 25 88 31 89 33 90 26 91 27 92 28 93 29 94 30 95 56 96
REMARK SMILES IDX 57 97 66 98 58 99 59 100 65 101 67 102 60 103 61 104 62 105
REMARK SMILES IDX 63 106 64 107 40 108 41 109 50 110 42 111 43 112 49 113
REMARK SMILES IDX 51 114 44 115 45 116 46 117 47 118 48 119
REMARK H PARENT 3 6 89 13 89 14 95 22 98 27 10 50 72 69 38 80
REMARK Flexibility Score: inf
ROOT
ATOM      1  C   UNL A   1      44.476  24.659  30.446  1.00  0.00     0.021 C 
ENDROOT
BRANCH   1   2
ATOM      2  C   UNL A   1      44.901  26.110  30.414  1.00  0.00     0.116 C 
BRANCH   2   3
ATOM      3  N   UNL A   1      46.350  26.224  30.446  1.00  0.00    -0.352 N 
ATOM      4  O   UNL A   1      48.425  26.129  29.639  1.00  0.00    -0.269 OA
ATOM      5  C   UNL A   1      47.225  26.264  29.414  1.00  0.00     0.255 C 
ATOM      6  H   UNL A   1      46.750  26.281  31.344  1.00  0.00     0.163 HD
BRANCH   5   7
ATOM      7  C   UNL A   1      46.673  26.404  28.051  1.00  0.00     0.095 C 
ATOM      8  C   UNL A   1      46.237  25.300  27.426  1.00  0.00     0.107 C 
ATOM      9  C   UNL A   1      46.717  27.767  27.433  1.00  0.00     0.253 C 
ATOM     10  N   UNL A   1      46.000  25.210  26.073  1.00  0.00    -0.300 N 
ATOM     11  N   UNL A   1      46.541  27.742  25.952  1.00  0.00    -0.319 N 
ATOM     12  C   UNL A   1      45.969  26.503  25.356  1.00  0.00     0.393 C 
ATOM     13  H   UNL A   1      45.924  28.516  25.703  1.00  0.00     0.348 HD
ATOM     14  H   UNL A   1      47.486  27.803  25.574  1.00  0.00     0.348 HD
BRANCH   9  15
ATOM     15  C   UNL A   1      45.816  28.802  28.164  1.00  0.00     0.014 A 
ATOM     16  C   UNL A   1      46.346  29.740  29.076  1.00  0.00     0.012 A 
ATOM     17  C   UNL A   1      44.428  28.865  27.965  1.00  0.00     0.012 A 
ATOM     18  C   UNL A   1      45.541  30.445  29.977  1.00  0.00     0.026 A 
ATOM     19  C   UNL A   1      43.612  29.620  28.834  1.00  0.00     0.026 A 
ATOM     20  C   UNL A   1      44.171  30.256  29.948  1.00  0.00     0.040 A 
BRANCH  20  21
ATOM     21  N   UNL A   1      43.332  30.663  30.997  1.00  0.00    -0.332 N 
ATOM     22  H   UNL A   1      42.891  29.924  31.477  1.00  0.00     0.169 HD
BRANCH  21  23
ATOM     23  C   UNL A   1      43.027  31.892  31.460  1.00  0.00     0.177 C 
ATOM     24  S   UNL A   1      43.848  32.449  32.814  1.00  0.00    -0.040 S 
BRANCH  23  25
ATOM     25  N   UNL A   1      42.131  32.765  30.893  1.00  0.00    -0.296 N 
ATOM     26  C   UNL A   1      41.980  33.943  30.134  1.00  0.00     0.293 C 
ATOM     27  H   UNL A   1      41.228  32.434  31.101  1.00  0.00     0.172 HD
ATOM     28  O   UNL A   1      40.815  34.216  29.824  1.00  0.00    -0.265 OA
BRANCH  26  29
ATOM     29  C   UNL A   1      43.112  34.780  29.743  1.00  0.00     0.193 A 
ATOM     30  C   UNL A   1      44.351  34.271  29.398  1.00  0.00     0.065 A 
ATOM     31  O   UNL A   1      42.899  35.665  28.644  1.00  0.00    -0.451 OA
ATOM     32  C   UNL A   1      44.077  33.856  28.072  1.00  0.00     0.021 A 
ATOM     33  C   UNL A   1      43.434  34.973  27.565  1.00  0.00     0.135 A 
ATOM     34  C   UNL A   1      44.343  32.775  27.234  1.00  0.00     0.012 A 
ATOM     35  C   UNL A   1      43.317  35.234  26.210  1.00  0.00     0.048 A 
ATOM     36  C   UNL A   1      44.080  32.940  25.877  1.00  0.00     0.001 A 
ATOM     37  C   UNL A   1      43.684  34.179  25.364  1.00  0.00     0.004 A 
ENDBRANCH  26  29
ENDBRANCH  23  25
ENDBRANCH  21  23
ENDBRANCH  20  21
ENDBRANCH   9  15
BRANCH  10  38
ATOM     38  C   UNL A   1      45.696  23.982  25.416  1.00  0.00     0.046 A 
ATOM     39  C   UNL A   1      44.599  23.871  24.524  1.00  0.00     0.026 A 
ATOM     40  C   UNL A   1      46.429  22.799  25.602  1.00  0.00     0.026 A 
ATOM     41  C   UNL A   1      44.327  22.713  23.778  1.00  0.00     0.002 A 
ATOM     42  C   UNL A   1      46.127  21.614  24.896  1.00  0.00     0.002 A 
ATOM     43  C   UNL A   1      45.098  21.580  23.961  1.00  0.00     0.000 A 
ENDBRANCH  10  38
ENDBRANCH   5   7
ENDBRANCH   2   3
ENDBRANCH   1   2
BRANCH   1  44
ATOM     44  C   UNL A   1      43.227  24.412  29.609  1.00  0.00     0.002 C 
BRANCH  44  45
ATOM     45  C   UNL A   1      43.042  22.940  29.222  1.00  0.00     0.002 C 
BRANCH  45  46
ATOM     46  C   UNL A   1      42.272  22.742  27.915  1.00  0.00     0.021 C 
BRANCH  46  47
ATOM     47  C   UNL A   1      42.417  23.916  26.963  1.00  0.00     0.116 C 
BRANCH  47  48
ATOM     48  N   UNL A   1      41.193  24.125  26.207  1.00  0.00    -0.352 N 
ATOM     49  C   UNL A   1      40.078  24.827  26.570  1.00  0.00     0.251 C 
ATOM     50  H   UNL A   1      41.163  23.707  25.317  1.00  0.00     0.163 HD
ATOM     51  O   UNL A   1      39.024  24.678  25.948  1.00  0.00    -0.269 OA
BRANCH  49  52
ATOM     52  C   UNL A   1      40.150  25.742  27.723  1.00  0.00     0.039 A 
ATOM     53  C   UNL A   1      41.047  26.808  27.682  1.00  0.00     0.014 A 
ATOM     54  C   UNL A   1      39.313  25.559  28.828  1.00  0.00     0.014 A 
ATOM     55  C   UNL A   1      41.072  27.716  28.738  1.00  0.00     0.010 A 
ATOM     56  C   UNL A   1      39.261  26.528  29.821  1.00  0.00     0.010 A 
ATOM     57  C   UNL A   1      40.152  27.608  29.796  1.00  0.00    -0.014 A 
BRANCH  57  58
ATOM     58  C   UNL A   1      40.111  28.624  30.876  1.00  0.00     0.031 A 
ATOM     59  C   UNL A   1      41.007  28.493  32.076  1.00  0.00     0.074 A 
ATOM     60  C   UNL A   1      39.245  29.652  30.786  1.00  0.00     0.049 A 
ATOM     61  N   UNL A   1      41.093  29.270  33.124  1.00  0.00    -0.248 NA
ATOM     62  C   UNL A   1      41.909  27.330  32.115  1.00  0.00     0.031 C 
ATOM     63  C   UNL A   1      38.300  29.863  29.688  1.00  0.00     0.029 A 
ATOM     64  N   UNL A   1      39.013  30.711  31.628  1.00  0.00    -0.354 N 
ATOM     65  C   UNL A   1      42.057  28.696  33.943  1.00  0.00     0.074 A 
ATOM     66  C   UNL A   1      42.473  27.466  33.306  1.00  0.00     0.031 C 
ATOM     67  C   UNL A   1      37.620  30.999  29.902  1.00  0.00     0.029 A 
ATOM     68  C   UNL A   1      38.028  31.562  31.185  1.00  0.00     0.049 A 
ATOM     69  H   UNL A   1      39.507  30.848  32.469  1.00  0.00     0.167 HD
ATOM     70  C   UNL A   1      42.566  29.166  35.105  1.00  0.00     0.037 A 
ATOM     71  C   UNL A   1      37.491  32.658  31.756  1.00  0.00     0.037 A 
ATOM     72  C   UNL A   1      42.128  30.383  35.739  1.00  0.00     0.049 A 
ATOM     73  C   UNL A   1      38.022  33.120  33.086  1.00  0.00     0.074 A 
ATOM     74  C   UNL A   1      42.598  30.958  36.906  1.00  0.00     0.029 A 
ATOM     75  N   UNL A   1      41.108  31.202  35.275  1.00  0.00    -0.354 N 
ATOM     76  N   UNL A   1      38.976  32.597  33.818  1.00  0.00    -0.248 NA
ATOM     77  C   UNL A   1      37.408  34.321  33.665  1.00  0.00     0.031 C 
ATOM     78  C   UNL A   1      41.804  32.070  37.196  1.00  0.00     0.029 A 
ATOM     79  C   UNL A   1      40.907  32.253  36.157  1.00  0.00     0.049 A 
ATOM     80  H   UNL A   1      40.602  31.060  34.442  1.00  0.00     0.167 HD
ATOM     81  C   UNL A   1      39.101  33.426  34.928  1.00  0.00     0.074 A 
ATOM     82  C   UNL A   1      38.134  34.491  34.761  1.00  0.00     0.031 C 
ATOM     83  C   UNL A   1      39.943  33.315  35.985  1.00  0.00     0.037 A 
BRANCH  70  84
ATOM     84  C   UNL A   1      43.636  28.347  35.781  1.00  0.00     0.058 A 
ATOM     85  C   UNL A   1      45.003  28.575  35.551  1.00  0.00     0.135 A 
ATOM     86  C   UNL A   1      43.289  27.339  36.697  1.00  0.00     0.135 A 
ATOM     87  F   UNL A   1      45.397  29.519  34.682  1.00  0.00    -0.206 F 
ATOM     88  C   UNL A   1      45.983  27.805  36.167  1.00  0.00     0.059 A 
ATOM     89  C   UNL A   1      44.255  26.590  37.362  1.00  0.00     0.059 A 
ATOM     90  F   UNL A   1      42.000  27.078  36.962  1.00  0.00    -0.206 F 
ATOM     91  C   UNL A   1      45.599  26.819  37.076  1.00  0.00     0.060 A 
BRANCH  91  92
ATOM     92  S   UNL A   1      46.888  25.845  37.878  1.00  0.00     0.124 S 
ATOM     93  O   UNL A   1      46.532  24.491  37.463  1.00  0.00    -0.237 OA
ATOM     94  O   UNL A   1      48.101  26.394  37.282  1.00  0.00    -0.237 OA
ATOM     95  O   UNL A   1      46.701  26.133  39.297  1.00  0.00    -0.744 OA
ENDBRANCH  91  92
ENDBRANCH  70  84
BRANCH  71  96
ATOM     96  C   UNL A   1      36.373  33.376  31.084  1.00  0.00     0.058 A 
ATOM     97  C   UNL A   1      35.061  33.323  31.578  1.00  0.00     0.135 A 
ATOM     98  C   UNL A   1      36.602  34.135  29.925  1.00  0.00     0.135 A 
ATOM     99  F   UNL A   1      34.785  32.604  32.677  1.00  0.00    -0.206 F 
ATOM    100  C   UNL A   1      34.014  33.979  30.937  1.00  0.00     0.059 A 
ATOM    101  C   UNL A   1      35.581  34.836  29.293  1.00  0.00     0.059 A 
ATOM    102  F   UNL A   1      37.840  34.231  29.414  1.00  0.00    -0.206 F 
ATOM    103  C   UNL A   1      34.288  34.744  29.802  1.00  0.00     0.060 A 
BRANCH 103 104
ATOM    104  S   UNL A   1      32.937  35.652  29.023  1.00  0.00     0.124 S 
ATOM    105  O   UNL A   1      32.350  34.631  28.161  1.00  0.00    -0.237 OA
ATOM    106  O   UNL A   1      32.140  36.052  30.177  1.00  0.00    -0.237 OA
ATOM    107  O   UNL A   1      33.620  36.742  28.332  1.00  0.00    -0.744 OA
ENDBRANCH 103 104
ENDBRANCH  71  96
BRANCH  83 108
ATOM    108  C   UNL A   1      39.905  34.403  37.028  1.00  0.00     0.058 A 
ATOM    109  C   UNL A   1      40.571  35.627  36.861  1.00  0.00     0.135 A 
ATOM    110  C   UNL A   1      39.141  34.231  38.196  1.00  0.00     0.135 A 
ATOM    111  F   UNL A   1      41.317  35.849  35.767  1.00  0.00    -0.206 F 
ATOM    112  C   UNL A   1      40.511  36.625  37.829  1.00  0.00     0.059 A 
ATOM    113  C   UNL A   1      39.026  35.234  39.152  1.00  0.00     0.059 A 
ATOM    114  F   UNL A   1      38.471  33.086  38.406  1.00  0.00    -0.206 F 
ATOM    115  C   UNL A   1      39.727  36.423  38.966  1.00  0.00     0.060 A 
BRANCH 115 116
ATOM    116  S   UNL A   1      39.619  37.749  40.185  1.00  0.00     0.124 S 
ATOM    117  O   UNL A   1      38.994  37.065  41.313  1.00  0.00    -0.237 OA
ATOM    118  O   UNL A   1      41.020  38.116  40.362  1.00  0.00    -0.237 OA
ATOM    119  O   UNL A   1      38.792  38.754  39.525  1.00  0.00    -0.744 OA
ENDBRANCH 115 116
ENDBRANCH  83 108
ENDBRANCH  57  58
ENDBRANCH  49  52
ENDBRANCH  47  48
ENDBRANCH  46  47
ENDBRANCH  45  46
ENDBRANCH  44  45
ENDBRANCH   1  44
TORSDOF 22
ENDMDL
MODEL 2
REMARK VINA RESULT:      -9.0      7.881     13.903
REMARK SMILES O=C(NCCCCCCNC(=O)c1ccc(-c2c3nc(c(-c4c(F)cc(S(=O)(=O)[O-])cc4F)c4ccc([nH]4)c(-c4c(F)cc(S(=O)(=O)[O-])cc4F)c4nc(c(-c5c(F)cc(S(=O)(=O)[O-])cc5F)c5ccc2[nH]5)C=C4)C=C3)cc1)C1=CN(c2ccccc2)C[NH2+][C@H]1c1ccc(NC(=S)NC(=O)c2cc3ccccc3o2)cc1
REMARK SMILES IDX 5 1 4 2 3 3 1 4 2 5 79 7 80 8 90 9 81 10 89 11 88 12 91 15
REMARK SMILES IDX 92 16 111 17 93 18 110 19 94 20 95 21 96 23 97 24 98 25
REMARK SMILES IDX 99 26 100 28 101 29 102 30 109 31 103 32 108 33 104 34
REMARK SMILES IDX 107 35 105 36 106 37 82 38 83 39 87 40 84 41 86 42 85 43
REMARK SMILES IDX 6 44 7 45 8 46 9 47 10 48 11 49 12 51 13 52 14 53 78 54
REMARK SMILES IDX 15 55 77 56 16 57 17 58 18 59 71 60 19 61 76 62 70 63 72 64
REMARK SMILES IDX 20 65 75 66 69 67 68 68 21 70 55 71 34 72 54 73 35 74 38 75
REMARK SMILES IDX 53 76 73 77 36 78 37 79 52 81 74 82 39 83 22 84 23 85 32 86
REMARK SMILES IDX 24 87 25 88 31 89 33 90 26 91 27 92 28 93 29 94 30 95 56 96
REMARK SMILES IDX 57 97 66 98 58 99 59 100 65 101 67 102 60 103 61 104 62 105
REMARK SMILES IDX 63 106 64 107 40 108 41 109 50 110 42 111 43 112 49 113
REMARK SMILES IDX 51 114 44 115 45 116 46 117 47 118 48 119
REMARK H PARENT 3 6 89 13 89 14 95 22 98 27 10 50 72 69 38 80
REMARK Flexibility Score: inf
ROOT
ATOM      1  C   UNL A   1      44.798  43.716  29.847  1.00  0.00     0.021 C 
ENDROOT
BRANCH   1   2
ATOM      2  C   UNL A   1      45.204  42.840  28.684  1.00  0.00     0.116 C 
BRANCH   2   3
ATOM      3  N   UNL A   1      44.479  43.212  27.480  1.00  0.00    -0.352 N 
ATOM      4  O   UNL A   1      43.985  43.197  25.306  1.00  0.00    -0.269 OA
ATOM      5  C   UNL A   1      44.475  42.609  26.267  1.00  0.00     0.255 C 
ATOM      6  H   UNL A   1      43.913  44.013  27.557  1.00  0.00     0.163 HD
BRANCH   5   7
ATOM      7  C   UNL A   1      45.126  41.289  26.155  1.00  0.00     0.095 C 
ATOM      8  C   UNL A   1      44.400  40.197  26.438  1.00  0.00     0.107 C 
ATOM      9  C   UNL A   1      46.583  41.271  25.810  1.00  0.00     0.253 C 
ATOM     10  N   UNL A   1      44.927  38.950  26.690  1.00  0.00    -0.300 N 
ATOM     11  N   UNL A   1      47.242  39.970  26.125  1.00  0.00    -0.319 N 
ATOM     12  C   UNL A   1      46.356  38.794  26.340  1.00  0.00     0.393 C 
ATOM     13  H   UNL A   1      47.866  39.748  25.349  1.00  0.00     0.348 HD
ATOM     14  H   UNL A   1      47.703  40.120  27.022  1.00  0.00     0.348 HD
BRANCH   9  15
ATOM     15  C   UNL A   1      46.881  41.808  24.381  1.00  0.00     0.014 A 
ATOM     16  C   UNL A   1      47.205  43.161  24.145  1.00  0.00     0.012 A 
ATOM     17  C   UNL A   1      46.846  40.984  23.245  1.00  0.00     0.012 A 
ATOM     18  C   UNL A   1      47.153  43.730  22.868  1.00  0.00     0.026 A 
ATOM     19  C   UNL A   1      46.851  41.545  21.951  1.00  0.00     0.026 A 
ATOM     20  C   UNL A   1      46.819  42.934  21.788  1.00  0.00     0.040 A 
BRANCH  20  21
ATOM     21  N   UNL A   1      46.436  43.470  20.548  1.00  0.00    -0.332 N 
ATOM     22  H   UNL A   1      46.904  43.081  19.774  1.00  0.00     0.169 HD
BRANCH  21  23
ATOM     23  C   UNL A   1      45.539  44.427  20.237  1.00  0.00     0.177 C 
ATOM     24  S   UNL A   1      46.071  46.019  20.191  1.00  0.00    -0.040 S 
BRANCH  23  25
ATOM     25  N   UNL A   1      44.224  44.219  19.901  1.00  0.00    -0.296 N 
ATOM     26  C   UNL A   1      43.303  44.085  18.842  1.00  0.00     0.293 C 
ATOM     27  H   UNL A   1      43.719  44.124  20.741  1.00  0.00     0.172 HD
ATOM     28  O   UNL A   1      42.155  43.784  19.186  1.00  0.00    -0.265 OA
BRANCH  26  29
ATOM     29  C   UNL A   1      43.675  44.287  17.444  1.00  0.00     0.193 A 
ATOM     30  C   UNL A   1      42.782  44.703  16.472  1.00  0.00     0.065 A 
ATOM     31  O   UNL A   1      44.745  45.199  17.196  1.00  0.00    -0.451 OA
ATOM     32  C   UNL A   1      42.744  46.089  16.761  1.00  0.00     0.021 A 
ATOM     33  C   UNL A   1      44.093  46.381  16.873  1.00  0.00     0.135 A 
ATOM     34  C   UNL A   1      41.806  47.116  16.859  1.00  0.00     0.012 A 
ATOM     35  C   UNL A   1      44.606  47.662  16.755  1.00  0.00     0.048 A 
ATOM     36  C   UNL A   1      42.291  48.420  16.912  1.00  0.00     0.001 A 
ATOM     37  C   UNL A   1      43.653  48.690  16.749  1.00  0.00     0.004 A 
ENDBRANCH  26  29
ENDBRANCH  23  25
ENDBRANCH  21  23
ENDBRANCH  20  21
ENDBRANCH   9  15
BRANCH  10  38
ATOM     38  C   UNL A   1      44.144  37.851  27.148  1.00  0.00     0.046 A 
ATOM     39  C   UNL A   1      43.008  38.044  27.973  1.00  0.00     0.026 A 
ATOM     40  C   UNL A   1      44.432  36.511  26.842  1.00  0.00     0.026 A 
ATOM     41  C   UNL A   1      42.150  37.001  28.360  1.00  0.00     0.002 A 
ATOM     42  C   UNL A   1      43.606  35.451  27.275  1.00  0.00     0.002 A 
ATOM     43  C   UNL A   1      42.448  35.698  28.004  1.00  0.00     0.000 A 
ENDBRANCH  10  38
ENDBRANCH   5   7
ENDBRANCH   2   3
ENDBRANCH   1   2
BRANCH   1  44
ATOM     44  C   UNL A   1      43.556  43.186  30.553  1.00  0.00     0.002 C 
BRANCH  44  45
ATOM     45  C   UNL A   1      43.405  43.712  31.986  1.00  0.00     0.002 C 
BRANCH  45  46
ATOM     46  C   UNL A   1      42.782  42.698  32.948  1.00  0.00     0.021 C 
BRANCH  46  47
ATOM     47  C   UNL A   1      43.812  42.009  33.825  1.00  0.00     0.116 C 
BRANCH  47  48
ATOM     48  N   UNL A   1      45.131  42.588  33.630  1.00  0.00    -0.352 N 
ATOM     49  C   UNL A   1      46.273  41.977  33.194  1.00  0.00     0.251 C 
ATOM     50  H   UNL A   1      45.213  43.546  33.838  1.00  0.00     0.163 HD
ATOM     51  O   UNL A   1      47.365  42.525  33.349  1.00  0.00    -0.269 OA
BRANCH  49  52
ATOM     52  C   UNL A   1      46.178  40.651  32.559  1.00  0.00     0.039 A 
ATOM     53  C   UNL A   1      46.564  39.526  33.285  1.00  0.00     0.014 A 
ATOM     54  C   UNL A   1      45.683  40.522  31.257  1.00  0.00     0.014 A 
ATOM     55  C   UNL A   1      46.414  38.264  32.714  1.00  0.00     0.010 A 
ATOM     56  C   UNL A   1      45.428  39.259  30.738  1.00  0.00     0.010 A 
ATOM     57  C   UNL A   1      45.807  38.117  31.455  1.00  0.00    -0.014 A 
BRANCH  57  58
ATOM     58  C   UNL A   1      45.558  36.770  30.882  1.00  0.00     0.031 A 
ATOM     59  C   UNL A   1      46.516  36.181  29.885  1.00  0.00     0.074 A 
ATOM     60  C   UNL A   1      44.452  36.091  31.243  1.00  0.00     0.049 A 
ATOM     61  N   UNL A   1      46.449  35.032  29.265  1.00  0.00    -0.248 NA
ATOM     62  C   UNL A   1      47.689  36.993  29.521  1.00  0.00     0.031 C 
ATOM     63  C   UNL A   1      43.431  36.578  32.173  1.00  0.00     0.029 A 
ATOM     64  N   UNL A   1      43.996  34.851  30.873  1.00  0.00    -0.354 N 
ATOM     65  C   UNL A   1      47.569  34.980  28.444  1.00  0.00     0.074 A 
ATOM     66  C   UNL A   1      48.257  36.243  28.589  1.00  0.00     0.031 C 
ATOM     67  C   UNL A   1      42.492  35.634  32.331  1.00  0.00     0.029 A 
ATOM     68  C   UNL A   1      42.803  34.503  31.463  1.00  0.00     0.049 A 
ATOM     69  H   UNL A   1      44.479  34.265  30.245  1.00  0.00     0.167 HD
ATOM     70  C   UNL A   1      47.996  33.961  27.662  1.00  0.00     0.037 A 
ATOM     71  C   UNL A   1      42.030  33.411  31.305  1.00  0.00     0.037 A 
ATOM     72  C   UNL A   1      47.290  32.714  27.513  1.00  0.00     0.049 A 
ATOM     73  C   UNL A   1      42.488  32.323  30.373  1.00  0.00     0.074 A 
ATOM     74  C   UNL A   1      47.653  31.609  26.763  1.00  0.00     0.029 A 
ATOM     75  N   UNL A   1      46.070  32.411  28.104  1.00  0.00    -0.354 N 
ATOM     76  N   UNL A   1      43.581  32.265  29.649  1.00  0.00    -0.248 NA
ATOM     77  C   UNL A   1      41.615  31.151  30.239  1.00  0.00     0.031 C 
ATOM     78  C   UNL A   1      46.613  30.679  26.826  1.00  0.00     0.029 A 
ATOM     79  C   UNL A   1      45.649  31.154  27.699  1.00  0.00     0.049 A 
ATOM     80  H   UNL A   1      45.579  33.001  28.720  1.00  0.00     0.167 HD
ATOM     81  C   UNL A   1      43.542  31.036  29.001  1.00  0.00     0.074 A 
ATOM     82  C   UNL A   1      42.325  30.378  29.430  1.00  0.00     0.031 C 
ATOM     83  C   UNL A   1      44.436  30.501  28.132  1.00  0.00     0.037 A 
BRANCH  70  84
ATOM     84  C   UNL A   1      49.274  34.162  26.889  1.00  0.00     0.058 A 
ATOM     85  C   UNL A   1      50.521  33.756  27.393  1.00  0.00     0.135 A 
ATOM     86  C   UNL A   1      49.248  34.742  25.609  1.00  0.00     0.135 A 
ATOM     87  F   UNL A   1      50.611  33.201  28.612  1.00  0.00    -0.206 F 
ATOM     88  C   UNL A   1      51.696  33.958  26.679  1.00  0.00     0.059 A 
ATOM     89  C   UNL A   1      50.406  34.909  24.857  1.00  0.00     0.059 A 
ATOM     90  F   UNL A   1      48.086  35.146  25.072  1.00  0.00    -0.206 F 
ATOM     91  C   UNL A   1      51.628  34.531  25.409  1.00  0.00     0.060 A 
BRANCH  91  92
ATOM     92  S   UNL A   1      53.163  34.768  24.493  1.00  0.00     0.124 S 
ATOM     93  O   UNL A   1      52.772  35.789  23.525  1.00  0.00    -0.237 OA
ATOM     94  O   UNL A   1      54.080  35.204  25.540  1.00  0.00    -0.237 OA
ATOM     95  O   UNL A   1      53.435  33.447  23.933  1.00  0.00    -0.744 OA
ENDBRANCH  91  92
ENDBRANCH  70  84
BRANCH  71  96
ATOM     96  C   UNL A   1      40.732  33.307  32.028  1.00  0.00     0.058 A 
ATOM     97  C   UNL A   1      40.654  32.787  33.329  1.00  0.00     0.135 A 
ATOM     98  C   UNL A   1      39.538  33.729  31.422  1.00  0.00     0.135 A 
ATOM     99  F   UNL A   1      41.764  32.360  33.951  1.00  0.00    -0.206 F 
ATOM    100  C   UNL A   1      39.438  32.673  33.996  1.00  0.00     0.059 A 
ATOM    101  C   UNL A   1      38.318  33.666  32.085  1.00  0.00     0.059 A 
ATOM    102  F   UNL A   1      39.555  34.245  30.183  1.00  0.00    -0.206 F 
ATOM    103  C   UNL A   1      38.276  33.127  33.368  1.00  0.00     0.060 A 
BRANCH 103 104
ATOM    104  S   UNL A   1      36.715  33.044  34.271  1.00  0.00     0.124 S 
ATOM    105  O   UNL A   1      35.854  32.360  33.312  1.00  0.00    -0.237 OA
ATOM    106  O   UNL A   1      37.093  32.279  35.453  1.00  0.00    -0.237 OA
ATOM    107  O   UNL A   1      36.393  34.447  34.516  1.00  0.00    -0.744 OA
ENDBRANCH 103 104
ENDBRANCH  71  96
BRANCH  83 108
ATOM    108  C   UNL A   1      44.169  29.107  27.623  1.00  0.00     0.058 A 
ATOM    109  C   UNL A   1      43.290  28.851  26.560  1.00  0.00     0.135 A 
ATOM    110  C   UNL A   1      44.851  28.011  28.183  1.00  0.00     0.135 A 
ATOM    111  F   UNL A   1      42.610  29.856  25.986  1.00  0.00    -0.206 F 
ATOM    112  C   UNL A   1      43.068  27.558  26.095  1.00  0.00     0.059 A 
ATOM    113  C   UNL A   1      44.683  26.719  27.700  1.00  0.00     0.059 A 
ATOM    114  F   UNL A   1      45.715  28.195  29.195  1.00  0.00    -0.206 F 
ATOM    115  C   UNL A   1      43.778  26.500  26.664  1.00  0.00     0.060 A 
BRANCH 115 116
ATOM    116  S   UNL A   1      43.517  24.838  26.013  1.00  0.00     0.124 S 
ATOM    117  O   UNL A   1      44.707  24.652  25.188  1.00  0.00    -0.237 OA
ATOM    118  O   UNL A   1      43.458  24.037  27.232  1.00  0.00    -0.237 OA
ATOM    119  O   UNL A   1      42.259  24.950  25.281  1.00  0.00    -0.744 OA
ENDBRANCH 115 116
ENDBRANCH  83 108
ENDBRANCH  57  58
ENDBRANCH  49  52
ENDBRANCH  47  48
ENDBRANCH  46  47
ENDBRANCH  45  46
ENDBRANCH  44  45
ENDBRANCH   1  44
TORSDOF 22
ENDMDL
MODEL 3
REMARK VINA RESULT:      -8.8      1.335      2.370
REMARK SMILES O=C(NCCCCCCNC(=O)c1ccc(-c2c3nc(c(-c4c(F)cc(S(=O)(=O)[O-])cc4F)c4ccc([nH]4)c(-c4c(F)cc(S(=O)(=O)[O-])cc4F)c4nc(c(-c5c(F)cc(S(=O)(=O)[O-])cc5F)c5ccc2[nH]5)C=C4)C=C3)cc1)C1=CN(c2ccccc2)C[NH2+][C@H]1c1ccc(NC(=S)NC(=O)c2cc3ccccc3o2)cc1
REMARK SMILES IDX 5 1 4 2 3 3 1 4 2 5 79 7 80 8 90 9 81 10 89 11 88 12 91 15
REMARK SMILES IDX 92 16 111 17 93 18 110 19 94 20 95 21 96 23 97 24 98 25
REMARK SMILES IDX 99 26 100 28 101 29 102 30 109 31 103 32 108 33 104 34
REMARK SMILES IDX 107 35 105 36 106 37 82 38 83 39 87 40 84 41 86 42 85 43
REMARK SMILES IDX 6 44 7 45 8 46 9 47 10 48 11 49 12 51 13 52 14 53 78 54
REMARK SMILES IDX 15 55 77 56 16 57 17 58 18 59 71 60 19 61 76 62 70 63 72 64
REMARK SMILES IDX 20 65 75 66 69 67 68 68 21 70 55 71 34 72 54 73 35 74 38 75
REMARK SMILES IDX 53 76 73 77 36 78 37 79 52 81 74 82 39 83 22 84 23 85 32 86
REMARK SMILES IDX 24 87 25 88 31 89 33 90 26 91 27 92 28 93 29 94 30 95 56 96
REMARK SMILES IDX 57 97 66 98 58 99 59 100 65 101 67 102 60 103 61 104 62 105
REMARK SMILES IDX 63 106 64 107 40 108 41 109 50 110 42 111 43 112 49 113
REMARK SMILES IDX 51 114 44 115 45 116 46 117 47 118 48 119
REMARK H PARENT 3 6 89 13 89 14 95 22 98 27 10 50 72 69 38 80
REMARK Flexibility Score: inf
ROOT
ATOM      1  C   UNL A   1      44.672  25.148  30.100  1.00  0.00     0.021 C 
ENDROOT
BRANCH   1   2
ATOM      2  C   UNL A   1      45.313  26.320  29.392  1.00  0.00     0.116 C 
BRANCH   2   3
ATOM      3  N   UNL A   1      46.736  26.381  29.681  1.00  0.00    -0.352 N 
ATOM      4  O   UNL A   1      48.911  26.049  29.318  1.00  0.00    -0.269 OA
ATOM      5  C   UNL A   1      47.784  26.185  28.846  1.00  0.00     0.255 C 
ATOM      6  H   UNL A   1      46.971  26.596  30.612  1.00  0.00     0.163 HD
BRANCH   5   7
ATOM      7  C   UNL A   1      47.501  26.080  27.401  1.00  0.00     0.095 C 
ATOM      8  C   UNL A   1      46.756  25.049  26.973  1.00  0.00     0.107 C 
ATOM      9  C   UNL A   1      48.138  27.095  26.503  1.00  0.00     0.253 C 
ATOM     10  N   UNL A   1      46.672  24.636  25.663  1.00  0.00    -0.300 N 
ATOM     11  N   UNL A   1      48.149  26.681  25.070  1.00  0.00    -0.319 N 
ATOM     12  C   UNL A   1      47.226  25.584  24.672  1.00  0.00     0.393 C 
ATOM     13  H   UNL A   1      47.910  27.502  24.512  1.00  0.00     0.348 HD
ATOM     14  H   UNL A   1      49.085  26.308  24.912  1.00  0.00     0.348 HD
BRANCH   9  15
ATOM     15  C   UNL A   1      47.618  28.541  26.745  1.00  0.00     0.014 A 
ATOM     16  C   UNL A   1      46.361  28.971  26.269  1.00  0.00     0.012 A 
ATOM     17  C   UNL A   1      48.364  29.500  27.448  1.00  0.00     0.012 A 
ATOM     18  C   UNL A   1      46.018  30.325  26.183  1.00  0.00     0.026 A 
ATOM     19  C   UNL A   1      47.993  30.861  27.416  1.00  0.00     0.026 A 
ATOM     20  C   UNL A   1      46.918  31.278  26.623  1.00  0.00     0.040 A 
BRANCH  20  21
ATOM     21  N   UNL A   1      46.799  32.637  26.290  1.00  0.00    -0.332 N 
ATOM     22  H   UNL A   1      47.514  32.977  25.704  1.00  0.00     0.169 HD
BRANCH  21  23
ATOM     23  C   UNL A   1      45.874  33.555  26.636  1.00  0.00     0.177 C 
ATOM     24  S   UNL A   1      44.658  33.902  25.531  1.00  0.00    -0.040 S 
BRANCH  23  25
ATOM     25  N   UNL A   1      45.801  34.207  27.842  1.00  0.00    -0.296 N 
ATOM     26  C   UNL A   1      45.077  34.348  29.044  1.00  0.00     0.293 C 
ATOM     27  H   UNL A   1      46.562  34.830  27.885  1.00  0.00     0.172 HD
ATOM     28  O   UNL A   1      45.597  35.096  29.879  1.00  0.00    -0.265 OA
BRANCH  26  29
ATOM     29  C   UNL A   1      43.809  33.663  29.285  1.00  0.00     0.193 A 
ATOM     30  C   UNL A   1      43.503  32.422  28.757  1.00  0.00     0.065 A 
ATOM     31  O   UNL A   1      43.458  33.439  30.650  1.00  0.00    -0.451 OA
ATOM     32  C   UNL A   1      44.228  31.596  29.651  1.00  0.00     0.021 A 
ATOM     33  C   UNL A   1      43.856  32.128  30.874  1.00  0.00     0.135 A 
ATOM     34  C   UNL A   1      45.048  30.470  29.609  1.00  0.00     0.012 A 
ATOM     35  C   UNL A   1      43.971  31.438  32.070  1.00  0.00     0.048 A 
ATOM     36  C   UNL A   1      45.326  29.839  30.819  1.00  0.00     0.001 A 
ATOM     37  C   UNL A   1      44.710  30.248  32.005  1.00  0.00     0.004 A 
ENDBRANCH  26  29
ENDBRANCH  23  25
ENDBRANCH  21  23
ENDBRANCH  20  21
ENDBRANCH   9  15
BRANCH  10  38
ATOM     38  C   UNL A   1      46.005  23.441  25.264  1.00  0.00     0.046 A 
ATOM     39  C   UNL A   1      45.205  23.394  24.094  1.00  0.00     0.026 A 
ATOM     40  C   UNL A   1      46.068  22.238  25.986  1.00  0.00     0.026 A 
ATOM     41  C   UNL A   1      44.617  22.214  23.609  1.00  0.00     0.002 A 
ATOM     42  C   UNL A   1      45.433  21.061  25.534  1.00  0.00     0.002 A 
ATOM     43  C   UNL A   1      44.736  21.040  24.331  1.00  0.00     0.000 A 
ENDBRANCH  10  38
ENDBRANCH   5   7
ENDBRANCH   2   3
ENDBRANCH   1   2
BRANCH   1  44
ATOM     44  C   UNL A   1      43.351  24.747  29.454  1.00  0.00     0.002 C 
BRANCH  44  45
ATOM     45  C   UNL A   1      43.263  23.247  29.143  1.00  0.00     0.002 C 
BRANCH  45  46
ATOM     46  C   UNL A   1      42.697  22.943  27.754  1.00  0.00     0.021 C 
BRANCH  46  47
ATOM     47  C   UNL A   1      42.814  24.118  26.800  1.00  0.00     0.116 C 
BRANCH  47  48
ATOM     48  N   UNL A   1      41.586  24.296  26.043  1.00  0.00    -0.352 N 
ATOM     49  C   UNL A   1      40.445  24.951  26.414  1.00  0.00     0.251 C 
ATOM     50  H   UNL A   1      41.574  23.892  25.146  1.00  0.00     0.163 HD
ATOM     51  O   UNL A   1      39.400  24.775  25.786  1.00  0.00    -0.269 OA
BRANCH  49  52
ATOM     52  C   UNL A   1      40.481  25.849  27.582  1.00  0.00     0.039 A 
ATOM     53  C   UNL A   1      41.317  26.963  27.550  1.00  0.00     0.014 A 
ATOM     54  C   UNL A   1      39.670  25.599  28.694  1.00  0.00     0.014 A 
ATOM     55  C   UNL A   1      41.305  27.853  28.622  1.00  0.00     0.010 A 
ATOM     56  C   UNL A   1      39.577  26.546  29.705  1.00  0.00     0.010 A 
ATOM     57  C   UNL A   1      40.406  27.675  29.689  1.00  0.00    -0.014 A 
BRANCH  57  58
ATOM     58  C   UNL A   1      40.322  28.669  30.787  1.00  0.00     0.031 A 
ATOM     59  C   UNL A   1      41.195  28.531  32.003  1.00  0.00     0.074 A 
ATOM     60  C   UNL A   1      39.437  29.681  30.700  1.00  0.00     0.049 A 
ATOM     61  N   UNL A   1      41.243  29.288  33.068  1.00  0.00    -0.248 NA
ATOM     62  C   UNL A   1      42.119  27.385  32.039  1.00  0.00     0.031 C 
ATOM     63  C   UNL A   1      38.512  29.895  29.585  1.00  0.00     0.029 A 
ATOM     64  N   UNL A   1      39.167  30.718  31.557  1.00  0.00    -0.354 N 
ATOM     65  C   UNL A   1      42.201  28.716  33.896  1.00  0.00     0.074 A 
ATOM     66  C   UNL A   1      42.655  27.508  33.244  1.00  0.00     0.031 C 
ATOM     67  C   UNL A   1      37.806  31.013  29.808  1.00  0.00     0.029 A 
ATOM     68  C   UNL A   1      38.175  31.559  31.110  1.00  0.00     0.049 A 
ATOM     69  H   UNL A   1      39.640  30.847  32.411  1.00  0.00     0.167 HD
ATOM     70  C   UNL A   1      42.676  29.172  35.078  1.00  0.00     0.037 A 
ATOM     71  C   UNL A   1      37.605  32.632  31.691  1.00  0.00     0.037 A 
ATOM     72  C   UNL A   1      42.202  30.368  35.726  1.00  0.00     0.049 A 
ATOM     73  C   UNL A   1      38.098  33.078  33.040  1.00  0.00     0.074 A 
ATOM     74  C   UNL A   1      42.636  30.929  36.914  1.00  0.00     0.029 A 
ATOM     75  N   UNL A   1      41.175  31.177  35.256  1.00  0.00    -0.354 N 
ATOM     76  N   UNL A   1      39.047  32.559  33.782  1.00  0.00    -0.248 NA
ATOM     77  C   UNL A   1      37.449  34.255  33.630  1.00  0.00     0.031 C 
ATOM     78  C   UNL A   1      41.813  32.019  37.208  1.00  0.00     0.029 A 
ATOM     79  C   UNL A   1      40.935  32.205  36.155  1.00  0.00     0.049 A 
ATOM     80  H   UNL A   1      40.690  31.041  34.410  1.00  0.00     0.167 HD
ATOM     81  C   UNL A   1      39.132  33.367  34.910  1.00  0.00     0.074 A 
ATOM     82  C   UNL A   1      38.148  34.417  34.744  1.00  0.00     0.031 C 
ATOM     83  C   UNL A   1      39.954  33.251  35.983  1.00  0.00     0.037 A 
BRANCH  70  84
ATOM     84  C   UNL A   1      43.748  28.361  35.760  1.00  0.00     0.058 A 
ATOM     85  C   UNL A   1      43.439  27.277  36.600  1.00  0.00     0.135 A 
ATOM     86  C   UNL A   1      45.106  28.653  35.547  1.00  0.00     0.135 A 
ATOM     87  F   UNL A   1      42.160  26.954  36.847  1.00  0.00    -0.206 F 
ATOM     88  C   UNL A   1      44.434  26.544  37.237  1.00  0.00     0.059 A 
ATOM     89  C   UNL A   1      46.117  27.901  36.136  1.00  0.00     0.059 A 
ATOM     90  F   UNL A   1      45.463  29.673  34.752  1.00  0.00    -0.206 F 
ATOM     91  C   UNL A   1      45.770  26.860  36.994  1.00  0.00     0.060 A 
BRANCH  91  92
ATOM     92  S   UNL A   1      47.044  25.883  37.816  1.00  0.00     0.124 S 
ATOM     93  O   UNL A   1      48.227  26.714  37.612  1.00  0.00    -0.237 OA
ATOM     94  O   UNL A   1      46.543  25.817  39.185  1.00  0.00    -0.237 OA
ATOM     95  O   UNL A   1      47.034  24.620  37.084  1.00  0.00    -0.744 OA
ENDBRANCH  91  92
ENDBRANCH  70  84
BRANCH  71  96
ATOM     96  C   UNL A   1      36.487  33.342  31.009  1.00  0.00     0.058 A 
ATOM     97  C   UNL A   1      35.157  33.199  31.432  1.00  0.00     0.135 A 
ATOM     98  C   UNL A   1      36.735  34.184  29.912  1.00  0.00     0.135 A 
ATOM     99  F   UNL A   1      34.864  32.399  32.469  1.00  0.00    -0.206 F 
ATOM    100  C   UNL A   1      34.112  33.847  30.781  1.00  0.00     0.059 A 
ATOM    101  C   UNL A   1      35.713  34.877  29.275  1.00  0.00     0.059 A 
ATOM    102  F   UNL A   1      37.990  34.367  29.472  1.00  0.00    -0.206 F 
ATOM    103  C   UNL A   1      34.403  34.695  29.711  1.00  0.00     0.060 A 
BRANCH 103 104
ATOM    104  S   UNL A   1      33.049  35.591  28.923  1.00  0.00     0.124 S 
ATOM    105  O   UNL A   1      33.765  36.637  28.200  1.00  0.00    -0.237 OA
ATOM    106  O   UNL A   1      32.437  34.550  28.104  1.00  0.00    -0.237 OA
ATOM    107  O   UNL A   1      32.243  36.045  30.054  1.00  0.00    -0.744 OA
ENDBRANCH 103 104
ENDBRANCH  71  96
BRANCH  83 108
ATOM    108  C   UNL A   1      39.873  34.318  37.046  1.00  0.00     0.058 A 
ATOM    109  C   UNL A   1      40.541  35.546  36.931  1.00  0.00     0.135 A 
ATOM    110  C   UNL A   1      39.064  34.120  38.180  1.00  0.00     0.135 A 
ATOM    111  F   UNL A   1      41.328  35.793  35.871  1.00  0.00    -0.206 F 
ATOM    112  C   UNL A   1      40.441  36.524  37.916  1.00  0.00     0.059 A 
ATOM    113  C   UNL A   1      38.910  35.102  39.151  1.00  0.00     0.059 A 
ATOM    114  F   UNL A   1      38.391  32.969  38.340  1.00  0.00    -0.206 F 
ATOM    115  C   UNL A   1      39.614  36.296  39.017  1.00  0.00     0.060 A 
BRANCH 115 116
ATOM    116  S   UNL A   1      39.455  37.596  40.258  1.00  0.00     0.124 S 
ATOM    117  O   UNL A   1      38.494  38.494  39.627  1.00  0.00    -0.237 OA
ATOM    118  O   UNL A   1      38.966  36.855  41.416  1.00  0.00    -0.237 OA
ATOM    119  O   UNL A   1      40.813  38.119  40.383  1.00  0.00    -0.744 OA
ENDBRANCH 115 116
ENDBRANCH  83 108
ENDBRANCH  57  58
ENDBRANCH  49  52
ENDBRANCH  47  48
ENDBRANCH  46  47
ENDBRANCH  45  46
ENDBRANCH  44  45
ENDBRANCH   1  44
TORSDOF 22
ENDMDL
