MODEL 1
REMARK VINA RESULT:     -12.9      0.000      0.000
REMARK SMILES O=C(NCCCCCCNC(=O)[C@H]1Cc2c([nH]c3ccccc23)[C@H](c2c[nH]c3ccccc23)[NH2+]1)c1ccc(-c2c3nc(c(-c4c(F)cc(S(=O)(=O)[O-])cc4F)c4ccc([nH]4)c(-c4c(F)cc(S(=O)(=O)[O-])cc4F)c4nc(c(-c5c(F)cc(S(=O)(=O)[O-])cc5F)c5ccc2[nH]5)C=C4)C=C3)cc1
REMARK SMILES IDX 5 1 4 2 3 3 1 4 2 5 35 7 36 8 100 9 37 10 99 11 38 12 39 13
REMARK SMILES IDX 40 14 93 15 41 16 98 17 92 18 94 19 42 20 97 21 91 22 90 23
REMARK SMILES IDX 43 25 77 26 56 27 76 28 57 29 60 30 75 31 95 32 58 33 59 34
REMARK SMILES IDX 74 36 96 37 61 38 44 39 45 40 54 41 46 42 47 43 53 44 55 45
REMARK SMILES IDX 48 46 49 47 50 48 51 49 52 50 78 51 79 52 88 53 80 54 81 55
REMARK SMILES IDX 87 56 89 57 82 58 83 59 84 60 85 61 86 62 62 63 63 64 72 65
REMARK SMILES IDX 64 66 65 67 71 68 73 69 66 70 67 71 68 72 69 73 70 74 6 75
REMARK SMILES IDX 7 76 8 77 9 78 10 79 11 80 12 82 13 83 14 84 34 85 15 86
REMARK SMILES IDX 24 87 16 90 23 91 17 92 18 93 22 94 19 96 21 97 20 98 25 99
REMARK SMILES IDX 26 100 33 101 27 102 28 103 32 104 29 106 31 107 30 108
REMARK H PARENT 3 6 94 24 60 35 10 81 34 88 34 89 17 95 27 105
REMARK Flexibility Score: inf
ROOT
ATOM      1  C   UNL A   1      34.009  29.493  26.856  1.00  0.00     0.021 C 
ENDROOT
BRANCH   1   2
ATOM      2  C   UNL A   1      35.260  29.378  27.718  1.00  0.00     0.116 C 
BRANCH   2   3
ATOM      3  N   UNL A   1      35.216  30.287  28.853  1.00  0.00    -0.352 N 
ATOM      4  O   UNL A   1      35.953  31.200  30.779  1.00  0.00    -0.269 OA
ATOM      5  C   UNL A   1      36.213  30.589  29.746  1.00  0.00     0.251 C 
ATOM      6  H   UNL A   1      34.357  30.746  28.999  1.00  0.00     0.163 HD
BRANCH   5   7
ATOM      7  C   UNL A   1      37.598  30.162  29.456  1.00  0.00     0.039 A 
ATOM      8  C   UNL A   1      38.060  30.123  28.138  1.00  0.00     0.014 A 
ATOM      9  C   UNL A   1      38.442  29.810  30.512  1.00  0.00     0.014 A 
ATOM     10  C   UNL A   1      39.328  29.627  27.865  1.00  0.00     0.010 A 
ATOM     11  C   UNL A   1      39.746  29.388  30.241  1.00  0.00     0.010 A 
ATOM     12  C   UNL A   1      40.194  29.281  28.915  1.00  0.00    -0.014 A 
BRANCH  12  13
ATOM     13  C   UNL A   1      41.596  28.906  28.606  1.00  0.00     0.031 A 
ATOM     14  C   UNL A   1      42.700  29.924  28.633  1.00  0.00     0.074 A 
ATOM     15  C   UNL A   1      41.857  27.621  28.296  1.00  0.00     0.049 A 
ATOM     16  N   UNL A   1      43.971  29.763  28.365  1.00  0.00    -0.248 NA
ATOM     17  C   UNL A   1      42.334  31.301  29.001  1.00  0.00     0.031 C 
ATOM     18  C   UNL A   1      40.854  26.553  28.226  1.00  0.00     0.029 A 
ATOM     19  N   UNL A   1      43.033  26.989  27.987  1.00  0.00    -0.354 N 
ATOM     20  C   UNL A   1      44.555  31.015  28.511  1.00  0.00     0.074 A 
ATOM     21  C   UNL A   1      43.494  31.933  28.873  1.00  0.00     0.031 C 
ATOM     22  C   UNL A   1      41.462  25.397  27.926  1.00  0.00     0.029 A 
ATOM     23  C   UNL A   1      42.882  25.650  27.717  1.00  0.00     0.049 A 
ATOM     24  H   UNL A   1      43.903  27.450  27.962  1.00  0.00     0.167 HD
ATOM     25  C   UNL A   1      45.857  31.360  28.360  1.00  0.00     0.037 A 
ATOM     26  C   UNL A   1      43.779  24.731  27.314  1.00  0.00     0.037 A 
ATOM     27  C   UNL A   1      46.902  30.429  28.011  1.00  0.00     0.049 A 
ATOM     28  C   UNL A   1      45.208  25.148  27.125  1.00  0.00     0.074 A 
ATOM     29  C   UNL A   1      48.259  30.669  27.880  1.00  0.00     0.029 A 
ATOM     30  N   UNL A   1      46.706  29.085  27.725  1.00  0.00    -0.354 N 
ATOM     31  N   UNL A   1      45.750  26.328  27.313  1.00  0.00    -0.248 NA
ATOM     32  C   UNL A   1      46.146  24.116  26.667  1.00  0.00     0.031 C 
ATOM     33  C   UNL A   1      48.875  29.485  27.466  1.00  0.00     0.029 A 
ATOM     34  C   UNL A   1      47.912  28.491  27.389  1.00  0.00     0.049 A 
ATOM     35  H   UNL A   1      45.839  28.622  27.755  1.00  0.00     0.167 HD
ATOM     36  C   UNL A   1      47.097  26.177  27.008  1.00  0.00     0.074 A 
ATOM     37  C   UNL A   1      47.289  24.787  26.644  1.00  0.00     0.031 C 
ATOM     38  C   UNL A   1      48.085  27.105  27.028  1.00  0.00     0.037 A 
BRANCH  25  39
ATOM     39  C   UNL A   1      46.231  32.805  28.551  1.00  0.00     0.058 A 
ATOM     40  C   UNL A   1      46.654  33.304  29.793  1.00  0.00     0.135 A 
ATOM     41  C   UNL A   1      46.222  33.691  27.460  1.00  0.00     0.135 A 
ATOM     42  F   UNL A   1      46.671  32.506  30.872  1.00  0.00    -0.206 F 
ATOM     43  C   UNL A   1      47.033  34.633  29.953  1.00  0.00     0.059 A 
ATOM     44  C   UNL A   1      46.621  35.019  27.591  1.00  0.00     0.059 A 
ATOM     45  F   UNL A   1      45.828  33.268  26.249  1.00  0.00    -0.206 F 
ATOM     46  C   UNL A   1      47.014  35.484  28.845  1.00  0.00     0.060 A 
BRANCH  46  47
ATOM     47  S   UNL A   1      47.519  37.204  29.068  1.00  0.00     0.124 S 
ATOM     48  O   UNL A   1      47.447  37.341  30.520  1.00  0.00    -0.237 OA
ATOM     49  O   UNL A   1      48.863  37.211  28.498  1.00  0.00    -0.237 OA
ATOM     50  O   UNL A   1      46.518  37.954  28.317  1.00  0.00    -0.744 OA
ENDBRANCH  46  47
ENDBRANCH  25  39
BRANCH  26  51
ATOM     51  C   UNL A   1      43.335  23.338  27.045  1.00  0.00     0.058 A 
ATOM     52  C   UNL A   1      43.197  22.862  25.733  1.00  0.00     0.135 A 
ATOM     53  C   UNL A   1      43.071  22.447  28.097  1.00  0.00     0.135 A 
ATOM     54  F   UNL A   1      43.436  23.677  24.695  1.00  0.00    -0.206 F 
ATOM     55  C   UNL A   1      42.799  21.555  25.473  1.00  0.00     0.059 A 
ATOM     56  C   UNL A   1      42.701  21.127  27.862  1.00  0.00     0.059 A 
ATOM     57  F   UNL A   1      43.208  22.849  29.370  1.00  0.00    -0.206 F 
ATOM     58  C   UNL A   1      42.556  20.694  26.546  1.00  0.00     0.060 A 
BRANCH  58  59
ATOM     59  S   UNL A   1      42.086  18.986  26.197  1.00  0.00     0.124 S 
ATOM     60  O   UNL A   1      42.331  18.348  27.485  1.00  0.00    -0.237 OA
ATOM     61  O   UNL A   1      40.686  19.125  25.808  1.00  0.00    -0.237 OA
ATOM     62  O   UNL A   1      42.993  18.602  25.119  1.00  0.00    -0.744 OA
ENDBRANCH  58  59
ENDBRANCH  26  51
BRANCH  38  63
ATOM     63  C   UNL A   1      49.468  26.643  26.663  1.00  0.00     0.058 A 
ATOM     64  C   UNL A   1      50.329  26.076  27.615  1.00  0.00     0.135 A 
ATOM     65  C   UNL A   1      49.917  26.723  25.335  1.00  0.00     0.135 A 
ATOM     66  F   UNL A   1      49.952  25.987  28.900  1.00  0.00    -0.206 F 
ATOM     67  C   UNL A   1      51.595  25.618  27.266  1.00  0.00     0.059 A 
ATOM     68  C   UNL A   1      51.167  26.246  24.959  1.00  0.00     0.059 A 
ATOM     69  F   UNL A   1      49.129  27.252  24.385  1.00  0.00    -0.206 F 
ATOM     70  C   UNL A   1      52.003  25.704  25.934  1.00  0.00     0.060 A 
BRANCH  70  71
ATOM     71  S   UNL A   1      53.631  25.065  25.486  1.00  0.00     0.124 S 
ATOM     72  O   UNL A   1      53.977  25.911  24.349  1.00  0.00    -0.237 OA
ATOM     73  O   UNL A   1      54.403  25.293  26.704  1.00  0.00    -0.237 OA
ATOM     74  O   UNL A   1      53.371  23.663  25.170  1.00  0.00    -0.744 OA
ENDBRANCH  70  71
ENDBRANCH  38  63
ENDBRANCH  12  13
ENDBRANCH   5   7
ENDBRANCH   2   3
ENDBRANCH   1   2
BRANCH   1  75
ATOM     75  C   UNL A   1      32.942  28.440  27.160  1.00  0.00     0.002 C 
BRANCH  75  76
ATOM     76  C   UNL A   1      31.974  28.155  26.007  1.00  0.00     0.002 C 
BRANCH  76  77
ATOM     77  C   UNL A   1      32.576  27.360  24.842  1.00  0.00     0.021 C 
BRANCH  77  78
ATOM     78  C   UNL A   1      31.826  26.065  24.530  1.00  0.00     0.116 C 
BRANCH  78  79
ATOM     79  N   UNL A   1      31.246  25.515  25.742  1.00  0.00    -0.351 N 
ATOM     80  C   UNL A   1      31.520  24.339  26.376  1.00  0.00     0.278 C 
ATOM     81  H   UNL A   1      30.554  26.072  26.167  1.00  0.00     0.163 HD
ATOM     82  O   UNL A   1      30.856  24.052  27.376  1.00  0.00    -0.268 OA
BRANCH  80  83
ATOM     83  C   UNL A   1      32.666  23.430  25.900  1.00  0.00     0.277 C 
ATOM     84  C   UNL A   1      34.044  24.116  26.066  1.00  0.00     0.114 C 
ATOM     85  N   UNL A   1      32.502  22.099  26.554  1.00  0.00    -0.324 N 
ATOM     86  C   UNL A   1      35.128  23.097  26.056  1.00  0.00    -0.006 A 
ATOM     87  C   UNL A   1      33.492  21.101  26.145  1.00  0.00     0.264 C 
ATOM     88  H   UNL A   1      31.574  21.742  26.324  1.00  0.00     0.347 HD
ATOM     89  H   UNL A   1      32.632  22.246  27.555  1.00  0.00     0.347 HD
ATOM     90  C   UNL A   1      34.846  21.745  26.085  1.00  0.00     0.083 A 
ATOM     91  C   UNL A   1      36.539  23.255  26.072  1.00  0.00     0.003 A 
ATOM     92  N   UNL A   1      36.040  21.077  26.116  1.00  0.00    -0.353 N 
ATOM     93  C   UNL A   1      37.089  21.972  26.090  1.00  0.00     0.046 A 
ATOM     94  C   UNL A   1      37.407  24.364  26.089  1.00  0.00     0.010 A 
ATOM     95  H   UNL A   1      36.138  20.098  26.153  1.00  0.00     0.166 HD
ATOM     96  C   UNL A   1      38.469  21.742  26.100  1.00  0.00     0.026 A 
ATOM     97  C   UNL A   1      38.790  24.151  26.107  1.00  0.00     0.001 A 
ATOM     98  C   UNL A   1      39.310  22.859  26.105  1.00  0.00     0.002 A 
BRANCH  87  99
ATOM     99  C   UNL A   1      33.122  20.339  24.881  1.00  0.00     0.041 A 
ATOM    100  C   UNL A   1      32.345  20.903  23.874  1.00  0.00     0.093 A 
ATOM    101  C   UNL A   1      33.474  19.015  24.394  1.00  0.00     0.009 A 
ATOM    102  N   UNL A   1      32.150  19.989  22.882  1.00  0.00    -0.361 N 
ATOM    103  C   UNL A   1      32.825  18.831  23.168  1.00  0.00     0.046 A 
ATOM    104  C   UNL A   1      34.278  17.940  24.846  1.00  0.00     0.011 A 
ATOM    105  H   UNL A   1      31.605  20.139  22.077  1.00  0.00     0.166 HD
ATOM    106  C   UNL A   1      32.903  17.649  22.417  1.00  0.00     0.026 A 
ATOM    107  C   UNL A   1      34.365  16.748  24.113  1.00  0.00     0.001 A 
ATOM    108  C   UNL A   1      33.679  16.605  22.916  1.00  0.00     0.002 A 
ENDBRANCH  87  99
ENDBRANCH  80  83
ENDBRANCH  78  79
ENDBRANCH  77  78
ENDBRANCH  76  77
ENDBRANCH  75  76
ENDBRANCH   1  75
TORSDOF 17
ENDMDL
MODEL 2
REMARK VINA RESULT:     -12.9      2.174      4.567
REMARK SMILES O=C(NCCCCCCNC(=O)[C@H]1Cc2c([nH]c3ccccc23)[C@H](c2c[nH]c3ccccc23)[NH2+]1)c1ccc(-c2c3nc(c(-c4c(F)cc(S(=O)(=O)[O-])cc4F)c4ccc([nH]4)c(-c4c(F)cc(S(=O)(=O)[O-])cc4F)c4nc(c(-c5c(F)cc(S(=O)(=O)[O-])cc5F)c5ccc2[nH]5)C=C4)C=C3)cc1
REMARK SMILES IDX 5 1 4 2 3 3 1 4 2 5 35 7 36 8 100 9 37 10 99 11 38 12 39 13
REMARK SMILES IDX 40 14 93 15 41 16 98 17 92 18 94 19 42 20 97 21 91 22 90 23
REMARK SMILES IDX 43 25 77 26 56 27 76 28 57 29 60 30 75 31 95 32 58 33 59 34
REMARK SMILES IDX 74 36 96 37 61 38 44 39 45 40 54 41 46 42 47 43 53 44 55 45
REMARK SMILES IDX 48 46 49 47 50 48 51 49 52 50 78 51 79 52 88 53 80 54 81 55
REMARK SMILES IDX 87 56 89 57 82 58 83 59 84 60 85 61 86 62 62 63 63 64 72 65
REMARK SMILES IDX 64 66 65 67 71 68 73 69 66 70 67 71 68 72 69 73 70 74 6 75
REMARK SMILES IDX 7 76 8 77 9 78 10 79 11 80 12 82 13 83 14 84 34 85 15 86
REMARK SMILES IDX 24 87 16 90 23 91 17 92 18 93 22 94 19 96 21 97 20 98 25 99
REMARK SMILES IDX 26 100 33 101 27 102 28 103 32 104 29 106 31 107 30 108
REMARK H PARENT 3 6 94 24 60 35 10 81 34 88 34 89 17 95 27 105
REMARK Flexibility Score: inf
ROOT
ATOM      1  C   UNL A   1      36.369  34.086  29.398  1.00  0.00     0.021 C 
ENDROOT
BRANCH   1   2
ATOM      2  C   UNL A   1      37.265  33.413  30.430  1.00  0.00     0.116 C 
BRANCH   2   3
ATOM      3  N   UNL A   1      36.577  32.329  31.115  1.00  0.00    -0.352 N 
ATOM      4  O   UNL A   1      36.096  30.176  31.580  1.00  0.00    -0.269 OA
ATOM      5  C   UNL A   1      36.899  30.996  31.145  1.00  0.00     0.251 C 
ATOM      6  H   UNL A   1      35.775  32.587  31.624  1.00  0.00     0.163 HD
BRANCH   5   7
ATOM      7  C   UNL A   1      38.218  30.559  30.641  1.00  0.00     0.039 A 
ATOM      8  C   UNL A   1      38.453  30.477  29.265  1.00  0.00     0.014 A 
ATOM      9  C   UNL A   1      39.229  30.239  31.551  1.00  0.00     0.014 A 
ATOM     10  C   UNL A   1      39.660  29.970  28.801  1.00  0.00     0.010 A 
ATOM     11  C   UNL A   1      40.470  29.807  31.079  1.00  0.00     0.010 A 
ATOM     12  C   UNL A   1      40.690  29.656  29.701  1.00  0.00    -0.014 A 
BRANCH  12  13
ATOM     13  C   UNL A   1      42.022  29.270  29.174  1.00  0.00     0.031 A 
ATOM     14  C   UNL A   1      43.144  30.264  29.083  1.00  0.00     0.074 A 
ATOM     15  C   UNL A   1      42.203  27.996  28.774  1.00  0.00     0.049 A 
ATOM     16  N   UNL A   1      44.358  30.092  28.625  1.00  0.00    -0.248 NA
ATOM     17  C   UNL A   1      42.872  31.629  29.560  1.00  0.00     0.031 C 
ATOM     18  C   UNL A   1      41.173  26.952  28.804  1.00  0.00     0.029 A 
ATOM     19  N   UNL A   1      43.305  27.357  28.268  1.00  0.00    -0.354 N 
ATOM     20  C   UNL A   1      44.989  31.324  28.738  1.00  0.00     0.074 A 
ATOM     21  C   UNL A   1      44.017  32.244  29.291  1.00  0.00     0.031 C 
ATOM     22  C   UNL A   1      41.701  25.800  28.368  1.00  0.00     0.029 A 
ATOM     23  C   UNL A   1      43.081  26.035  27.964  1.00  0.00     0.049 A 
ATOM     24  H   UNL A   1      44.173  27.802  28.136  1.00  0.00     0.167 HD
ATOM     25  C   UNL A   1      46.264  31.651  28.413  1.00  0.00     0.037 A 
ATOM     26  C   UNL A   1      43.886  25.120  27.395  1.00  0.00     0.037 A 
ATOM     27  C   UNL A   1      47.222  30.718  27.874  1.00  0.00     0.049 A 
ATOM     28  C   UNL A   1      45.282  25.518  27.017  1.00  0.00     0.074 A 
ATOM     29  C   UNL A   1      48.552  30.938  27.557  1.00  0.00     0.029 A 
ATOM     30  N   UNL A   1      46.953  29.393  27.562  1.00  0.00    -0.354 N 
ATOM     31  N   UNL A   1      45.877  26.676  27.175  1.00  0.00    -0.248 NA
ATOM     32  C   UNL A   1      46.117  24.491  26.382  1.00  0.00     0.031 C 
ATOM     33  C   UNL A   1      49.071  29.763  27.006  1.00  0.00     0.029 A 
ATOM     34  C   UNL A   1      48.082  28.792  27.027  1.00  0.00     0.049 A 
ATOM     35  H   UNL A   1      46.088  28.945  27.699  1.00  0.00     0.167 HD
ATOM     36  C   UNL A   1      47.161  26.514  26.670  1.00  0.00     0.074 A 
ATOM     37  C   UNL A   1      47.262  25.140  26.220  1.00  0.00     0.031 C 
ATOM     38  C   UNL A   1      48.164  27.422  26.584  1.00  0.00     0.037 A 
BRANCH  25  39
ATOM     39  C   UNL A   1      46.698  33.079  28.611  1.00  0.00     0.058 A 
ATOM     40  C   UNL A   1      46.550  34.045  27.604  1.00  0.00     0.135 A 
ATOM     41  C   UNL A   1      47.216  33.498  29.848  1.00  0.00     0.135 A 
ATOM     42  F   UNL A   1      46.071  33.698  26.398  1.00  0.00    -0.206 F 
ATOM     43  C   UNL A   1      46.920  35.371  27.807  1.00  0.00     0.059 A 
ATOM     44  C   UNL A   1      47.570  34.825  30.082  1.00  0.00     0.059 A 
ATOM     45  F   UNL A   1      47.379  32.618  30.847  1.00  0.00    -0.206 F 
ATOM     46  C   UNL A   1      47.429  35.752  29.051  1.00  0.00     0.060 A 
BRANCH  46  47
ATOM     47  S   UNL A   1      47.894  37.479  29.300  1.00  0.00     0.124 S 
ATOM     48  O   UNL A   1      48.254  37.481  30.716  1.00  0.00    -0.237 OA
ATOM     49  O   UNL A   1      49.003  37.643  28.366  1.00  0.00    -0.237 OA
ATOM     50  O   UNL A   1      46.679  38.213  28.961  1.00  0.00    -0.744 OA
ENDBRANCH  46  47
ENDBRANCH  25  39
BRANCH  26  51
ATOM     51  C   UNL A   1      43.372  23.749  27.133  1.00  0.00     0.058 A 
ATOM     52  C   UNL A   1      42.989  23.353  25.844  1.00  0.00     0.135 A 
ATOM     53  C   UNL A   1      43.284  22.800  28.164  1.00  0.00     0.135 A 
ATOM     54  F   UNL A   1      43.053  24.225  24.827  1.00  0.00    -0.206 F 
ATOM     55  C   UNL A   1      42.524  22.067  25.588  1.00  0.00     0.059 A 
ATOM     56  C   UNL A   1      42.851  21.500  27.927  1.00  0.00     0.059 A 
ATOM     57  F   UNL A   1      43.658  23.125  29.412  1.00  0.00    -0.206 F 
ATOM     58  C   UNL A   1      42.461  21.147  26.636  1.00  0.00     0.060 A 
BRANCH  58  59
ATOM     59  S   UNL A   1      41.900  19.467  26.284  1.00  0.00     0.124 S 
ATOM     60  O   UNL A   1      42.581  19.192  25.024  1.00  0.00    -0.237 OA
ATOM     61  O   UNL A   1      42.386  18.731  27.447  1.00  0.00    -0.237 OA
ATOM     62  O   UNL A   1      40.450  19.609  26.201  1.00  0.00    -0.744 OA
ENDBRANCH  58  59
ENDBRANCH  26  51
BRANCH  38  63
ATOM     63  C   UNL A   1      49.467  26.951  26.001  1.00  0.00     0.058 A 
ATOM     64  C   UNL A   1      49.727  27.027  24.624  1.00  0.00     0.135 A 
ATOM     65  C   UNL A   1      50.486  26.466  26.837  1.00  0.00     0.135 A 
ATOM     66  F   UNL A   1      48.782  27.472  23.781  1.00  0.00    -0.206 F 
ATOM     67  C   UNL A   1      50.947  26.622  24.093  1.00  0.00     0.059 A 
ATOM     68  C   UNL A   1      51.722  26.083  26.331  1.00  0.00     0.059 A 
ATOM     69  F   UNL A   1      50.290  26.380  28.162  1.00  0.00    -0.206 F 
ATOM     70  C   UNL A   1      51.940  26.155  24.956  1.00  0.00     0.060 A 
BRANCH  70  71
ATOM     71  S   UNL A   1      53.535  25.675  24.259  1.00  0.00     0.124 S 
ATOM     72  O   UNL A   1      53.587  24.256  24.593  1.00  0.00    -0.237 OA
ATOM     73  O   UNL A   1      53.364  25.988  22.843  1.00  0.00    -0.237 OA
ATOM     74  O   UNL A   1      54.486  26.524  24.972  1.00  0.00    -0.744 OA
ENDBRANCH  70  71
ENDBRANCH  38  63
ENDBRANCH  12  13
ENDBRANCH   5   7
ENDBRANCH   2   3
ENDBRANCH   1   2
BRANCH   1  75
ATOM     75  C   UNL A   1      36.166  33.271  28.120  1.00  0.00     0.002 C 
BRANCH  75  76
ATOM     76  C   UNL A   1      34.813  32.560  28.020  1.00  0.00     0.002 C 
BRANCH  76  77
ATOM     77  C   UNL A   1      34.892  31.029  27.968  1.00  0.00     0.021 C 
BRANCH  77  78
ATOM     78  C   UNL A   1      33.793  30.385  27.124  1.00  0.00     0.116 C 
BRANCH  78  79
ATOM     79  N   UNL A   1      32.977  29.507  27.944  1.00  0.00    -0.351 N 
ATOM     80  C   UNL A   1      32.253  28.410  27.581  1.00  0.00     0.278 C 
ATOM     81  H   UNL A   1      32.942  29.738  28.901  1.00  0.00     0.163 HD
ATOM     82  O   UNL A   1      31.586  27.843  28.452  1.00  0.00    -0.268 OA
BRANCH  80  83
ATOM     83  C   UNL A   1      32.319  27.855  26.148  1.00  0.00     0.277 C 
ATOM     84  C   UNL A   1      33.379  26.734  26.018  1.00  0.00     0.114 C 
ATOM     85  N   UNL A   1      30.931  27.512  25.722  1.00  0.00    -0.324 N 
ATOM     86  C   UNL A   1      33.110  25.913  24.807  1.00  0.00    -0.006 A 
ATOM     87  C   UNL A   1      30.827  27.026  24.345  1.00  0.00     0.264 C 
ATOM     88  H   UNL A   1      30.352  28.348  25.812  1.00  0.00     0.347 HD
ATOM     89  H   UNL A   1      30.620  26.749  26.325  1.00  0.00     0.347 HD
ATOM     90  C   UNL A   1      31.952  26.073  24.070  1.00  0.00     0.083 A 
ATOM     91  C   UNL A   1      33.861  24.856  24.227  1.00  0.00     0.003 A 
ATOM     92  N   UNL A   1      31.977  25.150  23.060  1.00  0.00    -0.353 N 
ATOM     93  C   UNL A   1      33.137  24.407  23.121  1.00  0.00     0.046 A 
ATOM     94  C   UNL A   1      35.079  24.224  24.542  1.00  0.00     0.010 A 
ATOM     95  H   UNL A   1      31.268  25.032  22.387  1.00  0.00     0.166 HD
ATOM     96  C   UNL A   1      33.585  23.369  22.297  1.00  0.00     0.026 A 
ATOM     97  C   UNL A   1      35.537  23.179  23.732  1.00  0.00     0.001 A 
ATOM     98  C   UNL A   1      34.803  22.764  22.623  1.00  0.00     0.002 A 
BRANCH  87  99
ATOM     99  C   UNL A   1      30.692  28.130  23.305  1.00  0.00     0.041 A 
ATOM    100  C   UNL A   1      31.773  28.576  22.552  1.00  0.00     0.093 A 
ATOM    101  C   UNL A   1      29.550  28.884  22.816  1.00  0.00     0.009 A 
ATOM    102  N   UNL A   1      31.370  29.581  21.726  1.00  0.00    -0.361 N 
ATOM    103  C   UNL A   1      30.022  29.792  21.861  1.00  0.00     0.046 A 
ATOM    104  C   UNL A   1      28.155  28.905  23.066  1.00  0.00     0.011 A 
ATOM    105  H   UNL A   1      31.960  30.083  21.119  1.00  0.00     0.166 HD
ATOM    106  C   UNL A   1      29.204  30.717  21.197  1.00  0.00     0.026 A 
ATOM    107  C   UNL A   1      27.321  29.825  22.416  1.00  0.00     0.001 A 
ATOM    108  C   UNL A   1      27.843  30.724  21.498  1.00  0.00     0.002 A 
ENDBRANCH  87  99
ENDBRANCH  80  83
ENDBRANCH  78  79
ENDBRANCH  77  78
ENDBRANCH  76  77
ENDBRANCH  75  76
ENDBRANCH   1  75
TORSDOF 17
ENDMDL
MODEL 3
REMARK VINA RESULT:     -12.6      2.567      3.334
REMARK SMILES O=C(NCCCCCCNC(=O)[C@H]1Cc2c([nH]c3ccccc23)[C@H](c2c[nH]c3ccccc23)[NH2+]1)c1ccc(-c2c3nc(c(-c4c(F)cc(S(=O)(=O)[O-])cc4F)c4ccc([nH]4)c(-c4c(F)cc(S(=O)(=O)[O-])cc4F)c4nc(c(-c5c(F)cc(S(=O)(=O)[O-])cc5F)c5ccc2[nH]5)C=C4)C=C3)cc1
REMARK SMILES IDX 5 1 4 2 3 3 1 4 2 5 35 7 36 8 100 9 37 10 99 11 38 12 39 13
REMARK SMILES IDX 40 14 93 15 41 16 98 17 92 18 94 19 42 20 97 21 91 22 90 23
REMARK SMILES IDX 43 25 77 26 56 27 76 28 57 29 60 30 75 31 95 32 58 33 59 34
REMARK SMILES IDX 74 36 96 37 61 38 44 39 45 40 54 41 46 42 47 43 53 44 55 45
REMARK SMILES IDX 48 46 49 47 50 48 51 49 52 50 78 51 79 52 88 53 80 54 81 55
REMARK SMILES IDX 87 56 89 57 82 58 83 59 84 60 85 61 86 62 62 63 63 64 72 65
REMARK SMILES IDX 64 66 65 67 71 68 73 69 66 70 67 71 68 72 69 73 70 74 6 75
REMARK SMILES IDX 7 76 8 77 9 78 10 79 11 80 12 82 13 83 14 84 34 85 15 86
REMARK SMILES IDX 24 87 16 90 23 91 17 92 18 93 22 94 19 96 21 97 20 98 25 99
REMARK SMILES IDX 26 100 33 101 27 102 28 103 32 104 29 106 31 107 30 108
REMARK H PARENT 3 6 94 24 60 35 10 81 34 88 34 89 17 95 27 105
REMARK Flexibility Score: inf
ROOT
ATOM      1  C   UNL A   1      33.165  27.763  25.587  1.00  0.00     0.021 C 
ENDROOT
BRANCH   1   2
ATOM      2  C   UNL A   1      34.222  28.296  26.546  1.00  0.00     0.116 C 
BRANCH   2   3
ATOM      3  N   UNL A   1      33.893  29.631  27.021  1.00  0.00    -0.352 N 
ATOM      4  O   UNL A   1      34.090  31.440  28.352  1.00  0.00    -0.269 OA
ATOM      5  C   UNL A   1      34.608  30.437  27.871  1.00  0.00     0.251 C 
ATOM      6  H   UNL A   1      33.045  30.005  26.689  1.00  0.00     0.163 HD
BRANCH   5   7
ATOM      7  C   UNL A   1      36.002  30.079  28.207  1.00  0.00     0.039 A 
ATOM      8  C   UNL A   1      37.014  30.228  27.255  1.00  0.00     0.014 A 
ATOM      9  C   UNL A   1      36.298  29.601  29.485  1.00  0.00     0.014 A 
ATOM     10  C   UNL A   1      38.303  29.796  27.544  1.00  0.00     0.010 A 
ATOM     11  C   UNL A   1      37.611  29.243  29.800  1.00  0.00     0.010 A 
ATOM     12  C   UNL A   1      38.620  29.325  28.827  1.00  0.00    -0.014 A 
BRANCH  12  13
ATOM     13  C   UNL A   1      40.034  29.021  29.160  1.00  0.00     0.031 A 
ATOM     14  C   UNL A   1      40.910  30.032  29.843  1.00  0.00     0.074 A 
ATOM     15  C   UNL A   1      40.518  27.808  28.830  1.00  0.00     0.049 A 
ATOM     16  N   UNL A   1      42.171  29.931  30.180  1.00  0.00    -0.248 NA
ATOM     17  C   UNL A   1      40.299  31.325  30.188  1.00  0.00     0.031 C 
ATOM     18  C   UNL A   1      39.756  26.755  28.150  1.00  0.00     0.029 A 
ATOM     19  N   UNL A   1      41.754  27.247  29.021  1.00  0.00    -0.354 N 
ATOM     20  C   UNL A   1      42.512  31.147  30.757  1.00  0.00     0.074 A 
ATOM     21  C   UNL A   1      41.329  31.982  30.707  1.00  0.00     0.031 C 
ATOM     22  C   UNL A   1      40.530  25.671  28.008  1.00  0.00     0.029 A 
ATOM     23  C   UNL A   1      41.860  25.970  28.525  1.00  0.00     0.049 A 
ATOM     24  H   UNL A   1      42.495  27.715  29.470  1.00  0.00     0.167 HD
ATOM     25  C   UNL A   1      43.703  31.526  31.283  1.00  0.00     0.037 A 
ATOM     26  C   UNL A   1      42.917  25.140  28.462  1.00  0.00     0.037 A 
ATOM     27  C   UNL A   1      44.867  30.676  31.334  1.00  0.00     0.049 A 
ATOM     28  C   UNL A   1      44.231  25.597  29.024  1.00  0.00     0.074 A 
ATOM     29  C   UNL A   1      46.106  30.948  31.889  1.00  0.00     0.029 A 
ATOM     30  N   UNL A   1      44.941  29.396  30.804  1.00  0.00    -0.354 N 
ATOM     31  N   UNL A   1      44.523  26.734  29.608  1.00  0.00    -0.248 NA
ATOM     32  C   UNL A   1      45.360  24.665  28.917  1.00  0.00     0.031 C 
ATOM     33  C   UNL A   1      46.943  29.855  31.648  1.00  0.00     0.029 A 
ATOM     34  C   UNL A   1      46.213  28.877  30.990  1.00  0.00     0.049 A 
ATOM     35  H   UNL A   1      44.200  28.925  30.360  1.00  0.00     0.167 HD
ATOM     36  C   UNL A   1      45.866  26.650  29.950  1.00  0.00     0.074 A 
ATOM     37  C   UNL A   1      46.323  25.342  29.525  1.00  0.00     0.031 C 
ATOM     38  C   UNL A   1      46.651  27.573  30.560  1.00  0.00     0.037 A 
BRANCH  25  39
ATOM     39  C   UNL A   1      43.821  32.924  31.828  1.00  0.00     0.058 A 
ATOM     40  C   UNL A   1      44.161  34.012  31.011  1.00  0.00     0.135 A 
ATOM     41  C   UNL A   1      43.530  33.185  33.178  1.00  0.00     0.135 A 
ATOM     42  F   UNL A   1      44.460  33.819  29.717  1.00  0.00    -0.206 F 
ATOM     43  C   UNL A   1      44.232  35.307  31.516  1.00  0.00     0.059 A 
ATOM     44  C   UNL A   1      43.570  34.477  33.699  1.00  0.00     0.059 A 
ATOM     45  F   UNL A   1      43.197  32.183  34.005  1.00  0.00    -0.206 F 
ATOM     46  C   UNL A   1      43.934  35.530  32.862  1.00  0.00     0.060 A 
BRANCH  46  47
ATOM     47  S   UNL A   1      44.021  37.219  33.497  1.00  0.00     0.124 S 
ATOM     48  O   UNL A   1      42.732  37.340  34.174  1.00  0.00    -0.237 OA
ATOM     49  O   UNL A   1      45.189  37.165  34.369  1.00  0.00    -0.237 OA
ATOM     50  O   UNL A   1      44.176  38.029  32.294  1.00  0.00    -0.744 OA
ENDBRANCH  46  47
ENDBRANCH  25  39
BRANCH  26  51
ATOM     51  C   UNL A   1      42.768  23.806  27.823  1.00  0.00     0.058 A 
ATOM     52  C   UNL A   1      42.915  23.645  26.438  1.00  0.00     0.135 A 
ATOM     53  C   UNL A   1      42.507  22.660  28.592  1.00  0.00     0.135 A 
ATOM     54  F   UNL A   1      43.163  24.711  25.662  1.00  0.00    -0.206 F 
ATOM     55  C   UNL A   1      42.794  22.398  25.835  1.00  0.00     0.059 A 
ATOM     56  C   UNL A   1      42.412  21.398  28.016  1.00  0.00     0.059 A 
ATOM     57  F   UNL A   1      42.378  22.759  29.924  1.00  0.00    -0.206 F 
ATOM     58  C   UNL A   1      42.545  21.280  26.633  1.00  0.00     0.060 A 
BRANCH  58  59
ATOM     59  S   UNL A   1      42.438  19.658  25.846  1.00  0.00     0.124 S 
ATOM     60  O   UNL A   1      43.398  19.799  24.758  1.00  0.00    -0.237 OA
ATOM     61  O   UNL A   1      42.827  18.763  26.931  1.00  0.00    -0.237 OA
ATOM     62  O   UNL A   1      41.036  19.572  25.445  1.00  0.00    -0.744 OA
ENDBRANCH  58  59
ENDBRANCH  26  51
BRANCH  38  63
ATOM     63  C   UNL A   1      48.081  27.191  30.822  1.00  0.00     0.058 A 
ATOM     64  C   UNL A   1      49.084  27.392  29.862  1.00  0.00     0.135 A 
ATOM     65  C   UNL A   1      48.459  26.666  32.068  1.00  0.00     0.135 A 
ATOM     66  F   UNL A   1      48.773  27.881  28.651  1.00  0.00    -0.206 F 
ATOM     67  C   UNL A   1      50.412  27.069  30.122  1.00  0.00     0.059 A 
ATOM     68  C   UNL A   1      49.784  26.363  32.359  1.00  0.00     0.059 A 
ATOM     69  F   UNL A   1      47.538  26.461  33.024  1.00  0.00    -0.206 F 
ATOM     70  C   UNL A   1      50.752  26.559  31.376  1.00  0.00     0.060 A 
BRANCH  70  71
ATOM     71  S   UNL A   1      52.486  26.187  31.716  1.00  0.00     0.124 S 
ATOM     72  O   UNL A   1      52.755  27.057  32.856  1.00  0.00    -0.237 OA
ATOM     73  O   UNL A   1      52.447  24.756  32.004  1.00  0.00    -0.237 OA
ATOM     74  O   UNL A   1      53.162  26.552  30.474  1.00  0.00    -0.744 OA
ENDBRANCH  70  71
ENDBRANCH  38  63
ENDBRANCH  12  13
ENDBRANCH   5   7
ENDBRANCH   2   3
ENDBRANCH   1   2
BRANCH   1  75
ATOM     75  C   UNL A   1      33.734  27.168  24.298  1.00  0.00     0.002 C 
BRANCH  75  76
ATOM     76  C   UNL A   1      32.758  27.144  23.117  1.00  0.00     0.002 C 
BRANCH  76  77
ATOM     77  C   UNL A   1      31.309  26.803  23.486  1.00  0.00     0.021 C 
BRANCH  77  78
ATOM     78  C   UNL A   1      31.090  25.328  23.817  1.00  0.00     0.116 C 
BRANCH  78  79
ATOM     79  N   UNL A   1      30.824  25.165  25.236  1.00  0.00    -0.351 N 
ATOM     80  C   UNL A   1      31.371  24.285  26.123  1.00  0.00     0.278 C 
ATOM     81  H   UNL A   1      30.151  25.778  25.611  1.00  0.00     0.163 HD
ATOM     82  O   UNL A   1      30.948  24.294  27.283  1.00  0.00    -0.268 OA
BRANCH  80  83
ATOM     83  C   UNL A   1      32.526  23.356  25.709  1.00  0.00     0.277 C 
ATOM     84  C   UNL A   1      33.901  24.049  25.872  1.00  0.00     0.114 C 
ATOM     85  N   UNL A   1      32.347  22.055  26.416  1.00  0.00    -0.324 N 
ATOM     86  C   UNL A   1      34.983  23.030  25.926  1.00  0.00    -0.006 A 
ATOM     87  C   UNL A   1      33.344  21.040  26.070  1.00  0.00     0.264 C 
ATOM     88  H   UNL A   1      31.423  21.688  26.183  1.00  0.00     0.347 HD
ATOM     89  H   UNL A   1      32.457  22.245  27.413  1.00  0.00     0.347 HD
ATOM     90  C   UNL A   1      34.700  21.681  26.009  1.00  0.00     0.083 A 
ATOM     91  C   UNL A   1      36.394  23.189  25.963  1.00  0.00     0.003 A 
ATOM     92  N   UNL A   1      35.893  21.014  26.092  1.00  0.00    -0.353 N 
ATOM     93  C   UNL A   1      36.942  21.907  26.048  1.00  0.00     0.046 A 
ATOM     94  C   UNL A   1      37.262  24.297  25.949  1.00  0.00     0.010 A 
ATOM     95  H   UNL A   1      35.988  20.038  26.172  1.00  0.00     0.166 HD
ATOM     96  C   UNL A   1      38.321  21.678  26.094  1.00  0.00     0.026 A 
ATOM     97  C   UNL A   1      38.645  24.085  26.003  1.00  0.00     0.001 A 
ATOM     98  C   UNL A   1      39.164  22.794  26.068  1.00  0.00     0.002 A 
BRANCH  87  99
ATOM     99  C   UNL A   1      32.998  20.224  24.833  1.00  0.00     0.041 A 
ATOM    100  C   UNL A   1      32.117  20.687  23.861  1.00  0.00     0.093 A 
ATOM    101  C   UNL A   1      33.467  18.939  24.342  1.00  0.00     0.009 A 
ATOM    102  N   UNL A   1      31.974  19.743  22.888  1.00  0.00    -0.361 N 
ATOM    103  C   UNL A   1      32.783  18.668  23.151  1.00  0.00     0.046 A 
ATOM    104  C   UNL A   1      34.403  17.962  24.763  1.00  0.00     0.011 A 
ATOM    105  H   UNL A   1      31.378  19.822  22.110  1.00  0.00     0.166 HD
ATOM    106  C   UNL A   1      32.952  17.490  22.408  1.00  0.00     0.026 A 
ATOM    107  C   UNL A   1      34.583  16.777  24.038  1.00  0.00     0.001 A 
ATOM    108  C   UNL A   1      33.860  16.543  22.878  1.00  0.00     0.002 A 
ENDBRANCH  87  99
ENDBRANCH  80  83
ENDBRANCH  78  79
ENDBRANCH  77  78
ENDBRANCH  76  77
ENDBRANCH  75  76
ENDBRANCH   1  75
TORSDOF 17
ENDMDL
