MODEL 1
REMARK VINA RESULT:      -8.1      0.000      0.000
REMARK SMILES CCCN(C(=O)Cc1c(C(=O)NCCCCCCNC(=O)c2ccc(-c3c4nc(c(-c5c(F)cc(S(=O)(=O)[O-])cc5F)c5ccc([nH]5)c(-c5c(F)cc(S(=O)(=O)[O-])cc5F)c5nc(c(-c6c(F)cc(S(=O)(=O)[O-])cc6F)c6ccc3[nH]6)C=C5)C=C4)cc2)c(C)cn1CC)c1cccc(Cl)c1
REMARK SMILES IDX 14 1 13 2 12 3 10 4 11 5 9 7 8 8 91 9 88 10 90 11 89 12 7 13
REMARK SMILES IDX 5 14 6 15 4 16 3 17 2 18 1 19 94 20 95 21 100 22 96 23 98 24
REMARK SMILES IDX 97 25 99 26 92 27 93 28 15 29 16 30 17 31 18 32 19 33 20 34
REMARK SMILES IDX 21 36 22 37 23 38 87 39 24 40 86 41 25 42 26 43 27 44 80 45
REMARK SMILES IDX 28 46 85 47 79 48 81 49 29 50 84 51 78 52 77 53 30 55 64 56
REMARK SMILES IDX 43 57 63 58 44 59 47 60 62 61 82 62 45 63 46 64 61 66 83 67
REMARK SMILES IDX 48 68 31 69 32 70 41 71 33 72 34 73 40 74 42 75 35 76 36 77
REMARK SMILES IDX 37 78 38 79 39 80 65 81 66 82 75 83 67 84 68 85 74 86 76 87
REMARK SMILES IDX 69 88 70 89 71 90 72 91 73 92 49 93 50 94 59 95 51 96 52 97
REMARK SMILES IDX 58 98 60 99 53 100 54 101 55 102 56 103 57 104
REMARK H PARENT 12 6 19 35 81 54 47 65
REMARK Flexibility Score: inf
ROOT
ATOM      1  C   UNL A   1      46.224  25.580  26.583  1.00  0.00     0.021 C 
ENDROOT
BRANCH   1   2
ATOM      2  C   UNL A   1      46.628  25.566  28.059  1.00  0.00     0.116 C 
BRANCH   2   3
ATOM      3  N   UNL A   1      47.819  24.788  28.215  1.00  0.00    -0.352 N 
ATOM      4  C   UNL A   1      49.121  25.115  27.976  1.00  0.00     0.253 C 
ATOM      5  O   UNL A   1      49.855  24.162  27.698  1.00  0.00    -0.269 OA
ATOM      6  H   UNL A   1      47.675  23.872  28.546  1.00  0.00     0.163 HD
BRANCH   4   7
ATOM      7  C   UNL A   1      49.684  26.459  28.202  1.00  0.00     0.064 A 
ATOM      8  C   UNL A   1      49.526  27.057  29.471  1.00  0.00     0.040 A 
ATOM      9  N   UNL A   1      50.303  28.190  29.503  1.00  0.00    -0.350 N 
ATOM     10  C   UNL A   1      50.427  27.420  27.408  1.00  0.00    -0.020 A 
ATOM     11  C   UNL A   1      50.749  28.468  28.249  1.00  0.00     0.090 A 
ATOM     12  C   UNL A   1      50.897  27.427  25.994  1.00  0.00     0.047 C 
BRANCH   8  13
ATOM     13  C   UNL A   1      48.794  26.568  30.696  1.00  0.00     0.155 C 
BRANCH  13  14
ATOM     14  C   UNL A   1      49.564  25.689  31.686  1.00  0.00     0.232 C 
ATOM     15  O   UNL A   1      50.337  24.852  31.194  1.00  0.00    -0.274 OA
BRANCH  14  16
ATOM     16  N   UNL A   1      49.465  25.888  33.080  1.00  0.00    -0.312 N 
BRANCH  16  17
ATOM     17  C   UNL A   1      50.638  25.865  33.985  1.00  0.00     0.125 C 
BRANCH  17  18
ATOM     18  C   UNL A   1      50.990  27.102  34.830  1.00  0.00     0.019 C 
ATOM     19  C   UNL A   1      51.064  26.921  36.340  1.00  0.00     0.006 C 
ENDBRANCH  17  18
ENDBRANCH  16  17
BRANCH  16  20
ATOM     20  C   UNL A   1      48.178  25.701  33.706  1.00  0.00     0.045 A 
ATOM     21  C   UNL A   1      47.406  26.786  34.148  1.00  0.00     0.026 A 
ATOM     22  C   UNL A   1      47.677  24.418  33.921  1.00  0.00     0.046 A 
ATOM     23  C   UNL A   1      46.174  26.595  34.782  1.00  0.00     0.004 A 
ATOM     24  C   UNL A   1      46.433  24.225  34.528  1.00  0.00     0.043 A 
ATOM     25  C   UNL A   1      45.679  25.308  34.964  1.00  0.00     0.020 A 
ATOM     26  Cl  UNL A   1      45.836  22.625  34.753  1.00  0.00    -0.084 Cl
ENDBRANCH  16  20
ENDBRANCH  14  16
ENDBRANCH  13  14
ENDBRANCH   8  13
BRANCH   9  27
ATOM     27  C   UNL A   1      50.723  28.949  30.671  1.00  0.00     0.118 C 
ATOM     28  C   UNL A   1      50.930  30.424  30.378  1.00  0.00     0.027 C 
ENDBRANCH   9  27
ENDBRANCH   4   7
ENDBRANCH   2   3
ENDBRANCH   1   2
BRANCH   1  29
ATOM     29  C   UNL A   1      45.628  24.243  26.126  1.00  0.00     0.002 C 
BRANCH  29  30
ATOM     30  C   UNL A   1      44.667  24.339  24.928  1.00  0.00     0.002 C 
BRANCH  30  31
ATOM     31  C   UNL A   1      44.324  23.009  24.234  1.00  0.00     0.021 C 
BRANCH  31  32
ATOM     32  C   UNL A   1      44.017  21.900  25.221  1.00  0.00     0.116 C 
BRANCH  32  33
ATOM     33  N   UNL A   1      42.577  21.600  25.292  1.00  0.00    -0.352 N 
ATOM     34  C   UNL A   1      41.633  22.031  26.197  1.00  0.00     0.251 C 
ATOM     35  H   UNL A   1      42.239  21.002  24.586  1.00  0.00     0.163 HD
ATOM     36  O   UNL A   1      40.555  21.422  26.319  1.00  0.00    -0.269 OA
BRANCH  34  37
ATOM     37  C   UNL A   1      41.889  23.232  26.997  1.00  0.00     0.039 A 
ATOM     38  C   UNL A   1      42.698  23.292  28.136  1.00  0.00     0.014 A 
ATOM     39  C   UNL A   1      41.242  24.371  26.578  1.00  0.00     0.014 A 
ATOM     40  C   UNL A   1      42.781  24.508  28.820  1.00  0.00     0.010 A 
ATOM     41  C   UNL A   1      41.816  25.541  26.913  1.00  0.00     0.010 A 
ATOM     42  C   UNL A   1      42.260  25.639  28.200  1.00  0.00    -0.014 A 
BRANCH  42  43
ATOM     43  C   UNL A   1      42.199  26.977  28.740  1.00  0.00     0.031 A 
ATOM     44  C   UNL A   1      43.250  27.867  28.219  1.00  0.00     0.074 A 
ATOM     45  C   UNL A   1      41.104  27.426  29.398  1.00  0.00     0.049 A 
ATOM     46  N   UNL A   1      44.346  28.192  28.812  1.00  0.00    -0.248 NA
ATOM     47  C   UNL A   1      43.207  28.240  26.796  1.00  0.00     0.031 C 
ATOM     48  C   UNL A   1      39.823  26.757  29.669  1.00  0.00     0.029 A 
ATOM     49  N   UNL A   1      40.901  28.665  29.917  1.00  0.00    -0.354 N 
ATOM     50  C   UNL A   1      45.012  29.024  27.924  1.00  0.00     0.074 A 
ATOM     51  C   UNL A   1      44.416  28.783  26.639  1.00  0.00     0.031 C 
ATOM     52  C   UNL A   1      38.920  27.661  30.121  1.00  0.00     0.029 A 
ATOM     53  C   UNL A   1      39.591  28.932  30.310  1.00  0.00     0.049 A 
ATOM     54  H   UNL A   1      41.625  29.325  30.009  1.00  0.00     0.167 HD
ATOM     55  C   UNL A   1      45.813  30.031  28.372  1.00  0.00     0.037 A 
ATOM     56  C   UNL A   1      39.127  30.147  30.708  1.00  0.00     0.037 A 
ATOM     57  C   UNL A   1      46.011  29.917  29.801  1.00  0.00     0.049 A 
ATOM     58  C   UNL A   1      40.332  30.931  31.132  1.00  0.00     0.074 A 
ATOM     59  C   UNL A   1      46.563  28.947  30.618  1.00  0.00     0.029 A 
ATOM     60  N   UNL A   1      45.200  30.679  30.615  1.00  0.00    -0.354 N 
ATOM     61  N   UNL A   1      41.077  30.596  32.157  1.00  0.00    -0.248 NA
ATOM     62  C   UNL A   1      41.006  31.733  30.118  1.00  0.00     0.031 C 
ATOM     63  C   UNL A   1      45.688  28.872  31.742  1.00  0.00     0.029 A 
ATOM     64  C   UNL A   1      44.710  29.860  31.605  1.00  0.00     0.049 A 
ATOM     65  H   UNL A   1      45.007  31.638  30.507  1.00  0.00     0.167 HD
ATOM     66  C   UNL A   1      42.389  30.778  31.732  1.00  0.00     0.074 A 
ATOM     67  C   UNL A   1      42.278  31.538  30.485  1.00  0.00     0.031 C 
ATOM     68  C   UNL A   1      43.419  30.038  32.247  1.00  0.00     0.037 A 
BRANCH  55  69
ATOM     69  C   UNL A   1      46.132  31.296  27.617  1.00  0.00     0.058 A 
ATOM     70  C   UNL A   1      47.484  31.623  27.383  1.00  0.00     0.135 A 
ATOM     71  C   UNL A   1      45.203  32.319  27.322  1.00  0.00     0.135 A 
ATOM     72  F   UNL A   1      48.455  30.725  27.616  1.00  0.00    -0.206 F 
ATOM     73  C   UNL A   1      47.887  32.891  26.966  1.00  0.00     0.059 A 
ATOM     74  C   UNL A   1      45.579  33.571  26.851  1.00  0.00     0.059 A 
ATOM     75  F   UNL A   1      43.893  32.196  27.559  1.00  0.00    -0.206 F 
ATOM     76  C   UNL A   1      46.925  33.864  26.720  1.00  0.00     0.060 A 
BRANCH  76  77
ATOM     77  S   UNL A   1      47.445  35.533  26.292  1.00  0.00     0.124 S 
ATOM     78  O   UNL A   1      48.218  35.907  27.471  1.00  0.00    -0.237 OA
ATOM     79  O   UNL A   1      48.209  35.305  25.070  1.00  0.00    -0.237 OA
ATOM     80  O   UNL A   1      46.182  36.243  26.114  1.00  0.00    -0.744 OA
ENDBRANCH  76  77
ENDBRANCH  55  69
BRANCH  56  81
ATOM     81  C   UNL A   1      37.815  30.768  30.362  1.00  0.00     0.058 A 
ATOM     82  C   UNL A   1      37.012  31.394  31.333  1.00  0.00     0.135 A 
ATOM     83  C   UNL A   1      37.445  30.998  29.020  1.00  0.00     0.135 A 
ATOM     84  F   UNL A   1      37.294  31.247  32.637  1.00  0.00    -0.206 F 
ATOM     85  C   UNL A   1      35.943  32.238  30.994  1.00  0.00     0.059 A 
ATOM     86  C   UNL A   1      36.383  31.826  28.657  1.00  0.00     0.059 A 
ATOM     87  F   UNL A   1      38.167  30.501  28.006  1.00  0.00    -0.206 F 
ATOM     88  C   UNL A   1      35.652  32.468  29.649  1.00  0.00     0.060 A 
BRANCH  88  89
ATOM     89  S   UNL A   1      34.415  33.709  29.193  1.00  0.00     0.124 S 
ATOM     90  O   UNL A   1      35.243  34.783  28.655  1.00  0.00    -0.237 OA
ATOM     91  O   UNL A   1      33.597  32.987  28.223  1.00  0.00    -0.237 OA
ATOM     92  O   UNL A   1      33.750  34.007  30.459  1.00  0.00    -0.744 OA
ENDBRANCH  88  89
ENDBRANCH  56  81
BRANCH  68  93
ATOM     93  C   UNL A   1      43.145  29.160  33.450  1.00  0.00     0.058 A 
ATOM     94  C   UNL A   1      43.004  29.635  34.768  1.00  0.00     0.135 A 
ATOM     95  C   UNL A   1      42.831  27.810  33.234  1.00  0.00     0.135 A 
ATOM     96  F   UNL A   1      43.172  30.930  35.053  1.00  0.00    -0.206 F 
ATOM     97  C   UNL A   1      42.615  28.806  35.823  1.00  0.00     0.059 A 
ATOM     98  C   UNL A   1      42.412  26.971  34.264  1.00  0.00     0.059 A 
ATOM     99  F   UNL A   1      42.874  27.303  31.990  1.00  0.00    -0.206 F 
ATOM    100  C   UNL A   1      42.320  27.471  35.561  1.00  0.00     0.060 A 
BRANCH 100 101
ATOM    101  S   UNL A   1      41.759  26.410  36.910  1.00  0.00     0.124 S 
ATOM    102  O   UNL A   1      42.871  26.498  37.851  1.00  0.00    -0.237 OA
ATOM    103  O   UNL A   1      40.519  27.058  37.332  1.00  0.00    -0.237 OA
ATOM    104  O   UNL A   1      41.583  25.108  36.271  1.00  0.00    -0.744 OA
ENDBRANCH 100 101
ENDBRANCH  68  93
ENDBRANCH  42  43
ENDBRANCH  34  37
ENDBRANCH  32  33
ENDBRANCH  31  32
ENDBRANCH  30  31
ENDBRANCH  29  30
ENDBRANCH   1  29
TORSDOF 23
ENDMDL
MODEL 2
REMARK VINA RESULT:      -7.9      2.297      3.669
REMARK SMILES CCCN(C(=O)Cc1c(C(=O)NCCCCCCNC(=O)c2ccc(-c3c4nc(c(-c5c(F)cc(S(=O)(=O)[O-])cc5F)c5ccc([nH]5)c(-c5c(F)cc(S(=O)(=O)[O-])cc5F)c5nc(c(-c6c(F)cc(S(=O)(=O)[O-])cc6F)c6ccc3[nH]6)C=C5)C=C4)cc2)c(C)cn1CC)c1cccc(Cl)c1
REMARK SMILES IDX 14 1 13 2 12 3 10 4 11 5 9 7 8 8 91 9 88 10 90 11 89 12 7 13
REMARK SMILES IDX 5 14 6 15 4 16 3 17 2 18 1 19 94 20 95 21 100 22 96 23 98 24
REMARK SMILES IDX 97 25 99 26 92 27 93 28 15 29 16 30 17 31 18 32 19 33 20 34
REMARK SMILES IDX 21 36 22 37 23 38 87 39 24 40 86 41 25 42 26 43 27 44 80 45
REMARK SMILES IDX 28 46 85 47 79 48 81 49 29 50 84 51 78 52 77 53 30 55 64 56
REMARK SMILES IDX 43 57 63 58 44 59 47 60 62 61 82 62 45 63 46 64 61 66 83 67
REMARK SMILES IDX 48 68 31 69 32 70 41 71 33 72 34 73 40 74 42 75 35 76 36 77
REMARK SMILES IDX 37 78 38 79 39 80 65 81 66 82 75 83 67 84 68 85 74 86 76 87
REMARK SMILES IDX 69 88 70 89 71 90 72 91 73 92 49 93 50 94 59 95 51 96 52 97
REMARK SMILES IDX 58 98 60 99 53 100 54 101 55 102 56 103 57 104
REMARK H PARENT 12 6 19 35 81 54 47 65
REMARK Flexibility Score: inf
ROOT
ATOM      1  C   UNL A   1      46.517  25.817  26.779  1.00  0.00     0.021 C 
ENDROOT
BRANCH   1   2
ATOM      2  C   UNL A   1      47.033  25.839  28.220  1.00  0.00     0.116 C 
BRANCH   2   3
ATOM      3  N   UNL A   1      48.324  25.224  28.268  1.00  0.00    -0.352 N 
ATOM      4  C   UNL A   1      49.351  25.260  27.372  1.00  0.00     0.253 C 
ATOM      5  O   UNL A   1      50.100  24.280  27.398  1.00  0.00    -0.269 OA
ATOM      6  H   UNL A   1      48.498  24.688  29.076  1.00  0.00     0.163 HD
BRANCH   4   7
ATOM      7  C   UNL A   1      49.681  26.440  26.552  1.00  0.00     0.064 A 
ATOM      8  C   UNL A   1      50.412  27.494  27.140  1.00  0.00     0.040 A 
ATOM      9  N   UNL A   1      50.775  28.365  26.141  1.00  0.00    -0.350 N 
ATOM     10  C   UNL A   1      49.442  26.850  25.179  1.00  0.00    -0.020 A 
ATOM     11  C   UNL A   1      50.108  28.047  24.999  1.00  0.00     0.090 A 
ATOM     12  C   UNL A   1      48.717  26.221  24.040  1.00  0.00     0.047 C 
BRANCH   8  13
ATOM     13  C   UNL A   1      50.901  27.671  28.556  1.00  0.00     0.155 C 
BRANCH  13  14
ATOM     14  C   UNL A   1      52.077  26.807  29.021  1.00  0.00     0.232 C 
ATOM     15  O   UNL A   1      51.806  25.886  29.807  1.00  0.00    -0.274 OA
BRANCH  14  16
ATOM     16  N   UNL A   1      53.378  26.995  28.508  1.00  0.00    -0.312 N 
BRANCH  16  17
ATOM     17  C   UNL A   1      54.066  28.306  28.508  1.00  0.00     0.125 C 
BRANCH  17  18
ATOM     18  C   UNL A   1      55.110  28.636  27.427  1.00  0.00     0.019 C 
ATOM     19  C   UNL A   1      56.554  28.813  27.878  1.00  0.00     0.006 C 
ENDBRANCH  17  18
ENDBRANCH  16  17
BRANCH  16  20
ATOM     20  C   UNL A   1      53.900  26.006  27.596  1.00  0.00     0.045 A 
ATOM     21  C   UNL A   1      53.209  25.634  26.432  1.00  0.00     0.026 A 
ATOM     22  C   UNL A   1      55.105  25.358  27.868  1.00  0.00     0.046 A 
ATOM     23  C   UNL A   1      53.706  24.651  25.570  1.00  0.00     0.004 A 
ATOM     24  C   UNL A   1      55.619  24.397  26.994  1.00  0.00     0.043 A 
ATOM     25  C   UNL A   1      54.923  24.036  25.846  1.00  0.00     0.020 A 
ATOM     26  Cl  UNL A   1      57.123  23.639  27.353  1.00  0.00    -0.084 Cl
ENDBRANCH  16  20
ENDBRANCH  14  16
ENDBRANCH  13  14
ENDBRANCH   8  13
BRANCH   9  27
ATOM     27  C   UNL A   1      51.791  29.406  26.192  1.00  0.00     0.118 C 
ATOM     28  C   UNL A   1      51.207  30.806  26.205  1.00  0.00     0.027 C 
ENDBRANCH   9  27
ENDBRANCH   4   7
ENDBRANCH   2   3
ENDBRANCH   1   2
BRANCH   1  29
ATOM     29  C   UNL A   1      46.110  24.410  26.324  1.00  0.00     0.002 C 
BRANCH  29  30
ATOM     30  C   UNL A   1      45.333  24.359  24.996  1.00  0.00     0.002 C 
BRANCH  30  31
ATOM     31  C   UNL A   1      45.223  22.975  24.335  1.00  0.00     0.021 C 
BRANCH  31  32
ATOM     32  C   UNL A   1      44.785  21.898  25.310  1.00  0.00     0.116 C 
BRANCH  32  33
ATOM     33  N   UNL A   1      43.351  21.586  25.186  1.00  0.00    -0.352 N 
ATOM     34  C   UNL A   1      42.292  22.000  25.963  1.00  0.00     0.251 C 
ATOM     35  H   UNL A   1      43.115  20.994  24.436  1.00  0.00     0.163 HD
ATOM     36  O   UNL A   1      41.213  21.380  25.935  1.00  0.00    -0.269 OA
BRANCH  34  37
ATOM     37  C   UNL A   1      42.428  23.193  26.802  1.00  0.00     0.039 A 
ATOM     38  C   UNL A   1      43.168  23.273  27.986  1.00  0.00     0.014 A 
ATOM     39  C   UNL A   1      41.736  24.301  26.372  1.00  0.00     0.014 A 
ATOM     40  C   UNL A   1      43.138  24.474  28.700  1.00  0.00     0.010 A 
ATOM     41  C   UNL A   1      42.217  25.495  26.764  1.00  0.00     0.010 A 
ATOM     42  C   UNL A   1      42.583  25.587  28.076  1.00  0.00    -0.014 A 
BRANCH  42  43
ATOM     43  C   UNL A   1      42.409  26.905  28.640  1.00  0.00     0.031 A 
ATOM     44  C   UNL A   1      43.449  27.861  28.226  1.00  0.00     0.074 A 
ATOM     45  C   UNL A   1      41.244  27.280  29.219  1.00  0.00     0.049 A 
ATOM     46  N   UNL A   1      44.477  28.225  28.912  1.00  0.00    -0.248 NA
ATOM     47  C   UNL A   1      43.499  28.270  26.813  1.00  0.00     0.031 C 
ATOM     48  C   UNL A   1      39.982  26.540  29.372  1.00  0.00     0.029 A 
ATOM     49  N   UNL A   1      40.936  28.492  29.750  1.00  0.00    -0.354 N 
ATOM     50  C   UNL A   1      45.166  29.114  28.100  1.00  0.00     0.074 A 
ATOM     51  C   UNL A   1      44.686  28.878  26.766  1.00  0.00     0.031 C 
ATOM     52  C   UNL A   1      39.001  27.384  29.772  1.00  0.00     0.029 A 
ATOM     53  C   UNL A   1      39.587  28.682  30.044  1.00  0.00     0.049 A 
ATOM     54  H   UNL A   1      41.615  29.185  29.915  1.00  0.00     0.167 HD
ATOM     55  C   UNL A   1      45.876  30.147  28.634  1.00  0.00     0.037 A 
ATOM     56  C   UNL A   1      39.030  29.860  30.431  1.00  0.00     0.037 A 
ATOM     57  C   UNL A   1      45.966  30.004  30.071  1.00  0.00     0.049 A 
ATOM     58  C   UNL A   1      40.155  30.692  30.968  1.00  0.00     0.074 A 
ATOM     59  C   UNL A   1      46.502  29.041  30.906  1.00  0.00     0.029 A 
ATOM     60  N   UNL A   1      45.056  30.701  30.835  1.00  0.00    -0.354 N 
ATOM     61  N   UNL A   1      40.834  30.367  32.041  1.00  0.00    -0.248 NA
ATOM     62  C   UNL A   1      40.863  31.555  30.030  1.00  0.00     0.031 C 
ATOM     63  C   UNL A   1      45.548  28.891  31.955  1.00  0.00     0.029 A 
ATOM     64  C   UNL A   1      44.533  29.831  31.764  1.00  0.00     0.049 A 
ATOM     65  H   UNL A   1      44.821  31.652  30.735  1.00  0.00     0.167 HD
ATOM     66  C   UNL A   1      42.164  30.626  31.726  1.00  0.00     0.074 A 
ATOM     67  C   UNL A   1      42.111  31.414  30.493  1.00  0.00     0.031 C 
ATOM     68  C   UNL A   1      43.188  29.926  32.305  1.00  0.00     0.037 A 
BRANCH  55  69
ATOM     69  C   UNL A   1      46.186  31.447  27.937  1.00  0.00     0.058 A 
ATOM     70  C   UNL A   1      47.528  31.870  27.860  1.00  0.00     0.135 A 
ATOM     71  C   UNL A   1      45.225  32.409  27.552  1.00  0.00     0.135 A 
ATOM     72  F   UNL A   1      48.529  31.038  28.189  1.00  0.00    -0.206 F 
ATOM     73  C   UNL A   1      47.884  33.172  27.509  1.00  0.00     0.059 A 
ATOM     74  C   UNL A   1      45.561  33.694  27.144  1.00  0.00     0.059 A 
ATOM     75  F   UNL A   1      43.909  32.191  27.640  1.00  0.00    -0.206 F 
ATOM     76  C   UNL A   1      46.889  34.081  27.169  1.00  0.00     0.060 A 
BRANCH  76  77
ATOM     77  S   UNL A   1      47.334  35.791  26.825  1.00  0.00     0.124 S 
ATOM     78  O   UNL A   1      46.148  36.499  27.292  1.00  0.00    -0.237 OA
ATOM     79  O   UNL A   1      48.539  35.956  27.631  1.00  0.00    -0.237 OA
ATOM     80  O   UNL A   1      47.546  35.798  25.381  1.00  0.00    -0.744 OA
ENDBRANCH  76  77
ENDBRANCH  55  69
BRANCH  56  81
ATOM     81  C   UNL A   1      37.718  30.423  29.996  1.00  0.00     0.058 A 
ATOM     82  C   UNL A   1      36.856  31.077  30.897  1.00  0.00     0.135 A 
ATOM     83  C   UNL A   1      37.402  30.571  28.629  1.00  0.00     0.135 A 
ATOM     84  F   UNL A   1      37.085  31.008  32.217  1.00  0.00    -0.206 F 
ATOM     85  C   UNL A   1      35.782  31.870  30.467  1.00  0.00     0.059 A 
ATOM     86  C   UNL A   1      36.334  31.347  28.177  1.00  0.00     0.059 A 
ATOM     87  F   UNL A   1      38.181  30.041  27.675  1.00  0.00    -0.206 F 
ATOM     88  C   UNL A   1      35.545  32.019  29.100  1.00  0.00     0.060 A 
BRANCH  88  89
ATOM     89  S   UNL A   1      34.296  33.197  28.525  1.00  0.00     0.124 S 
ATOM     90  O   UNL A   1      33.337  32.324  27.857  1.00  0.00    -0.237 OA
ATOM     91  O   UNL A   1      33.844  33.803  29.774  1.00  0.00    -0.237 OA
ATOM     92  O   UNL A   1      35.048  34.088  27.645  1.00  0.00    -0.744 OA
ENDBRANCH  88  89
ENDBRANCH  56  81
BRANCH  68  93
ATOM     93  C   UNL A   1      42.866  29.002  33.461  1.00  0.00     0.058 A 
ATOM     94  C   UNL A   1      42.586  29.434  34.771  1.00  0.00     0.135 A 
ATOM     95  C   UNL A   1      42.654  27.642  33.191  1.00  0.00     0.135 A 
ATOM     96  F   UNL A   1      42.652  30.729  35.097  1.00  0.00    -0.206 F 
ATOM     97  C   UNL A   1      42.160  28.556  35.772  1.00  0.00     0.059 A 
ATOM     98  C   UNL A   1      42.201  26.753  34.163  1.00  0.00     0.059 A 
ATOM     99  F   UNL A   1      42.833  27.172  31.945  1.00  0.00    -0.206 F 
ATOM    100  C   UNL A   1      41.971  27.213  35.458  1.00  0.00     0.060 A 
BRANCH 100 101
ATOM    101  S   UNL A   1      41.362  26.087  36.731  1.00  0.00     0.124 S 
ATOM    102  O   UNL A   1      40.549  26.973  37.559  1.00  0.00    -0.237 OA
ATOM    103  O   UNL A   1      40.626  25.093  35.955  1.00  0.00    -0.237 OA
ATOM    104  O   UNL A   1      42.584  25.592  37.360  1.00  0.00    -0.744 OA
ENDBRANCH 100 101
ENDBRANCH  68  93
ENDBRANCH  42  43
ENDBRANCH  34  37
ENDBRANCH  32  33
ENDBRANCH  31  32
ENDBRANCH  30  31
ENDBRANCH  29  30
ENDBRANCH   1  29
TORSDOF 23
ENDMDL
MODEL 3
REMARK VINA RESULT:      -7.9      3.915     11.414
REMARK SMILES CCCN(C(=O)Cc1c(C(=O)NCCCCCCNC(=O)c2ccc(-c3c4nc(c(-c5c(F)cc(S(=O)(=O)[O-])cc5F)c5ccc([nH]5)c(-c5c(F)cc(S(=O)(=O)[O-])cc5F)c5nc(c(-c6c(F)cc(S(=O)(=O)[O-])cc6F)c6ccc3[nH]6)C=C5)C=C4)cc2)c(C)cn1CC)c1cccc(Cl)c1
REMARK SMILES IDX 14 1 13 2 12 3 10 4 11 5 9 7 8 8 91 9 88 10 90 11 89 12 7 13
REMARK SMILES IDX 5 14 6 15 4 16 3 17 2 18 1 19 94 20 95 21 100 22 96 23 98 24
REMARK SMILES IDX 97 25 99 26 92 27 93 28 15 29 16 30 17 31 18 32 19 33 20 34
REMARK SMILES IDX 21 36 22 37 23 38 87 39 24 40 86 41 25 42 26 43 27 44 80 45
REMARK SMILES IDX 28 46 85 47 79 48 81 49 29 50 84 51 78 52 77 53 30 55 64 56
REMARK SMILES IDX 43 57 63 58 44 59 47 60 62 61 82 62 45 63 46 64 61 66 83 67
REMARK SMILES IDX 48 68 31 69 32 70 41 71 33 72 34 73 40 74 42 75 35 76 36 77
REMARK SMILES IDX 37 78 38 79 39 80 65 81 66 82 75 83 67 84 68 85 74 86 76 87
REMARK SMILES IDX 69 88 70 89 71 90 72 91 73 92 49 93 50 94 59 95 51 96 52 97
REMARK SMILES IDX 58 98 60 99 53 100 54 101 55 102 56 103 57 104
REMARK H PARENT 12 6 19 35 81 54 47 65
REMARK Flexibility Score: inf
ROOT
ATOM      1  C   UNL A   1      36.983  33.919  35.070  1.00  0.00     0.021 C 
ENDROOT
BRANCH   1   2
ATOM      2  C   UNL A   1      36.921  33.511  36.544  1.00  0.00     0.116 C 
BRANCH   2   3
ATOM      3  N   UNL A   1      37.807  32.411  36.768  1.00  0.00    -0.352 N 
ATOM      4  C   UNL A   1      39.144  32.397  37.033  1.00  0.00     0.253 C 
ATOM      5  O   UNL A   1      39.735  31.373  36.678  1.00  0.00    -0.269 OA
ATOM      6  H   UNL A   1      37.384  31.523  36.721  1.00  0.00     0.163 HD
BRANCH   4   7
ATOM      7  C   UNL A   1      39.830  33.422  37.842  1.00  0.00     0.064 A 
ATOM      8  C   UNL A   1      40.768  34.268  37.214  1.00  0.00     0.040 A 
ATOM      9  N   UNL A   1      41.106  35.258  38.104  1.00  0.00    -0.350 N 
ATOM     10  C   UNL A   1      39.796  33.841  39.232  1.00  0.00    -0.020 A 
ATOM     11  C   UNL A   1      40.620  34.945  39.335  1.00  0.00     0.090 A 
ATOM     12  C   UNL A   1      39.049  33.354  40.425  1.00  0.00     0.047 C 
BRANCH   8  13
ATOM     13  C   UNL A   1      41.272  34.280  35.791  1.00  0.00     0.155 C 
BRANCH  13  14
ATOM     14  C   UNL A   1      40.502  35.118  34.766  1.00  0.00     0.232 C 
ATOM     15  O   UNL A   1      39.722  35.967  35.225  1.00  0.00    -0.274 OA
BRANCH  14  16
ATOM     16  N   UNL A   1      40.739  34.990  33.381  1.00  0.00    -0.312 N 
BRANCH  16  17
ATOM     17  C   UNL A   1      39.744  34.430  32.438  1.00  0.00     0.125 C 
BRANCH  17  18
ATOM     18  C   UNL A   1      39.669  32.912  32.200  1.00  0.00     0.019 C 
ATOM     19  C   UNL A   1      40.160  32.389  30.857  1.00  0.00     0.006 C 
ENDBRANCH  17  18
ENDBRANCH  16  17
BRANCH  16  20
ATOM     20  C   UNL A   1      42.107  35.015  32.920  1.00  0.00     0.045 A 
ATOM     21  C   UNL A   1      42.428  35.213  31.568  1.00  0.00     0.026 A 
ATOM     22  C   UNL A   1      43.157  34.804  33.812  1.00  0.00     0.046 A 
ATOM     23  C   UNL A   1      43.755  35.203  31.124  1.00  0.00     0.004 A 
ATOM     24  C   UNL A   1      44.485  34.822  33.376  1.00  0.00     0.043 A 
ATOM     25  C   UNL A   1      44.790  35.017  32.034  1.00  0.00     0.020 A 
ATOM     26  Cl  UNL A   1      45.756  34.583  34.514  1.00  0.00    -0.084 Cl
ENDBRANCH  16  20
ENDBRANCH  14  16
ENDBRANCH  13  14
ENDBRANCH   8  13
BRANCH   9  27
ATOM     27  C   UNL A   1      41.770  36.522  37.821  1.00  0.00     0.118 C 
ATOM     28  C   UNL A   1      43.266  36.478  38.075  1.00  0.00     0.027 C 
ENDBRANCH   9  27
ENDBRANCH   4   7
ENDBRANCH   2   3
ENDBRANCH   1   2
BRANCH   1  29
ATOM     29  C   UNL A   1      35.632  33.764  34.362  1.00  0.00     0.002 C 
BRANCH  29  30
ATOM     30  C   UNL A   1      35.599  32.693  33.257  1.00  0.00     0.002 C 
BRANCH  30  31
ATOM     31  C   UNL A   1      34.667  32.983  32.068  1.00  0.00     0.021 C 
BRANCH  31  32
ATOM     32  C   UNL A   1      35.427  33.228  30.778  1.00  0.00     0.116 C 
BRANCH  32  33
ATOM     33  N   UNL A   1      34.754  32.629  29.613  1.00  0.00    -0.352 N 
ATOM     34  C   UNL A   1      35.225  31.708  28.704  1.00  0.00     0.251 C 
ATOM     35  H   UNL A   1      33.830  32.933  29.463  1.00  0.00     0.163 HD
ATOM     36  O   UNL A   1      34.665  31.571  27.601  1.00  0.00    -0.269 OA
BRANCH  34  37
ATOM     37  C   UNL A   1      36.372  30.866  29.051  1.00  0.00     0.039 A 
ATOM     38  C   UNL A   1      36.339  29.764  29.913  1.00  0.00     0.014 A 
ATOM     39  C   UNL A   1      37.570  31.232  28.484  1.00  0.00     0.014 A 
ATOM     40  C   UNL A   1      37.542  29.108  30.186  1.00  0.00     0.010 A 
ATOM     41  C   UNL A   1      38.485  30.257  28.335  1.00  0.00     0.010 A 
ATOM     42  C   UNL A   1      38.649  29.427  29.407  1.00  0.00    -0.014 A 
BRANCH  42  43
ATOM     43  C   UNL A   1      39.990  28.908  29.544  1.00  0.00     0.031 A 
ATOM     44  C   UNL A   1      40.387  28.674  30.942  1.00  0.00     0.074 A 
ATOM     45  C   UNL A   1      40.665  28.402  28.485  1.00  0.00     0.049 A 
ATOM     46  N   UNL A   1      41.121  29.440  31.672  1.00  0.00    -0.248 NA
ATOM     47  C   UNL A   1      39.700  27.612  31.695  1.00  0.00     0.031 C 
ATOM     48  C   UNL A   1      40.242  28.231  27.087  1.00  0.00     0.029 A 
ATOM     49  N   UNL A   1      41.907  27.851  28.483  1.00  0.00    -0.354 N 
ATOM     50  C   UNL A   1      41.195  28.812  32.906  1.00  0.00     0.074 A 
ATOM     51  C   UNL A   1      40.101  27.881  32.939  1.00  0.00     0.031 C 
ATOM     52  C   UNL A   1      41.130  27.446  26.432  1.00  0.00     0.029 A 
ATOM     53  C   UNL A   1      42.251  27.179  27.312  1.00  0.00     0.049 A 
ATOM     54  H   UNL A   1      42.518  27.920  29.251  1.00  0.00     0.167 HD
ATOM     55  C   UNL A   1      42.307  28.924  33.686  1.00  0.00     0.037 A 
ATOM     56  C   UNL A   1      43.370  26.425  27.144  1.00  0.00     0.037 A 
ATOM     57  C   UNL A   1      43.201  29.924  33.143  1.00  0.00     0.049 A 
ATOM     58  C   UNL A   1      44.338  26.883  28.192  1.00  0.00     0.074 A 
ATOM     59  C   UNL A   1      43.087  31.280  32.895  1.00  0.00     0.029 A 
ATOM     60  N   UNL A   1      44.237  29.483  32.347  1.00  0.00    -0.354 N 
ATOM     61  N   UNL A   1      44.847  28.091  28.215  1.00  0.00    -0.248 NA
ATOM     62  C   UNL A   1      44.306  26.205  29.482  1.00  0.00     0.031 C 
ATOM     63  C   UNL A   1      43.709  31.477  31.628  1.00  0.00     0.029 A 
ATOM     64  C   UNL A   1      44.257  30.260  31.213  1.00  0.00     0.049 A 
ATOM     65  H   UNL A   1      44.853  28.743  32.554  1.00  0.00     0.167 HD
ATOM     66  C   UNL A   1      44.811  28.479  29.550  1.00  0.00     0.074 A 
ATOM     67  C   UNL A   1      44.522  27.249  30.291  1.00  0.00     0.031 C 
ATOM     68  C   UNL A   1      44.705  29.795  29.912  1.00  0.00     0.037 A 
BRANCH  55  69
ATOM     69  C   UNL A   1      42.758  27.921  34.716  1.00  0.00     0.058 A 
ATOM     70  C   UNL A   1      42.835  28.322  36.065  1.00  0.00     0.135 A 
ATOM     71  C   UNL A   1      43.343  26.668  34.424  1.00  0.00     0.135 A 
ATOM     72  F   UNL A   1      42.303  29.490  36.463  1.00  0.00    -0.206 F 
ATOM     73  C   UNL A   1      43.510  27.577  37.031  1.00  0.00     0.059 A 
ATOM     74  C   UNL A   1      43.970  25.882  35.383  1.00  0.00     0.059 A 
ATOM     75  F   UNL A   1      43.421  26.179  33.182  1.00  0.00    -0.206 F 
ATOM     76  C   UNL A   1      44.090  26.366  36.674  1.00  0.00     0.060 A 
BRANCH  76  77
ATOM     77  S   UNL A   1      45.058  25.457  37.889  1.00  0.00     0.124 S 
ATOM     78  O   UNL A   1      44.824  24.079  37.474  1.00  0.00    -0.237 OA
ATOM     79  O   UNL A   1      46.400  25.979  37.656  1.00  0.00    -0.237 OA
ATOM     80  O   UNL A   1      44.452  25.845  39.159  1.00  0.00    -0.744 OA
ENDBRANCH  76  77
ENDBRANCH  55  69
BRANCH  56  81
ATOM     81  C   UNL A   1      43.478  25.117  26.432  1.00  0.00     0.058 A 
ATOM     82  C   UNL A   1      44.373  24.927  25.362  1.00  0.00     0.135 A 
ATOM     83  C   UNL A   1      42.898  23.945  26.962  1.00  0.00     0.135 A 
ATOM     84  F   UNL A   1      44.987  25.981  24.803  1.00  0.00    -0.206 F 
ATOM     85  C   UNL A   1      44.712  23.651  24.885  1.00  0.00     0.059 A 
ATOM     86  C   UNL A   1      43.212  22.668  26.500  1.00  0.00     0.059 A 
ATOM     87  F   UNL A   1      42.074  23.996  28.019  1.00  0.00    -0.206 F 
ATOM     88  C   UNL A   1      44.143  22.524  25.480  1.00  0.00     0.060 A 
BRANCH  88  89
ATOM     89  S   UNL A   1      44.721  20.872  25.016  1.00  0.00     0.124 S 
ATOM     90  O   UNL A   1      46.108  20.895  25.470  1.00  0.00    -0.237 OA
ATOM     91  O   UNL A   1      43.818  20.006  25.767  1.00  0.00    -0.237 OA
ATOM     92  O   UNL A   1      44.539  20.842  23.567  1.00  0.00    -0.744 OA
ENDBRANCH  88  89
ENDBRANCH  56  81
BRANCH  68  93
ATOM     93  C   UNL A   1      44.844  30.852  28.836  1.00  0.00     0.058 A 
ATOM     94  C   UNL A   1      43.765  31.430  28.142  1.00  0.00     0.135 A 
ATOM     95  C   UNL A   1      46.105  31.432  28.630  1.00  0.00     0.135 A 
ATOM     96  F   UNL A   1      42.511  31.020  28.357  1.00  0.00    -0.206 F 
ATOM     97  C   UNL A   1      43.932  32.499  27.257  1.00  0.00     0.059 A 
ATOM     98  C   UNL A   1      46.293  32.517  27.776  1.00  0.00     0.059 A 
ATOM     99  F   UNL A   1      47.170  30.978  29.312  1.00  0.00    -0.206 F 
ATOM    100  C   UNL A   1      45.204  33.037  27.079  1.00  0.00     0.060 A 
BRANCH 100 101
ATOM    101  S   UNL A   1      45.416  34.456  25.983  1.00  0.00     0.124 S 
ATOM    102  O   UNL A   1      45.037  33.901  24.688  1.00  0.00    -0.237 OA
ATOM    103  O   UNL A   1      44.491  35.436  26.547  1.00  0.00    -0.237 OA
ATOM    104  O   UNL A   1      46.830  34.792  26.129  1.00  0.00    -0.744 OA
ENDBRANCH 100 101
ENDBRANCH  68  93
ENDBRANCH  42  43
ENDBRANCH  34  37
ENDBRANCH  32  33
ENDBRANCH  31  32
ENDBRANCH  30  31
ENDBRANCH  29  30
ENDBRANCH   1  29
TORSDOF 23
ENDMDL
