MODEL 1
REMARK VINA RESULT:     -11.8      0.000      0.000
REMARK SMILES NS(=O)(=O)c1ccc(N2N=C(C(=O)NCCCCCCNC(=O)c3ccc(-c4c5nc(c(-c6c(F)cc(S(=O)(=O)[O-])cc6F)c6ccc([nH]6)c(-c6c(F)cc(S(=O)(=O)[O-])cc6F)c6nc(c(-c7c(F)cc(S(=O)(=O)[O-])cc7F)c7ccc4[nH]7)C=C6)C=C5)cc3)C[C@H]2c2ccco2)cc1
REMARK SMILES IDX 17 1 16 2 15 3 14 4 12 5 13 6 11 8 9 9 10 10 91 11 90 12
REMARK SMILES IDX 8 13 5 14 6 15 98 16 7 17 97 18 2 19 3 20 4 21 1 22 92 25
REMARK SMILES IDX 93 26 96 27 94 28 95 29 18 30 19 31 20 32 21 33 22 34 23 36
REMARK SMILES IDX 24 37 25 38 89 39 26 40 88 41 27 42 28 43 29 44 82 45 30 46
REMARK SMILES IDX 87 47 81 48 83 49 31 50 86 51 80 52 79 53 32 55 66 56 45 57
REMARK SMILES IDX 65 58 46 59 49 60 64 61 84 62 47 63 48 64 63 66 85 67 50 68
REMARK SMILES IDX 33 69 34 70 43 71 35 72 36 73 42 74 44 75 37 76 38 77 39 78
REMARK SMILES IDX 40 79 41 80 67 81 68 82 77 83 69 84 70 85 76 86 78 87 71 88
REMARK SMILES IDX 72 89 73 90 74 91 75 92 51 93 52 94 61 95 53 96 54 97 60 98
REMARK SMILES IDX 62 99 55 100 56 101 57 102 58 103 59 104
REMARK H PARENT 14 7 1 23 1 24 21 35 83 54 49 65
REMARK Flexibility Score: inf
ROOT
ATOM      1  C   UNL A   1      31.344  27.846  24.455  1.00  0.00     0.002 C 
ENDROOT
BRANCH   1   2
ATOM      2  C   UNL A   1      30.000  27.289  23.982  1.00  0.00     0.021 C 
BRANCH   2   3
ATOM      3  C   UNL A   1      29.917  25.766  24.003  1.00  0.00     0.116 C 
BRANCH   3   4
ATOM      4  N   UNL A   1      29.812  25.270  25.362  1.00  0.00    -0.351 N 
ATOM      5  C   UNL A   1      30.461  24.298  26.079  1.00  0.00     0.267 C 
ATOM      6  O   UNL A   1      30.048  24.055  27.212  1.00  0.00    -0.268 OA
ATOM      7  H   UNL A   1      29.121  25.735  25.887  1.00  0.00     0.163 HD
BRANCH   5   8
ATOM      8  C   UNL A   1      31.680  23.542  25.573  1.00  0.00     0.128 C 
ATOM      9  N   UNL A   1      33.052  21.917  25.344  1.00  0.00    -0.254 N 
ATOM     10  N   UNL A   1      31.793  22.258  25.744  1.00  0.00    -0.171 NA
ATOM     11  C   UNL A   1      33.771  23.013  24.677  1.00  0.00     0.180 C 
ATOM     12  C   UNL A   1      32.824  24.196  24.883  1.00  0.00     0.099 C 
BRANCH   9  13
ATOM     13  C   UNL A   1      33.337  20.591  25.017  1.00  0.00     0.060 A 
ATOM     14  C   UNL A   1      33.857  17.887  24.475  1.00  0.00     0.082 A 
ATOM     15  C   UNL A   1      34.921  18.782  24.614  1.00  0.00     0.024 A 
ATOM     16  C   UNL A   1      32.540  18.331  24.572  1.00  0.00     0.024 A 
ATOM     17  C   UNL A   1      34.655  20.131  24.873  1.00  0.00     0.029 A 
ATOM     18  C   UNL A   1      32.291  19.678  24.834  1.00  0.00     0.029 A 
BRANCH  14  19
ATOM     19  S   UNL A   1      34.173  16.180  24.158  1.00  0.00     0.238 S 
ATOM     20  O   UNL A   1      35.186  15.701  25.075  1.00  0.00    -0.207 OA
ATOM     21  O   UNL A   1      34.260  15.980  22.734  1.00  0.00    -0.207 OA
BRANCH  19  22
ATOM     22  N   UNL A   1      32.753  15.433  24.656  1.00  0.00    -0.225 NA
ATOM     23  H   UNL A   1      31.978  15.758  24.079  1.00  0.00     0.137 HD
ATOM     24  H   UNL A   1      32.572  15.666  25.632  1.00  0.00     0.137 HD
ENDBRANCH  19  22
ENDBRANCH  14  19
ENDBRANCH   9  13
BRANCH  11  25
ATOM     25  C   UNL A   1      35.176  23.316  25.117  1.00  0.00     0.128 A 
ATOM     26  C   UNL A   1      35.768  23.423  26.362  1.00  0.00     0.048 A 
ATOM     27  O   UNL A   1      36.131  23.485  24.152  1.00  0.00    -0.467 OA
ATOM     28  C   UNL A   1      37.140  23.692  26.141  1.00  0.00     0.042 A 
ATOM     29  C   UNL A   1      37.314  23.697  24.779  1.00  0.00     0.195 A 
ENDBRANCH  11  25
ENDBRANCH   5   8
ENDBRANCH   3   4
ENDBRANCH   2   3
ENDBRANCH   1   2
BRANCH   1  30
ATOM     30  C   UNL A   1      31.437  28.120  25.960  1.00  0.00     0.002 C 
BRANCH  30  31
ATOM     31  C   UNL A   1      32.681  27.554  26.652  1.00  0.00     0.021 C 
BRANCH  31  32
ATOM     32  C   UNL A   1      33.931  28.419  26.522  1.00  0.00     0.116 C 
BRANCH  32  33
ATOM     33  N   UNL A   1      33.723  29.752  27.061  1.00  0.00    -0.352 N 
ATOM     34  C   UNL A   1      34.520  30.488  27.900  1.00  0.00     0.251 C 
ATOM     35  H   UNL A   1      32.888  30.192  26.782  1.00  0.00     0.163 HD
ATOM     36  O   UNL A   1      34.074  31.504  28.425  1.00  0.00    -0.269 OA
BRANCH  34  37
ATOM     37  C   UNL A   1      35.904  30.050  28.186  1.00  0.00     0.039 A 
ATOM     38  C   UNL A   1      36.873  30.193  27.190  1.00  0.00     0.014 A 
ATOM     39  C   UNL A   1      36.243  29.478  29.417  1.00  0.00     0.014 A 
ATOM     40  C   UNL A   1      38.190  29.807  27.445  1.00  0.00     0.010 A 
ATOM     41  C   UNL A   1      37.572  29.166  29.696  1.00  0.00     0.010 A 
ATOM     42  C   UNL A   1      38.558  29.319  28.711  1.00  0.00    -0.014 A 
BRANCH  42  43
ATOM     43  C   UNL A   1      39.973  28.974  29.010  1.00  0.00     0.031 A 
ATOM     44  C   UNL A   1      40.898  29.998  29.612  1.00  0.00     0.074 A 
ATOM     45  C   UNL A   1      40.433  27.747  28.697  1.00  0.00     0.049 A 
ATOM     46  N   UNL A   1      42.164  29.884  29.920  1.00  0.00    -0.248 NA
ATOM     47  C   UNL A   1      40.336  31.332  29.880  1.00  0.00     0.031 C 
ATOM     48  C   UNL A   1      39.649  26.688  28.056  1.00  0.00     0.029 A 
ATOM     49  N   UNL A   1      41.672  27.181  28.867  1.00  0.00    -0.354 N 
ATOM     50  C   UNL A   1      42.554  31.127  30.404  1.00  0.00     0.074 A 
ATOM     51  C   UNL A   1      41.402  31.997  30.303  1.00  0.00     0.031 C 
ATOM     52  C   UNL A   1      40.416  25.597  27.909  1.00  0.00     0.029 A 
ATOM     53  C   UNL A   1      41.757  25.887  28.407  1.00  0.00     0.049 A 
ATOM     54  H   UNL A   1      42.430  27.657  29.278  1.00  0.00     0.167 HD
ATOM     55  C   UNL A   1      43.753  31.502  30.908  1.00  0.00     0.037 A 
ATOM     56  C   UNL A   1      42.798  25.033  28.380  1.00  0.00     0.037 A 
ATOM     57  C   UNL A   1      44.887  30.621  31.029  1.00  0.00     0.049 A 
ATOM     58  C   UNL A   1      44.118  25.471  28.957  1.00  0.00     0.074 A 
ATOM     59  C   UNL A   1      46.123  30.885  31.593  1.00  0.00     0.029 A 
ATOM     60  N   UNL A   1      44.928  29.311  30.575  1.00  0.00    -0.354 N 
ATOM     61  N   UNL A   1      44.442  26.626  29.488  1.00  0.00    -0.248 NA
ATOM     62  C   UNL A   1      45.210  24.489  28.941  1.00  0.00     0.031 C 
ATOM     63  C   UNL A   1      46.930  29.755  31.427  1.00  0.00     0.029 A 
ATOM     64  C   UNL A   1      46.178  28.764  30.816  1.00  0.00     0.049 A 
ATOM     65  H   UNL A   1      44.180  28.840  30.142  1.00  0.00     0.167 HD
ATOM     66  C   UNL A   1      45.767  26.500  29.892  1.00  0.00     0.074 A 
ATOM     67  C   UNL A   1      46.176  25.151  29.562  1.00  0.00     0.031 C 
ATOM     68  C   UNL A   1      46.572  27.418  30.483  1.00  0.00     0.037 A 
BRANCH  55  69
ATOM     69  C   UNL A   1      43.912  32.927  31.369  1.00  0.00     0.058 A 
ATOM     70  C   UNL A   1      44.385  33.935  30.513  1.00  0.00     0.135 A 
ATOM     71  C   UNL A   1      43.527  33.303  32.667  1.00  0.00     0.135 A 
ATOM     72  F   UNL A   1      44.782  33.632  29.266  1.00  0.00    -0.206 F 
ATOM     73  C   UNL A   1      44.489  35.257  30.932  1.00  0.00     0.059 A 
ATOM     74  C   UNL A   1      43.593  34.624  33.098  1.00  0.00     0.059 A 
ATOM     75  F   UNL A   1      43.070  32.381  33.530  1.00  0.00    -0.206 F 
ATOM     76  C   UNL A   1      44.086  35.593  32.225  1.00  0.00     0.060 A 
BRANCH  76  77
ATOM     77  S   UNL A   1      44.206  37.319  32.744  1.00  0.00     0.124 S 
ATOM     78  O   UNL A   1      45.581  37.383  33.229  1.00  0.00    -0.237 OA
ATOM     79  O   UNL A   1      43.938  38.035  31.500  1.00  0.00    -0.237 OA
ATOM     80  O   UNL A   1      43.173  37.438  33.768  1.00  0.00    -0.744 OA
ENDBRANCH  76  77
ENDBRANCH  55  69
BRANCH  56  81
ATOM     81  C   UNL A   1      42.633  23.675  27.794  1.00  0.00     0.058 A 
ATOM     82  C   UNL A   1      42.635  23.476  26.404  1.00  0.00     0.135 A 
ATOM     83  C   UNL A   1      42.468  22.547  28.614  1.00  0.00     0.135 A 
ATOM     84  F   UNL A   1      42.784  24.522  25.578  1.00  0.00    -0.206 F 
ATOM     85  C   UNL A   1      42.458  22.214  25.848  1.00  0.00     0.059 A 
ATOM     86  C   UNL A   1      42.321  21.270  28.081  1.00  0.00     0.059 A 
ATOM     87  F   UNL A   1      42.477  22.679  29.949  1.00  0.00    -0.206 F 
ATOM     88  C   UNL A   1      42.303  21.116  26.697  1.00  0.00     0.060 A 
BRANCH  88  89
ATOM     89  S   UNL A   1      42.110  19.475  25.966  1.00  0.00     0.124 S 
ATOM     90  O   UNL A   1      42.550  18.614  27.056  1.00  0.00    -0.237 OA
ATOM     91  O   UNL A   1      40.684  19.443  25.659  1.00  0.00    -0.237 OA
ATOM     92  O   UNL A   1      42.992  19.523  24.802  1.00  0.00    -0.744 OA
ENDBRANCH  88  89
ENDBRANCH  56  81
BRANCH  68  93
ATOM     93  C   UNL A   1      47.969  26.985  30.841  1.00  0.00     0.058 A 
ATOM     94  C   UNL A   1      49.045  27.150  29.955  1.00  0.00     0.135 A 
ATOM     95  C   UNL A   1      48.239  26.430  32.103  1.00  0.00     0.135 A 
ATOM     96  F   UNL A   1      48.843  27.671  28.734  1.00  0.00    -0.206 F 
ATOM     97  C   UNL A   1      50.333  26.747  30.294  1.00  0.00     0.059 A 
ATOM     98  C   UNL A   1      49.524  26.050  32.475  1.00  0.00     0.059 A 
ATOM     99  F   UNL A   1      47.248  26.262  32.994  1.00  0.00    -0.206 F 
ATOM    100  C   UNL A   1      50.562  26.198  31.557  1.00  0.00     0.060 A 
BRANCH 100 101
ATOM    101  S   UNL A   1      52.241  25.694  31.990  1.00  0.00     0.124 S 
ATOM    102  O   UNL A   1      52.054  24.279  32.294  1.00  0.00    -0.237 OA
ATOM    103  O   UNL A   1      52.979  25.987  30.765  1.00  0.00    -0.237 OA
ATOM    104  O   UNL A   1      52.568  26.545  33.130  1.00  0.00    -0.744 OA
ENDBRANCH 100 101
ENDBRANCH  68  93
ENDBRANCH  42  43
ENDBRANCH  34  37
ENDBRANCH  32  33
ENDBRANCH  31  32
ENDBRANCH  30  31
ENDBRANCH   1  30
TORSDOF 20
ENDMDL
MODEL 2
REMARK VINA RESULT:     -11.4      2.974      4.264
REMARK SMILES NS(=O)(=O)c1ccc(N2N=C(C(=O)NCCCCCCNC(=O)c3ccc(-c4c5nc(c(-c6c(F)cc(S(=O)(=O)[O-])cc6F)c6ccc([nH]6)c(-c6c(F)cc(S(=O)(=O)[O-])cc6F)c6nc(c(-c7c(F)cc(S(=O)(=O)[O-])cc7F)c7ccc4[nH]7)C=C6)C=C5)cc3)C[C@H]2c2ccco2)cc1
REMARK SMILES IDX 17 1 16 2 15 3 14 4 12 5 13 6 11 8 9 9 10 10 91 11 90 12
REMARK SMILES IDX 8 13 5 14 6 15 98 16 7 17 97 18 2 19 3 20 4 21 1 22 92 25
REMARK SMILES IDX 93 26 96 27 94 28 95 29 18 30 19 31 20 32 21 33 22 34 23 36
REMARK SMILES IDX 24 37 25 38 89 39 26 40 88 41 27 42 28 43 29 44 82 45 30 46
REMARK SMILES IDX 87 47 81 48 83 49 31 50 86 51 80 52 79 53 32 55 66 56 45 57
REMARK SMILES IDX 65 58 46 59 49 60 64 61 84 62 47 63 48 64 63 66 85 67 50 68
REMARK SMILES IDX 33 69 34 70 43 71 35 72 36 73 42 74 44 75 37 76 38 77 39 78
REMARK SMILES IDX 40 79 41 80 67 81 68 82 77 83 69 84 70 85 76 86 78 87 71 88
REMARK SMILES IDX 72 89 73 90 74 91 75 92 51 93 52 94 61 95 53 96 54 97 60 98
REMARK SMILES IDX 62 99 55 100 56 101 57 102 58 103 59 104
REMARK H PARENT 14 7 1 23 1 24 21 35 83 54 49 65
REMARK Flexibility Score: inf
ROOT
ATOM      1  C   UNL A   1      30.925  28.484  24.335  1.00  0.00     0.002 C 
ENDROOT
BRANCH   1   2
ATOM      2  C   UNL A   1      31.232  28.119  22.881  1.00  0.00     0.021 C 
BRANCH   2   3
ATOM      3  C   UNL A   1      30.877  26.682  22.513  1.00  0.00     0.116 C 
BRANCH   3   4
ATOM      4  N   UNL A   1      31.646  26.232  21.368  1.00  0.00    -0.351 N 
ATOM      5  C   UNL A   1      32.652  25.319  21.189  1.00  0.00     0.267 C 
ATOM      6  O   UNL A   1      33.167  25.251  20.075  1.00  0.00    -0.268 OA
ATOM      7  H   UNL A   1      31.386  26.684  20.533  1.00  0.00     0.163 HD
BRANCH   5   8
ATOM      8  C   UNL A   1      33.130  24.361  22.270  1.00  0.00     0.128 C 
ATOM      9  N   UNL A   1      34.510  23.212  23.433  1.00  0.00    -0.254 N 
ATOM     10  N   UNL A   1      34.392  24.260  22.567  1.00  0.00    -0.171 NA
ATOM     11  C   UNL A   1      33.216  22.693  23.902  1.00  0.00     0.180 C 
ATOM     12  C   UNL A   1      32.221  23.468  23.037  1.00  0.00     0.099 C 
BRANCH   9  13
ATOM     13  C   UNL A   1      35.641  23.108  24.241  1.00  0.00     0.060 A 
ATOM     14  C   UNL A   1      37.962  23.014  25.817  1.00  0.00     0.082 A 
ATOM     15  C   UNL A   1      37.730  22.017  24.866  1.00  0.00     0.024 A 
ATOM     16  C   UNL A   1      37.036  24.037  26.012  1.00  0.00     0.024 A 
ATOM     17  C   UNL A   1      36.565  22.063  24.092  1.00  0.00     0.029 A 
ATOM     18  C   UNL A   1      35.883  24.071  25.230  1.00  0.00     0.029 A 
BRANCH  14  19
ATOM     19  S   UNL A   1      39.429  22.977  26.796  1.00  0.00     0.238 S 
ATOM     20  O   UNL A   1      39.930  21.619  26.858  1.00  0.00    -0.207 OA
ATOM     21  O   UNL A   1      39.222  23.780  27.974  1.00  0.00    -0.207 OA
BRANCH  19  22
ATOM     22  N   UNL A   1      40.540  23.804  25.847  1.00  0.00    -0.225 NA
ATOM     23  H   UNL A   1      41.202  24.294  26.447  1.00  0.00     0.137 HD
ATOM     24  H   UNL A   1      40.049  24.478  25.259  1.00  0.00     0.137 HD
ENDBRANCH  19  22
ENDBRANCH  14  19
ENDBRANCH   9  13
BRANCH  11  25
ATOM     25  C   UNL A   1      32.984  21.209  23.857  1.00  0.00     0.128 A 
ATOM     26  C   UNL A   1      32.260  20.397  23.004  1.00  0.00     0.048 A 
ATOM     27  O   UNL A   1      33.622  20.428  24.783  1.00  0.00    -0.467 OA
ATOM     28  C   UNL A   1      32.448  19.065  23.447  1.00  0.00     0.042 A 
ATOM     29  C   UNL A   1      33.303  19.137  24.519  1.00  0.00     0.195 A 
ENDBRANCH  11  25
ENDBRANCH   5   8
ENDBRANCH   3   4
ENDBRANCH   2   3
ENDBRANCH   1   2
BRANCH   1  30
ATOM     30  C   UNL A   1      31.834  27.818  25.374  1.00  0.00     0.002 C 
BRANCH  30  31
ATOM     31  C   UNL A   1      33.337  27.967  25.118  1.00  0.00     0.021 C 
BRANCH  31  32
ATOM     32  C   UNL A   1      34.143  28.442  26.323  1.00  0.00     0.116 C 
BRANCH  32  33
ATOM     33  N   UNL A   1      33.902  29.845  26.614  1.00  0.00    -0.352 N 
ATOM     34  C   UNL A   1      34.540  30.674  27.500  1.00  0.00     0.251 C 
ATOM     35  H   UNL A   1      33.173  30.261  26.100  1.00  0.00     0.163 HD
ATOM     36  O   UNL A   1      34.051  31.768  27.768  1.00  0.00    -0.269 OA
BRANCH  34  37
ATOM     37  C   UNL A   1      35.802  30.247  28.143  1.00  0.00     0.039 A 
ATOM     38  C   UNL A   1      37.006  30.467  27.471  1.00  0.00     0.014 A 
ATOM     39  C   UNL A   1      35.801  29.610  29.389  1.00  0.00     0.014 A 
ATOM     40  C   UNL A   1      38.211  30.092  28.068  1.00  0.00     0.010 A 
ATOM     41  C   UNL A   1      37.007  29.307  30.016  1.00  0.00     0.010 A 
ATOM     42  C   UNL A   1      38.225  29.538  29.360  1.00  0.00    -0.014 A 
BRANCH  42  43
ATOM     43  C   UNL A   1      39.509  29.202  30.029  1.00  0.00     0.031 A 
ATOM     44  C   UNL A   1      39.978  29.992  31.221  1.00  0.00     0.074 A 
ATOM     45  C   UNL A   1      40.274  28.211  29.530  1.00  0.00     0.049 A 
ATOM     46  N   UNL A   1      41.077  29.858  31.918  1.00  0.00    -0.248 NA
ATOM     47  C   UNL A   1      39.113  31.092  31.678  1.00  0.00     0.031 C 
ATOM     48  C   UNL A   1      39.956  27.413  28.343  1.00  0.00     0.029 A 
ATOM     49  N   UNL A   1      41.480  27.707  29.951  1.00  0.00    -0.354 N 
ATOM     50  C   UNL A   1      41.043  30.858  32.883  1.00  0.00     0.074 A 
ATOM     51  C   UNL A   1      39.839  31.625  32.651  1.00  0.00     0.031 C 
ATOM     52  C   UNL A   1      40.926  26.508  28.147  1.00  0.00     0.029 A 
ATOM     53  C   UNL A   1      41.956  26.683  29.166  1.00  0.00     0.049 A 
ATOM     54  H   UNL A   1      41.959  28.048  30.741  1.00  0.00     0.167 HD
ATOM     55  C   UNL A   1      41.923  31.101  33.883  1.00  0.00     0.037 A 
ATOM     56  C   UNL A   1      43.096  25.971  29.250  1.00  0.00     0.037 A 
ATOM     57  C   UNL A   1      43.107  30.316  34.121  1.00  0.00     0.049 A 
ATOM     58  C   UNL A   1      44.052  26.253  30.378  1.00  0.00     0.074 A 
ATOM     59  C   UNL A   1      44.024  30.436  35.152  1.00  0.00     0.029 A 
ATOM     60  N   UNL A   1      43.545  29.272  33.320  1.00  0.00    -0.354 N 
ATOM     61  N   UNL A   1      43.960  27.150  31.332  1.00  0.00    -0.248 NA
ATOM     62  C   UNL A   1      45.261  25.422  30.449  1.00  0.00     0.031 C 
ATOM     63  C   UNL A   1      45.045  29.504  34.940  1.00  0.00     0.029 A 
ATOM     64  C   UNL A   1      44.734  28.760  33.813  1.00  0.00     0.049 A 
ATOM     65  H   UNL A   1      43.079  28.944  32.516  1.00  0.00     0.167 HD
ATOM     66  C   UNL A   1      45.085  26.973  32.129  1.00  0.00     0.074 A 
ATOM     67  C   UNL A   1      45.832  25.871  31.558  1.00  0.00     0.031 C 
ATOM     68  C   UNL A   1      45.466  27.661  33.235  1.00  0.00     0.037 A 
BRANCH  55  69
ATOM     69  C   UNL A   1      41.648  32.262  34.800  1.00  0.00     0.058 A 
ATOM     70  C   UNL A   1      40.869  32.123  35.961  1.00  0.00     0.135 A 
ATOM     71  C   UNL A   1      42.222  33.520  34.549  1.00  0.00     0.135 A 
ATOM     72  F   UNL A   1      40.283  30.948  36.245  1.00  0.00    -0.206 F 
ATOM     73  C   UNL A   1      40.653  33.190  36.827  1.00  0.00     0.059 A 
ATOM     74  C   UNL A   1      42.045  34.594  35.416  1.00  0.00     0.059 A 
ATOM     75  F   UNL A   1      42.973  33.713  33.453  1.00  0.00    -0.206 F 
ATOM     76  C   UNL A   1      41.249  34.421  36.548  1.00  0.00     0.060 A 
BRANCH  76  77
ATOM     77  S   UNL A   1      40.978  35.789  37.695  1.00  0.00     0.124 S 
ATOM     78  O   UNL A   1      40.536  35.081  38.893  1.00  0.00    -0.237 OA
ATOM     79  O   UNL A   1      42.302  36.397  37.770  1.00  0.00    -0.237 OA
ATOM     80  O   UNL A   1      39.958  36.593  37.031  1.00  0.00    -0.744 OA
ENDBRANCH  76  77
ENDBRANCH  55  69
BRANCH  56  81
ATOM     81  C   UNL A   1      43.392  24.917  28.242  1.00  0.00     0.058 A 
ATOM     82  C   UNL A   1      43.036  23.578  28.461  1.00  0.00     0.135 A 
ATOM     83  C   UNL A   1      44.039  25.231  27.035  1.00  0.00     0.135 A 
ATOM     84  F   UNL A   1      42.421  23.226  29.600  1.00  0.00    -0.206 F 
ATOM     85  C   UNL A   1      43.330  22.584  27.533  1.00  0.00     0.059 A 
ATOM     86  C   UNL A   1      44.316  24.260  26.079  1.00  0.00     0.059 A 
ATOM     87  F   UNL A   1      44.384  26.500  26.767  1.00  0.00    -0.206 F 
ATOM     88  C   UNL A   1      43.970  22.936  26.343  1.00  0.00     0.060 A 
BRANCH  88  89
ATOM     89  S   UNL A   1      44.314  21.645  25.128  1.00  0.00     0.124 S 
ATOM     90  O   UNL A   1      44.105  22.358  23.874  1.00  0.00    -0.237 OA
ATOM     91  O   UNL A   1      45.695  21.291  25.442  1.00  0.00    -0.237 OA
ATOM     92  O   UNL A   1      43.326  20.617  25.444  1.00  0.00    -0.744 OA
ENDBRANCH  88  89
ENDBRANCH  56  81
BRANCH  68  93
ATOM     93  C   UNL A   1      46.733  27.222  33.920  1.00  0.00     0.058 A 
ATOM     94  C   UNL A   1      47.980  27.780  33.601  1.00  0.00     0.135 A 
ATOM     95  C   UNL A   1      46.690  26.252  34.937  1.00  0.00     0.135 A 
ATOM     96  F   UNL A   1      48.079  28.706  32.634  1.00  0.00    -0.206 F 
ATOM     97  C   UNL A   1      49.146  27.368  34.240  1.00  0.00     0.059 A 
ATOM     98  C   UNL A   1      47.838  25.850  35.612  1.00  0.00     0.059 A 
ATOM     99  F   UNL A   1      45.521  25.695  35.291  1.00  0.00    -0.206 F 
ATOM    100  C   UNL A   1      49.063  26.401  35.244  1.00  0.00     0.060 A 
BRANCH 100 101
ATOM    101  S   UNL A   1      50.581  25.888  36.076  1.00  0.00     0.124 S 
ATOM    102  O   UNL A   1      51.167  24.989  35.088  1.00  0.00    -0.237 OA
ATOM    103  O   UNL A   1      51.276  27.158  36.269  1.00  0.00    -0.237 OA
ATOM    104  O   UNL A   1      50.100  25.251  37.299  1.00  0.00    -0.744 OA
ENDBRANCH 100 101
ENDBRANCH  68  93
ENDBRANCH  42  43
ENDBRANCH  34  37
ENDBRANCH  32  33
ENDBRANCH  31  32
ENDBRANCH  30  31
ENDBRANCH   1  30
TORSDOF 20
ENDMDL
MODEL 3
REMARK VINA RESULT:     -11.4      2.604      3.149
REMARK SMILES NS(=O)(=O)c1ccc(N2N=C(C(=O)NCCCCCCNC(=O)c3ccc(-c4c5nc(c(-c6c(F)cc(S(=O)(=O)[O-])cc6F)c6ccc([nH]6)c(-c6c(F)cc(S(=O)(=O)[O-])cc6F)c6nc(c(-c7c(F)cc(S(=O)(=O)[O-])cc7F)c7ccc4[nH]7)C=C6)C=C5)cc3)C[C@H]2c2ccco2)cc1
REMARK SMILES IDX 17 1 16 2 15 3 14 4 12 5 13 6 11 8 9 9 10 10 91 11 90 12
REMARK SMILES IDX 8 13 5 14 6 15 98 16 7 17 97 18 2 19 3 20 4 21 1 22 92 25
REMARK SMILES IDX 93 26 96 27 94 28 95 29 18 30 19 31 20 32 21 33 22 34 23 36
REMARK SMILES IDX 24 37 25 38 89 39 26 40 88 41 27 42 28 43 29 44 82 45 30 46
REMARK SMILES IDX 87 47 81 48 83 49 31 50 86 51 80 52 79 53 32 55 66 56 45 57
REMARK SMILES IDX 65 58 46 59 49 60 64 61 84 62 47 63 48 64 63 66 85 67 50 68
REMARK SMILES IDX 33 69 34 70 43 71 35 72 36 73 42 74 44 75 37 76 38 77 39 78
REMARK SMILES IDX 40 79 41 80 67 81 68 82 77 83 69 84 70 85 76 86 78 87 71 88
REMARK SMILES IDX 72 89 73 90 74 91 75 92 51 93 52 94 61 95 53 96 54 97 60 98
REMARK SMILES IDX 62 99 55 100 56 101 57 102 58 103 59 104
REMARK H PARENT 14 7 1 23 1 24 21 35 83 54 49 65
REMARK Flexibility Score: inf
ROOT
ATOM      1  C   UNL A   1      31.400  27.861  24.357  1.00  0.00     0.002 C 
ENDROOT
BRANCH   1   2
ATOM      2  C   UNL A   1      30.020  27.248  24.107  1.00  0.00     0.021 C 
BRANCH   2   3
ATOM      3  C   UNL A   1      30.010  25.723  24.102  1.00  0.00     0.116 C 
BRANCH   3   4
ATOM      4  N   UNL A   1      29.934  25.198  25.452  1.00  0.00    -0.351 N 
ATOM      5  C   UNL A   1      30.580  24.195  26.128  1.00  0.00     0.267 C 
ATOM      6  O   UNL A   1      30.195  23.938  27.267  1.00  0.00    -0.268 OA
ATOM      7  H   UNL A   1      29.270  25.668  26.007  1.00  0.00     0.163 HD
BRANCH   5   8
ATOM      8  C   UNL A   1      31.765  23.422  25.569  1.00  0.00     0.128 C 
ATOM      9  N   UNL A   1      33.130  21.795  25.316  1.00  0.00    -0.254 N 
ATOM     10  N   UNL A   1      31.901  22.148  25.792  1.00  0.00    -0.171 NA
ATOM     11  C   UNL A   1      33.788  22.862  24.547  1.00  0.00     0.180 C 
ATOM     12  C   UNL A   1      32.849  24.049  24.766  1.00  0.00     0.099 C 
BRANCH   9  13
ATOM     13  C   UNL A   1      33.401  20.457  25.033  1.00  0.00     0.060 A 
ATOM     14  C   UNL A   1      33.895  17.731  24.580  1.00  0.00     0.082 A 
ATOM     15  C   UNL A   1      34.966  18.622  24.675  1.00  0.00     0.024 A 
ATOM     16  C   UNL A   1      32.582  18.189  24.675  1.00  0.00     0.024 A 
ATOM     17  C   UNL A   1      34.713  19.982  24.890  1.00  0.00     0.029 A 
ATOM     18  C   UNL A   1      32.346  19.546  24.893  1.00  0.00     0.029 A 
BRANCH  14  19
ATOM     19  S   UNL A   1      34.194  16.012  24.318  1.00  0.00     0.238 S 
ATOM     20  O   UNL A   1      35.170  15.544  25.280  1.00  0.00    -0.207 OA
ATOM     21  O   UNL A   1      34.324  15.773  22.904  1.00  0.00    -0.207 OA
BRANCH  19  22
ATOM     22  N   UNL A   1      32.748  15.300  24.789  1.00  0.00    -0.225 NA
ATOM     23  H   UNL A   1      32.888  14.793  25.662  1.00  0.00     0.137 HD
ATOM     24  H   UNL A   1      32.436  14.653  24.065  1.00  0.00     0.137 HD
ENDBRANCH  19  22
ENDBRANCH  14  19
ENDBRANCH   9  13
BRANCH  11  25
ATOM     25  C   UNL A   1      35.218  23.193  24.866  1.00  0.00     0.128 A 
ATOM     26  C   UNL A   1      36.369  23.220  24.101  1.00  0.00     0.048 A 
ATOM     27  O   UNL A   1      35.517  23.604  26.137  1.00  0.00    -0.467 OA
ATOM     28  C   UNL A   1      37.418  23.646  24.951  1.00  0.00     0.042 A 
ATOM     29  C   UNL A   1      36.842  23.888  26.174  1.00  0.00     0.195 A 
ENDBRANCH  11  25
ENDBRANCH   5   8
ENDBRANCH   3   4
ENDBRANCH   2   3
ENDBRANCH   1   2
BRANCH   1  30
ATOM     30  C   UNL A   1      31.739  28.107  25.831  1.00  0.00     0.002 C 
BRANCH  30  31
ATOM     31  C   UNL A   1      33.007  27.410  26.335  1.00  0.00     0.021 C 
BRANCH  31  32
ATOM     32  C   UNL A   1      34.256  28.287  26.340  1.00  0.00     0.116 C 
BRANCH  32  33
ATOM     33  N   UNL A   1      33.927  29.694  26.489  1.00  0.00    -0.352 N 
ATOM     34  C   UNL A   1      34.477  30.635  27.321  1.00  0.00     0.251 C 
ATOM     35  H   UNL A   1      33.205  30.020  25.905  1.00  0.00     0.163 HD
ATOM     36  O   UNL A   1      33.918  31.719  27.463  1.00  0.00    -0.269 OA
BRANCH  34  37
ATOM     37  C   UNL A   1      35.726  30.340  28.056  1.00  0.00     0.039 A 
ATOM     38  C   UNL A   1      35.653  29.585  29.229  1.00  0.00     0.014 A 
ATOM     39  C   UNL A   1      36.961  30.822  27.609  1.00  0.00     0.014 A 
ATOM     40  C   UNL A   1      36.822  29.276  29.927  1.00  0.00     0.010 A 
ATOM     41  C   UNL A   1      38.132  30.448  28.263  1.00  0.00     0.010 A 
ATOM     42  C   UNL A   1      38.075  29.677  29.433  1.00  0.00    -0.014 A 
BRANCH  42  43
ATOM     43  C   UNL A   1      39.328  29.290  30.134  1.00  0.00     0.031 A 
ATOM     44  C   UNL A   1      39.763  30.016  31.378  1.00  0.00     0.074 A 
ATOM     45  C   UNL A   1      40.095  28.308  29.619  1.00  0.00     0.049 A 
ATOM     46  N   UNL A   1      40.832  29.831  32.109  1.00  0.00    -0.248 NA
ATOM     47  C   UNL A   1      38.899  31.110  31.851  1.00  0.00     0.031 C 
ATOM     48  C   UNL A   1      39.809  27.570  28.386  1.00  0.00     0.029 A 
ATOM     49  N   UNL A   1      41.276  27.765  30.062  1.00  0.00    -0.354 N 
ATOM     50  C   UNL A   1      40.778  30.788  33.116  1.00  0.00     0.074 A 
ATOM     51  C   UNL A   1      39.595  31.585  32.875  1.00  0.00     0.031 C 
ATOM     52  C   UNL A   1      40.772  26.658  28.185  1.00  0.00     0.029 A 
ATOM     53  C   UNL A   1      41.764  26.769  29.249  1.00  0.00     0.049 A 
ATOM     54  H   UNL A   1      41.730  28.061  30.883  1.00  0.00     0.167 HD
ATOM     55  C   UNL A   1      41.623  30.969  34.159  1.00  0.00     0.037 A 
ATOM     56  C   UNL A   1      42.889  26.033  29.343  1.00  0.00     0.037 A 
ATOM     57  C   UNL A   1      42.784  30.153  34.405  1.00  0.00     0.049 A 
ATOM     58  C   UNL A   1      43.806  26.248  30.518  1.00  0.00     0.074 A 
ATOM     59  C   UNL A   1      43.662  30.210  35.473  1.00  0.00     0.029 A 
ATOM     60  N   UNL A   1      43.235  29.139  33.573  1.00  0.00    -0.354 N 
ATOM     61  N   UNL A   1      43.692  27.102  31.507  1.00  0.00    -0.248 NA
ATOM     62  C   UNL A   1      44.997  25.392  30.596  1.00  0.00     0.031 C 
ATOM     63  C   UNL A   1      44.676  29.271  35.258  1.00  0.00     0.029 A 
ATOM     64  C   UNL A   1      44.396  28.584  34.087  1.00  0.00     0.049 A 
ATOM     65  H   UNL A   1      42.795  28.855  32.738  1.00  0.00     0.167 HD
ATOM     66  C   UNL A   1      44.783  26.869  32.338  1.00  0.00     0.074 A 
ATOM     67  C   UNL A   1      45.532  25.781  31.745  1.00  0.00     0.031 C 
ATOM     68  C   UNL A   1      45.132  27.500  33.487  1.00  0.00     0.037 A 
BRANCH  55  69
ATOM     69  C   UNL A   1      41.331  32.093  35.117  1.00  0.00     0.058 A 
ATOM     70  C   UNL A   1      41.910  33.364  34.968  1.00  0.00     0.135 A 
ATOM     71  C   UNL A   1      40.410  31.916  36.164  1.00  0.00     0.135 A 
ATOM     72  F   UNL A   1      42.809  33.588  33.995  1.00  0.00    -0.206 F 
ATOM     73  C   UNL A   1      41.604  34.410  35.832  1.00  0.00     0.059 A 
ATOM     74  C   UNL A   1      40.066  32.955  37.021  1.00  0.00     0.059 A 
ATOM     75  F   UNL A   1      39.827  30.721  36.355  1.00  0.00    -0.206 F 
ATOM     76  C   UNL A   1      40.677  34.197  36.853  1.00  0.00     0.060 A 
BRANCH  76  77
ATOM     77  S   UNL A   1      40.272  35.574  37.950  1.00  0.00     0.124 S 
ATOM     78  O   UNL A   1      41.448  35.612  38.815  1.00  0.00    -0.237 OA
ATOM     79  O   UNL A   1      40.137  36.685  37.015  1.00  0.00    -0.237 OA
ATOM     80  O   UNL A   1      39.035  35.144  38.594  1.00  0.00    -0.744 OA
ENDBRANCH  76  77
ENDBRANCH  55  69
BRANCH  56  81
ATOM     81  C   UNL A   1      43.207  25.021  28.299  1.00  0.00     0.058 A 
ATOM     82  C   UNL A   1      43.837  25.385  27.099  1.00  0.00     0.135 A 
ATOM     83  C   UNL A   1      42.885  23.667  28.482  1.00  0.00     0.135 A 
ATOM     84  F   UNL A   1      44.161  26.667  26.875  1.00  0.00    -0.206 F 
ATOM     85  C   UNL A   1      44.117  24.448  26.109  1.00  0.00     0.059 A 
ATOM     86  C   UNL A   1      43.182  22.707  27.520  1.00  0.00     0.059 A 
ATOM     87  F   UNL A   1      42.298  23.262  29.619  1.00  0.00    -0.206 F 
ATOM     88  C   UNL A   1      43.786  23.110  26.331  1.00  0.00     0.060 A 
BRANCH  88  89
ATOM     89  S   UNL A   1      44.186  21.896  25.055  1.00  0.00     0.124 S 
ATOM     90  O   UNL A   1      43.967  22.666  23.837  1.00  0.00    -0.237 OA
ATOM     91  O   UNL A   1      45.575  21.572  25.367  1.00  0.00    -0.237 OA
ATOM     92  O   UNL A   1      43.229  20.821  25.304  1.00  0.00    -0.744 OA
ENDBRANCH  88  89
ENDBRANCH  56  81
BRANCH  68  93
ATOM     93  C   UNL A   1      46.364  27.007  34.198  1.00  0.00     0.058 A 
ATOM     94  C   UNL A   1      47.632  27.555  33.950  1.00  0.00     0.135 A 
ATOM     95  C   UNL A   1      46.267  25.996  35.169  1.00  0.00     0.135 A 
ATOM     96  F   UNL A   1      47.783  28.521  33.030  1.00  0.00    -0.206 F 
ATOM     97  C   UNL A   1      48.765  27.095  34.613  1.00  0.00     0.059 A 
ATOM     98  C   UNL A   1      47.381  25.543  35.867  1.00  0.00     0.059 A 
ATOM     99  F   UNL A   1      45.076  25.445  35.455  1.00  0.00    -0.206 F 
ATOM    100  C   UNL A   1      48.629  26.087  35.570  1.00  0.00     0.060 A 
BRANCH 100 101
ATOM    101  S   UNL A   1      50.105  25.510  36.433  1.00  0.00     0.124 S 
ATOM    102  O   UNL A   1      49.670  24.204  36.918  1.00  0.00    -0.237 OA
ATOM    103  O   UNL A   1      51.102  25.489  35.367  1.00  0.00    -0.237 OA
ATOM    104  O   UNL A   1      50.317  26.524  37.462  1.00  0.00    -0.744 OA
ENDBRANCH 100 101
ENDBRANCH  68  93
ENDBRANCH  42  43
ENDBRANCH  34  37
ENDBRANCH  32  33
ENDBRANCH  31  32
ENDBRANCH  30  31
ENDBRANCH   1  30
TORSDOF 20
ENDMDL
