MODEL 1
REMARK VINA RESULT:     -11.2      0.000      0.000
REMARK SMILES O=C(Cc1ccccc1[N+](=O)[O-])N[C@@H]1C=C[C@H](C(=O)NCCCCCCNC(=O)c2ccc(-c3c4nc(c(-c5c(F)cc(S(=O)(=O)[O-])cc5F)c5ccc([nH]5)c(-c5c(F)cc(S(=O)(=O)[O-])cc5F)c5nc(c(-c6c(F)cc(S(=O)(=O)[O-])cc6F)c6ccc3[nH]6)C=C5)C=C4)cc2)C1
REMARK SMILES IDX 23 1 22 2 21 3 20 4 18 5 19 6 17 8 14 9 15 10 96 11 16 12
REMARK SMILES IDX 13 13 1 14 2 15 3 17 4 18 5 19 9 20 6 21 8 22 7 23 10 24
REMARK SMILES IDX 11 25 12 26 24 27 25 28 26 29 27 30 28 31 29 33 30 34 31 35
REMARK SMILES IDX 95 36 32 37 94 38 33 39 34 40 35 41 88 42 36 43 93 44 87 45
REMARK SMILES IDX 89 46 37 47 92 48 86 49 85 50 38 52 72 53 51 54 71 55 52 56
REMARK SMILES IDX 55 57 70 58 90 59 53 60 54 61 69 63 91 64 56 65 39 66 40 67
REMARK SMILES IDX 49 68 41 69 42 70 48 71 50 72 43 73 44 74 45 75 46 76 47 77
REMARK SMILES IDX 73 78 74 79 83 80 75 81 76 82 82 83 84 84 77 85 78 86 79 87
REMARK SMILES IDX 80 88 81 89 57 90 58 91 67 92 59 93 60 94 66 95 68 96 61 97
REMARK SMILES IDX 62 98 63 99 64 100 65 101
REMARK H PARENT 20 7 13 16 27 32 89 51 55 62
REMARK Flexibility Score: inf
ROOT
ATOM      1  C   UNL A   1      32.354  30.128  27.243  1.00  0.00     0.002 C 
ENDROOT
BRANCH   1   2
ATOM      2  C   UNL A   1      33.564  29.446  26.591  1.00  0.00     0.021 C 
BRANCH   2   3
ATOM      3  C   UNL A   1      33.611  29.585  25.072  1.00  0.00     0.116 C 
BRANCH   3   4
ATOM      4  N   UNL A   1      33.534  28.292  24.419  1.00  0.00    -0.356 N 
ATOM      5  C   UNL A   1      32.560  27.356  24.315  1.00  0.00     0.227 C 
ATOM      6  O   UNL A   1      32.875  26.301  23.747  1.00  0.00    -0.274 OA
ATOM      7  H   UNL A   1      34.364  28.042  23.953  1.00  0.00     0.163 HD
BRANCH   5   8
ATOM      8  C   UNL A   1      31.103  27.538  24.777  1.00  0.00     0.103 C 
ATOM      9  C   UNL A   1      29.868  25.571  25.613  1.00  0.00     0.106 C 
ATOM     10  C   UNL A   1      29.327  26.072  24.316  1.00  0.00    -0.006 C 
ATOM     11  C   UNL A   1      30.840  26.681  26.032  1.00  0.00     0.047 C 
ATOM     12  C   UNL A   1      29.968  27.165  23.885  1.00  0.00    -0.016 C 
BRANCH   9  13
ATOM     13  N   UNL A   1      30.548  24.314  25.413  1.00  0.00    -0.350 N 
ATOM     14  O   UNL A   1      29.908  23.399  27.416  1.00  0.00    -0.275 OA
ATOM     15  C   UNL A   1      30.564  23.333  26.379  1.00  0.00     0.225 C 
ATOM     16  H   UNL A   1      31.013  24.153  24.560  1.00  0.00     0.164 HD
BRANCH  15  17
ATOM     17  C   UNL A   1      31.521  22.180  26.122  1.00  0.00     0.142 C 
BRANCH  17  18
ATOM     18  C   UNL A   1      32.842  22.581  25.504  1.00  0.00     0.039 A 
ATOM     19  C   UNL A   1      33.608  23.552  26.177  1.00  0.00     0.011 A 
ATOM     20  C   UNL A   1      33.347  22.089  24.281  1.00  0.00     0.273 A 
ATOM     21  C   UNL A   1      34.810  24.025  25.643  1.00  0.00     0.001 A 
ATOM     22  C   UNL A   1      34.557  22.562  23.745  1.00  0.00     0.086 A 
ATOM     23  C   UNL A   1      35.282  23.534  24.429  1.00  0.00     0.007 A 
BRANCH  20  24
ATOM     24  N   UNL A   1      32.645  21.058  23.515  1.00  0.00     0.063 N 
ATOM     25  O   UNL A   1      31.986  21.417  22.531  1.00  0.00    -0.258 OA
ATOM     26  O   UNL A   1      32.792  19.881  23.874  1.00  0.00    -0.258 OA
ENDBRANCH  20  24
ENDBRANCH  17  18
ENDBRANCH  15  17
ENDBRANCH   9  13
ENDBRANCH   5   8
ENDBRANCH   3   4
ENDBRANCH   2   3
ENDBRANCH   1   2
BRANCH   1  27
ATOM     27  C   UNL A   1      31.557  31.066  26.328  1.00  0.00     0.002 C 
BRANCH  27  28
ATOM     28  C   UNL A   1      31.615  32.551  26.698  1.00  0.00     0.021 C 
BRANCH  28  29
ATOM     29  C   UNL A   1      32.907  32.994  27.381  1.00  0.00     0.116 C 
BRANCH  29  30
ATOM     30  N   UNL A   1      32.780  34.310  27.986  1.00  0.00    -0.352 N 
ATOM     31  C   UNL A   1      33.408  34.829  29.087  1.00  0.00     0.251 C 
ATOM     32  H   UNL A   1      32.149  34.918  27.538  1.00  0.00     0.163 HD
ATOM     33  O   UNL A   1      33.016  35.898  29.562  1.00  0.00    -0.269 OA
BRANCH  31  34
ATOM     34  C   UNL A   1      34.534  34.110  29.721  1.00  0.00     0.039 A 
ATOM     35  C   UNL A   1      35.834  34.380  29.286  1.00  0.00     0.014 A 
ATOM     36  C   UNL A   1      34.314  33.158  30.722  1.00  0.00     0.014 A 
ATOM     37  C   UNL A   1      36.916  33.737  29.892  1.00  0.00     0.010 A 
ATOM     38  C   UNL A   1      35.398  32.566  31.369  1.00  0.00     0.010 A 
ATOM     39  C   UNL A   1      36.710  32.849  30.961  1.00  0.00    -0.014 A 
BRANCH  39  40
ATOM     40  C   UNL A   1      37.861  32.235  31.672  1.00  0.00     0.031 A 
ATOM     41  C   UNL A   1      38.318  32.773  33.000  1.00  0.00     0.074 A 
ATOM     42  C   UNL A   1      38.527  31.218  31.088  1.00  0.00     0.049 A 
ATOM     43  N   UNL A   1      39.313  32.374  33.752  1.00  0.00    -0.248 NA
ATOM     44  C   UNL A   1      37.578  33.921  33.544  1.00  0.00     0.031 C 
ATOM     45  C   UNL A   1      38.217  30.649  29.775  1.00  0.00     0.029 A 
ATOM     46  N   UNL A   1      39.605  30.486  31.520  1.00  0.00    -0.354 N 
ATOM     47  C   UNL A   1      39.325  33.226  34.850  1.00  0.00     0.074 A 
ATOM     48  C   UNL A   1      38.269  34.194  34.642  1.00  0.00     0.031 C 
ATOM     49  C   UNL A   1      39.068  29.643  29.519  1.00  0.00     0.029 A 
ATOM     50  C   UNL A   1      40.003  29.515  30.633  1.00  0.00     0.049 A 
ATOM     51  H   UNL A   1      40.050  30.642  32.384  1.00  0.00     0.167 HD
ATOM     52  C   UNL A   1      40.127  33.190  35.942  1.00  0.00     0.037 A 
ATOM     53  C   UNL A   1      41.009  28.622  30.704  1.00  0.00     0.037 A 
ATOM     54  C   UNL A   1      41.163  32.211  36.152  1.00  0.00     0.049 A 
ATOM     55  C   UNL A   1      41.875  28.591  31.933  1.00  0.00     0.074 A 
ATOM     56  C   UNL A   1      41.984  32.049  37.254  1.00  0.00     0.029 A 
ATOM     57  N   UNL A   1      41.524  31.229  35.239  1.00  0.00    -0.354 N 
ATOM     58  N   UNL A   1      41.823  29.357  32.997  1.00  0.00    -0.248 NA
ATOM     59  C   UNL A   1      42.930  27.570  31.977  1.00  0.00     0.031 C 
ATOM     60  C   UNL A   1      42.871  30.999  36.990  1.00  0.00     0.029 A 
ATOM     61  C   UNL A   1      42.571  30.475  35.743  1.00  0.00     0.049 A 
ATOM     62  H   UNL A   1      41.098  31.090  34.362  1.00  0.00     0.167 HD
ATOM     63  C   UNL A   1      42.824  28.898  33.844  1.00  0.00     0.074 A 
ATOM     64  C   UNL A   1      43.452  27.775  33.177  1.00  0.00     0.031 C 
ATOM     65  C   UNL A   1      43.193  29.365  35.063  1.00  0.00     0.037 A 
BRANCH  52  66
ATOM     66  C   UNL A   1      39.914  34.241  36.999  1.00  0.00     0.058 A 
ATOM     67  C   UNL A   1      40.486  35.519  36.895  1.00  0.00     0.135 A 
ATOM     68  C   UNL A   1      39.099  33.979  38.113  1.00  0.00     0.135 A 
ATOM     69  F   UNL A   1      41.285  35.820  35.858  1.00  0.00    -0.206 F 
ATOM     70  C   UNL A   1      40.284  36.491  37.870  1.00  0.00     0.059 A 
ATOM     71  C   UNL A   1      38.860  34.946  39.086  1.00  0.00     0.059 A 
ATOM     72  F   UNL A   1      38.525  32.776  38.264  1.00  0.00    -0.206 F 
ATOM     73  C   UNL A   1      39.470  36.193  38.964  1.00  0.00     0.060 A 
BRANCH  73  74
ATOM     74  S   UNL A   1      39.216  37.464  40.220  1.00  0.00     0.124 S 
ATOM     75  O   UNL A   1      38.774  36.664  41.358  1.00  0.00    -0.237 OA
ATOM     76  O   UNL A   1      40.545  38.056  40.340  1.00  0.00    -0.237 OA
ATOM     77  O   UNL A   1      38.199  38.328  39.629  1.00  0.00    -0.744 OA
ENDBRANCH  73  74
ENDBRANCH  52  66
BRANCH  53  78
ATOM     78  C   UNL A   1      41.232  27.669  29.586  1.00  0.00     0.058 A 
ATOM     79  C   UNL A   1      42.352  27.785  28.748  1.00  0.00     0.135 A 
ATOM     80  C   UNL A   1      40.346  26.606  29.350  1.00  0.00     0.135 A 
ATOM     81  F   UNL A   1      43.224  28.787  28.932  1.00  0.00    -0.206 F 
ATOM     82  C   UNL A   1      42.580  26.889  27.710  1.00  0.00     0.059 A 
ATOM     83  C   UNL A   1      40.565  25.683  28.333  1.00  0.00     0.059 A 
ATOM     84  F   UNL A   1      39.270  26.439  30.136  1.00  0.00    -0.206 F 
ATOM     85  C   UNL A   1      41.682  25.838  27.512  1.00  0.00     0.060 A 
BRANCH  85  86
ATOM     86  S   UNL A   1      42.021  24.640  26.204  1.00  0.00     0.124 S 
ATOM     87  O   UNL A   1      41.892  25.465  25.008  1.00  0.00    -0.237 OA
ATOM     88  O   UNL A   1      43.372  24.199  26.535  1.00  0.00    -0.237 OA
ATOM     89  O   UNL A   1      40.979  23.635  26.395  1.00  0.00    -0.744 OA
ENDBRANCH  85  86
ENDBRANCH  53  78
BRANCH  65  90
ATOM     90  C   UNL A   1      44.318  28.649  35.759  1.00  0.00     0.058 A 
ATOM     91  C   UNL A   1      45.656  29.033  35.581  1.00  0.00     0.135 A 
ATOM     92  C   UNL A   1      44.052  27.581  36.632  1.00  0.00     0.135 A 
ATOM     93  F   UNL A   1      45.966  30.044  34.753  1.00  0.00    -0.206 F 
ATOM     94  C   UNL A   1      46.696  28.360  36.215  1.00  0.00     0.059 A 
ATOM     95  C   UNL A   1      45.074  26.911  37.298  1.00  0.00     0.059 A 
ATOM     96  F   UNL A   1      42.788  27.182  36.847  1.00  0.00    -0.206 F 
ATOM     97  C   UNL A   1      46.394  27.297  37.069  1.00  0.00     0.060 A 
BRANCH  97  98
ATOM     98  S   UNL A   1      47.750  26.434  37.891  1.00  0.00     0.124 S 
ATOM     99  O   UNL A   1      48.452  27.539  38.537  1.00  0.00    -0.237 OA
ATOM    100  O   UNL A   1      47.044  25.523  38.787  1.00  0.00    -0.237 OA
ATOM    101  O   UNL A   1      48.462  25.794  36.790  1.00  0.00    -0.744 OA
ENDBRANCH  97  98
ENDBRANCH  65  90
ENDBRANCH  39  40
ENDBRANCH  31  34
ENDBRANCH  29  30
ENDBRANCH  28  29
ENDBRANCH  27  28
ENDBRANCH   1  27
TORSDOF 20
ENDMDL
MODEL 2
REMARK VINA RESULT:     -11.2      2.483      8.970
REMARK SMILES O=C(Cc1ccccc1[N+](=O)[O-])N[C@@H]1C=C[C@H](C(=O)NCCCCCCNC(=O)c2ccc(-c3c4nc(c(-c5c(F)cc(S(=O)(=O)[O-])cc5F)c5ccc([nH]5)c(-c5c(F)cc(S(=O)(=O)[O-])cc5F)c5nc(c(-c6c(F)cc(S(=O)(=O)[O-])cc6F)c6ccc3[nH]6)C=C5)C=C4)cc2)C1
REMARK SMILES IDX 23 1 22 2 21 3 20 4 18 5 19 6 17 8 14 9 15 10 96 11 16 12
REMARK SMILES IDX 13 13 1 14 2 15 3 17 4 18 5 19 9 20 6 21 8 22 7 23 10 24
REMARK SMILES IDX 11 25 12 26 24 27 25 28 26 29 27 30 28 31 29 33 30 34 31 35
REMARK SMILES IDX 95 36 32 37 94 38 33 39 34 40 35 41 88 42 36 43 93 44 87 45
REMARK SMILES IDX 89 46 37 47 92 48 86 49 85 50 38 52 72 53 51 54 71 55 52 56
REMARK SMILES IDX 55 57 70 58 90 59 53 60 54 61 69 63 91 64 56 65 39 66 40 67
REMARK SMILES IDX 49 68 41 69 42 70 48 71 50 72 43 73 44 74 45 75 46 76 47 77
REMARK SMILES IDX 73 78 74 79 83 80 75 81 76 82 82 83 84 84 77 85 78 86 79 87
REMARK SMILES IDX 80 88 81 89 57 90 58 91 67 92 59 93 60 94 66 95 68 96 61 97
REMARK SMILES IDX 62 98 63 99 64 100 65 101
REMARK H PARENT 20 7 13 16 27 32 89 51 55 62
REMARK Flexibility Score: inf
ROOT
ATOM      1  C   UNL A   1      40.357  21.121  26.599  1.00  0.00     0.002 C 
ENDROOT
BRANCH   1   2
ATOM      2  C   UNL A   1      39.056  21.479  25.870  1.00  0.00     0.021 C 
BRANCH   2   3
ATOM      3  C   UNL A   1      38.601  22.920  26.084  1.00  0.00     0.116 C 
BRANCH   3   4
ATOM      4  N   UNL A   1      37.625  23.320  25.088  1.00  0.00    -0.356 N 
ATOM      5  C   UNL A   1      36.363  22.917  24.803  1.00  0.00     0.227 C 
ATOM      6  O   UNL A   1      35.842  23.423  23.799  1.00  0.00    -0.274 OA
ATOM      7  H   UNL A   1      37.948  24.035  24.493  1.00  0.00     0.163 HD
BRANCH   5   8
ATOM      8  C   UNL A   1      35.525  21.955  25.662  1.00  0.00     0.103 C 
ATOM      9  C   UNL A   1      33.092  21.822  25.267  1.00  0.00     0.106 C 
ATOM     10  C   UNL A   1      33.419  22.427  26.590  1.00  0.00    -0.006 C 
ATOM     11  C   UNL A   1      34.446  21.279  24.792  1.00  0.00     0.047 C 
ATOM     12  C   UNL A   1      34.737  22.459  26.824  1.00  0.00    -0.016 C 
BRANCH   9  13
ATOM     13  N   UNL A   1      32.580  22.832  24.373  1.00  0.00    -0.350 N 
ATOM     14  O   UNL A   1      30.536  23.013  25.397  1.00  0.00    -0.275 OA
ATOM     15  C   UNL A   1      31.293  23.311  24.476  1.00  0.00     0.225 C 
ATOM     16  H   UNL A   1      33.168  23.191  23.670  1.00  0.00     0.164 HD
BRANCH  15  17
ATOM     17  C   UNL A   1      30.827  24.181  23.320  1.00  0.00     0.142 C 
BRANCH  17  18
ATOM     18  C   UNL A   1      31.389  25.585  23.319  1.00  0.00     0.039 A 
ATOM     19  C   UNL A   1      30.878  26.492  24.266  1.00  0.00     0.011 A 
ATOM     20  C   UNL A   1      32.356  26.069  22.411  1.00  0.00     0.273 A 
ATOM     21  C   UNL A   1      31.297  27.826  24.292  1.00  0.00     0.001 A 
ATOM     22  C   UNL A   1      32.779  27.409  22.439  1.00  0.00     0.086 A 
ATOM     23  C   UNL A   1      32.242  28.284  23.379  1.00  0.00     0.007 A 
BRANCH  20  24
ATOM     24  N   UNL A   1      32.973  25.203  21.406  1.00  0.00     0.063 N 
ATOM     25  O   UNL A   1      33.458  24.130  21.785  1.00  0.00    -0.258 OA
ATOM     26  O   UNL A   1      32.931  25.579  20.225  1.00  0.00    -0.258 OA
ENDBRANCH  20  24
ENDBRANCH  17  18
ENDBRANCH  15  17
ENDBRANCH   9  13
ENDBRANCH   5   8
ENDBRANCH   3   4
ENDBRANCH   2   3
ENDBRANCH   1   2
BRANCH   1  27
ATOM     27  C   UNL A   1      40.760  22.076  27.730  1.00  0.00     0.002 C 
BRANCH  27  28
ATOM     28  C   UNL A   1      42.245  22.060  28.106  1.00  0.00     0.021 C 
BRANCH  28  29
ATOM     29  C   UNL A   1      42.993  23.361  27.825  1.00  0.00     0.116 C 
BRANCH  29  30
ATOM     30  N   UNL A   1      42.618  23.940  26.545  1.00  0.00    -0.352 N 
ATOM     31  C   UNL A   1      41.944  25.101  26.277  1.00  0.00     0.251 C 
ATOM     32  H   UNL A   1      42.888  23.420  25.755  1.00  0.00     0.163 HD
ATOM     33  O   UNL A   1      41.544  25.320  25.129  1.00  0.00    -0.269 OA
BRANCH  31  34
ATOM     34  C   UNL A   1      41.674  26.082  27.350  1.00  0.00     0.039 A 
ATOM     35  C   UNL A   1      40.618  25.841  28.231  1.00  0.00     0.014 A 
ATOM     36  C   UNL A   1      42.439  27.246  27.476  1.00  0.00     0.014 A 
ATOM     37  C   UNL A   1      40.364  26.736  29.272  1.00  0.00     0.010 A 
ATOM     38  C   UNL A   1      42.227  28.105  28.554  1.00  0.00     0.010 A 
ATOM     39  C   UNL A   1      41.187  27.859  29.462  1.00  0.00    -0.014 A 
BRANCH  39  40
ATOM     40  C   UNL A   1      40.981  28.764  30.623  1.00  0.00     0.031 A 
ATOM     41  C   UNL A   1      41.830  28.634  31.858  1.00  0.00     0.074 A 
ATOM     42  C   UNL A   1      39.988  29.676  30.578  1.00  0.00     0.049 A 
ATOM     43  N   UNL A   1      41.779  29.323  32.970  1.00  0.00    -0.248 NA
ATOM     44  C   UNL A   1      42.853  27.577  31.854  1.00  0.00     0.031 C 
ATOM     45  C   UNL A   1      39.060  29.859  29.461  1.00  0.00     0.029 A 
ATOM     46  N   UNL A   1      39.591  30.616  31.496  1.00  0.00    -0.354 N 
ATOM     47  C   UNL A   1      42.753  28.779  33.800  1.00  0.00     0.074 A 
ATOM     48  C   UNL A   1      43.345  27.671  33.082  1.00  0.00     0.031 C 
ATOM     49  C   UNL A   1      38.217  30.863  29.747  1.00  0.00     0.029 A 
ATOM     50  C   UNL A   1      38.524  31.376  31.080  1.00  0.00     0.049 A 
ATOM     51  H   UNL A   1      40.029  30.734  32.369  1.00  0.00     0.167 HD
ATOM     52  C   UNL A   1      43.133  29.182  35.037  1.00  0.00     0.037 A 
ATOM     53  C   UNL A   1      37.863  32.371  31.700  1.00  0.00     0.037 A 
ATOM     54  C   UNL A   1      42.552  30.299  35.737  1.00  0.00     0.049 A 
ATOM     55  C   UNL A   1      38.314  32.811  33.065  1.00  0.00     0.074 A 
ATOM     56  C   UNL A   1      42.912  30.828  36.964  1.00  0.00     0.029 A 
ATOM     57  N   UNL A   1      41.486  31.058  35.275  1.00  0.00    -0.354 N 
ATOM     58  N   UNL A   1      39.287  32.334  33.804  1.00  0.00    -0.248 NA
ATOM     59  C   UNL A   1      37.585  33.930  33.678  1.00  0.00     0.031 C 
ATOM     60  C   UNL A   1      42.036  31.877  37.265  1.00  0.00     0.029 A 
ATOM     61  C   UNL A   1      41.160  32.034  36.203  1.00  0.00     0.049 A 
ATOM     62  H   UNL A   1      41.028  30.922  34.414  1.00  0.00     0.167 HD
ATOM     63  C   UNL A   1      39.299  33.106  34.960  1.00  0.00     0.074 A 
ATOM     64  C   UNL A   1      38.249  34.094  34.813  1.00  0.00     0.031 C 
ATOM     65  C   UNL A   1      40.105  33.005  36.047  1.00  0.00     0.037 A 
BRANCH  52  66
ATOM     66  C   UNL A   1      44.234  28.410  35.714  1.00  0.00     0.058 A 
ATOM     67  C   UNL A   1      43.960  27.330  36.569  1.00  0.00     0.135 A 
ATOM     68  C   UNL A   1      45.581  28.730  35.477  1.00  0.00     0.135 A 
ATOM     69  F   UNL A   1      42.690  26.988  36.841  1.00  0.00    -0.206 F 
ATOM     70  C   UNL A   1      44.979  26.615  37.189  1.00  0.00     0.059 A 
ATOM     71  C   UNL A   1      46.617  28.010  36.065  1.00  0.00     0.059 A 
ATOM     72  F   UNL A   1      45.901  29.752  34.668  1.00  0.00    -0.206 F 
ATOM     73  C   UNL A   1      46.306  26.964  36.932  1.00  0.00     0.060 A 
BRANCH  73  74
ATOM     74  S   UNL A   1      47.618  26.026  37.743  1.00  0.00     0.124 S 
ATOM     75  O   UNL A   1      47.439  26.421  39.136  1.00  0.00    -0.237 OA
ATOM     76  O   UNL A   1      47.258  24.647  37.425  1.00  0.00    -0.237 OA
ATOM     77  O   UNL A   1      48.834  26.517  37.102  1.00  0.00    -0.744 OA
ENDBRANCH  73  74
ENDBRANCH  52  66
BRANCH  53  78
ATOM     78  C   UNL A   1      36.720  33.036  31.021  1.00  0.00     0.058 A 
ATOM     79  C   UNL A   1      35.399  32.810  31.438  1.00  0.00     0.135 A 
ATOM     80  C   UNL A   1      36.926  33.931  29.960  1.00  0.00     0.135 A 
ATOM     81  F   UNL A   1      35.152  31.960  32.445  1.00  0.00    -0.206 F 
ATOM     82  C   UNL A   1      34.323  33.439  30.821  1.00  0.00     0.059 A 
ATOM     83  C   UNL A   1      35.868  34.590  29.342  1.00  0.00     0.059 A 
ATOM     84  F   UNL A   1      38.172  34.197  29.536  1.00  0.00    -0.206 F 
ATOM     85  C   UNL A   1      34.568  34.331  29.776  1.00  0.00     0.060 A 
BRANCH  85  86
ATOM     86  S   UNL A   1      33.172  35.194  29.024  1.00  0.00     0.124 S 
ATOM     87  O   UNL A   1      32.298  35.398  30.174  1.00  0.00    -0.237 OA
ATOM     88  O   UNL A   1      33.807  36.391  28.483  1.00  0.00    -0.237 OA
ATOM     89  O   UNL A   1      32.692  34.245  28.024  1.00  0.00    -0.744 OA
ENDBRANCH  85  86
ENDBRANCH  53  78
BRANCH  65  90
ATOM     90  C   UNL A   1      39.890  34.001  37.153  1.00  0.00     0.058 A 
ATOM     91  C   UNL A   1      40.629  35.193  37.224  1.00  0.00     0.135 A 
ATOM     92  C   UNL A   1      38.919  33.772  38.141  1.00  0.00     0.135 A 
ATOM     93  F   UNL A   1      41.573  35.458  36.306  1.00  0.00    -0.206 F 
ATOM     94  C   UNL A   1      40.438  36.106  38.255  1.00  0.00     0.059 A 
ATOM     95  C   UNL A   1      38.692  34.684  39.167  1.00  0.00     0.059 A 
ATOM     96  F   UNL A   1      38.177  32.654  38.114  1.00  0.00    -0.206 F 
ATOM     97  C   UNL A   1      39.469  35.841  39.225  1.00  0.00     0.060 A 
BRANCH  97  98
ATOM     98  S   UNL A   1      39.226  37.035  40.556  1.00  0.00     0.124 S 
ATOM     99  O   UNL A   1      40.576  37.562  40.728  1.00  0.00    -0.237 OA
ATOM    100  O   UNL A   1      38.255  37.958  39.977  1.00  0.00    -0.237 OA
ATOM    101  O   UNL A   1      38.725  36.218  41.658  1.00  0.00    -0.744 OA
ENDBRANCH  97  98
ENDBRANCH  65  90
ENDBRANCH  39  40
ENDBRANCH  31  34
ENDBRANCH  29  30
ENDBRANCH  28  29
ENDBRANCH  27  28
ENDBRANCH   1  27
TORSDOF 20
ENDMDL
MODEL 3
REMARK VINA RESULT:     -11.0      5.787      8.162
REMARK SMILES O=C(Cc1ccccc1[N+](=O)[O-])N[C@@H]1C=C[C@H](C(=O)NCCCCCCNC(=O)c2ccc(-c3c4nc(c(-c5c(F)cc(S(=O)(=O)[O-])cc5F)c5ccc([nH]5)c(-c5c(F)cc(S(=O)(=O)[O-])cc5F)c5nc(c(-c6c(F)cc(S(=O)(=O)[O-])cc6F)c6ccc3[nH]6)C=C5)C=C4)cc2)C1
REMARK SMILES IDX 23 1 22 2 21 3 20 4 18 5 19 6 17 8 14 9 15 10 96 11 16 12
REMARK SMILES IDX 13 13 1 14 2 15 3 17 4 18 5 19 9 20 6 21 8 22 7 23 10 24
REMARK SMILES IDX 11 25 12 26 24 27 25 28 26 29 27 30 28 31 29 33 30 34 31 35
REMARK SMILES IDX 95 36 32 37 94 38 33 39 34 40 35 41 88 42 36 43 93 44 87 45
REMARK SMILES IDX 89 46 37 47 92 48 86 49 85 50 38 52 72 53 51 54 71 55 52 56
REMARK SMILES IDX 55 57 70 58 90 59 53 60 54 61 69 63 91 64 56 65 39 66 40 67
REMARK SMILES IDX 49 68 41 69 42 70 48 71 50 72 43 73 44 74 45 75 46 76 47 77
REMARK SMILES IDX 73 78 74 79 83 80 75 81 76 82 82 83 84 84 77 85 78 86 79 87
REMARK SMILES IDX 80 88 81 89 57 90 58 91 67 92 59 93 60 94 66 95 68 96 61 97
REMARK SMILES IDX 62 98 63 99 64 100 65 101
REMARK H PARENT 20 7 13 16 27 32 89 51 55 62
REMARK Flexibility Score: inf
ROOT
ATOM      1  C   UNL A   1      35.340  32.306  27.684  1.00  0.00     0.002 C 
ENDROOT
BRANCH   1   2
ATOM      2  C   UNL A   1      34.830  30.885  27.955  1.00  0.00     0.021 C 
BRANCH   2   3
ATOM      3  C   UNL A   1      33.579  30.513  27.164  1.00  0.00     0.116 C 
BRANCH   3   4
ATOM      4  N   UNL A   1      33.900  29.660  26.035  1.00  0.00    -0.356 N 
ATOM      5  C   UNL A   1      33.204  28.723  25.347  1.00  0.00     0.227 C 
ATOM      6  O   UNL A   1      33.834  28.105  24.477  1.00  0.00    -0.274 OA
ATOM      7  H   UNL A   1      34.816  29.788  25.699  1.00  0.00     0.163 HD
BRANCH   5   8
ATOM      8  C   UNL A   1      31.703  28.432  25.516  1.00  0.00     0.103 C 
ATOM      9  C   UNL A   1      30.882  26.142  25.097  1.00  0.00     0.106 C 
ATOM     10  C   UNL A   1      30.392  27.115  24.079  1.00  0.00    -0.006 C 
ATOM     11  C   UNL A   1      31.507  27.047  26.166  1.00  0.00     0.047 C 
ATOM     12  C   UNL A   1      30.800  28.365  24.330  1.00  0.00    -0.016 C 
BRANCH   9  13
ATOM     13  N   UNL A   1      31.860  25.259  24.508  1.00  0.00    -0.350 N 
ATOM     14  O   UNL A   1      31.864  23.752  26.237  1.00  0.00    -0.275 OA
ATOM     15  C   UNL A   1      32.327  24.145  25.168  1.00  0.00     0.225 C 
ATOM     16  H   UNL A   1      32.203  25.459  23.607  1.00  0.00     0.164 HD
BRANCH  15  17
ATOM     17  C   UNL A   1      33.525  23.462  24.529  1.00  0.00     0.142 C 
BRANCH  17  18
ATOM     18  C   UNL A   1      33.376  21.968  24.345  1.00  0.00     0.039 A 
ATOM     19  C   UNL A   1      32.490  21.520  23.347  1.00  0.00     0.011 A 
ATOM     20  C   UNL A   1      34.024  20.987  25.126  1.00  0.00     0.273 A 
ATOM     21  C   UNL A   1      32.246  20.157  23.153  1.00  0.00     0.001 A 
ATOM     22  C   UNL A   1      33.781  19.617  24.930  1.00  0.00     0.086 A 
ATOM     23  C   UNL A   1      32.887  19.208  23.944  1.00  0.00     0.007 A 
BRANCH  20  24
ATOM     24  N   UNL A   1      34.986  21.343  26.170  1.00  0.00     0.063 N 
ATOM     25  O   UNL A   1      36.190  21.246  25.904  1.00  0.00    -0.258 OA
ATOM     26  O   UNL A   1      34.533  21.765  27.244  1.00  0.00    -0.258 OA
ENDBRANCH  20  24
ENDBRANCH  17  18
ENDBRANCH  15  17
ENDBRANCH   9  13
ENDBRANCH   5   8
ENDBRANCH   3   4
ENDBRANCH   2   3
ENDBRANCH   1   2
BRANCH   1  27
ATOM     27  C   UNL A   1      35.338  33.246  28.896  1.00  0.00     0.002 C 
BRANCH  27  28
ATOM     28  C   UNL A   1      36.696  33.855  29.259  1.00  0.00     0.021 C 
BRANCH  28  29
ATOM     29  C   UNL A   1      37.324  33.307  30.539  1.00  0.00     0.116 C 
BRANCH  29  30
ATOM     30  N   UNL A   1      36.549  32.214  31.102  1.00  0.00    -0.352 N 
ATOM     31  C   UNL A   1      36.788  30.865  31.067  1.00  0.00     0.251 C 
ATOM     32  H   UNL A   1      35.731  32.481  31.579  1.00  0.00     0.163 HD
ATOM     33  O   UNL A   1      35.906  30.083  31.430  1.00  0.00    -0.269 OA
BRANCH  31  34
ATOM     34  C   UNL A   1      38.082  30.342  30.580  1.00  0.00     0.039 A 
ATOM     35  C   UNL A   1      38.310  30.286  29.203  1.00  0.00     0.014 A 
ATOM     36  C   UNL A   1      39.059  29.885  31.470  1.00  0.00     0.014 A 
ATOM     37  C   UNL A   1      39.536  29.825  28.720  1.00  0.00     0.010 A 
ATOM     38  C   UNL A   1      40.307  29.487  30.989  1.00  0.00     0.010 A 
ATOM     39  C   UNL A   1      40.558  29.452  29.610  1.00  0.00    -0.014 A 
BRANCH  39  40
ATOM     40  C   UNL A   1      41.897  29.052  29.105  1.00  0.00     0.031 A 
ATOM     41  C   UNL A   1      43.012  30.057  29.006  1.00  0.00     0.074 A 
ATOM     42  C   UNL A   1      42.090  27.784  28.688  1.00  0.00     0.049 A 
ATOM     43  N   UNL A   1      44.236  29.889  28.573  1.00  0.00    -0.248 NA
ATOM     44  C   UNL A   1      42.707  31.433  29.424  1.00  0.00     0.031 C 
ATOM     45  C   UNL A   1      41.070  26.734  28.679  1.00  0.00     0.029 A 
ATOM     46  N   UNL A   1      43.207  27.165  28.188  1.00  0.00    -0.354 N 
ATOM     47  C   UNL A   1      44.843  31.137  28.657  1.00  0.00     0.074 A 
ATOM     48  C   UNL A   1      43.838  32.062  29.136  1.00  0.00     0.031 C 
ATOM     49  C   UNL A   1      41.613  25.596  28.220  1.00  0.00     0.029 A 
ATOM     50  C   UNL A   1      43.010  25.841  27.873  1.00  0.00     0.049 A 
ATOM     51  H   UNL A   1      44.069  27.624  28.066  1.00  0.00     0.167 HD
ATOM     52  C   UNL A   1      46.127  31.475  28.382  1.00  0.00     0.037 A 
ATOM     53  C   UNL A   1      43.855  24.927  27.359  1.00  0.00     0.037 A 
ATOM     54  C   UNL A   1      47.127  30.545  27.926  1.00  0.00     0.049 A 
ATOM     55  C   UNL A   1      45.279  25.322  27.079  1.00  0.00     0.074 A 
ATOM     56  C   UNL A   1      48.470  30.774  27.683  1.00  0.00     0.029 A 
ATOM     57  N   UNL A   1      46.894  29.207  27.637  1.00  0.00    -0.354 N 
ATOM     58  N   UNL A   1      45.856  26.490  27.236  1.00  0.00    -0.248 NA
ATOM     59  C   UNL A   1      46.168  24.274  26.560  1.00  0.00     0.031 C 
ATOM     60  C   UNL A   1      49.040  29.588  27.206  1.00  0.00     0.029 A 
ATOM     61  C   UNL A   1      48.063  28.606  27.196  1.00  0.00     0.049 A 
ATOM     62  H   UNL A   1      46.026  28.752  27.730  1.00  0.00     0.167 HD
ATOM     63  C   UNL A   1      47.180  26.313  26.853  1.00  0.00     0.074 A 
ATOM     64  C   UNL A   1      47.323  24.920  26.477  1.00  0.00     0.031 C 
ATOM     65  C   UNL A   1      48.187  27.220  26.815  1.00  0.00     0.037 A 
BRANCH  52  66
ATOM     66  C   UNL A   1      46.524  32.914  28.572  1.00  0.00     0.058 A 
ATOM     67  C   UNL A   1      46.998  33.393  29.803  1.00  0.00     0.135 A 
ATOM     68  C   UNL A   1      46.465  33.819  27.499  1.00  0.00     0.135 A 
ATOM     69  F   UNL A   1      47.064  32.575  30.867  1.00  0.00    -0.206 F 
ATOM     70  C   UNL A   1      47.370  34.723  29.975  1.00  0.00     0.059 A 
ATOM     71  C   UNL A   1      46.858  35.147  27.640  1.00  0.00     0.059 A 
ATOM     72  F   UNL A   1      46.020  33.417  26.298  1.00  0.00    -0.206 F 
ATOM     73  C   UNL A   1      47.294  35.593  28.887  1.00  0.00     0.060 A 
BRANCH  73  74
ATOM     74  S   UNL A   1      47.782  37.315  29.124  1.00  0.00     0.124 S 
ATOM     75  O   UNL A   1      48.202  37.308  30.522  1.00  0.00    -0.237 OA
ATOM     76  O   UNL A   1      48.851  37.476  28.142  1.00  0.00    -0.237 OA
ATOM     77  O   UNL A   1      46.558  38.058  28.841  1.00  0.00    -0.744 OA
ENDBRANCH  73  74
ENDBRANCH  52  66
BRANCH  53  78
ATOM     78  C   UNL A   1      43.380  23.542  27.103  1.00  0.00     0.058 A 
ATOM     79  C   UNL A   1      43.025  23.126  25.811  1.00  0.00     0.135 A 
ATOM     80  C   UNL A   1      43.299  22.599  28.139  1.00  0.00     0.135 A 
ATOM     81  F   UNL A   1      43.082  23.993  24.790  1.00  0.00    -0.206 F 
ATOM     82  C   UNL A   1      42.595  21.829  25.557  1.00  0.00     0.059 A 
ATOM     83  C   UNL A   1      42.895  21.289  27.906  1.00  0.00     0.059 A 
ATOM     84  F   UNL A   1      43.647  22.941  29.390  1.00  0.00    -0.206 F 
ATOM     85  C   UNL A   1      42.536  20.915  26.611  1.00  0.00     0.060 A 
BRANCH  85  86
ATOM     86  S   UNL A   1      42.042  19.214  26.261  1.00  0.00     0.124 S 
ATOM     87  O   UNL A   1      43.045  18.812  25.281  1.00  0.00    -0.237 OA
ATOM     88  O   UNL A   1      42.144  18.589  27.576  1.00  0.00    -0.237 OA
ATOM     89  O   UNL A   1      40.682  19.360  25.751  1.00  0.00    -0.744 OA
ENDBRANCH  85  86
ENDBRANCH  53  78
BRANCH  65  90
ATOM     90  C   UNL A   1      49.536  26.729  26.365  1.00  0.00     0.058 A 
ATOM     91  C   UNL A   1      49.892  26.698  25.008  1.00  0.00     0.135 A 
ATOM     92  C   UNL A   1      50.490  26.305  27.304  1.00  0.00     0.135 A 
ATOM     93  F   UNL A   1      49.014  27.088  24.069  1.00  0.00    -0.206 F 
ATOM     94  C   UNL A   1      51.134  26.229  24.593  1.00  0.00     0.059 A 
ATOM     95  C   UNL A   1      51.749  25.858  26.914  1.00  0.00     0.059 A 
ATOM     96  F   UNL A   1      50.205  26.325  28.615  1.00  0.00    -0.206 F 
ATOM     97  C   UNL A   1      52.056  25.808  25.554  1.00  0.00     0.060 A 
BRANCH  97  98
ATOM     98  S   UNL A   1      53.667  25.208  25.006  1.00  0.00     0.124 S 
ATOM     99  O   UNL A   1      53.895  26.023  23.817  1.00  0.00    -0.237 OA
ATOM    100  O   UNL A   1      54.520  25.507  26.153  1.00  0.00    -0.237 OA
ATOM    101  O   UNL A   1      53.434  23.788  24.759  1.00  0.00    -0.744 OA
ENDBRANCH  97  98
ENDBRANCH  65  90
ENDBRANCH  39  40
ENDBRANCH  31  34
ENDBRANCH  29  30
ENDBRANCH  28  29
ENDBRANCH  27  28
ENDBRANCH   1  27
TORSDOF 20
ENDMDL
