MODEL 1
REMARK VINA RESULT:     -12.5      0.000      0.000
REMARK SMILES Cc1ccccc1C(=O)Nc1cc(C(=O)NCCCCCCNC(=O)c2ccc(-c3c4nc(c(-c5c(F)cc(S(=O)(=O)[O-])cc5F)c5ccc([nH]5)c(-c5c(F)cc(S(=O)(=O)[O-])cc5F)c5nc(c(-c6c(F)cc(S(=O)(=O)[O-])cc6F)c6ccc3[nH]6)C=C5)C=C4)cc2)ccc1N1CC[NH+](CC(=O)Nc2ccc(F)cc2)CC1
REMARK SMILES IDX 19 1 18 2 17 3 16 4 14 5 15 6 13 8 11 9 12 10 94 11 93 12
REMARK SMILES IDX 92 13 10 14 8 15 9 16 7 18 1 19 2 20 3 21 4 22 6 23 5 24
REMARK SMILES IDX 95 25 96 26 111 27 97 28 110 29 98 30 99 32 100 33 101 34
REMARK SMILES IDX 102 35 103 37 104 38 109 39 105 40 108 41 106 42 107 43
REMARK SMILES IDX 20 44 21 45 22 46 23 47 24 48 25 50 26 51 27 52 91 53 28 54
REMARK SMILES IDX 90 55 29 56 30 57 31 58 84 59 32 60 89 61 83 62 85 63 33 64
REMARK SMILES IDX 88 65 82 66 81 67 34 69 68 70 47 71 67 72 48 73 51 74 66 75
REMARK SMILES IDX 86 76 49 77 50 78 65 80 87 81 52 82 35 83 36 84 45 85 37 86
REMARK SMILES IDX 38 87 44 88 46 89 39 90 40 91 41 92 42 93 43 94 69 95 70 96
REMARK SMILES IDX 79 97 71 98 72 99 78 100 80 101 73 102 74 103 75 104 76 105
REMARK SMILES IDX 77 106 53 107 54 108 63 109 55 110 56 111 62 112 64 113
REMARK SMILES IDX 57 114 58 115 59 116 60 117 61 118
REMARK H PARENT 16 7 10 17 98 31 102 36 23 49 85 68 51 79
REMARK Flexibility Score: inf
ROOT
ATOM      1  C   UNL A   1      36.721  30.258  29.585  1.00  0.00     0.002 C 
ENDROOT
BRANCH   1   2
ATOM      2  C   UNL A   1      35.370  30.856  29.169  1.00  0.00     0.021 C 
BRANCH   2   3
ATOM      3  C   UNL A   1      34.869  30.376  27.803  1.00  0.00     0.116 C 
BRANCH   3   4
ATOM      4  N   UNL A   1      33.663  31.075  27.389  1.00  0.00    -0.352 N 
ATOM      5  C   UNL A   1      32.483  30.668  26.814  1.00  0.00     0.251 C 
ATOM      6  O   UNL A   1      31.605  31.521  26.671  1.00  0.00    -0.269 OA
ATOM      7  H   UNL A   1      33.699  32.044  27.555  1.00  0.00     0.163 HD
BRANCH   5   8
ATOM      8  C   UNL A   1      32.180  29.260  26.408  1.00  0.00     0.042 A 
ATOM      9  C   UNL A   1      31.877  27.482  24.791  1.00  0.00     0.065 A 
ATOM     10  C   UNL A   1      31.995  28.842  25.102  1.00  0.00     0.042 A 
ATOM     11  C   UNL A   1      31.773  26.470  25.791  1.00  0.00     0.061 A 
ATOM     12  C   UNL A   1      31.855  26.931  27.113  1.00  0.00     0.029 A 
ATOM     13  C   UNL A   1      32.086  28.287  27.415  1.00  0.00     0.016 A 
BRANCH   9  14
ATOM     14  N   UNL A   1      31.838  27.137  23.434  1.00  0.00    -0.320 N 
ATOM     15  C   UNL A   1      30.948  27.554  22.458  1.00  0.00     0.255 C 
ATOM     16  O   UNL A   1      31.273  27.384  21.279  1.00  0.00    -0.269 OA
ATOM     17  H   UNL A   1      32.537  26.514  23.132  1.00  0.00     0.170 HD
BRANCH  15  18
ATOM     18  C   UNL A   1      29.629  28.210  22.715  1.00  0.00     0.043 A 
ATOM     19  C   UNL A   1      28.418  26.329  24.026  1.00  0.00     0.045 C 
ATOM     20  C   UNL A   1      28.504  27.682  23.386  1.00  0.00    -0.038 A 
ATOM     21  C   UNL A   1      27.347  28.486  23.503  1.00  0.00     0.004 A 
ATOM     22  C   UNL A   1      27.331  29.810  23.069  1.00  0.00     0.000 A 
ATOM     23  C   UNL A   1      29.604  29.565  22.324  1.00  0.00     0.014 A 
ATOM     24  C   UNL A   1      28.472  30.360  22.506  1.00  0.00     0.001 A 
ENDBRANCH  15  18
ENDBRANCH   9  14
BRANCH  11  25
ATOM     25  N   UNL A   1      31.650  25.110  25.504  1.00  0.00    -0.359 N 
ATOM     26  C   UNL A   1      31.771  24.043  26.536  1.00  0.00     0.178 C 
ATOM     27  C   UNL A   1      31.982  24.595  24.174  1.00  0.00     0.178 C 
ATOM     28  C   UNL A   1      31.225  22.638  26.056  1.00  0.00     0.284 C 
ATOM     29  C   UNL A   1      30.971  23.500  23.836  1.00  0.00     0.284 C 
ATOM     30  N   UNL A   1      31.240  22.295  24.615  1.00  0.00    -0.324 N 
ATOM     31  H   UNL A   1      30.486  21.621  24.491  1.00  0.00     0.348 HD
BRANCH  30  32
ATOM     32  C   UNL A   1      32.358  21.474  24.103  1.00  0.00     0.364 C 
BRANCH  32  33
ATOM     33  C   UNL A   1      32.900  20.367  25.004  1.00  0.00     0.279 C 
ATOM     34  O   UNL A   1      32.153  19.436  25.347  1.00  0.00    -0.268 OA
ATOM     35  N   UNL A   1      34.197  20.268  25.428  1.00  0.00    -0.321 N 
ATOM     36  H   UNL A   1      34.403  19.357  25.737  1.00  0.00     0.170 HD
BRANCH  35  37
ATOM     37  C   UNL A   1      35.319  21.116  25.543  1.00  0.00     0.041 A 
ATOM     38  C   UNL A   1      35.092  22.360  26.161  1.00  0.00     0.029 A 
ATOM     39  C   UNL A   1      36.582  20.885  25.007  1.00  0.00     0.029 A 
ATOM     40  C   UNL A   1      36.081  23.353  26.186  1.00  0.00     0.041 A 
ATOM     41  C   UNL A   1      37.557  21.893  24.981  1.00  0.00     0.041 A 
ATOM     42  C   UNL A   1      37.299  23.119  25.571  1.00  0.00     0.123 A 
ATOM     43  F   UNL A   1      38.229  24.081  25.552  1.00  0.00    -0.207 F 
ENDBRANCH  35  37
ENDBRANCH  32  33
ENDBRANCH  30  32
ENDBRANCH  11  25
ENDBRANCH   5   8
ENDBRANCH   3   4
ENDBRANCH   2   3
ENDBRANCH   1   2
BRANCH   1  44
ATOM     44  C   UNL A   1      37.310  30.761  30.916  1.00  0.00     0.002 C 
BRANCH  44  45
ATOM     45  C   UNL A   1      36.333  31.457  31.867  1.00  0.00     0.021 C 
BRANCH  45  46
ATOM     46  C   UNL A   1      36.436  32.973  31.853  1.00  0.00     0.116 C 
BRANCH  46  47
ATOM     47  N   UNL A   1      36.990  33.552  33.067  1.00  0.00    -0.352 N 
ATOM     48  C   UNL A   1      38.361  33.464  33.321  1.00  0.00     0.251 C 
ATOM     49  H   UNL A   1      36.399  34.007  33.709  1.00  0.00     0.163 HD
ATOM     50  O   UNL A   1      38.861  32.855  34.239  1.00  0.00    -0.269 OA
BRANCH  48  51
ATOM     51  C   UNL A   1      39.189  34.153  32.304  1.00  0.00     0.039 A 
ATOM     52  C   UNL A   1      38.687  34.358  31.018  1.00  0.00     0.014 A 
ATOM     53  C   UNL A   1      40.542  34.324  32.592  1.00  0.00     0.014 A 
ATOM     54  C   UNL A   1      39.580  34.600  29.972  1.00  0.00     0.010 A 
ATOM     55  C   UNL A   1      41.426  34.468  31.544  1.00  0.00     0.010 A 
ATOM     56  C   UNL A   1      40.951  34.576  30.229  1.00  0.00    -0.014 A 
BRANCH  56  57
ATOM     57  C   UNL A   1      41.989  34.588  29.202  1.00  0.00     0.031 A 
ATOM     58  C   UNL A   1      42.913  33.436  29.063  1.00  0.00     0.074 A 
ATOM     59  C   UNL A   1      41.993  35.561  28.265  1.00  0.00     0.049 A 
ATOM     60  N   UNL A   1      43.999  33.455  28.365  1.00  0.00    -0.248 NA
ATOM     61  C   UNL A   1      42.693  32.159  29.734  1.00  0.00     0.031 C 
ATOM     62  C   UNL A   1      42.640  35.517  26.956  1.00  0.00     0.029 A 
ATOM     63  N   UNL A   1      41.561  36.882  28.392  1.00  0.00    -0.354 N 
ATOM     64  C   UNL A   1      44.460  32.162  28.262  1.00  0.00     0.074 A 
ATOM     65  C   UNL A   1      43.637  31.399  29.170  1.00  0.00     0.031 C 
ATOM     66  C   UNL A   1      42.794  36.768  26.502  1.00  0.00     0.029 A 
ATOM     67  C   UNL A   1      42.394  37.666  27.568  1.00  0.00     0.049 A 
ATOM     68  H   UNL A   1      40.817  37.205  28.950  1.00  0.00     0.167 HD
ATOM     69  C   UNL A   1      45.408  31.863  27.326  1.00  0.00     0.037 A 
ATOM     70  C   UNL A   1      43.189  38.648  28.091  1.00  0.00     0.037 A 
ATOM     71  C   UNL A   1      45.850  33.063  26.621  1.00  0.00     0.049 A 
ATOM     72  C   UNL A   1      44.669  38.434  27.860  1.00  0.00     0.074 A 
ATOM     73  C   UNL A   1      45.502  33.622  25.401  1.00  0.00     0.029 A 
ATOM     74  N   UNL A   1      46.568  34.035  27.308  1.00  0.00    -0.354 N 
ATOM     75  N   UNL A   1      45.197  37.297  27.499  1.00  0.00    -0.248 NA
ATOM     76  C   UNL A   1      45.675  39.482  28.014  1.00  0.00     0.031 C 
ATOM     77  C   UNL A   1      45.983  34.955  25.373  1.00  0.00     0.029 A 
ATOM     78  C   UNL A   1      46.635  35.201  26.568  1.00  0.00     0.049 A 
ATOM     79  H   UNL A   1      46.972  33.911  28.196  1.00  0.00     0.167 HD
ATOM     80  C   UNL A   1      46.561  37.424  27.395  1.00  0.00     0.074 A 
ATOM     81  C   UNL A   1      46.804  38.821  27.699  1.00  0.00     0.031 C 
ATOM     82  C   UNL A   1      47.360  36.359  27.072  1.00  0.00     0.037 A 
BRANCH  69  83
ATOM     83  C   UNL A   1      45.733  30.454  26.871  1.00  0.00     0.058 A 
ATOM     84  C   UNL A   1      44.707  29.556  26.501  1.00  0.00     0.135 A 
ATOM     85  C   UNL A   1      47.032  29.911  26.822  1.00  0.00     0.135 A 
ATOM     86  F   UNL A   1      43.429  29.946  26.409  1.00  0.00    -0.206 F 
ATOM     87  C   UNL A   1      44.939  28.207  26.220  1.00  0.00     0.059 A 
ATOM     88  C   UNL A   1      47.284  28.552  26.600  1.00  0.00     0.059 A 
ATOM     89  F   UNL A   1      48.115  30.693  26.944  1.00  0.00    -0.206 F 
ATOM     90  C   UNL A   1      46.226  27.703  26.310  1.00  0.00     0.060 A 
BRANCH  90  91
ATOM     91  S   UNL A   1      46.489  25.940  26.043  1.00  0.00     0.124 S 
ATOM     92  O   UNL A   1      47.940  25.823  26.158  1.00  0.00    -0.237 OA
ATOM     93  O   UNL A   1      45.718  25.348  27.130  1.00  0.00    -0.237 OA
ATOM     94  O   UNL A   1      45.956  25.716  24.702  1.00  0.00    -0.744 OA
ENDBRANCH  90  91
ENDBRANCH  69  83
BRANCH  70  95
ATOM     95  C   UNL A   1      42.560  39.331  29.256  1.00  0.00     0.058 A 
ATOM     96  C   UNL A   1      43.198  39.178  30.503  1.00  0.00     0.135 A 
ATOM     97  C   UNL A   1      41.749  40.460  29.079  1.00  0.00     0.135 A 
ATOM     98  F   UNL A   1      43.962  38.098  30.735  1.00  0.00    -0.206 F 
ATOM     99  C   UNL A   1      43.208  40.198  31.449  1.00  0.00     0.059 A 
ATOM    100  C   UNL A   1      41.731  41.490  30.024  1.00  0.00     0.059 A 
ATOM    101  F   UNL A   1      41.101  40.653  27.920  1.00  0.00    -0.206 F 
ATOM    102  C   UNL A   1      42.541  41.385  31.157  1.00  0.00     0.060 A 
BRANCH 102 103
ATOM    103  S   UNL A   1      42.889  42.833  32.189  1.00  0.00     0.124 S 
ATOM    104  O   UNL A   1      44.347  42.836  32.234  1.00  0.00    -0.237 OA
ATOM    105  O   UNL A   1      42.279  43.917  31.415  1.00  0.00    -0.237 OA
ATOM    106  O   UNL A   1      42.221  42.517  33.445  1.00  0.00    -0.744 OA
ENDBRANCH 102 103
ENDBRANCH  70  95
BRANCH  82 107
ATOM    107  C   UNL A   1      48.879  36.292  27.103  1.00  0.00     0.058 A 
ATOM    108  C   UNL A   1      49.638  35.795  28.174  1.00  0.00     0.135 A 
ATOM    109  C   UNL A   1      49.630  36.618  25.940  1.00  0.00     0.135 A 
ATOM    110  F   UNL A   1      49.060  35.344  29.294  1.00  0.00    -0.206 F 
ATOM    111  C   UNL A   1      51.033  35.686  28.123  1.00  0.00     0.059 A 
ATOM    112  C   UNL A   1      51.011  36.459  25.847  1.00  0.00     0.059 A 
ATOM    113  F   UNL A   1      49.043  37.089  24.830  1.00  0.00    -0.206 F 
ATOM    114  C   UNL A   1      51.712  36.015  26.955  1.00  0.00     0.060 A 
BRANCH 114 115
ATOM    115  S   UNL A   1      53.497  35.793  26.855  1.00  0.00     0.124 S 
ATOM    116  O   UNL A   1      53.622  34.349  27.020  1.00  0.00    -0.237 OA
ATOM    117  O   UNL A   1      53.813  36.305  25.524  1.00  0.00    -0.237 OA
ATOM    118  O   UNL A   1      53.997  36.603  27.962  1.00  0.00    -0.744 OA
ENDBRANCH 114 115
ENDBRANCH  82 107
ENDBRANCH  56  57
ENDBRANCH  48  51
ENDBRANCH  46  47
ENDBRANCH  45  46
ENDBRANCH  44  45
ENDBRANCH   1  44
TORSDOF 22
ENDMDL
MODEL 2
REMARK VINA RESULT:     -11.9      5.174     10.256
REMARK SMILES Cc1ccccc1C(=O)Nc1cc(C(=O)NCCCCCCNC(=O)c2ccc(-c3c4nc(c(-c5c(F)cc(S(=O)(=O)[O-])cc5F)c5ccc([nH]5)c(-c5c(F)cc(S(=O)(=O)[O-])cc5F)c5nc(c(-c6c(F)cc(S(=O)(=O)[O-])cc6F)c6ccc3[nH]6)C=C5)C=C4)cc2)ccc1N1CC[NH+](CC(=O)Nc2ccc(F)cc2)CC1
REMARK SMILES IDX 19 1 18 2 17 3 16 4 14 5 15 6 13 8 11 9 12 10 94 11 93 12
REMARK SMILES IDX 92 13 10 14 8 15 9 16 7 18 1 19 2 20 3 21 4 22 6 23 5 24
REMARK SMILES IDX 95 25 96 26 111 27 97 28 110 29 98 30 99 32 100 33 101 34
REMARK SMILES IDX 102 35 103 37 104 38 109 39 105 40 108 41 106 42 107 43
REMARK SMILES IDX 20 44 21 45 22 46 23 47 24 48 25 50 26 51 27 52 91 53 28 54
REMARK SMILES IDX 90 55 29 56 30 57 31 58 84 59 32 60 89 61 83 62 85 63 33 64
REMARK SMILES IDX 88 65 82 66 81 67 34 69 68 70 47 71 67 72 48 73 51 74 66 75
REMARK SMILES IDX 86 76 49 77 50 78 65 80 87 81 52 82 35 83 36 84 45 85 37 86
REMARK SMILES IDX 38 87 44 88 46 89 39 90 40 91 41 92 42 93 43 94 69 95 70 96
REMARK SMILES IDX 79 97 71 98 72 99 78 100 80 101 73 102 74 103 75 104 76 105
REMARK SMILES IDX 77 106 53 107 54 108 63 109 55 110 56 111 62 112 64 113
REMARK SMILES IDX 57 114 58 115 59 116 60 117 61 118
REMARK H PARENT 16 7 10 17 98 31 102 36 23 49 85 68 51 79
REMARK Flexibility Score: inf
ROOT
ATOM      1  C   UNL A   1      38.683  29.006  29.154  1.00  0.00     0.002 C 
ENDROOT
BRANCH   1   2
ATOM      2  C   UNL A   1      39.726  28.611  28.099  1.00  0.00     0.021 C 
BRANCH   2   3
ATOM      3  C   UNL A   1      41.174  28.714  28.584  1.00  0.00     0.116 C 
BRANCH   3   4
ATOM      4  N   UNL A   1      42.001  29.486  27.672  1.00  0.00    -0.352 N 
ATOM      5  C   UNL A   1      42.885  29.145  26.675  1.00  0.00     0.251 C 
ATOM      6  O   UNL A   1      43.364  30.066  26.011  1.00  0.00    -0.269 OA
ATOM      7  H   UNL A   1      41.910  30.459  27.792  1.00  0.00     0.163 HD
BRANCH   5   8
ATOM      8  C   UNL A   1      43.251  27.741  26.312  1.00  0.00     0.042 A 
ATOM      9  C   UNL A   1      44.756  25.845  26.212  1.00  0.00     0.065 A 
ATOM     10  C   UNL A   1      44.526  27.210  26.416  1.00  0.00     0.042 A 
ATOM     11  C   UNL A   1      43.748  24.958  25.731  1.00  0.00     0.061 A 
ATOM     12  C   UNL A   1      42.489  25.543  25.529  1.00  0.00     0.029 A 
ATOM     13  C   UNL A   1      42.237  26.893  25.843  1.00  0.00     0.016 A 
BRANCH   9  14
ATOM     14  N   UNL A   1      46.045  25.367  26.478  1.00  0.00    -0.320 N 
ATOM     15  C   UNL A   1      46.551  24.845  27.657  1.00  0.00     0.255 C 
ATOM     16  O   UNL A   1      47.602  24.200  27.590  1.00  0.00    -0.269 OA
ATOM     17  H   UNL A   1      46.678  25.407  25.725  1.00  0.00     0.170 HD
BRANCH  15  18
ATOM     18  C   UNL A   1      45.919  24.985  29.004  1.00  0.00     0.043 A 
ATOM     19  C   UNL A   1      46.907  27.263  29.751  1.00  0.00     0.045 C 
ATOM     20  C   UNL A   1      46.076  26.029  29.942  1.00  0.00    -0.038 A 
ATOM     21  C   UNL A   1      45.382  25.946  31.171  1.00  0.00     0.004 A 
ATOM     22  C   UNL A   1      44.475  24.920  31.429  1.00  0.00     0.000 A 
ATOM     23  C   UNL A   1      44.963  23.982  29.270  1.00  0.00     0.014 A 
ATOM     24  C   UNL A   1      44.242  23.953  30.464  1.00  0.00     0.001 A 
ENDBRANCH  15  18
ENDBRANCH   9  14
BRANCH  11  25
ATOM     25  N   UNL A   1      43.956  23.595  25.516  1.00  0.00    -0.359 N 
ATOM     26  C   UNL A   1      44.489  23.040  24.241  1.00  0.00     0.178 C 
ATOM     27  C   UNL A   1      43.158  22.597  26.230  1.00  0.00     0.178 C 
ATOM     28  C   UNL A   1      44.991  21.546  24.365  1.00  0.00     0.284 C 
ATOM     29  C   UNL A   1      44.080  21.427  26.577  1.00  0.00     0.284 C 
ATOM     30  N   UNL A   1      44.392  20.650  25.382  1.00  0.00    -0.324 N 
ATOM     31  H   UNL A   1      45.114  19.960  25.591  1.00  0.00     0.348 HD
BRANCH  30  32
ATOM     32  C   UNL A   1      43.319  19.726  24.956  1.00  0.00     0.364 C 
BRANCH  32  33
ATOM     33  C   UNL A   1      42.586  18.938  26.039  1.00  0.00     0.279 C 
ATOM     34  O   UNL A   1      43.182  18.034  26.647  1.00  0.00    -0.268 OA
ATOM     35  N   UNL A   1      41.311  19.192  26.464  1.00  0.00    -0.321 N 
ATOM     36  H   UNL A   1      41.140  18.786  27.343  1.00  0.00     0.170 HD
BRANCH  35  37
ATOM     37  C   UNL A   1      40.174  19.877  25.984  1.00  0.00     0.041 A 
ATOM     38  C   UNL A   1      40.061  21.228  26.363  1.00  0.00     0.029 A 
ATOM     39  C   UNL A   1      39.115  19.316  25.278  1.00  0.00     0.029 A 
ATOM     40  C   UNL A   1      38.903  21.967  26.091  1.00  0.00     0.041 A 
ATOM     41  C   UNL A   1      37.931  20.034  25.050  1.00  0.00     0.041 A 
ATOM     42  C   UNL A   1      37.835  21.354  25.459  1.00  0.00     0.123 A 
ATOM     43  F   UNL A   1      36.708  22.042  25.239  1.00  0.00    -0.207 F 
ENDBRANCH  35  37
ENDBRANCH  32  33
ENDBRANCH  30  32
ENDBRANCH  11  25
ENDBRANCH   5   8
ENDBRANCH   3   4
ENDBRANCH   2   3
ENDBRANCH   1   2
BRANCH   1  44
ATOM     44  C   UNL A   1      37.486  29.837  28.654  1.00  0.00     0.002 C 
BRANCH  44  45
ATOM     45  C   UNL A   1      36.461  30.251  29.712  1.00  0.00     0.021 C 
BRANCH  45  46
ATOM     46  C   UNL A   1      37.063  30.994  30.893  1.00  0.00     0.116 C 
BRANCH  46  47
ATOM     47  N   UNL A   1      36.664  30.481  32.195  1.00  0.00    -0.352 N 
ATOM     48  C   UNL A   1      37.488  29.582  32.875  1.00  0.00     0.251 C 
ATOM     49  H   UNL A   1      35.813  30.769  32.597  1.00  0.00     0.163 HD
ATOM     50  O   UNL A   1      37.202  28.435  33.134  1.00  0.00    -0.269 OA
BRANCH  48  51
ATOM     51  C   UNL A   1      38.815  30.146  33.215  1.00  0.00     0.039 A 
ATOM     52  C   UNL A   1      38.903  31.385  33.853  1.00  0.00     0.014 A 
ATOM     53  C   UNL A   1      39.932  29.546  32.638  1.00  0.00     0.014 A 
ATOM     54  C   UNL A   1      40.101  32.098  33.786  1.00  0.00     0.010 A 
ATOM     55  C   UNL A   1      41.081  30.293  32.492  1.00  0.00     0.010 A 
ATOM     56  C   UNL A   1      41.159  31.582  33.039  1.00  0.00    -0.014 A 
BRANCH  56  57
ATOM     57  C   UNL A   1      42.374  32.318  32.700  1.00  0.00     0.031 A 
ATOM     58  C   UNL A   1      42.401  33.207  31.513  1.00  0.00     0.074 A 
ATOM     59  C   UNL A   1      43.412  32.331  33.565  1.00  0.00     0.049 A 
ATOM     60  N   UNL A   1      43.477  33.698  30.997  1.00  0.00    -0.248 NA
ATOM     61  C   UNL A   1      41.196  33.596  30.788  1.00  0.00     0.031 C 
ATOM     62  C   UNL A   1      44.493  33.311  33.624  1.00  0.00     0.029 A 
ATOM     63  N   UNL A   1      43.802  31.333  34.459  1.00  0.00    -0.354 N 
ATOM     64  C   UNL A   1      43.110  34.660  30.083  1.00  0.00     0.074 A 
ATOM     65  C   UNL A   1      41.677  34.526  29.957  1.00  0.00     0.031 C 
ATOM     66  C   UNL A   1      45.528  32.783  34.292  1.00  0.00     0.029 A 
ATOM     67  C   UNL A   1      45.207  31.392  34.550  1.00  0.00     0.049 A 
ATOM     68  H   UNL A   1      43.209  30.708  34.935  1.00  0.00     0.167 HD
ATOM     69  C   UNL A   1      44.046  35.543  29.627  1.00  0.00     0.037 A 
ATOM     70  C   UNL A   1      45.988  30.335  34.172  1.00  0.00     0.037 A 
ATOM     71  C   UNL A   1      45.369  35.230  30.161  1.00  0.00     0.049 A 
ATOM     72  C   UNL A   1      46.942  30.646  33.040  1.00  0.00     0.074 A 
ATOM     73  C   UNL A   1      46.099  35.735  31.226  1.00  0.00     0.029 A 
ATOM     74  N   UNL A   1      46.008  34.062  29.765  1.00  0.00    -0.354 N 
ATOM     75  N   UNL A   1      46.840  31.688  32.260  1.00  0.00    -0.248 NA
ATOM     76  C   UNL A   1      48.090  29.812  32.692  1.00  0.00     0.031 C 
ATOM     77  C   UNL A   1      47.164  34.840  31.495  1.00  0.00     0.029 A 
ATOM     78  C   UNL A   1      47.089  33.799  30.585  1.00  0.00     0.049 A 
ATOM     79  H   UNL A   1      45.730  33.500  29.007  1.00  0.00     0.167 HD
ATOM     80  C   UNL A   1      47.842  31.672  31.321  1.00  0.00     0.074 A 
ATOM     81  C   UNL A   1      48.615  30.491  31.656  1.00  0.00     0.031 C 
ATOM     82  C   UNL A   1      47.933  32.636  30.352  1.00  0.00     0.037 A 
BRANCH  69  83
ATOM     83  C   UNL A   1      43.711  36.840  28.918  1.00  0.00     0.058 A 
ATOM     84  C   UNL A   1      43.415  36.856  27.536  1.00  0.00     0.135 A 
ATOM     85  C   UNL A   1      43.712  38.108  29.531  1.00  0.00     0.135 A 
ATOM     86  F   UNL A   1      43.287  35.725  26.830  1.00  0.00    -0.206 F 
ATOM     87  C   UNL A   1      43.249  38.035  26.806  1.00  0.00     0.059 A 
ATOM     88  C   UNL A   1      43.606  39.304  28.813  1.00  0.00     0.059 A 
ATOM     89  F   UNL A   1      43.771  38.232  30.865  1.00  0.00    -0.206 F 
ATOM     90  C   UNL A   1      43.384  39.258  27.444  1.00  0.00     0.060 A 
BRANCH  90  91
ATOM     91  S   UNL A   1      43.267  40.767  26.464  1.00  0.00     0.124 S 
ATOM     92  O   UNL A   1      43.649  41.793  27.430  1.00  0.00    -0.237 OA
ATOM     93  O   UNL A   1      44.227  40.512  25.396  1.00  0.00    -0.237 OA
ATOM     94  O   UNL A   1      41.866  40.797  26.054  1.00  0.00    -0.744 OA
ENDBRANCH  90  91
ENDBRANCH  69  83
BRANCH  70  95
ATOM     95  C   UNL A   1      45.350  29.021  34.463  1.00  0.00     0.058 A 
ATOM     96  C   UNL A   1      45.391  28.577  35.800  1.00  0.00     0.135 A 
ATOM     97  C   UNL A   1      44.330  28.517  33.645  1.00  0.00     0.135 A 
ATOM     98  F   UNL A   1      46.367  29.006  36.618  1.00  0.00    -0.206 F 
ATOM     99  C   UNL A   1      44.349  27.842  36.358  1.00  0.00     0.059 A 
ATOM    100  C   UNL A   1      43.282  27.763  34.181  1.00  0.00     0.059 A 
ATOM    101  F   UNL A   1      44.248  28.889  32.358  1.00  0.00    -0.206 F 
ATOM    102  C   UNL A   1      43.258  27.517  35.557  1.00  0.00     0.060 A 
BRANCH 102 103
ATOM    103  S   UNL A   1      41.750  26.929  36.370  1.00  0.00     0.124 S 
ATOM    104  O   UNL A   1      41.202  26.013  35.375  1.00  0.00    -0.237 OA
ATOM    105  O   UNL A   1      42.278  26.302  37.584  1.00  0.00    -0.237 OA
ATOM    106  O   UNL A   1      40.988  28.153  36.586  1.00  0.00    -0.744 OA
ENDBRANCH 102 103
ENDBRANCH  70  95
BRANCH  82 107
ATOM    107  C   UNL A   1      48.856  32.655  29.143  1.00  0.00     0.058 A 
ATOM    108  C   UNL A   1      48.986  31.608  28.215  1.00  0.00     0.135 A 
ATOM    109  C   UNL A   1      49.561  33.843  28.804  1.00  0.00     0.135 A 
ATOM    110  F   UNL A   1      48.294  30.469  28.343  1.00  0.00    -0.206 F 
ATOM    111  C   UNL A   1      49.794  31.705  27.077  1.00  0.00     0.059 A 
ATOM    112  C   UNL A   1      50.323  33.981  27.645  1.00  0.00     0.059 A 
ATOM    113  F   UNL A   1      49.521  34.933  29.583  1.00  0.00    -0.206 F 
ATOM    114  C   UNL A   1      50.456  32.896  26.795  1.00  0.00     0.060 A 
BRANCH 114 115
ATOM    115  S   UNL A   1      51.427  33.055  25.287  1.00  0.00     0.124 S 
ATOM    116  O   UNL A   1      52.738  33.409  25.820  1.00  0.00    -0.237 OA
ATOM    117  O   UNL A   1      51.326  31.724  24.695  1.00  0.00    -0.237 OA
ATOM    118  O   UNL A   1      50.735  34.110  24.553  1.00  0.00    -0.744 OA
ENDBRANCH 114 115
ENDBRANCH  82 107
ENDBRANCH  56  57
ENDBRANCH  48  51
ENDBRANCH  46  47
ENDBRANCH  45  46
ENDBRANCH  44  45
ENDBRANCH   1  44
TORSDOF 22
ENDMDL
MODEL 3
REMARK VINA RESULT:     -11.9      8.651     11.048
REMARK SMILES Cc1ccccc1C(=O)Nc1cc(C(=O)NCCCCCCNC(=O)c2ccc(-c3c4nc(c(-c5c(F)cc(S(=O)(=O)[O-])cc5F)c5ccc([nH]5)c(-c5c(F)cc(S(=O)(=O)[O-])cc5F)c5nc(c(-c6c(F)cc(S(=O)(=O)[O-])cc6F)c6ccc3[nH]6)C=C5)C=C4)cc2)ccc1N1CC[NH+](CC(=O)Nc2ccc(F)cc2)CC1
REMARK SMILES IDX 19 1 18 2 17 3 16 4 14 5 15 6 13 8 11 9 12 10 94 11 93 12
REMARK SMILES IDX 92 13 10 14 8 15 9 16 7 18 1 19 2 20 3 21 4 22 6 23 5 24
REMARK SMILES IDX 95 25 96 26 111 27 97 28 110 29 98 30 99 32 100 33 101 34
REMARK SMILES IDX 102 35 103 37 104 38 109 39 105 40 108 41 106 42 107 43
REMARK SMILES IDX 20 44 21 45 22 46 23 47 24 48 25 50 26 51 27 52 91 53 28 54
REMARK SMILES IDX 90 55 29 56 30 57 31 58 84 59 32 60 89 61 83 62 85 63 33 64
REMARK SMILES IDX 88 65 82 66 81 67 34 69 68 70 47 71 67 72 48 73 51 74 66 75
REMARK SMILES IDX 86 76 49 77 50 78 65 80 87 81 52 82 35 83 36 84 45 85 37 86
REMARK SMILES IDX 38 87 44 88 46 89 39 90 40 91 41 92 42 93 43 94 69 95 70 96
REMARK SMILES IDX 79 97 71 98 72 99 78 100 80 101 73 102 74 103 75 104 76 105
REMARK SMILES IDX 77 106 53 107 54 108 63 109 55 110 56 111 62 112 64 113
REMARK SMILES IDX 57 114 58 115 59 116 60 117 61 118
REMARK H PARENT 16 7 10 17 98 31 102 36 23 49 85 68 51 79
REMARK Flexibility Score: inf
ROOT
ATOM      1  C   UNL A   1      35.865  32.302  28.906  1.00  0.00     0.002 C 
ENDROOT
BRANCH   1   2
ATOM      2  C   UNL A   1      36.118  31.144  27.930  1.00  0.00     0.021 C 
BRANCH   2   3
ATOM      3  C   UNL A   1      34.978  30.124  27.861  1.00  0.00     0.116 C 
BRANCH   3   4
ATOM      4  N   UNL A   1      33.749  30.714  27.356  1.00  0.00    -0.352 N 
ATOM      5  C   UNL A   1      32.625  30.195  26.758  1.00  0.00     0.251 C 
ATOM      6  O   UNL A   1      31.700  30.977  26.527  1.00  0.00    -0.269 OA
ATOM      7  H   UNL A   1      33.714  31.692  27.464  1.00  0.00     0.163 HD
BRANCH   5   8
ATOM      8  C   UNL A   1      32.433  28.750  26.427  1.00  0.00     0.042 A 
ATOM      9  C   UNL A   1      31.139  26.848  25.668  1.00  0.00     0.065 A 
ATOM     10  C   UNL A   1      31.213  28.168  26.125  1.00  0.00     0.042 A 
ATOM     11  C   UNL A   1      32.269  25.977  25.641  1.00  0.00     0.061 A 
ATOM     12  C   UNL A   1      33.475  26.558  26.056  1.00  0.00     0.029 A 
ATOM     13  C   UNL A   1      33.564  27.919  26.408  1.00  0.00     0.016 A 
BRANCH   9  14
ATOM     14  N   UNL A   1      29.885  26.386  25.249  1.00  0.00    -0.320 N 
ATOM     15  C   UNL A   1      29.147  26.765  24.140  1.00  0.00     0.255 C 
ATOM     16  O   UNL A   1      28.226  26.022  23.785  1.00  0.00    -0.269 OA
ATOM     17  H   UNL A   1      29.471  25.698  25.819  1.00  0.00     0.170 HD
BRANCH  15  18
ATOM     18  C   UNL A   1      29.383  27.996  23.325  1.00  0.00     0.043 A 
ATOM     19  C   UNL A   1      31.720  27.460  22.336  1.00  0.00     0.045 C 
ATOM     20  C   UNL A   1      30.512  28.324  22.542  1.00  0.00    -0.038 A 
ATOM     21  C   UNL A   1      30.524  29.561  21.856  1.00  0.00     0.004 A 
ATOM     22  C   UNL A   1      29.415  30.405  21.854  1.00  0.00     0.000 A 
ATOM     23  C   UNL A   1      28.258  28.845  23.271  1.00  0.00     0.014 A 
ATOM     24  C   UNL A   1      28.269  30.032  22.537  1.00  0.00     0.001 A 
ENDBRANCH  15  18
ENDBRANCH   9  14
BRANCH  11  25
ATOM     25  N   UNL A   1      32.216  24.656  25.194  1.00  0.00    -0.359 N 
ATOM     26  C   UNL A   1      32.345  23.481  26.099  1.00  0.00     0.178 C 
ATOM     27  C   UNL A   1      32.619  24.315  23.829  1.00  0.00     0.178 C 
ATOM     28  C   UNL A   1      31.880  22.122  25.438  1.00  0.00     0.284 C 
ATOM     29  C   UNL A   1      31.670  23.228  23.323  1.00  0.00     0.284 C 
ATOM     30  N   UNL A   1      31.963  21.952  23.969  1.00  0.00    -0.324 N 
ATOM     31  H   UNL A   1      31.244  21.267  23.736  1.00  0.00     0.348 HD
BRANCH  30  32
ATOM     32  C   UNL A   1      33.134  21.240  23.412  1.00  0.00     0.364 C 
BRANCH  32  33
ATOM     33  C   UNL A   1      34.268  20.878  24.368  1.00  0.00     0.279 C 
ATOM     34  O   UNL A   1      35.120  21.733  24.659  1.00  0.00    -0.268 OA
ATOM     35  N   UNL A   1      34.397  19.676  25.009  1.00  0.00    -0.321 N 
ATOM     36  H   UNL A   1      35.001  19.747  25.783  1.00  0.00     0.170 HD
BRANCH  35  37
ATOM     37  C   UNL A   1      33.902  18.363  24.862  1.00  0.00     0.041 A 
ATOM     38  C   UNL A   1      32.862  17.994  25.735  1.00  0.00     0.029 A 
ATOM     39  C   UNL A   1      34.418  17.379  24.025  1.00  0.00     0.029 A 
ATOM     40  C   UNL A   1      32.400  16.674  25.802  1.00  0.00     0.041 A 
ATOM     41  C   UNL A   1      33.997  16.045  24.124  1.00  0.00     0.041 A 
ATOM     42  C   UNL A   1      32.992  15.703  25.013  1.00  0.00     0.123 A 
ATOM     43  F   UNL A   1      32.586  14.431  25.106  1.00  0.00    -0.207 F 
ENDBRANCH  35  37
ENDBRANCH  32  33
ENDBRANCH  30  32
ENDBRANCH  11  25
ENDBRANCH   5   8
ENDBRANCH   3   4
ENDBRANCH   2   3
ENDBRANCH   1   2
BRANCH   1  44
ATOM     44  C   UNL A   1      36.882  32.466  30.051  1.00  0.00     0.002 C 
BRANCH  44  45
ATOM     45  C   UNL A   1      38.080  31.512  30.032  1.00  0.00     0.021 C 
BRANCH  45  46
ATOM     46  C   UNL A   1      38.841  31.457  31.347  1.00  0.00     0.116 C 
BRANCH  46  47
ATOM     47  N   UNL A   1      38.189  30.681  32.390  1.00  0.00    -0.352 N 
ATOM     48  C   UNL A   1      38.810  29.541  32.905  1.00  0.00     0.251 C 
ATOM     49  H   UNL A   1      37.310  30.959  32.733  1.00  0.00     0.163 HD
ATOM     50  O   UNL A   1      38.390  28.411  32.797  1.00  0.00    -0.269 OA
BRANCH  48  51
ATOM     51  C   UNL A   1      40.103  29.828  33.568  1.00  0.00     0.039 A 
ATOM     52  C   UNL A   1      41.298  29.416  32.974  1.00  0.00     0.014 A 
ATOM     53  C   UNL A   1      40.061  30.255  34.893  1.00  0.00     0.014 A 
ATOM     54  C   UNL A   1      42.442  29.296  33.765  1.00  0.00     0.010 A 
ATOM     55  C   UNL A   1      41.165  30.045  35.690  1.00  0.00     0.010 A 
ATOM     56  C   UNL A   1      42.349  29.537  35.135  1.00  0.00    -0.014 A 
BRANCH  56  57
ATOM     57  C   UNL A   1      43.398  29.233  36.105  1.00  0.00     0.031 A 
ATOM     58  C   UNL A   1      43.527  27.863  36.660  1.00  0.00     0.074 A 
ATOM     59  C   UNL A   1      44.361  30.147  36.359  1.00  0.00     0.049 A 
ATOM     60  N   UNL A   1      44.247  27.560  37.687  1.00  0.00    -0.248 NA
ATOM     61  C   UNL A   1      42.817  26.715  36.106  1.00  0.00     0.031 C 
ATOM     62  C   UNL A   1      45.681  29.896  36.930  1.00  0.00     0.029 A 
ATOM     63  N   UNL A   1      44.259  31.538  36.323  1.00  0.00    -0.354 N 
ATOM     64  C   UNL A   1      44.327  26.187  37.760  1.00  0.00     0.074 A 
ATOM     65  C   UNL A   1      43.382  25.707  36.780  1.00  0.00     0.031 C 
ATOM     66  C   UNL A   1      46.172  31.042  37.420  1.00  0.00     0.029 A 
ATOM     67  C   UNL A   1      45.121  32.037  37.321  1.00  0.00     0.049 A 
ATOM     68  H   UNL A   1      43.694  32.069  35.717  1.00  0.00     0.167 HD
ATOM     69  C   UNL A   1      45.274  25.613  38.558  1.00  0.00     0.037 A 
ATOM     70  C   UNL A   1      44.641  32.762  38.376  1.00  0.00     0.037 A 
ATOM     71  C   UNL A   1      46.020  26.625  39.302  1.00  0.00     0.049 A 
ATOM     72  C   UNL A   1      44.898  32.133  39.727  1.00  0.00     0.074 A 
ATOM     73  C   UNL A   1      47.247  27.236  39.092  1.00  0.00     0.029 A 
ATOM     74  N   UNL A   1      45.375  27.365  40.284  1.00  0.00    -0.354 N 
ATOM     75  N   UNL A   1      45.240  30.885  39.901  1.00  0.00    -0.248 NA
ATOM     76  C   UNL A   1      44.794  32.854  40.992  1.00  0.00     0.031 C 
ATOM     77  C   UNL A   1      47.321  28.376  39.931  1.00  0.00     0.029 A 
ATOM     78  C   UNL A   1      46.146  28.450  40.659  1.00  0.00     0.049 A 
ATOM     79  H   UNL A   1      44.492  27.149  40.662  1.00  0.00     0.167 HD
ATOM     80  C   UNL A   1      45.377  30.618  41.242  1.00  0.00     0.074 A 
ATOM     81  C   UNL A   1      45.116  31.894  41.879  1.00  0.00     0.031 C 
ATOM     82  C   UNL A   1      45.688  29.364  41.696  1.00  0.00     0.037 A 
BRANCH  69  83
ATOM     83  C   UNL A   1      45.699  24.162  38.457  1.00  0.00     0.058 A 
ATOM     84  C   UNL A   1      46.269  23.653  37.268  1.00  0.00     0.135 A 
ATOM     85  C   UNL A   1      45.528  23.208  39.479  1.00  0.00     0.135 A 
ATOM     86  F   UNL A   1      46.578  24.450  36.238  1.00  0.00    -0.206 F 
ATOM     87  C   UNL A   1      46.537  22.296  37.071  1.00  0.00     0.059 A 
ATOM     88  C   UNL A   1      45.735  21.837  39.287  1.00  0.00     0.059 A 
ATOM     89  F   UNL A   1      45.195  23.578  40.724  1.00  0.00    -0.206 F 
ATOM     90  C   UNL A   1      46.231  21.387  38.072  1.00  0.00     0.060 A 
BRANCH  90  91
ATOM     91  S   UNL A   1      46.491  19.631  37.759  1.00  0.00     0.124 S 
ATOM     92  O   UNL A   1      45.761  19.428  36.511  1.00  0.00    -0.237 OA
ATOM     93  O   UNL A   1      47.944  19.551  37.664  1.00  0.00    -0.237 OA
ATOM     94  O   UNL A   1      45.903  18.987  38.930  1.00  0.00    -0.744 OA
ENDBRANCH  90  91
ENDBRANCH  69  83
BRANCH  70  95
ATOM     95  C   UNL A   1      43.482  33.619  37.999  1.00  0.00     0.058 A 
ATOM     96  C   UNL A   1      42.212  33.199  38.442  1.00  0.00     0.135 A 
ATOM     97  C   UNL A   1      43.652  34.981  37.720  1.00  0.00     0.135 A 
ATOM     98  F   UNL A   1      41.987  31.898  38.694  1.00  0.00    -0.206 F 
ATOM     99  C   UNL A   1      41.224  34.111  38.798  1.00  0.00     0.059 A 
ATOM    100  C   UNL A   1      42.665  35.914  38.054  1.00  0.00     0.059 A 
ATOM    101  F   UNL A   1      44.833  35.440  37.278  1.00  0.00    -0.206 F 
ATOM    102  C   UNL A   1      41.498  35.471  38.681  1.00  0.00     0.060 A 
BRANCH 102 103
ATOM    103  S   UNL A   1      40.389  36.638  39.512  1.00  0.00     0.124 S 
ATOM    104  O   UNL A   1      39.461  36.995  38.444  1.00  0.00    -0.237 OA
ATOM    105  O   UNL A   1      39.828  35.818  40.588  1.00  0.00    -0.237 OA
ATOM    106  O   UNL A   1      41.288  37.701  39.947  1.00  0.00    -0.744 OA
ENDBRANCH 102 103
ENDBRANCH  70  95
BRANCH  82 107
ATOM    107  C   UNL A   1      45.689  28.869  43.134  1.00  0.00     0.058 A 
ATOM    108  C   UNL A   1      46.826  28.427  43.830  1.00  0.00     0.135 A 
ATOM    109  C   UNL A   1      44.507  28.963  43.920  1.00  0.00     0.135 A 
ATOM    110  F   UNL A   1      48.032  28.392  43.252  1.00  0.00    -0.206 F 
ATOM    111  C   UNL A   1      46.786  28.051  45.178  1.00  0.00     0.059 A 
ATOM    112  C   UNL A   1      44.460  28.652  45.278  1.00  0.00     0.059 A 
ATOM    113  F   UNL A   1      43.346  29.385  43.400  1.00  0.00    -0.206 F 
ATOM    114  C   UNL A   1      45.601  28.171  45.896  1.00  0.00     0.060 A 
BRANCH 114 115
ATOM    115  S   UNL A   1      45.566  27.771  47.653  1.00  0.00     0.124 S 
ATOM    116  O   UNL A   1      45.694  26.318  47.624  1.00  0.00    -0.237 OA
ATOM    117  O   UNL A   1      46.721  28.496  48.173  1.00  0.00    -0.237 OA
ATOM    118  O   UNL A   1      44.269  28.284  48.086  1.00  0.00    -0.744 OA
ENDBRANCH 114 115
ENDBRANCH  82 107
ENDBRANCH  56  57
ENDBRANCH  48  51
ENDBRANCH  46  47
ENDBRANCH  45  46
ENDBRANCH  44  45
ENDBRANCH   1  44
TORSDOF 22
ENDMDL
