MODEL 1
REMARK VINA RESULT:     -13.9      0.000      0.000
REMARK SMILES Cc1cccc(CC(=O)N2CCC3(CCC(=O)N([C@H](C)C(=O)NCCCCCCNC(=O)c4ccc(-c5c6nc(c(-c7c(F)cc(S(=O)(=O)[O-])cc7F)c7ccc([nH]7)c(-c7c(F)cc(S(=O)(=O)[O-])cc7F)c7nc(c(-c8c(F)cc(S(=O)(=O)[O-])cc8F)c8ccc5[nH]8)C=C7)C=C6)cc4)C3)CC2)c1
REMARK SMILES IDX 26 1 25 2 24 3 23 4 21 5 22 6 19 8 20 9 18 10 8 11 9 12
REMARK SMILES IDX 10 13 11 14 101 15 12 16 100 17 13 18 14 19 99 20 15 21
REMARK SMILES IDX 16 22 17 23 7 24 6 25 1 26 2 27 3 28 102 29 4 30 5 31 27 32
REMARK SMILES IDX 28 33 29 34 30 35 31 36 32 38 33 39 34 40 98 41 35 42 97 43
REMARK SMILES IDX 36 44 37 45 38 46 91 47 39 48 96 49 90 50 92 51 40 52 95 53
REMARK SMILES IDX 89 54 88 55 41 57 75 58 54 59 74 60 55 61 58 62 73 63 93 64
REMARK SMILES IDX 56 65 57 66 72 68 94 69 59 70 42 71 43 72 52 73 44 74 45 75
REMARK SMILES IDX 51 76 53 77 46 78 47 79 48 80 49 81 50 82 76 83 77 84 86 85
REMARK SMILES IDX 78 86 79 87 85 88 87 89 80 90 81 91 82 92 83 93 84 94 60 95
REMARK SMILES IDX 61 96 70 97 62 98 63 99 69 100 71 101 64 102 65 103 66 104
REMARK SMILES IDX 67 105 68 106
REMARK H PARENT 23 7 30 37 92 56 58 67
REMARK Flexibility Score: inf
ROOT
ATOM      1  C   UNL A   1      32.958  29.567  24.656  1.00  0.00     0.002 C 
ENDROOT
BRANCH   1   2
ATOM      2  C   UNL A   1      33.697  28.439  23.926  1.00  0.00     0.021 C 
BRANCH   2   3
ATOM      3  C   UNL A   1      33.792  28.577  22.412  1.00  0.00     0.116 C 
BRANCH   3   4
ATOM      4  N   UNL A   1      33.267  27.456  21.659  1.00  0.00    -0.354 N 
ATOM      5  C   UNL A   1      31.996  26.946  21.661  1.00  0.00     0.242 C 
ATOM      6  O   UNL A   1      31.659  26.235  20.706  1.00  0.00    -0.273 OA
ATOM      7  H   UNL A   1      33.909  27.001  21.067  1.00  0.00     0.163 HD
BRANCH   5   8
ATOM      8  C   UNL A   1      30.998  27.202  22.826  1.00  0.00     0.171 C 
ATOM      9  C   UNL A   1      29.900  28.211  22.484  1.00  0.00     0.042 C 
BRANCH   8  10
ATOM     10  N   UNL A   1      30.470  26.056  23.590  1.00  0.00    -0.330 N 
ATOM     11  C   UNL A   1      34.498  21.247  25.539  1.00  0.00     0.226 C 
ATOM     12  O   UNL A   1      35.528  21.559  26.148  1.00  0.00    -0.275 OA
ATOM     13  N   UNL A   1      33.361  22.039  25.614  1.00  0.00    -0.342 N 
ATOM     14  C   UNL A   1      33.478  23.431  26.045  1.00  0.00     0.120 C 
ATOM     15  C   UNL A   1      31.991  21.611  25.384  1.00  0.00     0.120 C 
ATOM     16  C   UNL A   1      32.824  24.360  25.007  1.00  0.00     0.030 C 
ATOM     17  C   UNL A   1      31.386  22.424  24.253  1.00  0.00     0.030 C 
ATOM     18  C   UNL A   1      31.383  23.936  24.596  1.00  0.00    -0.008 C 
ATOM     19  C   UNL A   1      30.357  24.177  25.737  1.00  0.00     0.019 C 
ATOM     20  C   UNL A   1      30.947  24.710  23.326  1.00  0.00     0.127 C 
ATOM     21  C   UNL A   1      29.983  25.635  25.904  1.00  0.00     0.101 C 
ATOM     22  C   UNL A   1      29.533  26.206  24.588  1.00  0.00     0.223 C 
ATOM     23  O   UNL A   1      28.462  26.778  24.451  1.00  0.00    -0.275 OA
BRANCH  11  24
ATOM     24  C   UNL A   1      34.580  20.109  24.521  1.00  0.00     0.135 C 
BRANCH  24  25
ATOM     25  C   UNL A   1      34.133  18.730  24.929  1.00  0.00    -0.038 A 
ATOM     26  C   UNL A   1      35.631  15.223  25.079  1.00  0.00     0.044 C 
ATOM     27  C   UNL A   1      34.654  16.358  25.175  1.00  0.00    -0.051 A 
ATOM     28  C   UNL A   1      33.307  16.108  25.453  1.00  0.00     0.003 A 
ATOM     29  C   UNL A   1      35.064  17.674  24.940  1.00  0.00     0.007 A 
ATOM     30  C   UNL A   1      32.385  17.156  25.497  1.00  0.00     0.001 A 
ATOM     31  C   UNL A   1      32.795  18.465  25.239  1.00  0.00     0.004 A 
ENDBRANCH  24  25
ENDBRANCH  11  24
ENDBRANCH   8  10
ENDBRANCH   5   8
ENDBRANCH   3   4
ENDBRANCH   2   3
ENDBRANCH   1   2
BRANCH   1  32
ATOM     32  C   UNL A   1      32.316  29.248  26.016  1.00  0.00     0.002 C 
BRANCH  32  33
ATOM     33  C   UNL A   1      32.891  29.937  27.255  1.00  0.00     0.021 C 
BRANCH  33  34
ATOM     34  C   UNL A   1      34.371  29.671  27.502  1.00  0.00     0.116 C 
BRANCH  34  35
ATOM     35  N   UNL A   1      35.136  30.891  27.734  1.00  0.00    -0.352 N 
ATOM     36  C   UNL A   1      36.433  31.010  28.210  1.00  0.00     0.251 C 
ATOM     37  H   UNL A   1      34.673  31.735  27.528  1.00  0.00     0.163 HD
ATOM     38  O   UNL A   1      36.921  32.079  28.524  1.00  0.00    -0.269 OA
BRANCH  36  39
ATOM     39  C   UNL A   1      37.242  29.775  28.221  1.00  0.00     0.039 A 
ATOM     40  C   UNL A   1      37.246  29.031  29.406  1.00  0.00     0.014 A 
ATOM     41  C   UNL A   1      38.193  29.569  27.228  1.00  0.00     0.014 A 
ATOM     42  C   UNL A   1      38.333  28.210  29.689  1.00  0.00     0.010 A 
ATOM     43  C   UNL A   1      39.310  28.825  27.549  1.00  0.00     0.010 A 
ATOM     44  C   UNL A   1      39.404  28.193  28.801  1.00  0.00    -0.014 A 
BRANCH  44  45
ATOM     45  C   UNL A   1      40.706  27.613  29.109  1.00  0.00     0.031 A 
ATOM     46  C   UNL A   1      40.996  26.215  28.720  1.00  0.00     0.074 A 
ATOM     47  C   UNL A   1      41.690  28.405  29.588  1.00  0.00     0.049 A 
ATOM     48  N   UNL A   1      42.041  25.549  29.075  1.00  0.00    -0.248 NA
ATOM     49  C   UNL A   1      40.066  25.430  27.920  1.00  0.00     0.031 C 
ATOM     50  C   UNL A   1      43.126  28.154  29.539  1.00  0.00     0.029 A 
ATOM     51  N   UNL A   1      41.562  29.521  30.418  1.00  0.00    -0.354 N 
ATOM     52  C   UNL A   1      42.075  24.386  28.334  1.00  0.00     0.074 A 
ATOM     53  C   UNL A   1      40.785  24.329  27.692  1.00  0.00     0.031 C 
ATOM     54  C   UNL A   1      43.735  28.910  30.464  1.00  0.00     0.029 A 
ATOM     55  C   UNL A   1      42.694  29.540  31.255  1.00  0.00     0.049 A 
ATOM     56  H   UNL A   1      40.821  30.169  30.419  1.00  0.00     0.167 HD
ATOM     57  C   UNL A   1      43.251  23.693  28.253  1.00  0.00     0.037 A 
ATOM     58  C   UNL A   1      42.573  29.395  32.609  1.00  0.00     0.037 A 
ATOM     59  C   UNL A   1      44.225  24.218  29.215  1.00  0.00     0.049 A 
ATOM     60  C   UNL A   1      43.267  28.173  33.166  1.00  0.00     0.074 A 
ATOM     61  C   UNL A   1      45.301  25.082  29.099  1.00  0.00     0.029 A 
ATOM     62  N   UNL A   1      43.965  24.100  30.579  1.00  0.00    -0.354 N 
ATOM     63  N   UNL A   1      43.646  27.152  32.447  1.00  0.00    -0.248 NA
ATOM     64  C   UNL A   1      43.595  28.005  34.579  1.00  0.00     0.031 C 
ATOM     65  C   UNL A   1      45.639  25.544  30.398  1.00  0.00     0.029 A 
ATOM     66  C   UNL A   1      44.784  24.943  31.306  1.00  0.00     0.049 A 
ATOM     67  H   UNL A   1      43.290  23.499  30.970  1.00  0.00     0.167 HD
ATOM     68  C   UNL A   1      44.229  26.206  33.251  1.00  0.00     0.074 A 
ATOM     69  C   UNL A   1      44.197  26.801  34.574  1.00  0.00     0.031 C 
ATOM     70  C   UNL A   1      44.682  25.013  32.759  1.00  0.00     0.037 A 
BRANCH  57  71
ATOM     71  C   UNL A   1      43.609  22.758  27.104  1.00  0.00     0.058 A 
ATOM     72  C   UNL A   1      42.912  21.541  26.920  1.00  0.00     0.135 A 
ATOM     73  C   UNL A   1      44.679  22.942  26.205  1.00  0.00     0.135 A 
ATOM     74  F   UNL A   1      41.804  21.255  27.618  1.00  0.00    -0.206 F 
ATOM     75  C   UNL A   1      43.319  20.549  26.019  1.00  0.00     0.059 A 
ATOM     76  C   UNL A   1      45.139  21.948  25.334  1.00  0.00     0.059 A 
ATOM     77  F   UNL A   1      45.298  24.120  26.081  1.00  0.00    -0.206 F 
ATOM     78  C   UNL A   1      44.460  20.745  25.257  1.00  0.00     0.060 A 
BRANCH  78  79
ATOM     79  S   UNL A   1      45.026  19.431  24.162  1.00  0.00     0.124 S 
ATOM     80  O   UNL A   1      46.478  19.571  24.240  1.00  0.00    -0.237 OA
ATOM     81  O   UNL A   1      44.466  18.242  24.795  1.00  0.00    -0.237 OA
ATOM     82  O   UNL A   1      44.440  19.787  22.872  1.00  0.00    -0.744 OA
ENDBRANCH  78  79
ENDBRANCH  57  71
BRANCH  58  83
ATOM     83  C   UNL A   1      41.339  30.029  33.151  1.00  0.00     0.058 A 
ATOM     84  C   UNL A   1      41.342  31.431  33.280  1.00  0.00     0.135 A 
ATOM     85  C   UNL A   1      40.095  29.386  33.070  1.00  0.00     0.135 A 
ATOM     86  F   UNL A   1      42.507  32.093  33.381  1.00  0.00    -0.206 F 
ATOM     87  C   UNL A   1      40.178  32.179  33.142  1.00  0.00     0.059 A 
ATOM     88  C   UNL A   1      38.912  30.118  32.944  1.00  0.00     0.059 A 
ATOM     89  F   UNL A   1      40.030  28.052  32.954  1.00  0.00    -0.206 F 
ATOM     90  C   UNL A   1      38.980  31.512  32.900  1.00  0.00     0.060 A 
BRANCH  90  91
ATOM     91  S   UNL A   1      37.574  32.495  32.325  1.00  0.00     0.124 S 
ATOM     92  O   UNL A   1      38.194  33.356  31.324  1.00  0.00    -0.237 OA
ATOM     93  O   UNL A   1      36.688  31.456  31.804  1.00  0.00    -0.237 OA
ATOM     94  O   UNL A   1      37.115  33.165  33.536  1.00  0.00    -0.744 OA
ENDBRANCH  90  91
ENDBRANCH  58  83
BRANCH  70  95
ATOM     95  C   UNL A   1      45.156  23.828  33.577  1.00  0.00     0.058 A 
ATOM     96  C   UNL A   1      46.394  23.767  34.242  1.00  0.00     0.135 A 
ATOM     97  C   UNL A   1      44.282  22.740  33.829  1.00  0.00     0.135 A 
ATOM     98  F   UNL A   1      47.267  24.781  34.187  1.00  0.00    -0.206 F 
ATOM     99  C   UNL A   1      46.765  22.680  35.038  1.00  0.00     0.059 A 
ATOM    100  C   UNL A   1      44.610  21.676  34.666  1.00  0.00     0.059 A 
ATOM    101  F   UNL A   1      43.060  22.680  33.279  1.00  0.00    -0.206 F 
ATOM    102  C   UNL A   1      45.867  21.639  35.247  1.00  0.00     0.060 A 
BRANCH 102 103
ATOM    103  S   UNL A   1      46.308  20.268  36.331  1.00  0.00     0.124 S 
ATOM    104  O   UNL A   1      45.980  20.817  37.643  1.00  0.00    -0.237 OA
ATOM    105  O   UNL A   1      45.440  19.190  35.865  1.00  0.00    -0.237 OA
ATOM    106  O   UNL A   1      47.730  20.077  36.060  1.00  0.00    -0.744 OA
ENDBRANCH 102 103
ENDBRANCH  70  95
ENDBRANCH  44  45
ENDBRANCH  36  39
ENDBRANCH  34  35
ENDBRANCH  33  34
ENDBRANCH  32  33
ENDBRANCH   1  32
TORSDOF 19
ENDMDL
MODEL 2
REMARK VINA RESULT:     -13.1      3.212      5.214
REMARK SMILES Cc1cccc(CC(=O)N2CCC3(CCC(=O)N([C@H](C)C(=O)NCCCCCCNC(=O)c4ccc(-c5c6nc(c(-c7c(F)cc(S(=O)(=O)[O-])cc7F)c7ccc([nH]7)c(-c7c(F)cc(S(=O)(=O)[O-])cc7F)c7nc(c(-c8c(F)cc(S(=O)(=O)[O-])cc8F)c8ccc5[nH]8)C=C7)C=C6)cc4)C3)CC2)c1
REMARK SMILES IDX 26 1 25 2 24 3 23 4 21 5 22 6 19 8 20 9 18 10 8 11 9 12
REMARK SMILES IDX 10 13 11 14 101 15 12 16 100 17 13 18 14 19 99 20 15 21
REMARK SMILES IDX 16 22 17 23 7 24 6 25 1 26 2 27 3 28 102 29 4 30 5 31 27 32
REMARK SMILES IDX 28 33 29 34 30 35 31 36 32 38 33 39 34 40 98 41 35 42 97 43
REMARK SMILES IDX 36 44 37 45 38 46 91 47 39 48 96 49 90 50 92 51 40 52 95 53
REMARK SMILES IDX 89 54 88 55 41 57 75 58 54 59 74 60 55 61 58 62 73 63 93 64
REMARK SMILES IDX 56 65 57 66 72 68 94 69 59 70 42 71 43 72 52 73 44 74 45 75
REMARK SMILES IDX 51 76 53 77 46 78 47 79 48 80 49 81 50 82 76 83 77 84 86 85
REMARK SMILES IDX 78 86 79 87 85 88 87 89 80 90 81 91 82 92 83 93 84 94 60 95
REMARK SMILES IDX 61 96 70 97 62 98 63 99 69 100 71 101 64 102 65 103 66 104
REMARK SMILES IDX 67 105 68 106
REMARK H PARENT 23 7 30 37 92 56 58 67
REMARK Flexibility Score: inf
ROOT
ATOM      1  C   UNL A   1      31.044  27.739  25.043  1.00  0.00     0.002 C 
ENDROOT
BRANCH   1   2
ATOM      2  C   UNL A   1      32.139  27.632  23.975  1.00  0.00     0.021 C 
BRANCH   2   3
ATOM      3  C   UNL A   1      31.663  27.681  22.528  1.00  0.00     0.116 C 
BRANCH   3   4
ATOM      4  N   UNL A   1      32.479  26.938  21.588  1.00  0.00    -0.354 N 
ATOM      5  C   UNL A   1      32.724  25.591  21.548  1.00  0.00     0.242 C 
ATOM      6  O   UNL A   1      33.140  25.113  20.485  1.00  0.00    -0.273 OA
ATOM      7  H   UNL A   1      32.914  27.472  20.885  1.00  0.00     0.163 HD
BRANCH   5   8
ATOM      8  C   UNL A   1      32.532  24.672  22.789  1.00  0.00     0.171 C 
ATOM      9  C   UNL A   1      31.074  24.285  23.046  1.00  0.00     0.042 C 
BRANCH   8  10
ATOM     10  N   UNL A   1      33.446  23.533  22.992  1.00  0.00    -0.330 N 
ATOM     11  C   UNL A   1      38.668  24.150  26.930  1.00  0.00     0.226 C 
ATOM     12  O   UNL A   1      38.490  24.594  28.069  1.00  0.00    -0.275 OA
ATOM     13  N   UNL A   1      37.665  23.448  26.276  1.00  0.00    -0.342 N 
ATOM     14  C   UNL A   1      36.280  23.582  26.725  1.00  0.00     0.120 C 
ATOM     15  C   UNL A   1      37.841  22.485  25.201  1.00  0.00     0.120 C 
ATOM     16  C   UNL A   1      35.379  23.975  25.541  1.00  0.00     0.030 C 
ATOM     17  C   UNL A   1      37.074  22.946  23.974  1.00  0.00     0.030 C 
ATOM     18  C   UNL A   1      35.560  23.076  24.281  1.00  0.00    -0.008 C 
ATOM     19  C   UNL A   1      34.980  21.651  24.495  1.00  0.00     0.019 C 
ATOM     20  C   UNL A   1      34.882  23.741  23.056  1.00  0.00     0.127 C 
ATOM     21  C   UNL A   1      33.467  21.607  24.427  1.00  0.00     0.101 C 
ATOM     22  C   UNL A   1      32.990  22.243  23.151  1.00  0.00     0.223 C 
ATOM     23  O   UNL A   1      32.241  21.674  22.371  1.00  0.00    -0.275 OA
BRANCH  11  24
ATOM     24  C   UNL A   1      39.919  24.593  26.170  1.00  0.00     0.135 C 
BRANCH  24  25
ATOM     25  C   UNL A   1      41.249  23.996  26.542  1.00  0.00    -0.038 A 
ATOM     26  C   UNL A   1      43.080  22.988  29.737  1.00  0.00     0.044 C 
ATOM     27  C   UNL A   1      42.780  23.239  28.288  1.00  0.00    -0.051 A 
ATOM     28  C   UNL A   1      43.784  23.102  27.325  1.00  0.00     0.003 A 
ATOM     29  C   UNL A   1      41.509  23.661  27.885  1.00  0.00     0.007 A 
ATOM     30  C   UNL A   1      43.522  23.380  25.981  1.00  0.00     0.001 A 
ATOM     31  C   UNL A   1      42.258  23.823  25.588  1.00  0.00     0.004 A 
ENDBRANCH  24  25
ENDBRANCH  11  24
ENDBRANCH   8  10
ENDBRANCH   5   8
ENDBRANCH   3   4
ENDBRANCH   2   3
ENDBRANCH   1   2
BRANCH   1  32
ATOM     32  C   UNL A   1      31.427  27.434  26.500  1.00  0.00     0.002 C 
BRANCH  32  33
ATOM     33  C   UNL A   1      31.855  28.607  27.385  1.00  0.00     0.021 C 
BRANCH  33  34
ATOM     34  C   UNL A   1      33.329  28.980  27.278  1.00  0.00     0.116 C 
BRANCH  34  35
ATOM     35  N   UNL A   1      33.551  30.421  27.283  1.00  0.00    -0.352 N 
ATOM     36  C   UNL A   1      34.582  31.126  27.885  1.00  0.00     0.251 C 
ATOM     37  H   UNL A   1      32.885  30.962  26.799  1.00  0.00     0.163 HD
ATOM     38  O   UNL A   1      34.585  32.339  27.971  1.00  0.00    -0.269 OA
BRANCH  36  39
ATOM     39  C   UNL A   1      35.742  30.331  28.334  1.00  0.00     0.039 A 
ATOM     40  C   UNL A   1      35.799  30.005  29.694  1.00  0.00     0.014 A 
ATOM     41  C   UNL A   1      36.857  30.220  27.511  1.00  0.00     0.014 A 
ATOM     42  C   UNL A   1      37.035  29.755  30.282  1.00  0.00     0.010 A 
ATOM     43  C   UNL A   1      38.090  30.061  28.112  1.00  0.00     0.010 A 
ATOM     44  C   UNL A   1      38.181  29.885  29.503  1.00  0.00    -0.014 A 
BRANCH  44  45
ATOM     45  C   UNL A   1      39.533  29.935  30.049  1.00  0.00     0.031 A 
ATOM     46  C   UNL A   1      40.430  28.770  29.893  1.00  0.00     0.074 A 
ATOM     47  C   UNL A   1      40.009  31.101  30.538  1.00  0.00     0.049 A 
ATOM     48  N   UNL A   1      41.578  28.636  30.463  1.00  0.00    -0.248 NA
ATOM     49  C   UNL A   1      40.054  27.611  29.094  1.00  0.00     0.031 C 
ATOM     50  C   UNL A   1      41.408  31.481  30.705  1.00  0.00     0.029 A 
ATOM     51  N   UNL A   1      39.296  32.112  31.187  1.00  0.00    -0.354 N 
ATOM     52  C   UNL A   1      42.211  27.550  29.896  1.00  0.00     0.074 A 
ATOM     53  C   UNL A   1      41.187  26.906  29.110  1.00  0.00     0.031 C 
ATOM     54  C   UNL A   1      41.487  32.486  31.589  1.00  0.00     0.029 A 
ATOM     55  C   UNL A   1      40.160  32.667  32.150  1.00  0.00     0.049 A 
ATOM     56  H   UNL A   1      38.368  32.383  31.006  1.00  0.00     0.167 HD
ATOM     57  C   UNL A   1      43.562  27.417  30.060  1.00  0.00     0.037 A 
ATOM     58  C   UNL A   1      39.878  32.579  33.485  1.00  0.00     0.037 A 
ATOM     59  C   UNL A   1      44.056  28.372  31.057  1.00  0.00     0.049 A 
ATOM     60  C   UNL A   1      40.904  31.809  34.286  1.00  0.00     0.074 A 
ATOM     61  C   UNL A   1      44.688  29.601  30.963  1.00  0.00     0.029 A 
ATOM     62  N   UNL A   1      43.637  28.249  32.381  1.00  0.00    -0.354 N 
ATOM     63  N   UNL A   1      41.784  30.999  33.764  1.00  0.00    -0.248 NA
ATOM     64  C   UNL A   1      41.024  31.894  35.738  1.00  0.00     0.031 C 
ATOM     65  C   UNL A   1      44.579  30.251  32.220  1.00  0.00     0.029 A 
ATOM     66  C   UNL A   1      43.902  29.408  33.085  1.00  0.00     0.049 A 
ATOM     67  H   UNL A   1      43.210  27.448  32.761  1.00  0.00     0.167 HD
ATOM     68  C   UNL A   1      42.555  30.447  34.756  1.00  0.00     0.074 A 
ATOM     69  C   UNL A   1      42.056  31.063  35.972  1.00  0.00     0.031 C 
ATOM     70  C   UNL A   1      43.533  29.529  34.491  1.00  0.00     0.037 A 
BRANCH  57  71
ATOM     71  C   UNL A   1      44.462  26.646  29.102  1.00  0.00     0.058 A 
ATOM     72  C   UNL A   1      45.424  25.732  29.594  1.00  0.00     0.135 A 
ATOM     73  C   UNL A   1      44.505  26.819  27.704  1.00  0.00     0.135 A 
ATOM     74  F   UNL A   1      45.453  25.372  30.884  1.00  0.00    -0.206 F 
ATOM     75  C   UNL A   1      46.412  25.149  28.792  1.00  0.00     0.059 A 
ATOM     76  C   UNL A   1      45.512  26.291  26.888  1.00  0.00     0.059 A 
ATOM     77  F   UNL A   1      43.534  27.459  27.045  1.00  0.00    -0.206 F 
ATOM     78  C   UNL A   1      46.474  25.466  27.444  1.00  0.00     0.060 A 
BRANCH  78  79
ATOM     79  S   UNL A   1      47.800  24.778  26.435  1.00  0.00     0.124 S 
ATOM     80  O   UNL A   1      48.820  24.474  27.434  1.00  0.00    -0.237 OA
ATOM     81  O   UNL A   1      47.149  23.628  25.818  1.00  0.00    -0.237 OA
ATOM     82  O   UNL A   1      48.134  25.870  25.524  1.00  0.00    -0.744 OA
ENDBRANCH  78  79
ENDBRANCH  57  71
BRANCH  58  83
ATOM     83  C   UNL A   1      38.420  32.665  33.776  1.00  0.00     0.058 A 
ATOM     84  C   UNL A   1      37.859  33.953  33.867  1.00  0.00     0.135 A 
ATOM     85  C   UNL A   1      37.556  31.600  33.485  1.00  0.00     0.135 A 
ATOM     86  F   UNL A   1      38.641  35.005  34.163  1.00  0.00    -0.206 F 
ATOM     87  C   UNL A   1      36.542  34.204  33.500  1.00  0.00     0.059 A 
ATOM     88  C   UNL A   1      36.226  31.827  33.126  1.00  0.00     0.059 A 
ATOM     89  F   UNL A   1      38.033  30.349  33.393  1.00  0.00    -0.206 F 
ATOM     90  C   UNL A   1      35.757  33.140  33.060  1.00  0.00     0.060 A 
BRANCH  90  91
ATOM     91  S   UNL A   1      34.209  33.536  32.213  1.00  0.00     0.124 S 
ATOM     92  O   UNL A   1      34.334  34.974  32.004  1.00  0.00    -0.237 OA
ATOM     93  O   UNL A   1      34.317  32.710  31.012  1.00  0.00    -0.237 OA
ATOM     94  O   UNL A   1      33.188  33.124  33.169  1.00  0.00    -0.744 OA
ENDBRANCH  90  91
ENDBRANCH  58  83
BRANCH  70  95
ATOM     95  C   UNL A   1      44.302  28.717  35.514  1.00  0.00     0.058 A 
ATOM     96  C   UNL A   1      45.459  29.164  36.175  1.00  0.00     0.135 A 
ATOM     97  C   UNL A   1      43.791  27.474  35.968  1.00  0.00     0.135 A 
ATOM     98  F   UNL A   1      45.981  30.373  35.929  1.00  0.00    -0.206 F 
ATOM     99  C   UNL A   1      46.102  28.408  37.160  1.00  0.00     0.059 A 
ATOM    100  C   UNL A   1      44.382  26.733  36.989  1.00  0.00     0.059 A 
ATOM    101  F   UNL A   1      42.678  26.939  35.443  1.00  0.00    -0.206 F 
ATOM    102  C   UNL A   1      45.556  27.194  37.562  1.00  0.00     0.060 A 
BRANCH 102 103
ATOM    103  S   UNL A   1      46.335  26.246  38.883  1.00  0.00     0.124 S 
ATOM    104  O   UNL A   1      45.361  25.181  39.091  1.00  0.00    -0.237 OA
ATOM    105  O   UNL A   1      47.602  25.832  38.284  1.00  0.00    -0.237 OA
ATOM    106  O   UNL A   1      46.452  27.221  39.964  1.00  0.00    -0.744 OA
ENDBRANCH 102 103
ENDBRANCH  70  95
ENDBRANCH  44  45
ENDBRANCH  36  39
ENDBRANCH  34  35
ENDBRANCH  33  34
ENDBRANCH  32  33
ENDBRANCH   1  32
TORSDOF 19
ENDMDL
MODEL 3
REMARK VINA RESULT:     -12.7      4.681     11.591
REMARK SMILES Cc1cccc(CC(=O)N2CCC3(CCC(=O)N([C@H](C)C(=O)NCCCCCCNC(=O)c4ccc(-c5c6nc(c(-c7c(F)cc(S(=O)(=O)[O-])cc7F)c7ccc([nH]7)c(-c7c(F)cc(S(=O)(=O)[O-])cc7F)c7nc(c(-c8c(F)cc(S(=O)(=O)[O-])cc8F)c8ccc5[nH]8)C=C7)C=C6)cc4)C3)CC2)c1
REMARK SMILES IDX 26 1 25 2 24 3 23 4 21 5 22 6 19 8 20 9 18 10 8 11 9 12
REMARK SMILES IDX 10 13 11 14 101 15 12 16 100 17 13 18 14 19 99 20 15 21
REMARK SMILES IDX 16 22 17 23 7 24 6 25 1 26 2 27 3 28 102 29 4 30 5 31 27 32
REMARK SMILES IDX 28 33 29 34 30 35 31 36 32 38 33 39 34 40 98 41 35 42 97 43
REMARK SMILES IDX 36 44 37 45 38 46 91 47 39 48 96 49 90 50 92 51 40 52 95 53
REMARK SMILES IDX 89 54 88 55 41 57 75 58 54 59 74 60 55 61 58 62 73 63 93 64
REMARK SMILES IDX 56 65 57 66 72 68 94 69 59 70 42 71 43 72 52 73 44 74 45 75
REMARK SMILES IDX 51 76 53 77 46 78 47 79 48 80 49 81 50 82 76 83 77 84 86 85
REMARK SMILES IDX 78 86 79 87 85 88 87 89 80 90 81 91 82 92 83 93 84 94 60 95
REMARK SMILES IDX 61 96 70 97 62 98 63 99 69 100 71 101 64 102 65 103 66 104
REMARK SMILES IDX 67 105 68 106
REMARK H PARENT 23 7 30 37 92 56 58 67
REMARK Flexibility Score: inf
ROOT
ATOM      1  C   UNL A   1      40.056  25.104  28.023  1.00  0.00     0.002 C 
ENDROOT
BRANCH   1   2
ATOM      2  C   UNL A   1      39.672  23.664  27.665  1.00  0.00     0.021 C 
BRANCH   2   3
ATOM      3  C   UNL A   1      38.810  23.495  26.420  1.00  0.00     0.116 C 
BRANCH   3   4
ATOM      4  N   UNL A   1      38.263  22.167  26.228  1.00  0.00    -0.354 N 
ATOM      5  C   UNL A   1      37.352  21.745  25.297  1.00  0.00     0.242 C 
ATOM      6  O   UNL A   1      37.285  20.531  25.065  1.00  0.00    -0.273 OA
ATOM      7  H   UNL A   1      38.592  21.476  26.848  1.00  0.00     0.163 HD
BRANCH   5   8
ATOM      8  C   UNL A   1      36.392  22.727  24.567  1.00  0.00     0.171 C 
ATOM      9  C   UNL A   1      36.582  22.757  23.049  1.00  0.00     0.042 C 
BRANCH   8  10
ATOM     10  N   UNL A   1      34.966  22.757  24.940  1.00  0.00    -0.330 N 
ATOM     11  C   UNL A   1      31.719  28.465  25.133  1.00  0.00     0.226 C 
ATOM     12  O   UNL A   1      31.781  29.205  24.145  1.00  0.00    -0.275 OA
ATOM     13  N   UNL A   1      31.830  27.088  24.997  1.00  0.00    -0.342 N 
ATOM     14  C   UNL A   1      32.432  26.527  23.788  1.00  0.00     0.120 C 
ATOM     15  C   UNL A   1      31.322  26.083  25.917  1.00  0.00     0.120 C 
ATOM     16  C   UNL A   1      33.571  25.565  24.166  1.00  0.00     0.030 C 
ATOM     17  C   UNL A   1      32.470  25.221  26.414  1.00  0.00     0.030 C 
ATOM     18  C   UNL A   1      33.175  24.503  25.235  1.00  0.00    -0.008 C 
ATOM     19  C   UNL A   1      32.206  23.433  24.661  1.00  0.00     0.019 C 
ATOM     20  C   UNL A   1      34.447  23.815  25.791  1.00  0.00     0.127 C 
ATOM     21  C   UNL A   1      32.895  22.420  23.772  1.00  0.00     0.101 C 
ATOM     22  C   UNL A   1      34.067  21.815  24.492  1.00  0.00     0.223 C 
ATOM     23  O   UNL A   1      34.212  20.607  24.617  1.00  0.00    -0.275 OA
BRANCH  11  24
ATOM     24  C   UNL A   1      31.757  29.108  26.519  1.00  0.00     0.135 C 
BRANCH  24  25
ATOM     25  C   UNL A   1      33.069  29.619  27.051  1.00  0.00    -0.038 A 
ATOM     26  C   UNL A   1      34.593  32.987  28.005  1.00  0.00     0.044 C 
ATOM     27  C   UNL A   1      34.439  31.516  27.750  1.00  0.00    -0.051 A 
ATOM     28  C   UNL A   1      35.548  30.667  27.820  1.00  0.00     0.003 A 
ATOM     29  C   UNL A   1      33.199  30.979  27.390  1.00  0.00     0.007 A 
ATOM     30  C   UNL A   1      35.419  29.306  27.537  1.00  0.00     0.001 A 
ATOM     31  C   UNL A   1      34.184  28.780  27.156  1.00  0.00     0.004 A 
ENDBRANCH  24  25
ENDBRANCH  11  24
ENDBRANCH   8  10
ENDBRANCH   5   8
ENDBRANCH   3   4
ENDBRANCH   2   3
ENDBRANCH   1   2
BRANCH   1  32
ATOM     32  C   UNL A   1      39.916  26.180  26.934  1.00  0.00     0.002 C 
BRANCH  32  33
ATOM     33  C   UNL A   1      41.174  26.952  26.529  1.00  0.00     0.021 C 
BRANCH  33  34
ATOM     34  C   UNL A   1      42.052  26.245  25.504  1.00  0.00     0.116 C 
BRANCH  34  35
ATOM     35  N   UNL A   1      42.416  24.891  25.908  1.00  0.00    -0.352 N 
ATOM     36  C   UNL A   1      43.395  24.500  26.808  1.00  0.00     0.251 C 
ATOM     37  H   UNL A   1      41.902  24.163  25.487  1.00  0.00     0.163 HD
ATOM     38  O   UNL A   1      43.731  23.340  26.950  1.00  0.00    -0.269 OA
BRANCH  36  39
ATOM     39  C   UNL A   1      43.949  25.560  27.673  1.00  0.00     0.039 A 
ATOM     40  C   UNL A   1      43.474  25.620  28.988  1.00  0.00     0.014 A 
ATOM     41  C   UNL A   1      44.638  26.623  27.099  1.00  0.00     0.014 A 
ATOM     42  C   UNL A   1      43.512  26.831  29.670  1.00  0.00     0.010 A 
ATOM     43  C   UNL A   1      44.595  27.844  27.742  1.00  0.00     0.010 A 
ATOM     44  C   UNL A   1      43.982  27.958  29.002  1.00  0.00    -0.014 A 
BRANCH  44  45
ATOM     45  C   UNL A   1      43.811  29.322  29.490  1.00  0.00     0.031 A 
ATOM     46  C   UNL A   1      42.466  29.937  29.489  1.00  0.00     0.074 A 
ATOM     47  C   UNL A   1      44.845  29.945  30.095  1.00  0.00     0.049 A 
ATOM     48  N   UNL A   1      42.217  31.176  29.744  1.00  0.00    -0.248 NA
ATOM     49  C   UNL A   1      41.273  29.179  29.134  1.00  0.00     0.031 C 
ATOM     50  C   UNL A   1      44.776  31.074  31.017  1.00  0.00     0.029 A 
ATOM     51  N   UNL A   1      46.207  29.805  29.822  1.00  0.00    -0.354 N 
ATOM     52  C   UNL A   1      40.852  31.317  29.879  1.00  0.00     0.074 A 
ATOM     53  C   UNL A   1      40.312  30.063  29.413  1.00  0.00     0.031 C 
ATOM     54  C   UNL A   1      45.973  31.677  31.063  1.00  0.00     0.029 A 
ATOM     55  C   UNL A   1      46.800  31.063  30.040  1.00  0.00     0.049 A 
ATOM     56  H   UNL A   1      46.665  28.983  29.532  1.00  0.00     0.167 HD
ATOM     57  C   UNL A   1      40.365  32.432  30.502  1.00  0.00     0.037 A 
ATOM     58  C   UNL A   1      47.385  31.754  29.016  1.00  0.00     0.037 A 
ATOM     59  C   UNL A   1      41.430  33.420  30.695  1.00  0.00     0.049 A 
ATOM     60  C   UNL A   1      46.736  33.088  28.719  1.00  0.00     0.074 A 
ATOM     61  C   UNL A   1      42.219  33.765  31.780  1.00  0.00     0.029 A 
ATOM     62  N   UNL A   1      42.026  34.004  29.579  1.00  0.00    -0.354 N 
ATOM     63  N   UNL A   1      45.542  33.428  29.120  1.00  0.00    -0.248 NA
ATOM     64  C   UNL A   1      47.385  34.147  27.951  1.00  0.00     0.031 C 
ATOM     65  C   UNL A   1      43.337  34.497  31.299  1.00  0.00     0.029 A 
ATOM     66  C   UNL A   1      43.215  34.617  29.925  1.00  0.00     0.049 A 
ATOM     67  H   UNL A   1      41.651  33.983  28.669  1.00  0.00     0.167 HD
ATOM     68  C   UNL A   1      45.244  34.691  28.673  1.00  0.00     0.074 A 
ATOM     69  C   UNL A   1      46.443  35.108  27.970  1.00  0.00     0.031 C 
ATOM     70  C   UNL A   1      44.034  35.282  28.918  1.00  0.00     0.037 A 
BRANCH  57  71
ATOM     71  C   UNL A   1      39.012  32.493  31.201  1.00  0.00     0.058 A 
ATOM     72  C   UNL A   1      37.824  32.686  30.457  1.00  0.00     0.135 A 
ATOM     73  C   UNL A   1      38.811  32.464  32.595  1.00  0.00     0.135 A 
ATOM     74  F   UNL A   1      37.818  32.634  29.118  1.00  0.00    -0.206 F 
ATOM     75  C   UNL A   1      36.582  32.954  31.045  1.00  0.00     0.059 A 
ATOM     76  C   UNL A   1      37.594  32.781  33.210  1.00  0.00     0.059 A 
ATOM     77  F   UNL A   1      39.771  32.067  33.435  1.00  0.00    -0.206 F 
ATOM     78  C   UNL A   1      36.484  33.040  32.425  1.00  0.00     0.060 A 
BRANCH  78  79
ATOM     79  S   UNL A   1      34.901  33.468  33.173  1.00  0.00     0.124 S 
ATOM     80  O   UNL A   1      34.821  34.905  32.922  1.00  0.00    -0.237 OA
ATOM     81  O   UNL A   1      33.971  32.637  32.418  1.00  0.00    -0.237 OA
ATOM     82  O   UNL A   1      35.076  33.096  34.575  1.00  0.00    -0.744 OA
ENDBRANCH  78  79
ENDBRANCH  57  71
BRANCH  58  83
ATOM     83  C   UNL A   1      48.060  30.866  28.029  1.00  0.00     0.058 A 
ATOM     84  C   UNL A   1      49.316  30.342  28.392  1.00  0.00     0.135 A 
ATOM     85  C   UNL A   1      47.330  30.182  27.046  1.00  0.00     0.135 A 
ATOM     86  F   UNL A   1      50.063  30.972  29.314  1.00  0.00    -0.206 F 
ATOM     87  C   UNL A   1      49.744  29.098  27.946  1.00  0.00     0.059 A 
ATOM     88  C   UNL A   1      47.748  28.936  26.574  1.00  0.00     0.059 A 
ATOM     89  F   UNL A   1      46.131  30.638  26.655  1.00  0.00    -0.206 F 
ATOM     90  C   UNL A   1      48.915  28.372  27.094  1.00  0.00     0.060 A 
BRANCH  90  91
ATOM     91  S   UNL A   1      49.289  26.618  26.855  1.00  0.00     0.124 S 
ATOM     92  O   UNL A   1      50.397  26.413  27.780  1.00  0.00    -0.237 OA
ATOM     93  O   UNL A   1      48.022  25.997  27.236  1.00  0.00    -0.237 OA
ATOM     94  O   UNL A   1      49.626  26.536  25.438  1.00  0.00    -0.744 OA
ENDBRANCH  90  91
ENDBRANCH  58  83
BRANCH  70  95
ATOM     95  C   UNL A   1      43.530  36.576  28.313  1.00  0.00     0.058 A 
ATOM     96  C   UNL A   1      42.837  36.665  27.093  1.00  0.00     0.135 A 
ATOM     97  C   UNL A   1      43.621  37.788  29.044  1.00  0.00     0.135 A 
ATOM     98  F   UNL A   1      42.575  35.576  26.358  1.00  0.00    -0.206 F 
ATOM     99  C   UNL A   1      42.333  37.873  26.601  1.00  0.00     0.059 A 
ATOM    100  C   UNL A   1      43.074  38.990  28.600  1.00  0.00     0.059 A 
ATOM    101  F   UNL A   1      44.234  37.844  30.236  1.00  0.00    -0.206 F 
ATOM    102  C   UNL A   1      42.454  39.031  27.362  1.00  0.00     0.060 A 
BRANCH 102 103
ATOM    103  S   UNL A   1      41.743  40.578  26.771  1.00  0.00     0.124 S 
ATOM    104  O   UNL A   1      42.940  41.330  26.410  1.00  0.00    -0.237 OA
ATOM    105  O   UNL A   1      40.908  40.148  25.653  1.00  0.00    -0.237 OA
ATOM    106  O   UNL A   1      41.011  41.071  27.935  1.00  0.00    -0.744 OA
ENDBRANCH 102 103
ENDBRANCH  70  95
ENDBRANCH  44  45
ENDBRANCH  36  39
ENDBRANCH  34  35
ENDBRANCH  33  34
ENDBRANCH  32  33
ENDBRANCH   1  32
TORSDOF 19
ENDMDL
