MODEL 1
REMARK VINA RESULT:     -11.8      0.000      0.000
REMARK SMILES CC(=O)N1C[C@@H]2C[N@H+](CC(=O)NCc3ccccc3)C[C@]2(C(=O)NCCCCCCNC(=O)c2ccc(-c3c4nc(c(-c5c(F)cc(S(=O)(=O)[O-])cc5F)c5ccc([nH]5)c(-c5c(F)cc(S(=O)(=O)[O-])cc5F)c5nc(c(-c6c(F)cc(S(=O)(=O)[O-])cc6F)c6ccc3[nH]6)C=C5)C=C4)cc2)C1
REMARK SMILES IDX 27 1 26 2 25 3 24 4 22 5 23 6 21 8 4 9 5 10 100 11 6 12 7 13
REMARK SMILES IDX 20 14 8 15 2 17 1 18 3 19 9 20 10 21 11 22 12 23 13 25 14 26
REMARK SMILES IDX 15 27 19 28 16 29 18 30 17 31 28 32 29 33 30 34 31 35 32 36
REMARK SMILES IDX 33 38 34 39 35 40 99 41 36 42 98 43 37 44 38 45 39 46 92 47
REMARK SMILES IDX 40 48 97 49 91 50 93 51 41 52 96 53 90 54 89 55 42 57 76 58
REMARK SMILES IDX 55 59 75 60 56 61 59 62 74 63 94 64 57 65 58 66 73 68 95 69
REMARK SMILES IDX 60 70 43 71 44 72 53 73 45 74 46 75 52 76 54 77 47 78 48 79
REMARK SMILES IDX 49 80 50 81 51 82 77 83 78 84 87 85 79 86 80 87 86 88 88 89
REMARK SMILES IDX 81 90 82 91 83 92 84 93 85 94 61 95 62 96 71 97 63 98 64 99
REMARK SMILES IDX 70 100 72 101 65 102 66 103 67 104 68 105 69 106
REMARK H PARENT 24 7 8 16 12 24 31 37 93 56 59 67
REMARK Flexibility Score: inf
ROOT
ATOM      1  C   UNL A   1      39.527  23.383  27.328  1.00  0.00     0.002 C 
ENDROOT
BRANCH   1   2
ATOM      2  C   UNL A   1      38.275  23.745  26.502  1.00  0.00     0.021 C 
BRANCH   2   3
ATOM      3  C   UNL A   1      37.726  22.555  25.717  1.00  0.00     0.116 C 
BRANCH   3   4
ATOM      4  N   UNL A   1      37.400  22.721  24.294  1.00  0.00    -0.355 N 
ATOM      5  C   UNL A   1      36.190  22.824  23.598  1.00  0.00     0.234 C 
ATOM      6  O   UNL A   1      36.309  22.952  22.374  1.00  0.00    -0.274 OA
ATOM      7  H   UNL A   1      38.193  22.770  23.712  1.00  0.00     0.163 HD
BRANCH   5   8
ATOM      8  C   UNL A   1      34.755  22.736  24.337  1.00  0.00     0.125 C 
ATOM      9  N   UNL A   1      33.851  20.618  25.480  1.00  0.00    -0.341 N 
ATOM     10  C   UNL A   1      33.206  21.669  26.158  1.00  0.00     0.130 C 
ATOM     11  C   UNL A   1      35.003  21.162  24.745  1.00  0.00     0.143 C 
ATOM     12  C   UNL A   1      34.135  22.825  25.910  1.00  0.00     0.087 C 
ATOM     13  C   UNL A   1      33.303  24.090  26.123  1.00  0.00     0.269 C 
ATOM     14  C   UNL A   1      34.886  24.282  24.578  1.00  0.00     0.282 C 
ATOM     15  N   UNL A   1      33.556  24.794  24.895  1.00  0.00    -0.326 N 
ATOM     16  H   UNL A   1      33.512  25.810  24.975  1.00  0.00     0.348 HD
BRANCH   9  17
ATOM     17  C   UNL A   1      33.118  19.478  25.240  1.00  0.00     0.219 C 
ATOM     18  C   UNL A   1      33.223  18.896  23.860  1.00  0.00     0.114 C 
ATOM     19  O   UNL A   1      32.544  18.851  26.132  1.00  0.00    -0.275 OA
ENDBRANCH   9  17
BRANCH  15  20
ATOM     20  C   UNL A   1      32.515  24.632  23.825  1.00  0.00     0.363 C 
BRANCH  20  21
ATOM     21  C   UNL A   1      31.033  24.445  24.229  1.00  0.00     0.275 C 
ATOM     22  O   UNL A   1      30.662  23.329  24.620  1.00  0.00    -0.268 OA
ATOM     23  N   UNL A   1      30.064  25.411  24.198  1.00  0.00    -0.347 N 
ATOM     24  H   UNL A   1      29.151  25.047  24.255  1.00  0.00     0.164 HD
BRANCH  23  25
ATOM     25  C   UNL A   1      30.096  26.864  24.098  1.00  0.00     0.151 C 
BRANCH  25  26
ATOM     26  C   UNL A   1      30.862  27.610  25.182  1.00  0.00    -0.029 A 
ATOM     27  C   UNL A   1      31.422  28.881  24.937  1.00  0.00     0.005 A 
ATOM     28  C   UNL A   1      31.071  27.083  26.457  1.00  0.00     0.005 A 
ATOM     29  C   UNL A   1      31.960  29.676  25.955  1.00  0.00     0.000 A 
ATOM     30  C   UNL A   1      31.653  27.858  27.475  1.00  0.00     0.000 A 
ATOM     31  C   UNL A   1      32.047  29.172  27.239  1.00  0.00     0.000 A 
ENDBRANCH  25  26
ENDBRANCH  23  25
ENDBRANCH  20  21
ENDBRANCH  15  20
ENDBRANCH   5   8
ENDBRANCH   3   4
ENDBRANCH   2   3
ENDBRANCH   1   2
BRANCH   1  32
ATOM     32  C   UNL A   1      40.170  22.002  27.087  1.00  0.00     0.002 C 
BRANCH  32  33
ATOM     33  C   UNL A   1      41.643  21.979  26.675  1.00  0.00     0.021 C 
BRANCH  33  34
ATOM     34  C   UNL A   1      42.426  23.253  26.974  1.00  0.00     0.116 C 
BRANCH  34  35
ATOM     35  N   UNL A   1      42.542  24.128  25.818  1.00  0.00    -0.352 N 
ATOM     36  C   UNL A   1      42.361  25.487  25.722  1.00  0.00     0.251 C 
ATOM     37  H   UNL A   1      42.787  23.679  24.976  1.00  0.00     0.163 HD
ATOM     38  O   UNL A   1      42.365  26.027  24.626  1.00  0.00    -0.269 OA
BRANCH  36  39
ATOM     39  C   UNL A   1      42.142  26.285  26.949  1.00  0.00     0.039 A 
ATOM     40  C   UNL A   1      42.953  27.399  27.182  1.00  0.00     0.014 A 
ATOM     41  C   UNL A   1      41.151  25.933  27.868  1.00  0.00     0.014 A 
ATOM     42  C   UNL A   1      42.731  28.191  28.309  1.00  0.00     0.010 A 
ATOM     43  C   UNL A   1      40.880  26.766  28.948  1.00  0.00     0.010 A 
ATOM     44  C   UNL A   1      41.672  27.899  29.185  1.00  0.00    -0.014 A 
BRANCH  44  45
ATOM     45  C   UNL A   1      41.391  28.753  30.366  1.00  0.00     0.031 A 
ATOM     46  C   UNL A   1      42.228  28.610  31.610  1.00  0.00     0.074 A 
ATOM     47  C   UNL A   1      40.360  29.621  30.332  1.00  0.00     0.049 A 
ATOM     48  N   UNL A   1      42.096  29.206  32.766  1.00  0.00    -0.248 NA
ATOM     49  C   UNL A   1      43.346  27.652  31.554  1.00  0.00     0.031 C 
ATOM     50  C   UNL A   1      39.458  29.822  29.196  1.00  0.00     0.029 A 
ATOM     51  N   UNL A   1      39.891  30.493  31.283  1.00  0.00    -0.354 N 
ATOM     52  C   UNL A   1      43.112  28.700  33.570  1.00  0.00     0.074 A 
ATOM     53  C   UNL A   1      43.807  27.697  32.796  1.00  0.00     0.031 C 
ATOM     54  C   UNL A   1      38.563  30.774  29.506  1.00  0.00     0.029 A 
ATOM     55  C   UNL A   1      38.796  31.220  30.874  1.00  0.00     0.049 A 
ATOM     56  H   UNL A   1      40.299  30.589  32.173  1.00  0.00     0.167 HD
ATOM     57  C   UNL A   1      43.456  29.065  34.828  1.00  0.00     0.037 A 
ATOM     58  C   UNL A   1      38.061  32.136  31.535  1.00  0.00     0.037 A 
ATOM     59  C   UNL A   1      42.769  30.077  35.587  1.00  0.00     0.049 A 
ATOM     60  C   UNL A   1      38.440  32.489  32.951  1.00  0.00     0.074 A 
ATOM     61  C   UNL A   1      43.047  30.533  36.863  1.00  0.00     0.029 A 
ATOM     62  N   UNL A   1      41.672  30.795  35.136  1.00  0.00    -0.354 N 
ATOM     63  N   UNL A   1      39.431  32.031  33.678  1.00  0.00    -0.248 NA
ATOM     64  C   UNL A   1      37.607  33.488  33.632  1.00  0.00     0.031 C 
ATOM     65  C   UNL A   1      42.095  31.499  37.201  1.00  0.00     0.029 A 
ATOM     66  C   UNL A   1      41.256  31.684  36.113  1.00  0.00     0.049 A 
ATOM     67  H   UNL A   1      41.251  30.690  34.252  1.00  0.00     0.167 HD
ATOM     68  C   UNL A   1      39.364  32.719  34.886  1.00  0.00     0.074 A 
ATOM     69  C   UNL A   1      38.245  33.630  34.785  1.00  0.00     0.031 C 
ATOM     70  C   UNL A   1      40.156  32.606  35.981  1.00  0.00     0.037 A 
BRANCH  57  71
ATOM     71  C   UNL A   1      44.644  28.389  35.455  1.00  0.00     0.058 A 
ATOM     72  C   UNL A   1      45.947  28.881  35.268  1.00  0.00     0.135 A 
ATOM     73  C   UNL A   1      44.480  27.281  36.303  1.00  0.00     0.135 A 
ATOM     74  F   UNL A   1      46.165  29.926  34.452  1.00  0.00    -0.206 F 
ATOM     75  C   UNL A   1      47.044  28.292  35.886  1.00  0.00     0.059 A 
ATOM     76  C   UNL A   1      45.561  26.693  36.954  1.00  0.00     0.059 A 
ATOM     77  F   UNL A   1      43.259  26.765  36.513  1.00  0.00    -0.206 F 
ATOM     78  C   UNL A   1      46.841  27.202  36.734  1.00  0.00     0.060 A 
BRANCH  78  79
ATOM     79  S   UNL A   1      48.274  26.477  37.556  1.00  0.00     0.124 S 
ATOM     80  O   UNL A   1      47.650  25.428  38.358  1.00  0.00    -0.237 OA
ATOM     81  O   UNL A   1      49.079  26.018  36.429  1.00  0.00    -0.237 OA
ATOM     82  O   UNL A   1      48.835  27.592  38.312  1.00  0.00    -0.744 OA
ENDBRANCH  78  79
ENDBRANCH  57  71
BRANCH  58  83
ATOM     83  C   UNL A   1      36.898  32.795  30.879  1.00  0.00     0.058 A 
ATOM     84  C   UNL A   1      37.081  33.861  29.984  1.00  0.00     0.135 A 
ATOM     85  C   UNL A   1      35.578  32.408  31.167  1.00  0.00     0.135 A 
ATOM     86  F   UNL A   1      38.322  34.270  29.676  1.00  0.00    -0.206 F 
ATOM     87  C   UNL A   1      36.005  34.551  29.439  1.00  0.00     0.059 A 
ATOM     88  C   UNL A   1      34.485  33.061  30.607  1.00  0.00     0.059 A 
ATOM     89  F   UNL A   1      35.345  31.381  31.998  1.00  0.00    -0.206 F 
ATOM     90  C   UNL A   1      34.708  34.148  29.763  1.00  0.00     0.060 A 
BRANCH  90  91
ATOM     91  S   UNL A   1      33.317  35.060  29.062  1.00  0.00     0.124 S 
ATOM     92  O   UNL A   1      32.527  35.347  30.254  1.00  0.00    -0.237 OA
ATOM     93  O   UNL A   1      33.980  36.204  28.444  1.00  0.00    -0.237 OA
ATOM     94  O   UNL A   1      32.727  34.106  28.128  1.00  0.00    -0.744 OA
ENDBRANCH  90  91
ENDBRANCH  58  83
BRANCH  70  95
ATOM     95  C   UNL A   1      39.882  33.533  37.134  1.00  0.00     0.058 A 
ATOM     96  C   UNL A   1      40.549  34.759  37.275  1.00  0.00     0.135 A 
ATOM     97  C   UNL A   1      38.897  33.209  38.082  1.00  0.00     0.135 A 
ATOM     98  F   UNL A   1      41.502  35.116  36.400  1.00  0.00    -0.206 F 
ATOM     99  C   UNL A   1      40.269  35.620  38.331  1.00  0.00     0.059 A 
ATOM    100  C   UNL A   1      38.578  34.069  39.127  1.00  0.00     0.059 A 
ATOM    101  F   UNL A   1      38.221  32.053  37.986  1.00  0.00    -0.206 F 
ATOM    102  C   UNL A   1      39.278  35.267  39.251  1.00  0.00     0.060 A 
BRANCH 102 103
ATOM    103  S   UNL A   1      38.901  36.411  40.594  1.00  0.00     0.124 S 
ATOM    104  O   UNL A   1      38.477  37.599  39.861  1.00  0.00    -0.237 OA
ATOM    105  O   UNL A   1      37.849  35.704  41.319  1.00  0.00    -0.237 OA
ATOM    106  O   UNL A   1      40.171  36.532  41.305  1.00  0.00    -0.744 OA
ENDBRANCH 102 103
ENDBRANCH  70  95
ENDBRANCH  44  45
ENDBRANCH  36  39
ENDBRANCH  34  35
ENDBRANCH  33  34
ENDBRANCH  32  33
ENDBRANCH   1  32
TORSDOF 21
ENDMDL
MODEL 2
REMARK VINA RESULT:     -11.6      1.338      2.258
REMARK SMILES CC(=O)N1C[C@@H]2C[N@H+](CC(=O)NCc3ccccc3)C[C@]2(C(=O)NCCCCCCNC(=O)c2ccc(-c3c4nc(c(-c5c(F)cc(S(=O)(=O)[O-])cc5F)c5ccc([nH]5)c(-c5c(F)cc(S(=O)(=O)[O-])cc5F)c5nc(c(-c6c(F)cc(S(=O)(=O)[O-])cc6F)c6ccc3[nH]6)C=C5)C=C4)cc2)C1
REMARK SMILES IDX 27 1 26 2 25 3 24 4 22 5 23 6 21 8 4 9 5 10 100 11 6 12 7 13
REMARK SMILES IDX 20 14 8 15 2 17 1 18 3 19 9 20 10 21 11 22 12 23 13 25 14 26
REMARK SMILES IDX 15 27 19 28 16 29 18 30 17 31 28 32 29 33 30 34 31 35 32 36
REMARK SMILES IDX 33 38 34 39 35 40 99 41 36 42 98 43 37 44 38 45 39 46 92 47
REMARK SMILES IDX 40 48 97 49 91 50 93 51 41 52 96 53 90 54 89 55 42 57 76 58
REMARK SMILES IDX 55 59 75 60 56 61 59 62 74 63 94 64 57 65 58 66 73 68 95 69
REMARK SMILES IDX 60 70 43 71 44 72 53 73 45 74 46 75 52 76 54 77 47 78 48 79
REMARK SMILES IDX 49 80 50 81 51 82 77 83 78 84 87 85 79 86 80 87 86 88 88 89
REMARK SMILES IDX 81 90 82 91 83 92 84 93 85 94 61 95 62 96 71 97 63 98 64 99
REMARK SMILES IDX 70 100 72 101 65 102 66 103 67 104 68 105 69 106
REMARK H PARENT 24 7 8 16 12 24 31 37 93 56 59 67
REMARK Flexibility Score: inf
ROOT
ATOM      1  C   UNL A   1      38.034  21.029  25.601  1.00  0.00     0.002 C 
ENDROOT
BRANCH   1   2
ATOM      2  C   UNL A   1      37.306  21.753  24.449  1.00  0.00     0.021 C 
BRANCH   2   3
ATOM      3  C   UNL A   1      36.512  22.967  24.928  1.00  0.00     0.116 C 
BRANCH   3   4
ATOM      4  N   UNL A   1      35.983  22.986  26.299  1.00  0.00    -0.355 N 
ATOM      5  C   UNL A   1      34.687  22.911  26.822  1.00  0.00     0.234 C 
ATOM      6  O   UNL A   1      34.625  22.965  28.055  1.00  0.00    -0.274 OA
ATOM      7  H   UNL A   1      36.681  23.066  26.989  1.00  0.00     0.163 HD
BRANCH   5   8
ATOM      8  C   UNL A   1      33.377  22.810  25.880  1.00  0.00     0.125 C 
ATOM      9  N   UNL A   1      32.438  20.605  24.950  1.00  0.00    -0.341 N 
ATOM     10  C   UNL A   1      31.317  21.454  25.002  1.00  0.00     0.130 C 
ATOM     11  C   UNL A   1      33.504  21.173  25.789  1.00  0.00     0.143 C 
ATOM     12  C   UNL A   1      31.729  22.461  26.040  1.00  0.00     0.087 C 
ATOM     13  C   UNL A   1      30.859  23.695  25.800  1.00  0.00     0.269 C 
ATOM     14  C   UNL A   1      32.896  24.142  26.560  1.00  0.00     0.282 C 
ATOM     15  N   UNL A   1      31.861  24.723  25.711  1.00  0.00    -0.326 N 
ATOM     16  H   UNL A   1      31.546  25.645  26.014  1.00  0.00     0.348 HD
BRANCH   9  17
ATOM     17  C   UNL A   1      32.531  19.747  23.878  1.00  0.00     0.219 C 
ATOM     18  C   UNL A   1      32.814  18.307  24.198  1.00  0.00     0.114 C 
ATOM     19  O   UNL A   1      32.228  20.075  22.729  1.00  0.00    -0.275 OA
ENDBRANCH   9  17
BRANCH  15  20
ATOM     20  C   UNL A   1      32.284  25.102  24.321  1.00  0.00     0.363 C 
BRANCH  20  21
ATOM     21  C   UNL A   1      33.564  25.948  24.121  1.00  0.00     0.275 C 
ATOM     22  O   UNL A   1      34.523  25.439  23.524  1.00  0.00    -0.268 OA
ATOM     23  N   UNL A   1      33.750  27.235  24.547  1.00  0.00    -0.347 N 
ATOM     24  H   UNL A   1      34.695  27.511  24.545  1.00  0.00     0.164 HD
BRANCH  23  25
ATOM     25  C   UNL A   1      32.847  28.283  25.006  1.00  0.00     0.151 C 
BRANCH  25  26
ATOM     26  C   UNL A   1      33.359  29.193  26.113  1.00  0.00    -0.029 A 
ATOM     27  C   UNL A   1      34.534  28.882  26.829  1.00  0.00     0.005 A 
ATOM     28  C   UNL A   1      32.699  30.362  26.495  1.00  0.00     0.005 A 
ATOM     29  C   UNL A   1      35.138  29.782  27.714  1.00  0.00     0.000 A 
ATOM     30  C   UNL A   1      33.277  31.251  27.418  1.00  0.00     0.000 A 
ATOM     31  C   UNL A   1      34.521  30.989  27.985  1.00  0.00     0.000 A 
ENDBRANCH  25  26
ENDBRANCH  23  25
ENDBRANCH  20  21
ENDBRANCH  15  20
ENDBRANCH   5   8
ENDBRANCH   3   4
ENDBRANCH   2   3
ENDBRANCH   1   2
BRANCH   1  32
ATOM     32  C   UNL A   1      39.535  21.324  25.797  1.00  0.00     0.002 C 
BRANCH  32  33
ATOM     33  C   UNL A   1      39.924  22.195  26.993  1.00  0.00     0.021 C 
BRANCH  33  34
ATOM     34  C   UNL A   1      39.735  23.696  26.801  1.00  0.00     0.116 C 
BRANCH  34  35
ATOM     35  N   UNL A   1      40.695  24.270  25.871  1.00  0.00    -0.352 N 
ATOM     36  C   UNL A   1      41.339  25.484  25.911  1.00  0.00     0.251 C 
ATOM     37  H   UNL A   1      40.916  23.705  25.095  1.00  0.00     0.163 HD
ATOM     38  O   UNL A   1      42.008  25.850  24.957  1.00  0.00    -0.269 OA
BRANCH  36  39
ATOM     39  C   UNL A   1      41.201  26.348  27.105  1.00  0.00     0.039 A 
ATOM     40  C   UNL A   1      41.952  27.525  27.175  1.00  0.00     0.014 A 
ATOM     41  C   UNL A   1      40.345  25.996  28.150  1.00  0.00     0.014 A 
ATOM     42  C   UNL A   1      41.799  28.375  28.271  1.00  0.00     0.010 A 
ATOM     43  C   UNL A   1      40.136  26.882  29.203  1.00  0.00     0.010 A 
ATOM     44  C   UNL A   1      40.866  28.077  29.278  1.00  0.00    -0.014 A 
BRANCH  44  45
ATOM     45  C   UNL A   1      40.658  28.989  30.431  1.00  0.00     0.031 A 
ATOM     46  C   UNL A   1      41.509  28.845  31.664  1.00  0.00     0.074 A 
ATOM     47  C   UNL A   1      39.677  29.913  30.381  1.00  0.00     0.049 A 
ATOM     48  N   UNL A   1      41.435  29.491  32.798  1.00  0.00    -0.248 NA
ATOM     49  C   UNL A   1      42.570  27.823  31.626  1.00  0.00     0.031 C 
ATOM     50  C   UNL A   1      38.766  30.123  29.253  1.00  0.00     0.029 A 
ATOM     51  N   UNL A   1      39.277  30.846  31.305  1.00  0.00    -0.354 N 
ATOM     52  C   UNL A   1      42.435  28.958  33.604  1.00  0.00     0.074 A 
ATOM     53  C   UNL A   1      43.057  27.888  32.857  1.00  0.00     0.031 C 
ATOM     54  C   UNL A   1      37.932  31.136  29.541  1.00  0.00     0.029 A 
ATOM     55  C   UNL A   1      38.218  31.619  30.887  1.00  0.00     0.049 A 
ATOM     56  H   UNL A   1      39.707  30.952  32.184  1.00  0.00     0.167 HD
ATOM     57  C   UNL A   1      42.824  29.349  34.840  1.00  0.00     0.037 A 
ATOM     58  C   UNL A   1      37.548  32.600  31.525  1.00  0.00     0.037 A 
ATOM     59  C   UNL A   1      42.211  30.427  35.572  1.00  0.00     0.049 A 
ATOM     60  C   UNL A   1      37.975  32.983  32.919  1.00  0.00     0.074 A 
ATOM     61  C   UNL A   1      42.539  30.914  36.824  1.00  0.00     0.029 A 
ATOM     62  N   UNL A   1      41.147  31.190  35.112  1.00  0.00    -0.354 N 
ATOM     63  N   UNL A   1      38.953  32.497  33.647  1.00  0.00    -0.248 NA
ATOM     64  C   UNL A   1      37.213  34.054  33.576  1.00  0.00     0.031 C 
ATOM     65  C   UNL A   1      41.650  31.945  37.140  1.00  0.00     0.029 A 
ATOM     66  C   UNL A   1      40.802  32.137  36.061  1.00  0.00     0.049 A 
ATOM     67  H   UNL A   1      40.704  31.076  34.241  1.00  0.00     0.167 HD
ATOM     68  C   UNL A   1      38.948  33.232  34.828  1.00  0.00     0.074 A 
ATOM     69  C   UNL A   1      37.880  34.202  34.712  1.00  0.00     0.031 C 
ATOM     70  C   UNL A   1      39.754  33.115  35.912  1.00  0.00     0.037 A 
BRANCH  57  71
ATOM     71  C   UNL A   1      43.984  28.630  35.472  1.00  0.00     0.058 A 
ATOM     72  C   UNL A   1      43.786  27.518  36.307  1.00  0.00     0.135 A 
ATOM     73  C   UNL A   1      45.307  29.009  35.193  1.00  0.00     0.135 A 
ATOM     74  F   UNL A   1      42.542  27.123  36.624  1.00  0.00    -0.206 F 
ATOM     75  C   UNL A   1      44.855  26.817  36.853  1.00  0.00     0.059 A 
ATOM     76  C   UNL A   1      46.393  28.304  35.705  1.00  0.00     0.059 A 
ATOM     77  F   UNL A   1      45.556  30.067  34.405  1.00  0.00    -0.206 F 
ATOM     78  C   UNL A   1      46.156  27.213  36.540  1.00  0.00     0.060 A 
BRANCH  78  79
ATOM     79  S   UNL A   1      47.529  26.266  37.229  1.00  0.00     0.124 S 
ATOM     80  O   UNL A   1      48.678  27.038  36.764  1.00  0.00    -0.237 OA
ATOM     81  O   UNL A   1      47.262  26.328  38.661  1.00  0.00    -0.237 OA
ATOM     82  O   UNL A   1      47.374  24.948  36.620  1.00  0.00    -0.744 OA
ENDBRANCH  78  79
ENDBRANCH  57  71
BRANCH  58  83
ATOM     83  C   UNL A   1      36.412  33.299  30.864  1.00  0.00     0.058 A 
ATOM     84  C   UNL A   1      36.633  34.203  29.813  1.00  0.00     0.135 A 
ATOM     85  C   UNL A   1      35.089  33.119  31.299  1.00  0.00     0.135 A 
ATOM     86  F   UNL A   1      37.879  34.412  29.361  1.00  0.00    -0.206 F 
ATOM     87  C   UNL A   1      35.595  34.938  29.251  1.00  0.00     0.059 A 
ATOM     88  C   UNL A   1      34.029  33.817  30.728  1.00  0.00     0.059 A 
ATOM     89  F   UNL A   1      34.817  32.250  32.285  1.00  0.00    -0.206 F 
ATOM     90  C   UNL A   1      34.296  34.743  29.722  1.00  0.00     0.060 A 
BRANCH  90  91
ATOM     91  S   UNL A   1      32.957  35.713  28.996  1.00  0.00     0.124 S 
ATOM     92  O   UNL A   1      32.366  34.750  28.074  1.00  0.00    -0.237 OA
ATOM     93  O   UNL A   1      32.155  36.052  30.167  1.00  0.00    -0.237 OA
ATOM     94  O   UNL A   1      33.654  36.836  28.376  1.00  0.00    -0.744 OA
ENDBRANCH  90  91
ENDBRANCH  58  83
BRANCH  70  95
ATOM     95  C   UNL A   1      39.555  34.100  37.033  1.00  0.00     0.058 A 
ATOM     96  C   UNL A   1      38.833  33.772  38.190  1.00  0.00     0.135 A 
ATOM     97  C   UNL A   1      40.144  35.373  36.967  1.00  0.00     0.135 A 
ATOM     98  F   UNL A   1      38.246  32.570  38.303  1.00  0.00    -0.206 F 
ATOM     99  C   UNL A   1      38.678  34.680  39.231  1.00  0.00     0.059 A 
ATOM    100  C   UNL A   1      40.030  36.287  38.009  1.00  0.00     0.059 A 
ATOM    101  F   UNL A   1      40.856  35.734  35.887  1.00  0.00    -0.206 F 
ATOM    102  C   UNL A   1      39.284  35.936  39.132  1.00  0.00     0.060 A 
BRANCH 102 103
ATOM    103  S   UNL A   1      39.105  37.091  40.507  1.00  0.00     0.124 S 
ATOM    104  O   UNL A   1      40.496  37.369  40.843  1.00  0.00    -0.237 OA
ATOM    105  O   UNL A   1      38.368  38.192  39.894  1.00  0.00    -0.237 OA
ATOM    106  O   UNL A   1      38.359  36.323  41.501  1.00  0.00    -0.744 OA
ENDBRANCH 102 103
ENDBRANCH  70  95
ENDBRANCH  44  45
ENDBRANCH  36  39
ENDBRANCH  34  35
ENDBRANCH  33  34
ENDBRANCH  32  33
ENDBRANCH   1  32
TORSDOF 21
ENDMDL
MODEL 3
REMARK VINA RESULT:     -11.6      4.343     10.279
REMARK SMILES CC(=O)N1C[C@@H]2C[N@H+](CC(=O)NCc3ccccc3)C[C@]2(C(=O)NCCCCCCNC(=O)c2ccc(-c3c4nc(c(-c5c(F)cc(S(=O)(=O)[O-])cc5F)c5ccc([nH]5)c(-c5c(F)cc(S(=O)(=O)[O-])cc5F)c5nc(c(-c6c(F)cc(S(=O)(=O)[O-])cc6F)c6ccc3[nH]6)C=C5)C=C4)cc2)C1
REMARK SMILES IDX 27 1 26 2 25 3 24 4 22 5 23 6 21 8 4 9 5 10 100 11 6 12 7 13
REMARK SMILES IDX 20 14 8 15 2 17 1 18 3 19 9 20 10 21 11 22 12 23 13 25 14 26
REMARK SMILES IDX 15 27 19 28 16 29 18 30 17 31 28 32 29 33 30 34 31 35 32 36
REMARK SMILES IDX 33 38 34 39 35 40 99 41 36 42 98 43 37 44 38 45 39 46 92 47
REMARK SMILES IDX 40 48 97 49 91 50 93 51 41 52 96 53 90 54 89 55 42 57 76 58
REMARK SMILES IDX 55 59 75 60 56 61 59 62 74 63 94 64 57 65 58 66 73 68 95 69
REMARK SMILES IDX 60 70 43 71 44 72 53 73 45 74 46 75 52 76 54 77 47 78 48 79
REMARK SMILES IDX 49 80 50 81 51 82 77 83 78 84 87 85 79 86 80 87 86 88 88 89
REMARK SMILES IDX 81 90 82 91 83 92 84 93 85 94 61 95 62 96 71 97 63 98 64 99
REMARK SMILES IDX 70 100 72 101 65 102 66 103 67 104 68 105 69 106
REMARK H PARENT 24 7 8 16 12 24 31 37 93 56 59 67
REMARK Flexibility Score: inf
ROOT
ATOM      1  C   UNL A   1      32.287  28.759  22.981  1.00  0.00     0.002 C 
ENDROOT
BRANCH   1   2
ATOM      2  C   UNL A   1      30.974  27.968  22.799  1.00  0.00     0.021 C 
BRANCH   2   3
ATOM      3  C   UNL A   1      30.986  26.632  23.539  1.00  0.00     0.116 C 
BRANCH   3   4
ATOM      4  N   UNL A   1      31.052  26.623  25.007  1.00  0.00    -0.355 N 
ATOM      5  C   UNL A   1      31.589  25.719  25.932  1.00  0.00     0.234 C 
ATOM      6  O   UNL A   1      31.450  26.049  27.115  1.00  0.00    -0.274 OA
ATOM      7  H   UNL A   1      30.636  27.411  25.425  1.00  0.00     0.163 HD
BRANCH   5   8
ATOM      8  C   UNL A   1      32.292  24.335  25.483  1.00  0.00     0.125 C 
ATOM      9  N   UNL A   1      34.784  23.805  25.830  1.00  0.00    -0.341 N 
ATOM     10  C   UNL A   1      34.171  22.540  25.803  1.00  0.00     0.130 C 
ATOM     11  C   UNL A   1      33.752  24.829  26.056  1.00  0.00     0.143 C 
ATOM     12  C   UNL A   1      32.753  22.865  26.185  1.00  0.00     0.087 C 
ATOM     13  C   UNL A   1      31.901  21.701  25.678  1.00  0.00     0.269 C 
ATOM     14  C   UNL A   1      30.878  23.670  25.640  1.00  0.00     0.282 C 
ATOM     15  N   UNL A   1      30.902  22.402  24.918  1.00  0.00    -0.326 N 
ATOM     16  H   UNL A   1      29.998  21.932  24.876  1.00  0.00     0.348 HD
BRANCH   9  17
ATOM     17  C   UNL A   1      36.017  23.922  25.231  1.00  0.00     0.219 C 
ATOM     18  C   UNL A   1      37.209  23.889  26.143  1.00  0.00     0.114 C 
ATOM     19  O   UNL A   1      36.174  23.879  24.009  1.00  0.00    -0.275 OA
ENDBRANCH   9  17
BRANCH  15  20
ATOM     20  C   UNL A   1      31.151  22.490  23.440  1.00  0.00     0.363 C 
BRANCH  20  21
ATOM     21  C   UNL A   1      32.405  21.809  22.839  1.00  0.00     0.275 C 
ATOM     22  O   UNL A   1      33.372  22.519  22.527  1.00  0.00    -0.268 OA
ATOM     23  N   UNL A   1      32.559  20.469  22.611  1.00  0.00    -0.347 N 
ATOM     24  H   UNL A   1      33.310  20.261  22.010  1.00  0.00     0.164 HD
BRANCH  23  25
ATOM     25  C   UNL A   1      31.846  19.283  23.069  1.00  0.00     0.151 C 
BRANCH  25  26
ATOM     26  C   UNL A   1      32.677  18.201  23.744  1.00  0.00    -0.029 A 
ATOM     27  C   UNL A   1      32.562  17.948  25.127  1.00  0.00     0.005 A 
ATOM     28  C   UNL A   1      33.603  17.418  23.052  1.00  0.00     0.005 A 
ATOM     29  C   UNL A   1      33.159  16.843  25.744  1.00  0.00     0.000 A 
ATOM     30  C   UNL A   1      34.243  16.333  23.676  1.00  0.00     0.000 A 
ATOM     31  C   UNL A   1      33.980  16.012  25.005  1.00  0.00     0.000 A 
ENDBRANCH  25  26
ENDBRANCH  23  25
ENDBRANCH  20  21
ENDBRANCH  15  20
ENDBRANCH   5   8
ENDBRANCH   3   4
ENDBRANCH   2   3
ENDBRANCH   1   2
BRANCH   1  32
ATOM     32  C   UNL A   1      32.647  29.230  24.405  1.00  0.00     0.002 C 
BRANCH  32  33
ATOM     33  C   UNL A   1      33.855  28.571  25.074  1.00  0.00     0.021 C 
BRANCH  33  34
ATOM     34  C   UNL A   1      33.846  28.580  26.598  1.00  0.00     0.116 C 
BRANCH  34  35
ATOM     35  N   UNL A   1      33.673  29.914  27.153  1.00  0.00    -0.352 N 
ATOM     36  C   UNL A   1      34.520  30.653  27.944  1.00  0.00     0.251 C 
ATOM     37  H   UNL A   1      32.821  30.353  26.929  1.00  0.00     0.163 HD
ATOM     38  O   UNL A   1      34.135  31.705  28.431  1.00  0.00    -0.269 OA
BRANCH  36  39
ATOM     39  C   UNL A   1      35.887  30.158  28.217  1.00  0.00     0.039 A 
ATOM     40  C   UNL A   1      36.869  30.313  27.235  1.00  0.00     0.014 A 
ATOM     41  C   UNL A   1      36.197  29.536  29.429  1.00  0.00     0.014 A 
ATOM     42  C   UNL A   1      38.175  29.894  27.493  1.00  0.00     0.010 A 
ATOM     43  C   UNL A   1      37.515  29.191  29.714  1.00  0.00     0.010 A 
ATOM     44  C   UNL A   1      38.516  29.359  28.746  1.00  0.00    -0.014 A 
BRANCH  44  45
ATOM     45  C   UNL A   1      39.908  28.948  29.056  1.00  0.00     0.031 A 
ATOM     46  C   UNL A   1      40.850  29.924  29.708  1.00  0.00     0.074 A 
ATOM     47  C   UNL A   1      40.332  27.716  28.710  1.00  0.00     0.049 A 
ATOM     48  N   UNL A   1      42.119  29.784  29.991  1.00  0.00    -0.248 NA
ATOM     49  C   UNL A   1      40.299  31.242  30.069  1.00  0.00     0.031 C 
ATOM     50  C   UNL A   1      39.520  26.696  28.041  1.00  0.00     0.029 A 
ATOM     51  N   UNL A   1      41.555  27.112  28.866  1.00  0.00    -0.354 N 
ATOM     52  C   UNL A   1      42.515  30.988  30.563  1.00  0.00     0.074 A 
ATOM     53  C   UNL A   1      41.373  31.872  30.524  1.00  0.00     0.031 C 
ATOM     54  C   UNL A   1      40.258  25.587  27.869  1.00  0.00     0.029 A 
ATOM     55  C   UNL A   1      41.605  25.828  28.373  1.00  0.00     0.049 A 
ATOM     56  H   UNL A   1      42.323  27.555  29.291  1.00  0.00     0.167 HD
ATOM     57  C   UNL A   1      43.712  31.313  31.106  1.00  0.00     0.037 A 
ATOM     58  C   UNL A   1      42.627  24.951  28.325  1.00  0.00     0.037 A 
ATOM     59  C   UNL A   1      44.840  30.420  31.157  1.00  0.00     0.049 A 
ATOM     60  C   UNL A   1      43.962  25.358  28.896  1.00  0.00     0.074 A 
ATOM     61  C   UNL A   1      46.093  30.646  31.699  1.00  0.00     0.029 A 
ATOM     62  N   UNL A   1      44.849  29.128  30.654  1.00  0.00    -0.354 N 
ATOM     63  N   UNL A   1      44.304  26.486  29.473  1.00  0.00    -0.248 NA
ATOM     64  C   UNL A   1      45.047  24.371  28.817  1.00  0.00     0.031 C 
ATOM     65  C   UNL A   1      46.873  29.505  31.489  1.00  0.00     0.029 A 
ATOM     66  C   UNL A   1      46.089  28.548  30.865  1.00  0.00     0.049 A 
ATOM     67  H   UNL A   1      44.087  28.687  30.213  1.00  0.00     0.167 HD
ATOM     68  C   UNL A   1      45.629  26.325  29.863  1.00  0.00     0.074 A 
ATOM     69  C   UNL A   1      46.022  24.990  29.467  1.00  0.00     0.031 C 
ATOM     70  C   UNL A   1      46.450  27.204  30.490  1.00  0.00     0.037 A 
BRANCH  57  71
ATOM     71  C   UNL A   1      43.859  32.681  31.714  1.00  0.00     0.058 A 
ATOM     72  C   UNL A   1      43.571  32.911  33.070  1.00  0.00     0.135 A 
ATOM     73  C   UNL A   1      44.352  33.757  30.960  1.00  0.00     0.135 A 
ATOM     74  F   UNL A   1      43.078  31.923  33.834  1.00  0.00    -0.206 F 
ATOM     75  C   UNL A   1      43.754  34.160  33.651  1.00  0.00     0.059 A 
ATOM     76  C   UNL A   1      44.570  35.010  31.528  1.00  0.00     0.059 A 
ATOM     77  F   UNL A   1      44.639  33.596  29.658  1.00  0.00    -0.206 F 
ATOM     78  C   UNL A   1      44.261  35.202  32.874  1.00  0.00     0.060 A 
BRANCH  78  79
ATOM     79  S   UNL A   1      44.526  36.806  33.659  1.00  0.00     0.124 S 
ATOM     80  O   UNL A   1      43.160  37.196  33.996  1.00  0.00    -0.237 OA
ATOM     81  O   UNL A   1      45.384  36.461  34.787  1.00  0.00    -0.237 OA
ATOM     82  O   UNL A   1      45.161  37.598  32.609  1.00  0.00    -0.744 OA
ENDBRANCH  78  79
ENDBRANCH  57  71
BRANCH  58  83
ATOM     83  C   UNL A   1      42.443  23.600  27.726  1.00  0.00     0.058 A 
ATOM     84  C   UNL A   1      42.262  22.469  28.537  1.00  0.00     0.135 A 
ATOM     85  C   UNL A   1      42.493  23.403  26.336  1.00  0.00     0.135 A 
ATOM     86  F   UNL A   1      42.207  22.603  29.871  1.00  0.00    -0.206 F 
ATOM     87  C   UNL A   1      42.186  21.189  27.999  1.00  0.00     0.059 A 
ATOM     88  C   UNL A   1      42.385  22.135  25.772  1.00  0.00     0.059 A 
ATOM     89  F   UNL A   1      42.641  24.451  25.512  1.00  0.00    -0.206 F 
ATOM     90  C   UNL A   1      42.257  21.031  26.614  1.00  0.00     0.060 A 
BRANCH  90  91
ATOM     91  S   UNL A   1      42.174  19.364  25.927  1.00  0.00     0.124 S 
ATOM     92  O   UNL A   1      43.012  19.496  24.740  1.00  0.00    -0.237 OA
ATOM     93  O   UNL A   1      42.725  18.557  27.011  1.00  0.00    -0.237 OA
ATOM     94  O   UNL A   1      40.749  19.175  25.675  1.00  0.00    -0.744 OA
ENDBRANCH  90  91
ENDBRANCH  58  83
BRANCH  70  95
ATOM     95  C   UNL A   1      47.833  26.729  30.846  1.00  0.00     0.058 A 
ATOM     96  C   UNL A   1      48.925  26.911  29.985  1.00  0.00     0.135 A 
ATOM     97  C   UNL A   1      48.074  26.130  32.093  1.00  0.00     0.135 A 
ATOM     98  F   UNL A   1      48.749  27.474  28.779  1.00  0.00    -0.206 F 
ATOM     99  C   UNL A   1      50.204  26.492  30.335  1.00  0.00     0.059 A 
ATOM    100  C   UNL A   1      49.350  25.732  32.479  1.00  0.00     0.059 A 
ATOM    101  F   UNL A   1      47.066  25.943  32.960  1.00  0.00    -0.206 F 
ATOM    102  C   UNL A   1      50.406  25.905  31.587  1.00  0.00     0.060 A 
BRANCH 102 103
ATOM    103  S   UNL A   1      52.078  25.399  32.043  1.00  0.00     0.124 S 
ATOM    104  O   UNL A   1      52.295  26.164  33.266  1.00  0.00    -0.237 OA
ATOM    105  O   UNL A   1      51.931  23.958  32.213  1.00  0.00    -0.237 OA
ATOM    106  O   UNL A   1      52.882  25.810  30.894  1.00  0.00    -0.744 OA
ENDBRANCH 102 103
ENDBRANCH  70  95
ENDBRANCH  44  45
ENDBRANCH  36  39
ENDBRANCH  34  35
ENDBRANCH  33  34
ENDBRANCH  32  33
ENDBRANCH   1  32
TORSDOF 21
ENDMDL
