MODEL 1
REMARK VINA RESULT:     -13.0      0.000      0.000
REMARK SMILES O=C(NCCCCCCNC(=O)c1ccc(-c2c3nc(c(-c4c(F)cc(S(=O)(=O)[O-])cc4F)c4ccc([nH]4)c(-c4c(F)cc(S(=O)(=O)[O-])cc4F)c4nc(c(-c5c(F)cc(S(=O)(=O)[O-])cc5F)c5ccc2[nH]5)C=C4)C=C3)cc1)C1=Cc2c(ccc(Cl)c2Sc2ccccc2)O[C@H]1C(F)(F)F
REMARK SMILES IDX 7 1 6 2 5 3 4 4 3 5 1 6 2 7 79 9 80 10 96 11 81 12 95 13
REMARK SMILES IDX 82 14 87 15 83 16 85 17 84 18 86 19 97 20 98 21 99 22 100 23
REMARK SMILES IDX 88 24 89 25 90 26 94 27 91 28 93 29 92 30 8 31 9 32 10 33
REMARK SMILES IDX 11 34 12 36 13 37 14 38 78 39 15 40 77 41 16 42 17 43 18 44
REMARK SMILES IDX 71 45 19 46 76 47 70 48 72 49 20 50 75 51 69 52 68 53 21 55
REMARK SMILES IDX 55 56 34 57 54 58 35 59 38 60 53 61 73 62 36 63 37 64 52 66
REMARK SMILES IDX 74 67 39 68 22 69 23 70 32 71 24 72 25 73 31 74 33 75 26 76
REMARK SMILES IDX 27 77 28 78 29 79 30 80 56 81 57 82 66 83 58 84 59 85 65 86
REMARK SMILES IDX 67 87 60 88 61 89 62 90 63 91 64 92 40 93 41 94 50 95 42 96
REMARK SMILES IDX 43 97 49 98 51 99 44 100 45 101 46 102 47 103 48 104
REMARK H PARENT 3 8 10 35 72 54 38 65
REMARK Flexibility Score: inf
ROOT
ATOM      1  C   UNL A   1      33.143  30.233  26.821  1.00  0.00     0.002 C 
ENDROOT
BRANCH   1   2
ATOM      2  C   UNL A   1      32.003  29.293  27.235  1.00  0.00     0.002 C 
BRANCH   2   3
ATOM      3  C   UNL A   1      31.545  28.270  26.195  1.00  0.00     0.021 C 
BRANCH   3   4
ATOM      4  C   UNL A   1      32.313  26.951  26.192  1.00  0.00     0.116 C 
BRANCH   4   5
ATOM      5  N   UNL A   1      31.630  25.890  26.915  1.00  0.00    -0.352 N 
ATOM      6  O   UNL A   1      30.648  23.880  27.201  1.00  0.00    -0.270 OA
ATOM      7  C   UNL A   1      31.264  24.647  26.476  1.00  0.00     0.251 C 
ATOM      8  H   UNL A   1      31.398  26.096  27.850  1.00  0.00     0.163 HD
BRANCH   7   9
ATOM      9  C   UNL A   1      31.627  24.231  25.107  1.00  0.00     0.067 C 
ATOM     10  C   UNL A   1      32.007  22.960  24.939  1.00  0.00     0.026 C 
ATOM     11  C   UNL A   1      31.982  25.275  24.098  1.00  0.00     0.314 C 
ATOM     12  C   UNL A   1      33.418  22.821  24.508  1.00  0.00     0.033 A 
ATOM     13  O   UNL A   1      33.290  25.059  23.493  1.00  0.00    -0.475 OA
ATOM     14  C   UNL A   1      33.983  23.917  23.819  1.00  0.00     0.129 A 
ATOM     15  C   UNL A   1      34.213  21.706  24.884  1.00  0.00     0.042 A 
ATOM     16  C   UNL A   1      35.338  23.932  23.515  1.00  0.00     0.049 A 
ATOM     17  C   UNL A   1      35.595  21.776  24.601  1.00  0.00     0.055 A 
ATOM     18  C   UNL A   1      36.146  22.875  23.923  1.00  0.00     0.025 A 
ATOM     19  Cl  UNL A   1      36.723  20.560  25.111  1.00  0.00    -0.083 Cl
BRANCH  11  20
ATOM     20  C   UNL A   1      30.909  25.364  23.002  1.00  0.00     0.429 C 
ATOM     21  F   UNL A   1      30.187  26.506  23.087  1.00  0.00    -0.167 F 
ATOM     22  F   UNL A   1      31.466  25.346  21.768  1.00  0.00    -0.167 F 
ATOM     23  F   UNL A   1      30.033  24.333  23.065  1.00  0.00    -0.167 F 
ENDBRANCH  11  20
BRANCH  15  24
ATOM     24  S   UNL A   1      33.580  20.290  25.832  1.00  0.00    -0.088 SA
BRANCH  24  25
ATOM     25  C   UNL A   1      33.461  18.956  24.658  1.00  0.00     0.012 A 
ATOM     26  C   UNL A   1      32.494  19.032  23.644  1.00  0.00     0.015 A 
ATOM     27  C   UNL A   1      34.363  17.886  24.664  1.00  0.00     0.015 A 
ATOM     28  C   UNL A   1      32.484  18.101  22.604  1.00  0.00     0.001 A 
ATOM     29  C   UNL A   1      34.343  16.948  23.628  1.00  0.00     0.001 A 
ATOM     30  C   UNL A   1      33.418  17.066  22.591  1.00  0.00     0.000 A 
ENDBRANCH  24  25
ENDBRANCH  15  24
ENDBRANCH   7   9
ENDBRANCH   4   5
ENDBRANCH   3   4
ENDBRANCH   2   3
ENDBRANCH   1   2
BRANCH   1  31
ATOM     31  C   UNL A   1      34.560  29.857  27.269  1.00  0.00     0.021 C 
BRANCH  31  32
ATOM     32  C   UNL A   1      35.368  30.942  27.979  1.00  0.00     0.116 C 
BRANCH  32  33
ATOM     33  N   UNL A   1      35.325  30.836  29.425  1.00  0.00    -0.352 N 
ATOM     34  C   UNL A   1      36.275  30.408  30.321  1.00  0.00     0.251 C 
ATOM     35  H   UNL A   1      34.473  31.115  29.833  1.00  0.00     0.163 HD
ATOM     36  O   UNL A   1      35.967  30.311  31.508  1.00  0.00    -0.269 OA
BRANCH  34  37
ATOM     37  C   UNL A   1      37.647  30.038  29.891  1.00  0.00     0.039 A 
ATOM     38  C   UNL A   1      38.584  29.717  30.880  1.00  0.00     0.014 A 
ATOM     39  C   UNL A   1      38.044  30.063  28.550  1.00  0.00     0.014 A 
ATOM     40  C   UNL A   1      39.893  29.372  30.528  1.00  0.00     0.010 A 
ATOM     41  C   UNL A   1      39.338  29.667  28.195  1.00  0.00     0.010 A 
ATOM     42  C   UNL A   1      40.277  29.319  29.179  1.00  0.00    -0.014 A 
BRANCH  42  43
ATOM     43  C   UNL A   1      41.653  28.914  28.788  1.00  0.00     0.031 A 
ATOM     44  C   UNL A   1      42.762  29.931  28.739  1.00  0.00     0.074 A 
ATOM     45  C   UNL A   1      41.900  27.638  28.430  1.00  0.00     0.049 A 
ATOM     46  N   UNL A   1      44.000  29.786  28.340  1.00  0.00    -0.248 NA
ATOM     47  C   UNL A   1      42.428  31.296  29.174  1.00  0.00     0.031 C 
ATOM     48  C   UNL A   1      40.910  26.561  28.399  1.00  0.00     0.029 A 
ATOM     49  N   UNL A   1      43.061  27.034  28.011  1.00  0.00    -0.354 N 
ATOM     50  C   UNL A   1      44.588  31.040  28.457  1.00  0.00     0.074 A 
ATOM     51  C   UNL A   1      43.561  31.942  28.934  1.00  0.00     0.031 C 
ATOM     52  C   UNL A   1      41.505  25.427  27.991  1.00  0.00     0.029 A 
ATOM     53  C   UNL A   1      42.912  25.701  27.708  1.00  0.00     0.049 A 
ATOM     54  H   UNL A   1      43.918  27.511  27.935  1.00  0.00     0.167 HD
ATOM     55  C   UNL A   1      45.869  31.405  28.204  1.00  0.00     0.037 A 
ATOM     56  C   UNL A   1      43.803  24.802  27.248  1.00  0.00     0.037 A 
ATOM     57  C   UNL A   1      46.901  30.504  27.764  1.00  0.00     0.049 A 
ATOM     58  C   UNL A   1      45.227  25.223  27.011  1.00  0.00     0.074 A 
ATOM     59  C   UNL A   1      48.236  30.777  27.516  1.00  0.00     0.029 A 
ATOM     60  N   UNL A   1      46.719  29.152  27.518  1.00  0.00    -0.354 N 
ATOM     61  N   UNL A   1      45.768  26.408  27.152  1.00  0.00    -0.248 NA
ATOM     62  C   UNL A   1      46.162  24.182  26.560  1.00  0.00     0.031 C 
ATOM     63  C   UNL A   1      48.858  29.593  27.105  1.00  0.00     0.029 A 
ATOM     64  C   UNL A   1      47.916  28.577  27.121  1.00  0.00     0.049 A 
ATOM     65  H   UNL A   1      45.866  28.670  27.612  1.00  0.00     0.167 HD
ATOM     66  C   UNL A   1      47.110  26.253  26.824  1.00  0.00     0.074 A 
ATOM     67  C   UNL A   1      47.302  24.857  26.488  1.00  0.00     0.031 C 
ATOM     68  C   UNL A   1      48.093  27.185  26.800  1.00  0.00     0.037 A 
BRANCH  55  69
ATOM     69  C   UNL A   1      46.227  32.850  28.406  1.00  0.00     0.058 A 
ATOM     70  C   UNL A   1      46.119  33.783  27.364  1.00  0.00     0.135 A 
ATOM     71  C   UNL A   1      46.655  33.313  29.661  1.00  0.00     0.135 A 
ATOM     72  F   UNL A   1      45.729  33.388  26.142  1.00  0.00    -0.206 F 
ATOM     73  C   UNL A   1      46.449  35.121  27.550  1.00  0.00     0.059 A 
ATOM     74  C   UNL A   1      46.971  34.651  29.875  1.00  0.00     0.059 A 
ATOM     75  F   UNL A   1      46.775  32.460  30.691  1.00  0.00    -0.206 F 
ATOM     76  C   UNL A   1      46.880  35.545  28.808  1.00  0.00     0.060 A 
BRANCH  76  77
ATOM     77  S   UNL A   1      47.313  37.282  29.039  1.00  0.00     0.124 S 
ATOM     78  O   UNL A   1      46.498  37.921  28.010  1.00  0.00    -0.237 OA
ATOM     79  O   UNL A   1      46.901  37.532  30.417  1.00  0.00    -0.237 OA
ATOM     80  O   UNL A   1      48.753  37.306  28.805  1.00  0.00    -0.744 OA
ENDBRANCH  76  77
ENDBRANCH  55  69
BRANCH  56  81
ATOM     81  C   UNL A   1      43.376  23.403  26.992  1.00  0.00     0.058 A 
ATOM     82  C   UNL A   1      43.191  22.935  25.683  1.00  0.00     0.135 A 
ATOM     83  C   UNL A   1      43.157  22.506  28.047  1.00  0.00     0.135 A 
ATOM     84  F   UNL A   1      43.384  23.760  24.643  1.00  0.00    -0.206 F 
ATOM     85  C   UNL A   1      42.790  21.629  25.427  1.00  0.00     0.059 A 
ATOM     86  C   UNL A   1      42.772  21.189  27.817  1.00  0.00     0.059 A 
ATOM     87  F   UNL A   1      43.336  22.904  29.317  1.00  0.00    -0.206 F 
ATOM     88  C   UNL A   1      42.581  20.763  26.502  1.00  0.00     0.060 A 
BRANCH  88  89
ATOM     89  S   UNL A   1      42.108  19.052  26.166  1.00  0.00     0.124 S 
ATOM     90  O   UNL A   1      40.700  19.201  25.820  1.00  0.00    -0.237 OA
ATOM     91  O   UNL A   1      43.002  18.691  25.070  1.00  0.00    -0.237 OA
ATOM     92  O   UNL A   1      42.382  18.379  27.433  1.00  0.00    -0.744 OA
ENDBRANCH  88  89
ENDBRANCH  56  81
BRANCH  68  93
ATOM     93  C   UNL A   1      49.471  26.723  26.424  1.00  0.00     0.058 A 
ATOM     94  C   UNL A   1      50.333  26.146  27.369  1.00  0.00     0.135 A 
ATOM     95  C   UNL A   1      49.915  26.815  25.095  1.00  0.00     0.135 A 
ATOM     96  F   UNL A   1      49.954  26.042  28.653  1.00  0.00    -0.206 F 
ATOM     97  C   UNL A   1      51.597  25.689  27.014  1.00  0.00     0.059 A 
ATOM     98  C   UNL A   1      51.170  26.350  24.714  1.00  0.00     0.059 A 
ATOM     99  F   UNL A   1      49.125  27.354  24.154  1.00  0.00    -0.206 F 
ATOM    100  C   UNL A   1      52.008  25.797  25.684  1.00  0.00     0.060 A 
BRANCH 100 101
ATOM    101  S   UNL A   1      53.637  25.169  25.220  1.00  0.00     0.124 S 
ATOM    102  O   UNL A   1      54.487  25.781  26.236  1.00  0.00    -0.237 OA
ATOM    103  O   UNL A   1      53.461  23.724  25.328  1.00  0.00    -0.237 OA
ATOM    104  O   UNL A   1      53.817  25.670  23.861  1.00  0.00    -0.744 OA
ENDBRANCH 100 101
ENDBRANCH  68  93
ENDBRANCH  42  43
ENDBRANCH  34  37
ENDBRANCH  32  33
ENDBRANCH  31  32
ENDBRANCH   1  31
TORSDOF 19
ENDMDL
MODEL 2
REMARK VINA RESULT:     -12.8      6.356     11.923
REMARK SMILES O=C(NCCCCCCNC(=O)c1ccc(-c2c3nc(c(-c4c(F)cc(S(=O)(=O)[O-])cc4F)c4ccc([nH]4)c(-c4c(F)cc(S(=O)(=O)[O-])cc4F)c4nc(c(-c5c(F)cc(S(=O)(=O)[O-])cc5F)c5ccc2[nH]5)C=C4)C=C3)cc1)C1=Cc2c(ccc(Cl)c2Sc2ccccc2)O[C@H]1C(F)(F)F
REMARK SMILES IDX 7 1 6 2 5 3 4 4 3 5 1 6 2 7 79 9 80 10 96 11 81 12 95 13
REMARK SMILES IDX 82 14 87 15 83 16 85 17 84 18 86 19 97 20 98 21 99 22 100 23
REMARK SMILES IDX 88 24 89 25 90 26 94 27 91 28 93 29 92 30 8 31 9 32 10 33
REMARK SMILES IDX 11 34 12 36 13 37 14 38 78 39 15 40 77 41 16 42 17 43 18 44
REMARK SMILES IDX 71 45 19 46 76 47 70 48 72 49 20 50 75 51 69 52 68 53 21 55
REMARK SMILES IDX 55 56 34 57 54 58 35 59 38 60 53 61 73 62 36 63 37 64 52 66
REMARK SMILES IDX 74 67 39 68 22 69 23 70 32 71 24 72 25 73 31 74 33 75 26 76
REMARK SMILES IDX 27 77 28 78 29 79 30 80 56 81 57 82 66 83 58 84 59 85 65 86
REMARK SMILES IDX 67 87 60 88 61 89 62 90 63 91 64 92 40 93 41 94 50 95 42 96
REMARK SMILES IDX 43 97 49 98 51 99 44 100 45 101 46 102 47 103 48 104
REMARK H PARENT 3 8 10 35 72 54 38 65
REMARK Flexibility Score: inf
ROOT
ATOM      1  C   UNL A   1      38.960  21.448  25.897  1.00  0.00     0.002 C 
ENDROOT
BRANCH   1   2
ATOM      2  C   UNL A   1      37.994  22.630  25.742  1.00  0.00     0.002 C 
BRANCH   2   3
ATOM      3  C   UNL A   1      36.846  22.453  24.746  1.00  0.00     0.021 C 
BRANCH   3   4
ATOM      4  C   UNL A   1      36.028  23.709  24.461  1.00  0.00     0.116 C 
BRANCH   4   5
ATOM      5  N   UNL A   1      35.168  24.095  25.567  1.00  0.00    -0.352 N 
ATOM      6  O   UNL A   1      33.282  24.822  26.567  1.00  0.00    -0.270 OA
ATOM      7  C   UNL A   1      33.856  24.481  25.543  1.00  0.00     0.251 C 
ATOM      8  H   UNL A   1      35.589  24.077  26.457  1.00  0.00     0.163 HD
BRANCH   7   9
ATOM      9  C   UNL A   1      33.128  24.478  24.259  1.00  0.00     0.067 C 
ATOM     10  C   UNL A   1      33.095  25.628  23.577  1.00  0.00     0.026 C 
ATOM     11  C   UNL A   1      32.127  23.402  23.992  1.00  0.00     0.314 C 
ATOM     12  C   UNL A   1      31.732  26.194  23.446  1.00  0.00     0.033 A 
ATOM     13  O   UNL A   1      30.808  23.923  23.654  1.00  0.00    -0.475 OA
ATOM     14  C   UNL A   1      30.656  25.283  23.519  1.00  0.00     0.129 A 
ATOM     15  C   UNL A   1      31.501  27.594  23.388  1.00  0.00     0.042 A 
ATOM     16  C   UNL A   1      29.346  25.744  23.558  1.00  0.00     0.049 A 
ATOM     17  C   UNL A   1      30.160  28.030  23.477  1.00  0.00     0.055 A 
ATOM     18  C   UNL A   1      29.100  27.114  23.559  1.00  0.00     0.025 A 
ATOM     19  Cl  UNL A   1      29.719  29.707  23.555  1.00  0.00    -0.083 Cl
BRANCH  11  20
ATOM     20  C   UNL A   1      32.617  22.462  22.880  1.00  0.00     0.429 C 
ATOM     21  F   UNL A   1      32.932  23.133  21.747  1.00  0.00    -0.167 F 
ATOM     22  F   UNL A   1      33.733  21.794  23.260  1.00  0.00    -0.167 F 
ATOM     23  F   UNL A   1      31.685  21.536  22.550  1.00  0.00    -0.167 F 
ENDBRANCH  11  20
BRANCH  15  24
ATOM     24  S   UNL A   1      32.829  28.835  23.362  1.00  0.00    -0.088 SA
BRANCH  24  25
ATOM     25  C   UNL A   1      33.143  29.221  25.073  1.00  0.00     0.012 A 
ATOM     26  C   UNL A   1      34.249  28.634  25.705  1.00  0.00     0.015 A 
ATOM     27  C   UNL A   1      32.374  30.160  25.769  1.00  0.00     0.015 A 
ATOM     28  C   UNL A   1      34.631  29.043  26.984  1.00  0.00     0.001 A 
ATOM     29  C   UNL A   1      32.752  30.559  27.054  1.00  0.00     0.001 A 
ATOM     30  C   UNL A   1      33.889  30.015  27.653  1.00  0.00     0.000 A 
ENDBRANCH  24  25
ENDBRANCH  15  24
ENDBRANCH   7   9
ENDBRANCH   4   5
ENDBRANCH   3   4
ENDBRANCH   2   3
ENDBRANCH   1   2
BRANCH   1  31
ATOM     31  C   UNL A   1      40.148  21.634  26.847  1.00  0.00     0.021 C 
BRANCH  31  32
ATOM     32  C   UNL A   1      40.535  23.072  27.191  1.00  0.00     0.116 C 
BRANCH  32  33
ATOM     33  N   UNL A   1      41.269  23.738  26.132  1.00  0.00    -0.352 N 
ATOM     34  C   UNL A   1      41.702  25.038  26.022  1.00  0.00     0.251 C 
ATOM     35  H   UNL A   1      41.493  23.164  25.364  1.00  0.00     0.163 HD
ATOM     36  O   UNL A   1      42.225  25.399  24.969  1.00  0.00    -0.269 OA
BRANCH  34  37
ATOM     37  C   UNL A   1      41.532  26.016  27.125  1.00  0.00     0.039 A 
ATOM     38  C   UNL A   1      40.484  25.814  28.031  1.00  0.00     0.014 A 
ATOM     39  C   UNL A   1      42.337  27.154  27.249  1.00  0.00     0.014 A 
ATOM     40  C   UNL A   1      40.275  26.713  29.082  1.00  0.00     0.010 A 
ATOM     41  C   UNL A   1      42.160  28.023  28.330  1.00  0.00     0.010 A 
ATOM     42  C   UNL A   1      41.127  27.814  29.257  1.00  0.00    -0.014 A 
BRANCH  42  43
ATOM     43  C   UNL A   1      40.942  28.755  30.393  1.00  0.00     0.031 A 
ATOM     44  C   UNL A   1      41.795  28.637  31.628  1.00  0.00     0.074 A 
ATOM     45  C   UNL A   1      39.973  29.692  30.337  1.00  0.00     0.049 A 
ATOM     46  N   UNL A   1      41.723  29.308  32.749  1.00  0.00    -0.248 NA
ATOM     47  C   UNL A   1      42.853  27.616  31.606  1.00  0.00     0.031 C 
ATOM     48  C   UNL A   1      39.054  29.892  29.216  1.00  0.00     0.029 A 
ATOM     49  N   UNL A   1      39.593  30.643  31.252  1.00  0.00    -0.354 N 
ATOM     50  C   UNL A   1      42.710  28.780  33.574  1.00  0.00     0.074 A 
ATOM     51  C   UNL A   1      43.346  27.711  32.834  1.00  0.00     0.031 C 
ATOM     52  C   UNL A   1      38.221  30.907  29.505  1.00  0.00     0.029 A 
ATOM     53  C   UNL A   1      38.531  31.413  30.840  1.00  0.00     0.049 A 
ATOM     54  H   UNL A   1      40.039  30.762  32.121  1.00  0.00     0.167 HD
ATOM     55  C   UNL A   1      43.064  29.158  34.826  1.00  0.00     0.037 A 
ATOM     56  C   UNL A   1      37.874  32.407  31.466  1.00  0.00     0.037 A 
ATOM     57  C   UNL A   1      42.458  30.244  35.551  1.00  0.00     0.049 A 
ATOM     58  C   UNL A   1      38.310  32.834  32.840  1.00  0.00     0.074 A 
ATOM     59  C   UNL A   1      42.775  30.723  36.812  1.00  0.00     0.029 A 
ATOM     60  N   UNL A   1      41.419  31.030  35.077  1.00  0.00    -0.354 N 
ATOM     61  N   UNL A   1      39.262  32.338  33.592  1.00  0.00    -0.248 NA
ATOM     62  C   UNL A   1      37.587  33.962  33.448  1.00  0.00     0.031 C 
ATOM     63  C   UNL A   1      41.916  31.788  37.105  1.00  0.00     0.029 A 
ATOM     64  C   UNL A   1      41.082  31.988  36.018  1.00  0.00     0.049 A 
ATOM     65  H   UNL A   1      40.984  30.922  34.200  1.00  0.00     0.167 HD
ATOM     66  C   UNL A   1      39.265  33.102  34.754  1.00  0.00     0.074 A 
ATOM     67  C   UNL A   1      38.228  34.102  34.601  1.00  0.00     0.031 C 
ATOM     68  C   UNL A   1      40.054  32.983  35.848  1.00  0.00     0.037 A 
BRANCH  55  69
ATOM     69  C   UNL A   1      44.170  28.391  35.492  1.00  0.00     0.058 A 
ATOM     70  C   UNL A   1      43.903  27.270  36.293  1.00  0.00     0.135 A 
ATOM     71  C   UNL A   1      45.511  28.761  35.306  1.00  0.00     0.135 A 
ATOM     72  F   UNL A   1      42.637  26.884  36.515  1.00  0.00    -0.206 F 
ATOM     73  C   UNL A   1      44.926  26.558  36.910  1.00  0.00     0.059 A 
ATOM     74  C   UNL A   1      46.552  28.050  35.896  1.00  0.00     0.059 A 
ATOM     75  F   UNL A   1      45.820  29.825  34.548  1.00  0.00    -0.206 F 
ATOM     76  C   UNL A   1      46.249  26.959  36.710  1.00  0.00     0.060 A 
BRANCH  76  77
ATOM     77  S   UNL A   1      47.569  26.032  37.519  1.00  0.00     0.124 S 
ATOM     78  O   UNL A   1      47.272  24.670  37.088  1.00  0.00    -0.237 OA
ATOM     79  O   UNL A   1      48.773  26.629  36.947  1.00  0.00    -0.237 OA
ATOM     80  O   UNL A   1      47.354  26.305  38.936  1.00  0.00    -0.744 OA
ENDBRANCH  76  77
ENDBRANCH  55  69
BRANCH  56  81
ATOM     81  C   UNL A   1      36.736  33.083  30.791  1.00  0.00     0.058 A 
ATOM     82  C   UNL A   1      35.413  32.812  31.168  1.00  0.00     0.135 A 
ATOM     83  C   UNL A   1      36.950  34.017  29.768  1.00  0.00     0.135 A 
ATOM     84  F   UNL A   1      35.162  31.921  32.139  1.00  0.00    -0.206 F 
ATOM     85  C   UNL A   1      34.337  33.434  30.544  1.00  0.00     0.059 A 
ATOM     86  C   UNL A   1      35.891  34.665  29.140  1.00  0.00     0.059 A 
ATOM     87  F   UNL A   1      38.200  34.320  29.383  1.00  0.00    -0.206 F 
ATOM     88  C   UNL A   1      34.587  34.358  29.529  1.00  0.00     0.060 A 
BRANCH  88  89
ATOM     89  S   UNL A   1      33.191  35.203  28.753  1.00  0.00     0.124 S 
ATOM     90  O   UNL A   1      32.553  34.109  28.031  1.00  0.00    -0.237 OA
ATOM     91  O   UNL A   1      32.461  35.721  29.906  1.00  0.00    -0.237 OA
ATOM     92  O   UNL A   1      33.837  36.218  27.926  1.00  0.00    -0.744 OA
ENDBRANCH  88  89
ENDBRANCH  56  81
BRANCH  68  93
ATOM     93  C   UNL A   1      39.847  33.972  36.957  1.00  0.00     0.058 A 
ATOM     94  C   UNL A   1      40.352  35.279  36.876  1.00  0.00     0.135 A 
ATOM     95  C   UNL A   1      39.096  33.624  38.092  1.00  0.00     0.135 A 
ATOM     96  F   UNL A   1      41.080  35.656  35.814  1.00  0.00    -0.206 F 
ATOM     97  C   UNL A   1      40.132  36.205  37.890  1.00  0.00     0.059 A 
ATOM     98  C   UNL A   1      38.851  34.540  39.110  1.00  0.00     0.059 A 
ATOM     99  F   UNL A   1      38.588  32.389  38.212  1.00  0.00    -0.206 F 
ATOM    100  C   UNL A   1      39.382  35.826  39.005  1.00  0.00     0.060 A 
BRANCH 100 101
ATOM    101  S   UNL A   1      39.069  37.043  40.302  1.00  0.00     0.124 S 
ATOM    102  O   UNL A   1      38.145  36.318  41.167  1.00  0.00    -0.237 OA
ATOM    103  O   UNL A   1      40.402  37.271  40.850  1.00  0.00    -0.237 OA
ATOM    104  O   UNL A   1      38.497  38.172  39.575  1.00  0.00    -0.744 OA
ENDBRANCH 100 101
ENDBRANCH  68  93
ENDBRANCH  42  43
ENDBRANCH  34  37
ENDBRANCH  32  33
ENDBRANCH  31  32
ENDBRANCH   1  31
TORSDOF 19
ENDMDL
MODEL 3
REMARK VINA RESULT:     -12.5      3.483      9.566
REMARK SMILES O=C(NCCCCCCNC(=O)c1ccc(-c2c3nc(c(-c4c(F)cc(S(=O)(=O)[O-])cc4F)c4ccc([nH]4)c(-c4c(F)cc(S(=O)(=O)[O-])cc4F)c4nc(c(-c5c(F)cc(S(=O)(=O)[O-])cc5F)c5ccc2[nH]5)C=C4)C=C3)cc1)C1=Cc2c(ccc(Cl)c2Sc2ccccc2)O[C@H]1C(F)(F)F
REMARK SMILES IDX 7 1 6 2 5 3 4 4 3 5 1 6 2 7 79 9 80 10 96 11 81 12 95 13
REMARK SMILES IDX 82 14 87 15 83 16 85 17 84 18 86 19 97 20 98 21 99 22 100 23
REMARK SMILES IDX 88 24 89 25 90 26 94 27 91 28 93 29 92 30 8 31 9 32 10 33
REMARK SMILES IDX 11 34 12 36 13 37 14 38 78 39 15 40 77 41 16 42 17 43 18 44
REMARK SMILES IDX 71 45 19 46 76 47 70 48 72 49 20 50 75 51 69 52 68 53 21 55
REMARK SMILES IDX 55 56 34 57 54 58 35 59 38 60 53 61 73 62 36 63 37 64 52 66
REMARK SMILES IDX 74 67 39 68 22 69 23 70 32 71 24 72 25 73 31 74 33 75 26 76
REMARK SMILES IDX 27 77 28 78 29 79 30 80 56 81 57 82 66 83 58 84 59 85 65 86
REMARK SMILES IDX 67 87 60 88 61 89 62 90 63 91 64 92 40 93 41 94 50 95 42 96
REMARK SMILES IDX 43 97 49 98 51 99 44 100 45 101 46 102 47 103 48 104
REMARK H PARENT 3 8 10 35 72 54 38 65
REMARK Flexibility Score: inf
ROOT
ATOM      1  C   UNL A   1      35.051  21.890  26.474  1.00  0.00     0.002 C 
ENDROOT
BRANCH   1   2
ATOM      2  C   UNL A   1      33.715  21.538  27.140  1.00  0.00     0.002 C 
BRANCH   2   3
ATOM      3  C   UNL A   1      32.641  22.627  27.145  1.00  0.00     0.021 C 
BRANCH   3   4
ATOM      4  C   UNL A   1      31.435  22.360  26.249  1.00  0.00     0.116 C 
BRANCH   4   5
ATOM      5  N   UNL A   1      30.314  23.245  26.522  1.00  0.00    -0.352 N 
ATOM      6  O   UNL A   1      29.133  25.166  26.473  1.00  0.00    -0.270 OA
ATOM      7  C   UNL A   1      30.120  24.538  26.118  1.00  0.00     0.251 C 
ATOM      8  H   UNL A   1      29.595  22.860  27.074  1.00  0.00     0.163 HD
BRANCH   7   9
ATOM      9  C   UNL A   1      31.118  25.174  25.236  1.00  0.00     0.067 C 
ATOM     10  C   UNL A   1      31.765  26.239  25.720  1.00  0.00     0.026 C 
ATOM     11  C   UNL A   1      31.056  24.921  23.765  1.00  0.00     0.314 C 
ATOM     12  C   UNL A   1      31.475  27.490  24.980  1.00  0.00     0.033 A 
ATOM     13  O   UNL A   1      30.976  26.147  22.979  1.00  0.00    -0.475 OA
ATOM     14  C   UNL A   1      31.068  27.352  23.635  1.00  0.00     0.129 A 
ATOM     15  C   UNL A   1      31.470  28.758  25.619  1.00  0.00     0.042 A 
ATOM     16  C   UNL A   1      30.632  28.457  22.917  1.00  0.00     0.049 A 
ATOM     17  C   UNL A   1      30.976  29.852  24.874  1.00  0.00     0.055 A 
ATOM     18  C   UNL A   1      30.565  29.700  23.541  1.00  0.00     0.025 A 
ATOM     19  Cl  UNL A   1      30.778  31.438  25.550  1.00  0.00    -0.083 Cl
BRANCH  11  20
ATOM     20  C   UNL A   1      32.259  24.083  23.303  1.00  0.00     0.429 C 
ATOM     21  F   UNL A   1      32.763  24.520  22.125  1.00  0.00    -0.167 F 
ATOM     22  F   UNL A   1      33.268  24.138  24.204  1.00  0.00    -0.167 F 
ATOM     23  F   UNL A   1      31.934  22.778  23.139  1.00  0.00    -0.167 F 
ENDBRANCH  11  20
BRANCH  15  24
ATOM     24  S   UNL A   1      31.911  29.010  27.364  1.00  0.00    -0.088 SA
BRANCH  24  25
ATOM     25  C   UNL A   1      33.528  29.758  27.335  1.00  0.00     0.012 A 
ATOM     26  C   UNL A   1      33.643  31.129  27.603  1.00  0.00     0.015 A 
ATOM     27  C   UNL A   1      34.688  28.998  27.144  1.00  0.00     0.015 A 
ATOM     28  C   UNL A   1      34.899  31.716  27.764  1.00  0.00     0.001 A 
ATOM     29  C   UNL A   1      35.945  29.590  27.294  1.00  0.00     0.001 A 
ATOM     30  C   UNL A   1      36.050  30.942  27.622  1.00  0.00     0.000 A 
ENDBRANCH  24  25
ENDBRANCH  15  24
ENDBRANCH   7   9
ENDBRANCH   4   5
ENDBRANCH   3   4
ENDBRANCH   2   3
ENDBRANCH   1   2
BRANCH   1  31
ATOM     31  C   UNL A   1      35.373  23.378  26.293  1.00  0.00     0.021 C 
BRANCH  31  32
ATOM     32  C   UNL A   1      36.755  23.721  25.739  1.00  0.00     0.116 C 
BRANCH  32  33
ATOM     33  N   UNL A   1      37.735  22.673  25.954  1.00  0.00    -0.352 N 
ATOM     34  C   UNL A   1      39.035  22.739  26.394  1.00  0.00     0.251 C 
ATOM     35  H   UNL A   1      37.417  21.764  25.750  1.00  0.00     0.163 HD
ATOM     36  O   UNL A   1      39.710  21.711  26.400  1.00  0.00    -0.269 OA
BRANCH  34  37
ATOM     37  C   UNL A   1      39.650  24.017  26.834  1.00  0.00     0.039 A 
ATOM     38  C   UNL A   1      39.778  24.248  28.209  1.00  0.00     0.014 A 
ATOM     39  C   UNL A   1      40.040  25.011  25.931  1.00  0.00     0.014 A 
ATOM     40  C   UNL A   1      40.341  25.441  28.676  1.00  0.00     0.010 A 
ATOM     41  C   UNL A   1      40.650  26.181  26.397  1.00  0.00     0.010 A 
ATOM     42  C   UNL A   1      40.806  26.409  27.773  1.00  0.00    -0.014 A 
BRANCH  42  43
ATOM     43  C   UNL A   1      41.443  27.664  28.254  1.00  0.00     0.031 A 
ATOM     44  C   UNL A   1      42.940  27.820  28.220  1.00  0.00     0.074 A 
ATOM     45  C   UNL A   1      40.679  28.650  28.766  1.00  0.00     0.049 A 
ATOM     46  N   UNL A   1      43.679  28.800  28.673  1.00  0.00    -0.248 NA
ATOM     47  C   UNL A   1      43.707  26.719  27.617  1.00  0.00     0.031 C 
ATOM     48  C   UNL A   1      39.221  28.613  28.891  1.00  0.00     0.029 A 
ATOM     49  N   UNL A   1      41.027  29.871  29.291  1.00  0.00    -0.354 N 
ATOM     50  C   UNL A   1      44.996  28.429  28.430  1.00  0.00     0.074 A 
ATOM     51  C   UNL A   1      44.956  27.118  27.817  1.00  0.00     0.031 C 
ATOM     52  C   UNL A   1      38.798  29.761  29.447  1.00  0.00     0.029 A 
ATOM     53  C   UNL A   1      39.954  30.603  29.742  1.00  0.00     0.049 A 
ATOM     54  H   UNL A   1      41.956  30.191  29.339  1.00  0.00     0.167 HD
ATOM     55  C   UNL A   1      46.135  29.121  28.680  1.00  0.00     0.037 A 
ATOM     56  C   UNL A   1      39.905  31.812  30.334  1.00  0.00     0.037 A 
ATOM     57  C   UNL A   1      46.177  30.439  29.256  1.00  0.00     0.049 A 
ATOM     58  C   UNL A   1      41.179  32.577  30.566  1.00  0.00     0.074 A 
ATOM     59  C   UNL A   1      47.282  31.233  29.514  1.00  0.00     0.029 A 
ATOM     60  N   UNL A   1      45.065  31.166  29.653  1.00  0.00    -0.354 N 
ATOM     61  N   UNL A   1      42.412  32.218  30.306  1.00  0.00    -0.248 NA
ATOM     62  C   UNL A   1      41.053  33.913  31.166  1.00  0.00     0.031 C 
ATOM     63  C   UNL A   1      46.839  32.433  30.081  1.00  0.00     0.029 A 
ATOM     64  C   UNL A   1      45.456  32.397  30.153  1.00  0.00     0.049 A 
ATOM     65  H   UNL A   1      44.133  30.853  29.587  1.00  0.00     0.167 HD
ATOM     66  C   UNL A   1      43.209  33.289  30.693  1.00  0.00     0.074 A 
ATOM     67  C   UNL A   1      42.318  34.315  31.196  1.00  0.00     0.031 C 
ATOM     68  C   UNL A   1      44.557  33.411  30.640  1.00  0.00     0.037 A 
BRANCH  55  69
ATOM     69  C   UNL A   1      47.436  28.462  28.322  1.00  0.00     0.058 A 
ATOM     70  C   UNL A   1      48.157  27.709  29.261  1.00  0.00     0.135 A 
ATOM     71  C   UNL A   1      47.954  28.558  27.021  1.00  0.00     0.135 A 
ATOM     72  F   UNL A   1      47.712  27.598  30.523  1.00  0.00    -0.206 F 
ATOM     73  C   UNL A   1      49.361  27.097  28.931  1.00  0.00     0.059 A 
ATOM     74  C   UNL A   1      49.147  27.937  26.663  1.00  0.00     0.059 A 
ATOM     75  F   UNL A   1      47.302  29.267  26.085  1.00  0.00    -0.206 F 
ATOM     76  C   UNL A   1      49.852  27.221  27.630  1.00  0.00     0.060 A 
BRANCH  76  77
ATOM     77  S   UNL A   1      51.418  26.428  27.212  1.00  0.00     0.124 S 
ATOM     78  O   UNL A   1      51.015  25.029  27.106  1.00  0.00    -0.237 OA
ATOM     79  O   UNL A   1      51.779  27.080  25.956  1.00  0.00    -0.237 OA
ATOM     80  O   UNL A   1      52.274  26.752  28.349  1.00  0.00    -0.744 OA
ENDBRANCH  76  77
ENDBRANCH  55  69
BRANCH  56  81
ATOM     81  C   UNL A   1      38.596  32.386  30.738  1.00  0.00     0.058 A 
ATOM     82  C   UNL A   1      37.867  33.201  29.861  1.00  0.00     0.135 A 
ATOM     83  C   UNL A   1      38.045  32.120  31.999  1.00  0.00     0.135 A 
ATOM     84  F   UNL A   1      38.359  33.486  28.646  1.00  0.00    -0.206 F 
ATOM     85  C   UNL A   1      36.641  33.747  30.225  1.00  0.00     0.059 A 
ATOM     86  C   UNL A   1      36.812  32.639  32.380  1.00  0.00     0.059 A 
ATOM     87  F   UNL A   1      38.699  31.331  32.867  1.00  0.00    -0.206 F 
ATOM     88  C   UNL A   1      36.122  33.462  31.488  1.00  0.00     0.060 A 
BRANCH  88  89
ATOM     89  S   UNL A   1      34.506  34.130  31.941  1.00  0.00     0.124 S 
ATOM     90  O   UNL A   1      33.904  34.348  30.632  1.00  0.00    -0.237 OA
ATOM     91  O   UNL A   1      33.934  33.049  32.737  1.00  0.00    -0.237 OA
ATOM     92  O   UNL A   1      34.846  35.336  32.692  1.00  0.00    -0.744 OA
ENDBRANCH  88  89
ENDBRANCH  56  81
BRANCH  68  93
ATOM     93  C   UNL A   1      45.151  34.705  31.112  1.00  0.00     0.058 A 
ATOM     94  C   UNL A   1      45.558  34.881  32.443  1.00  0.00     0.135 A 
ATOM     95  C   UNL A   1      45.358  35.764  30.214  1.00  0.00     0.135 A 
ATOM     96  F   UNL A   1      45.376  33.899  33.340  1.00  0.00    -0.206 F 
ATOM     97  C   UNL A   1      46.138  36.070  32.873  1.00  0.00     0.059 A 
ATOM     98  C   UNL A   1      45.951  36.956  30.619  1.00  0.00     0.059 A 
ATOM     99  F   UNL A   1      44.991  35.642  28.929  1.00  0.00    -0.206 F 
ATOM    100  C   UNL A   1      46.329  37.103  31.954  1.00  0.00     0.060 A 
BRANCH 100 101
ATOM    101  S   UNL A   1      47.115  38.631  32.509  1.00  0.00     0.124 S 
ATOM    102  O   UNL A   1      48.521  38.244  32.537  1.00  0.00    -0.237 OA
ATOM    103  O   UNL A   1      46.740  39.578  31.462  1.00  0.00    -0.237 OA
ATOM    104  O   UNL A   1      46.501  38.873  33.811  1.00  0.00    -0.744 OA
ENDBRANCH 100 101
ENDBRANCH  68  93
ENDBRANCH  42  43
ENDBRANCH  34  37
ENDBRANCH  32  33
ENDBRANCH  31  32
ENDBRANCH   1  31
TORSDOF 19
ENDMDL
