MODEL 1
REMARK VINA RESULT:     -14.3      0.000      0.000
REMARK SMILES COc1ccc(-c2[nH]nc3nc(-c4ccc(C(F)(F)F)cc4)cc(C(=O)NCCCCCCNC(=O)c4ccc(-c5c6nc(c(-c7c(F)cc(S(=O)(=O)[O-])cc7F)c7ccc([nH]7)c(-c7c(F)cc(S(=O)(=O)[O-])cc7F)c7nc(c(-c8c(F)cc(S(=O)(=O)[O-])cc8F)c8ccc5[nH]8)C=C7)C=C6)cc4)c23)cc1
REMARK SMILES IDX 31 1 30 2 29 3 28 4 27 5 25 6 26 7 24 9 7 10 8 11 103 12
REMARK SMILES IDX 9 13 10 15 11 16 23 17 12 18 6 19 3 20 4 21 105 22 5 23
REMARK SMILES IDX 104 24 2 25 1 26 13 27 14 28 22 29 15 30 21 31 16 32 17 33
REMARK SMILES IDX 18 34 19 35 20 36 32 37 33 38 34 39 35 40 36 42 37 43 38 44
REMARK SMILES IDX 102 45 39 46 101 47 40 48 41 49 42 50 95 51 43 52 100 53
REMARK SMILES IDX 94 54 96 55 44 56 99 57 93 58 92 59 45 61 79 62 58 63 78 64
REMARK SMILES IDX 59 65 62 66 77 67 97 68 60 69 61 70 76 72 98 73 63 74 46 75
REMARK SMILES IDX 47 76 56 77 48 78 49 79 55 80 57 81 50 82 51 83 52 84 53 85
REMARK SMILES IDX 54 86 80 87 81 88 90 89 82 90 83 91 89 92 91 93 84 94 85 95
REMARK SMILES IDX 86 96 87 97 88 98 64 99 65 100 74 101 66 102 67 103 73 104
REMARK SMILES IDX 75 105 68 106 69 107 70 108 71 109 72 110
REMARK H PARENT 27 8 8 14 34 41 96 60 62 71
REMARK Flexibility Score: inf
ROOT
ATOM      1  C   UNL A   1      35.348  22.800  24.920  1.00  0.00     0.002 C 
ENDROOT
BRANCH   1   2
ATOM      2  C   UNL A   1      34.746  23.971  25.719  1.00  0.00     0.002 C 
BRANCH   2   3
ATOM      3  C   UNL A   1      34.421  25.232  24.907  1.00  0.00     0.021 C 
BRANCH   3   4
ATOM      4  C   UNL A   1      34.742  25.088  23.421  1.00  0.00     0.116 C 
BRANCH   4   5
ATOM      5  N   UNL A   1      33.563  25.323  22.616  1.00  0.00    -0.352 N 
ATOM      6  C   UNL A   1      32.259  24.910  22.634  1.00  0.00     0.252 C 
ATOM      7  O   UNL A   1      31.549  25.501  21.825  1.00  0.00    -0.269 OA
ATOM      8  H   UNL A   1      33.746  25.932  21.864  1.00  0.00     0.163 HD
BRANCH   6   9
ATOM      9  C   UNL A   1      31.689  23.935  23.596  1.00  0.00     0.055 A 
ATOM     10  C   UNL A   1      30.393  25.414  25.203  1.00  0.00     0.075 A 
ATOM     11  N   UNL A   1      29.876  25.119  26.442  1.00  0.00    -0.275 N 
ATOM     12  C   UNL A   1      30.999  24.238  24.787  1.00  0.00     0.059 A 
ATOM     13  N   UNL A   1      30.099  23.870  26.873  1.00  0.00    -0.154 NA
ATOM     14  H   UNL A   1      29.377  25.779  26.976  1.00  0.00     0.190 HD
ATOM     15  C   UNL A   1      30.734  23.297  25.851  1.00  0.00     0.182 A 
ATOM     16  N   UNL A   1      31.127  21.999  25.803  1.00  0.00    -0.226 NA
ATOM     17  C   UNL A   1      31.877  22.549  23.517  1.00  0.00     0.043 A 
ATOM     18  C   UNL A   1      31.675  21.667  24.608  1.00  0.00     0.074 A 
BRANCH  10  19
ATOM     19  C   UNL A   1      30.132  26.715  24.599  1.00  0.00     0.001 A 
ATOM     20  C   UNL A   1      29.694  29.189  23.326  1.00  0.00     0.118 A 
ATOM     21  C   UNL A   1      30.824  28.990  24.124  1.00  0.00     0.047 A 
ATOM     22  C   UNL A   1      28.774  28.152  23.177  1.00  0.00     0.047 A 
ATOM     23  C   UNL A   1      31.039  27.766  24.765  1.00  0.00     0.014 A 
ATOM     24  C   UNL A   1      28.988  26.924  23.818  1.00  0.00     0.014 A 
BRANCH  20  25
ATOM     25  O   UNL A   1      29.629  30.417  22.724  1.00  0.00    -0.497 OA
ATOM     26  C   UNL A   1      28.526  31.241  23.081  1.00  0.00     0.278 C 
ENDBRANCH  20  25
ENDBRANCH  10  19
BRANCH  18  27
ATOM     27  C   UNL A   1      32.223  20.304  24.493  1.00  0.00     0.000 A 
ATOM     28  C   UNL A   1      32.185  19.586  23.293  1.00  0.00     0.011 A 
ATOM     29  C   UNL A   1      32.883  19.723  25.595  1.00  0.00     0.011 A 
ATOM     30  C   UNL A   1      32.825  18.344  23.184  1.00  0.00     0.014 A 
ATOM     31  C   UNL A   1      33.518  18.483  25.490  1.00  0.00     0.014 A 
ATOM     32  C   UNL A   1      33.506  17.784  24.277  1.00  0.00     0.056 A 
BRANCH  32  33
ATOM     33  C   UNL A   1      34.214  16.457  24.141  1.00  0.00     0.416 C 
ATOM     34  F   UNL A   1      33.488  15.420  24.640  1.00  0.00    -0.166 F 
ATOM     35  F   UNL A   1      34.499  16.143  22.848  1.00  0.00    -0.166 F 
ATOM     36  F   UNL A   1      35.410  16.419  24.800  1.00  0.00    -0.166 F 
ENDBRANCH  32  33
ENDBRANCH  18  27
ENDBRANCH   6   9
ENDBRANCH   4   5
ENDBRANCH   3   4
ENDBRANCH   2   3
ENDBRANCH   1   2
BRANCH   1  37
ATOM     37  C   UNL A   1      36.467  22.004  25.611  1.00  0.00     0.021 C 
BRANCH  37  38
ATOM     38  C   UNL A   1      37.749  22.795  25.804  1.00  0.00     0.116 C 
BRANCH  38  39
ATOM     39  N   UNL A   1      38.791  22.001  26.458  1.00  0.00    -0.352 N 
ATOM     40  C   UNL A   1      40.008  22.423  26.966  1.00  0.00     0.251 C 
ATOM     41  H   UNL A   1      38.601  21.040  26.548  1.00  0.00     0.163 HD
ATOM     42  O   UNL A   1      40.923  21.639  27.136  1.00  0.00    -0.269 OA
BRANCH  40  43
ATOM     43  C   UNL A   1      40.156  23.850  27.305  1.00  0.00     0.039 A 
ATOM     44  C   UNL A   1      39.094  24.753  27.213  1.00  0.00     0.014 A 
ATOM     45  C   UNL A   1      41.395  24.252  27.783  1.00  0.00     0.014 A 
ATOM     46  C   UNL A   1      39.281  26.050  27.689  1.00  0.00     0.010 A 
ATOM     47  C   UNL A   1      41.502  25.438  28.449  1.00  0.00     0.010 A 
ATOM     48  C   UNL A   1      40.489  26.378  28.325  1.00  0.00    -0.014 A 
BRANCH  48  49
ATOM     49  C   UNL A   1      40.715  27.678  28.941  1.00  0.00     0.031 A 
ATOM     50  C   UNL A   1      41.823  28.465  28.345  1.00  0.00     0.074 A 
ATOM     51  C   UNL A   1      39.837  28.221  29.815  1.00  0.00     0.049 A 
ATOM     52  N   UNL A   1      42.984  28.705  28.858  1.00  0.00    -0.248 NA
ATOM     53  C   UNL A   1      41.690  28.904  26.948  1.00  0.00     0.031 C 
ATOM     54  C   UNL A   1      38.543  27.684  30.265  1.00  0.00     0.029 A 
ATOM     55  N   UNL A   1      39.871  29.440  30.416  1.00  0.00    -0.354 N 
ATOM     56  C   UNL A   1      43.622  29.555  27.960  1.00  0.00     0.074 A 
ATOM     57  C   UNL A   1      42.891  29.445  26.726  1.00  0.00     0.031 C 
ATOM     58  C   UNL A   1      37.826  28.654  30.870  1.00  0.00     0.029 A 
ATOM     59  C   UNL A   1      38.681  29.813  31.030  1.00  0.00     0.049 A 
ATOM     60  H   UNL A   1      40.673  30.010  30.417  1.00  0.00     0.167 HD
ATOM     61  C   UNL A   1      44.508  30.495  28.397  1.00  0.00     0.037 A 
ATOM     62  C   UNL A   1      38.415  30.990  31.646  1.00  0.00     0.037 A 
ATOM     63  C   UNL A   1      44.912  30.223  29.758  1.00  0.00     0.049 A 
ATOM     64  C   UNL A   1      39.727  31.561  32.035  1.00  0.00     0.074 A 
ATOM     65  C   UNL A   1      45.542  29.181  30.409  1.00  0.00     0.029 A 
ATOM     66  N   UNL A   1      44.305  30.969  30.739  1.00  0.00    -0.354 N 
ATOM     67  N   UNL A   1      40.533  31.002  32.898  1.00  0.00    -0.248 NA
ATOM     68  C   UNL A   1      40.346  32.526  31.142  1.00  0.00     0.031 C 
ATOM     69  C   UNL A   1      44.915  29.106  31.690  1.00  0.00     0.029 A 
ATOM     70  C   UNL A   1      43.979  30.139  31.780  1.00  0.00     0.049 A 
ATOM     71  H   UNL A   1      44.133  31.937  30.702  1.00  0.00     0.167 HD
ATOM     72  C   UNL A   1      41.805  31.210  32.383  1.00  0.00     0.074 A 
ATOM     73  C   UNL A   1      41.633  32.254  31.377  1.00  0.00     0.031 C 
ATOM     74  C   UNL A   1      42.815  30.322  32.625  1.00  0.00     0.037 A 
BRANCH  61  75
ATOM     75  C   UNL A   1      44.674  31.874  27.783  1.00  0.00     0.058 A 
ATOM     76  C   UNL A   1      45.853  32.157  27.061  1.00  0.00     0.135 A 
ATOM     77  C   UNL A   1      43.891  33.001  28.123  1.00  0.00     0.135 A 
ATOM     78  F   UNL A   1      46.671  31.167  26.671  1.00  0.00    -0.206 F 
ATOM     79  C   UNL A   1      46.275  33.462  26.796  1.00  0.00     0.059 A 
ATOM     80  C   UNL A   1      44.266  34.305  27.821  1.00  0.00     0.059 A 
ATOM     81  F   UNL A   1      42.774  32.912  28.854  1.00  0.00    -0.206 F 
ATOM     82  C   UNL A   1      45.483  34.530  27.204  1.00  0.00     0.060 A 
BRANCH  82  83
ATOM     83  S   UNL A   1      46.087  36.213  26.994  1.00  0.00     0.124 S 
ATOM     84  O   UNL A   1      46.849  36.399  28.222  1.00  0.00    -0.237 OA
ATOM     85  O   UNL A   1      46.864  36.102  25.765  1.00  0.00    -0.237 OA
ATOM     86  O   UNL A   1      44.859  36.996  26.886  1.00  0.00    -0.744 OA
ENDBRANCH  82  83
ENDBRANCH  61  75
BRANCH  62  87
ATOM     87  C   UNL A   1      37.157  31.778  31.602  1.00  0.00     0.058 A 
ATOM     88  C   UNL A   1      36.387  31.985  32.759  1.00  0.00     0.135 A 
ATOM     89  C   UNL A   1      36.841  32.587  30.491  1.00  0.00     0.135 A 
ATOM     90  F   UNL A   1      36.631  31.268  33.868  1.00  0.00    -0.206 F 
ATOM     91  C   UNL A   1      35.400  32.975  32.831  1.00  0.00     0.059 A 
ATOM     92  C   UNL A   1      35.858  33.574  30.536  1.00  0.00     0.059 A 
ATOM     93  F   UNL A   1      37.545  32.501  29.351  1.00  0.00    -0.206 F 
ATOM     94  C   UNL A   1      35.158  33.781  31.720  1.00  0.00     0.060 A 
BRANCH  94  95
ATOM     95  S   UNL A   1      34.011  35.172  31.860  1.00  0.00     0.124 S 
ATOM     96  O   UNL A   1      33.730  35.474  30.462  1.00  0.00    -0.237 OA
ATOM     97  O   UNL A   1      32.911  34.589  32.621  1.00  0.00    -0.237 OA
ATOM     98  O   UNL A   1      34.791  36.182  32.572  1.00  0.00    -0.744 OA
ENDBRANCH  94  95
ENDBRANCH  62  87
BRANCH  74  99
ATOM     99  C   UNL A   1      42.615  29.313  33.733  1.00  0.00     0.058 A 
ATOM    100  C   UNL A   1      42.114  28.013  33.552  1.00  0.00     0.135 A 
ATOM    101  C   UNL A   1      43.087  29.640  35.014  1.00  0.00     0.135 A 
ATOM    102  F   UNL A   1      41.729  27.584  32.344  1.00  0.00    -0.206 F 
ATOM    103  C   UNL A   1      42.055  27.090  34.599  1.00  0.00     0.059 A 
ATOM    104  C   UNL A   1      43.063  28.728  36.066  1.00  0.00     0.059 A 
ATOM    105  F   UNL A   1      43.630  30.847  35.240  1.00  0.00    -0.206 F 
ATOM    106  C   UNL A   1      42.536  27.455  35.855  1.00  0.00     0.060 A 
BRANCH 106 107
ATOM    107  S   UNL A   1      42.537  26.235  37.188  1.00  0.00     0.124 S 
ATOM    108  O   UNL A   1      43.602  26.730  38.055  1.00  0.00    -0.237 OA
ATOM    109  O   UNL A   1      41.183  26.345  37.721  1.00  0.00    -0.237 OA
ATOM    110  O   UNL A   1      42.826  24.979  36.499  1.00  0.00    -0.744 OA
ENDBRANCH 106 107
ENDBRANCH  74  99
ENDBRANCH  48  49
ENDBRANCH  40  43
ENDBRANCH  38  39
ENDBRANCH  37  38
ENDBRANCH   1  37
TORSDOF 20
ENDMDL
MODEL 2
REMARK VINA RESULT:     -14.1      3.010      5.441
REMARK SMILES COc1ccc(-c2[nH]nc3nc(-c4ccc(C(F)(F)F)cc4)cc(C(=O)NCCCCCCNC(=O)c4ccc(-c5c6nc(c(-c7c(F)cc(S(=O)(=O)[O-])cc7F)c7ccc([nH]7)c(-c7c(F)cc(S(=O)(=O)[O-])cc7F)c7nc(c(-c8c(F)cc(S(=O)(=O)[O-])cc8F)c8ccc5[nH]8)C=C7)C=C6)cc4)c23)cc1
REMARK SMILES IDX 31 1 30 2 29 3 28 4 27 5 25 6 26 7 24 9 7 10 8 11 103 12
REMARK SMILES IDX 9 13 10 15 11 16 23 17 12 18 6 19 3 20 4 21 105 22 5 23
REMARK SMILES IDX 104 24 2 25 1 26 13 27 14 28 22 29 15 30 21 31 16 32 17 33
REMARK SMILES IDX 18 34 19 35 20 36 32 37 33 38 34 39 35 40 36 42 37 43 38 44
REMARK SMILES IDX 102 45 39 46 101 47 40 48 41 49 42 50 95 51 43 52 100 53
REMARK SMILES IDX 94 54 96 55 44 56 99 57 93 58 92 59 45 61 79 62 58 63 78 64
REMARK SMILES IDX 59 65 62 66 77 67 97 68 60 69 61 70 76 72 98 73 63 74 46 75
REMARK SMILES IDX 47 76 56 77 48 78 49 79 55 80 57 81 50 82 51 83 52 84 53 85
REMARK SMILES IDX 54 86 80 87 81 88 90 89 82 90 83 91 89 92 91 93 84 94 85 95
REMARK SMILES IDX 86 96 87 97 88 98 64 99 65 100 74 101 66 102 67 103 73 104
REMARK SMILES IDX 75 105 68 106 69 107 70 108 71 109 72 110
REMARK H PARENT 27 8 8 14 34 41 96 60 62 71
REMARK Flexibility Score: inf
ROOT
ATOM      1  C   UNL A   1      36.291  24.085  25.637  1.00  0.00     0.002 C 
ENDROOT
BRANCH   1   2
ATOM      2  C   UNL A   1      34.751  24.131  25.647  1.00  0.00     0.002 C 
BRANCH   2   3
ATOM      3  C   UNL A   1      34.073  23.402  26.815  1.00  0.00     0.021 C 
BRANCH   3   4
ATOM      4  C   UNL A   1      32.717  23.998  27.189  1.00  0.00     0.116 C 
BRANCH   4   5
ATOM      5  N   UNL A   1      31.639  23.144  26.740  1.00  0.00    -0.352 N 
ATOM      6  C   UNL A   1      30.899  23.009  25.598  1.00  0.00     0.252 C 
ATOM      7  O   UNL A   1      30.173  22.019  25.602  1.00  0.00    -0.269 OA
ATOM      8  H   UNL A   1      31.369  22.498  27.433  1.00  0.00     0.163 HD
BRANCH   6   9
ATOM      9  C   UNL A   1      31.015  23.879  24.402  1.00  0.00     0.055 A 
ATOM     10  C   UNL A   1      32.718  22.655  22.971  1.00  0.00     0.075 A 
ATOM     11  N   UNL A   1      33.424  23.098  21.877  1.00  0.00    -0.275 N 
ATOM     12  C   UNL A   1      31.942  23.740  23.350  1.00  0.00     0.059 A 
ATOM     13  N   UNL A   1      33.189  24.367  21.521  1.00  0.00    -0.154 NA
ATOM     14  H   UNL A   1      34.057  22.522  21.391  1.00  0.00     0.190 HD
ATOM     15  C   UNL A   1      32.243  24.760  22.373  1.00  0.00     0.182 A 
ATOM     16  N   UNL A   1      31.643  25.977  22.368  1.00  0.00    -0.226 NA
ATOM     17  C   UNL A   1      30.286  25.061  24.215  1.00  0.00     0.043 A 
ATOM     18  C   UNL A   1      30.657  26.073  23.294  1.00  0.00     0.074 A 
BRANCH  10  19
ATOM     19  C   UNL A   1      32.829  21.263  23.392  1.00  0.00     0.001 A 
ATOM     20  C   UNL A   1      32.941  18.594  24.284  1.00  0.00     0.118 A 
ATOM     21  C   UNL A   1      33.669  19.593  24.936  1.00  0.00     0.047 A 
ATOM     22  C   UNL A   1      32.168  18.929  23.173  1.00  0.00     0.047 A 
ATOM     23  C   UNL A   1      33.623  20.917  24.490  1.00  0.00     0.014 A 
ATOM     24  C   UNL A   1      32.119  20.255  22.724  1.00  0.00     0.014 A 
BRANCH  20  25
ATOM     25  O   UNL A   1      33.043  17.352  24.850  1.00  0.00    -0.497 OA
ATOM     26  C   UNL A   1      33.610  16.329  24.040  1.00  0.00     0.278 C 
ENDBRANCH  20  25
ENDBRANCH  10  19
BRANCH  18  27
ATOM     27  C   UNL A   1      30.011  27.391  23.433  1.00  0.00     0.000 A 
ATOM     28  C   UNL A   1      30.726  28.533  23.810  1.00  0.00     0.011 A 
ATOM     29  C   UNL A   1      28.650  27.538  23.098  1.00  0.00     0.011 A 
ATOM     30  C   UNL A   1      30.110  29.792  23.811  1.00  0.00     0.014 A 
ATOM     31  C   UNL A   1      28.033  28.792  23.103  1.00  0.00     0.014 A 
ATOM     32  C   UNL A   1      28.761  29.936  23.448  1.00  0.00     0.056 A 
BRANCH  32  33
ATOM     33  C   UNL A   1      28.114  31.301  23.428  1.00  0.00     0.416 C 
ATOM     34  F   UNL A   1      28.955  32.286  23.845  1.00  0.00    -0.166 F 
ATOM     35  F   UNL A   1      27.682  31.660  22.190  1.00  0.00    -0.166 F 
ATOM     36  F   UNL A   1      27.018  31.385  24.239  1.00  0.00    -0.166 F 
ENDBRANCH  32  33
ENDBRANCH  18  27
ENDBRANCH   6   9
ENDBRANCH   4   5
ENDBRANCH   3   4
ENDBRANCH   2   3
ENDBRANCH   1   2
BRANCH   1  37
ATOM     37  C   UNL A   1      36.935  22.708  25.864  1.00  0.00     0.021 C 
BRANCH  37  38
ATOM     38  C   UNL A   1      38.408  22.656  25.498  1.00  0.00     0.116 C 
BRANCH  38  39
ATOM     39  N   UNL A   1      39.175  21.823  26.426  1.00  0.00    -0.352 N 
ATOM     40  C   UNL A   1      40.256  22.178  27.215  1.00  0.00     0.251 C 
ATOM     41  H   UNL A   1      38.884  20.886  26.500  1.00  0.00     0.163 HD
ATOM     42  O   UNL A   1      41.025  21.337  27.643  1.00  0.00    -0.269 OA
BRANCH  40  43
ATOM     43  C   UNL A   1      40.440  23.607  27.529  1.00  0.00     0.039 A 
ATOM     44  C   UNL A   1      39.490  24.574  27.192  1.00  0.00     0.014 A 
ATOM     45  C   UNL A   1      41.584  23.947  28.237  1.00  0.00     0.014 A 
ATOM     46  C   UNL A   1      39.675  25.876  27.652  1.00  0.00     0.010 A 
ATOM     47  C   UNL A   1      41.644  25.154  28.871  1.00  0.00     0.010 A 
ATOM     48  C   UNL A   1      40.751  26.153  28.510  1.00  0.00    -0.014 A 
BRANCH  48  49
ATOM     49  C   UNL A   1      40.945  27.463  29.116  1.00  0.00     0.031 A 
ATOM     50  C   UNL A   1      41.999  28.292  28.480  1.00  0.00     0.074 A 
ATOM     51  C   UNL A   1      40.077  27.973  30.019  1.00  0.00     0.049 A 
ATOM     52  N   UNL A   1      43.167  28.581  28.951  1.00  0.00    -0.248 NA
ATOM     53  C   UNL A   1      41.799  28.721  27.087  1.00  0.00     0.031 C 
ATOM     54  C   UNL A   1      38.822  27.385  30.515  1.00  0.00     0.029 A 
ATOM     55  N   UNL A   1      40.083  29.194  30.616  1.00  0.00    -0.354 N 
ATOM     56  C   UNL A   1      43.738  29.453  28.029  1.00  0.00     0.074 A 
ATOM     57  C   UNL A   1      42.969  29.309  26.822  1.00  0.00     0.031 C 
ATOM     58  C   UNL A   1      38.089  28.328  31.143  1.00  0.00     0.029 A 
ATOM     59  C   UNL A   1      38.901  29.521  31.270  1.00  0.00     0.049 A 
ATOM     60  H   UNL A   1      40.861  29.797  30.588  1.00  0.00     0.167 HD
ATOM     61  C   UNL A   1      44.600  30.429  28.433  1.00  0.00     0.037 A 
ATOM     62  C   UNL A   1      38.609  30.688  31.894  1.00  0.00     0.037 A 
ATOM     63  C   UNL A   1      45.062  30.178  29.779  1.00  0.00     0.049 A 
ATOM     64  C   UNL A   1      39.910  31.313  32.235  1.00  0.00     0.074 A 
ATOM     65  C   UNL A   1      45.756  29.165  30.410  1.00  0.00     0.029 A 
ATOM     66  N   UNL A   1      44.460  30.903  30.780  1.00  0.00    -0.354 N 
ATOM     67  N   UNL A   1      40.768  30.790  33.070  1.00  0.00    -0.248 NA
ATOM     68  C   UNL A   1      40.458  32.299  31.319  1.00  0.00     0.031 C 
ATOM     69  C   UNL A   1      45.178  29.069  31.712  1.00  0.00     0.029 A 
ATOM     70  C   UNL A   1      44.205  30.063  31.834  1.00  0.00     0.049 A 
ATOM     71  H   UNL A   1      44.248  31.863  30.747  1.00  0.00     0.167 HD
ATOM     72  C   UNL A   1      42.011  31.047  32.511  1.00  0.00     0.074 A 
ATOM     73  C   UNL A   1      41.762  32.081  31.509  1.00  0.00     0.031 C 
ATOM     74  C   UNL A   1      43.065  30.202  32.718  1.00  0.00     0.037 A 
BRANCH  61  75
ATOM     75  C   UNL A   1      44.688  31.812  27.811  1.00  0.00     0.058 A 
ATOM     76  C   UNL A   1      45.855  32.161  27.098  1.00  0.00     0.135 A 
ATOM     77  C   UNL A   1      43.835  32.891  28.136  1.00  0.00     0.135 A 
ATOM     78  F   UNL A   1      46.736  31.220  26.724  1.00  0.00    -0.206 F 
ATOM     79  C   UNL A   1      46.200  33.488  26.828  1.00  0.00     0.059 A 
ATOM     80  C   UNL A   1      44.133  34.214  27.827  1.00  0.00     0.059 A 
ATOM     81  F   UNL A   1      42.718  32.740  28.856  1.00  0.00    -0.206 F 
ATOM     82  C   UNL A   1      45.341  34.508  27.221  1.00  0.00     0.060 A 
BRANCH  82  83
ATOM     83  S   UNL A   1      45.843  36.223  27.005  1.00  0.00     0.124 S 
ATOM     84  O   UNL A   1      46.617  36.451  28.219  1.00  0.00    -0.237 OA
ATOM     85  O   UNL A   1      46.603  36.160  25.761  1.00  0.00    -0.237 OA
ATOM     86  O   UNL A   1      44.571  36.935  26.921  1.00  0.00    -0.744 OA
ENDBRANCH  82  83
ENDBRANCH  61  75
BRANCH  62  87
ATOM     87  C   UNL A   1      37.320  31.425  31.893  1.00  0.00     0.058 A 
ATOM     88  C   UNL A   1      36.697  31.802  33.094  1.00  0.00     0.135 A 
ATOM     89  C   UNL A   1      36.825  32.028  30.717  1.00  0.00     0.135 A 
ATOM     90  F   UNL A   1      37.115  31.288  34.261  1.00  0.00    -0.206 F 
ATOM     91  C   UNL A   1      35.680  32.764  33.137  1.00  0.00     0.059 A 
ATOM     92  C   UNL A   1      35.809  32.982  30.735  1.00  0.00     0.059 A 
ATOM     93  F   UNL A   1      37.380  31.770  29.523  1.00  0.00    -0.206 F 
ATOM     94  C   UNL A   1      35.259  33.367  31.952  1.00  0.00     0.060 A 
BRANCH  94  95
ATOM     95  S   UNL A   1      34.074  34.731  32.019  1.00  0.00     0.124 S 
ATOM     96  O   UNL A   1      34.911  35.835  32.473  1.00  0.00    -0.237 OA
ATOM     97  O   UNL A   1      33.612  34.807  30.637  1.00  0.00    -0.237 OA
ATOM     98  O   UNL A   1      33.078  34.267  32.982  1.00  0.00    -0.744 OA
ENDBRANCH  94  95
ENDBRANCH  62  87
BRANCH  74  99
ATOM     99  C   UNL A   1      42.945  29.190  33.835  1.00  0.00     0.058 A 
ATOM    100  C   UNL A   1      43.137  29.475  35.198  1.00  0.00     0.135 A 
ATOM    101  C   UNL A   1      42.476  27.907  33.515  1.00  0.00     0.135 A 
ATOM    102  F   UNL A   1      43.493  30.700  35.603  1.00  0.00    -0.206 F 
ATOM    103  C   UNL A   1      42.906  28.523  36.193  1.00  0.00     0.059 A 
ATOM    104  C   UNL A   1      42.213  26.950  34.491  1.00  0.00     0.059 A 
ATOM    105  F   UNL A   1      42.217  27.588  32.236  1.00  0.00    -0.206 F 
ATOM    106  C   UNL A   1      42.439  27.260  35.831  1.00  0.00     0.060 A 
BRANCH 106 107
ATOM    107  S   UNL A   1      42.059  26.056  37.123  1.00  0.00     0.124 S 
ATOM    108  O   UNL A   1      40.656  26.341  37.405  1.00  0.00    -0.237 OA
ATOM    109  O   UNL A   1      42.325  24.783  36.460  1.00  0.00    -0.237 OA
ATOM    110  O   UNL A   1      42.994  26.398  38.193  1.00  0.00    -0.744 OA
ENDBRANCH 106 107
ENDBRANCH  74  99
ENDBRANCH  48  49
ENDBRANCH  40  43
ENDBRANCH  38  39
ENDBRANCH  37  38
ENDBRANCH   1  37
TORSDOF 20
ENDMDL
MODEL 3
REMARK VINA RESULT:     -13.3      3.068      5.321
REMARK SMILES COc1ccc(-c2[nH]nc3nc(-c4ccc(C(F)(F)F)cc4)cc(C(=O)NCCCCCCNC(=O)c4ccc(-c5c6nc(c(-c7c(F)cc(S(=O)(=O)[O-])cc7F)c7ccc([nH]7)c(-c7c(F)cc(S(=O)(=O)[O-])cc7F)c7nc(c(-c8c(F)cc(S(=O)(=O)[O-])cc8F)c8ccc5[nH]8)C=C7)C=C6)cc4)c23)cc1
REMARK SMILES IDX 31 1 30 2 29 3 28 4 27 5 25 6 26 7 24 9 7 10 8 11 103 12
REMARK SMILES IDX 9 13 10 15 11 16 23 17 12 18 6 19 3 20 4 21 105 22 5 23
REMARK SMILES IDX 104 24 2 25 1 26 13 27 14 28 22 29 15 30 21 31 16 32 17 33
REMARK SMILES IDX 18 34 19 35 20 36 32 37 33 38 34 39 35 40 36 42 37 43 38 44
REMARK SMILES IDX 102 45 39 46 101 47 40 48 41 49 42 50 95 51 43 52 100 53
REMARK SMILES IDX 94 54 96 55 44 56 99 57 93 58 92 59 45 61 79 62 58 63 78 64
REMARK SMILES IDX 59 65 62 66 77 67 97 68 60 69 61 70 76 72 98 73 63 74 46 75
REMARK SMILES IDX 47 76 56 77 48 78 49 79 55 80 57 81 50 82 51 83 52 84 53 85
REMARK SMILES IDX 54 86 80 87 81 88 90 89 82 90 83 91 89 92 91 93 84 94 85 95
REMARK SMILES IDX 86 96 87 97 88 98 64 99 65 100 74 101 66 102 67 103 73 104
REMARK SMILES IDX 75 105 68 106 69 107 70 108 71 109 72 110
REMARK H PARENT 27 8 8 14 34 41 96 60 62 71
REMARK Flexibility Score: inf
ROOT
ATOM      1  C   UNL A   1      37.630  23.798  25.505  1.00  0.00     0.002 C 
ENDROOT
BRANCH   1   2
ATOM      2  C   UNL A   1      36.187  23.623  24.996  1.00  0.00     0.002 C 
BRANCH   2   3
ATOM      3  C   UNL A   1      36.047  23.131  23.549  1.00  0.00     0.021 C 
BRANCH   3   4
ATOM      4  C   UNL A   1      35.094  23.984  22.714  1.00  0.00     0.116 C 
BRANCH   4   5
ATOM      5  N   UNL A   1      33.942  23.213  22.302  1.00  0.00    -0.352 N 
ATOM      6  C   UNL A   1      32.630  23.123  22.680  1.00  0.00     0.252 C 
ATOM      7  O   UNL A   1      31.953  22.427  21.929  1.00  0.00    -0.269 OA
ATOM      8  H   UNL A   1      34.155  22.597  21.564  1.00  0.00     0.163 HD
BRANCH   6   9
ATOM      9  C   UNL A   1      32.017  23.868  23.808  1.00  0.00     0.055 A 
ATOM     10  C   UNL A   1      31.823  22.097  25.617  1.00  0.00     0.075 A 
ATOM     11  N   UNL A   1      31.099  22.114  26.786  1.00  0.00    -0.275 N 
ATOM     12  C   UNL A   1      31.554  23.320  25.020  1.00  0.00     0.059 A 
ATOM     13  N   UNL A   1      30.380  23.224  26.997  1.00  0.00    -0.154 NA
ATOM     14  H   UNL A   1      31.109  21.364  27.424  1.00  0.00     0.190 HD
ATOM     15  C   UNL A   1      30.690  23.999  25.958  1.00  0.00     0.182 A 
ATOM     16  N   UNL A   1      30.235  25.261  25.761  1.00  0.00    -0.226 NA
ATOM     17  C   UNL A   1      31.691  25.229  23.768  1.00  0.00     0.043 A 
ATOM     18  C   UNL A   1      30.779  25.843  24.663  1.00  0.00     0.074 A 
BRANCH  10  19
ATOM     19  C   UNL A   1      32.711  20.976  25.330  1.00  0.00     0.001 A 
ATOM     20  C   UNL A   1      34.415  18.775  24.900  1.00  0.00     0.118 A 
ATOM     21  C   UNL A   1      34.935  20.011  25.292  1.00  0.00     0.047 A 
ATOM     22  C   UNL A   1      33.040  18.644  24.708  1.00  0.00     0.047 A 
ATOM     23  C   UNL A   1      34.093  21.109  25.496  1.00  0.00     0.014 A 
ATOM     24  C   UNL A   1      32.193  19.742  24.913  1.00  0.00     0.014 A 
BRANCH  20  25
ATOM     25  O   UNL A   1      35.344  17.778  24.776  1.00  0.00    -0.497 OA
ATOM     26  C   UNL A   1      34.841  16.453  24.647  1.00  0.00     0.278 C 
ENDBRANCH  20  25
ENDBRANCH  10  19
BRANCH  18  27
ATOM     27  C   UNL A   1      30.272  27.181  24.309  1.00  0.00     0.000 A 
ATOM     28  C   UNL A   1      30.997  28.347  24.577  1.00  0.00     0.011 A 
ATOM     29  C   UNL A   1      29.058  27.301  23.602  1.00  0.00     0.011 A 
ATOM     30  C   UNL A   1      30.545  29.590  24.117  1.00  0.00     0.014 A 
ATOM     31  C   UNL A   1      28.603  28.541  23.145  1.00  0.00     0.014 A 
ATOM     32  C   UNL A   1      29.350  29.699  23.388  1.00  0.00     0.056 A 
BRANCH  32  33
ATOM     33  C   UNL A   1      28.885  31.042  22.874  1.00  0.00     0.416 C 
ATOM     34  F   UNL A   1      27.558  31.060  22.577  1.00  0.00    -0.166 F 
ATOM     35  F   UNL A   1      29.096  32.048  23.764  1.00  0.00    -0.166 F 
ATOM     36  F   UNL A   1      29.524  31.425  21.728  1.00  0.00    -0.166 F 
ENDBRANCH  32  33
ENDBRANCH  18  27
ENDBRANCH   6   9
ENDBRANCH   4   5
ENDBRANCH   3   4
ENDBRANCH   2   3
ENDBRANCH   1   2
BRANCH   1  37
ATOM     37  C   UNL A   1      38.386  22.512  25.875  1.00  0.00     0.021 C 
BRANCH  37  38
ATOM     38  C   UNL A   1      39.428  22.707  26.961  1.00  0.00     0.116 C 
BRANCH  38  39
ATOM     39  N   UNL A   1      40.760  22.279  26.527  1.00  0.00    -0.352 N 
ATOM     40  C   UNL A   1      41.834  23.061  26.137  1.00  0.00     0.251 C 
ATOM     41  H   UNL A   1      40.911  21.307  26.511  1.00  0.00     0.163 HD
ATOM     42  O   UNL A   1      42.731  22.600  25.456  1.00  0.00    -0.269 OA
BRANCH  40  43
ATOM     43  C   UNL A   1      41.862  24.466  26.582  1.00  0.00     0.039 A 
ATOM     44  C   UNL A   1      41.228  25.488  25.870  1.00  0.00     0.014 A 
ATOM     45  C   UNL A   1      42.501  24.726  27.786  1.00  0.00     0.014 A 
ATOM     46  C   UNL A   1      41.181  26.761  26.435  1.00  0.00     0.010 A 
ATOM     47  C   UNL A   1      42.257  25.902  28.432  1.00  0.00     0.010 A 
ATOM     48  C   UNL A   1      41.685  26.954  27.731  1.00  0.00    -0.014 A 
BRANCH  48  49
ATOM     49  C   UNL A   1      41.573  28.229  28.426  1.00  0.00     0.031 A 
ATOM     50  C   UNL A   1      42.659  29.196  28.131  1.00  0.00     0.074 A 
ATOM     51  C   UNL A   1      40.452  28.590  29.090  1.00  0.00     0.049 A 
ATOM     52  N   UNL A   1      43.627  29.556  28.907  1.00  0.00    -0.248 NA
ATOM     53  C   UNL A   1      42.781  29.705  26.757  1.00  0.00     0.031 C 
ATOM     54  C   UNL A   1      39.182  27.854  29.209  1.00  0.00     0.029 A 
ATOM     55  N   UNL A   1      40.170  29.759  29.724  1.00  0.00    -0.354 N 
ATOM     56  C   UNL A   1      44.320  30.542  28.211  1.00  0.00     0.074 A 
ATOM     57  C   UNL A   1      43.909  30.417  26.837  1.00  0.00     0.031 C 
ATOM     58  C   UNL A   1      38.214  28.677  29.664  1.00  0.00     0.029 A 
ATOM     59  C   UNL A   1      38.831  29.927  30.056  1.00  0.00     0.049 A 
ATOM     60  H   UNL A   1      40.859  30.431  29.930  1.00  0.00     0.167 HD
ATOM     61  C   UNL A   1      44.937  31.562  28.873  1.00  0.00     0.037 A 
ATOM     62  C   UNL A   1      38.264  31.013  30.633  1.00  0.00     0.037 A 
ATOM     63  C   UNL A   1      45.060  31.257  30.280  1.00  0.00     0.049 A 
ATOM     64  C   UNL A   1      39.357  31.729  31.335  1.00  0.00     0.074 A 
ATOM     65  C   UNL A   1      45.672  30.268  31.025  1.00  0.00     0.029 A 
ATOM     66  N   UNL A   1      44.145  31.847  31.119  1.00  0.00    -0.354 N 
ATOM     67  N   UNL A   1      40.021  31.227  32.342  1.00  0.00    -0.248 NA
ATOM     68  C   UNL A   1      40.013  32.826  30.643  1.00  0.00     0.031 C 
ATOM     69  C   UNL A   1      44.792  30.025  32.122  1.00  0.00     0.029 A 
ATOM     70  C   UNL A   1      43.718  30.913  32.027  1.00  0.00     0.049 A 
ATOM     71  H   UNL A   1      43.846  32.784  31.075  1.00  0.00     0.167 HD
ATOM     72  C   UNL A   1      41.331  31.639  32.144  1.00  0.00     0.074 A 
ATOM     73  C   UNL A   1      41.239  32.715  31.161  1.00  0.00     0.031 C 
ATOM     74  C   UNL A   1      42.380  30.881  32.584  1.00  0.00     0.037 A 
BRANCH  61  75
ATOM     75  C   UNL A   1      45.033  32.988  28.361  1.00  0.00     0.058 A 
ATOM     76  C   UNL A   1      46.310  33.563  28.190  1.00  0.00     0.135 A 
ATOM     77  C   UNL A   1      43.953  33.900  28.326  1.00  0.00     0.135 A 
ATOM     78  F   UNL A   1      47.412  32.796  28.193  1.00  0.00    -0.206 F 
ATOM     79  C   UNL A   1      46.507  34.943  28.104  1.00  0.00     0.059 A 
ATOM     80  C   UNL A   1      44.123  35.273  28.185  1.00  0.00     0.059 A 
ATOM     81  F   UNL A   1      42.685  33.528  28.526  1.00  0.00    -0.206 F 
ATOM     82  C   UNL A   1      45.404  35.790  28.128  1.00  0.00     0.060 A 
BRANCH  82  83
ATOM     83  S   UNL A   1      45.656  37.572  28.160  1.00  0.00     0.124 S 
ATOM     84  O   UNL A   1      44.756  37.970  29.236  1.00  0.00    -0.237 OA
ATOM     85  O   UNL A   1      47.083  37.670  28.447  1.00  0.00    -0.237 OA
ATOM     86  O   UNL A   1      45.260  37.989  26.818  1.00  0.00    -0.744 OA
ENDBRANCH  82  83
ENDBRANCH  61  75
BRANCH  62  87
ATOM     87  C   UNL A   1      36.947  31.626  30.325  1.00  0.00     0.058 A 
ATOM     88  C   UNL A   1      36.223  32.327  31.305  1.00  0.00     0.135 A 
ATOM     89  C   UNL A   1      36.510  31.787  28.994  1.00  0.00     0.135 A 
ATOM     90  F   UNL A   1      36.580  32.241  32.596  1.00  0.00    -0.206 F 
ATOM     91  C   UNL A   1      35.165  33.184  30.980  1.00  0.00     0.059 A 
ATOM     92  C   UNL A   1      35.455  32.629  28.647  1.00  0.00     0.059 A 
ATOM     93  F   UNL A   1      37.159  31.197  27.978  1.00  0.00    -0.206 F 
ATOM     94  C   UNL A   1      34.803  33.347  29.643  1.00  0.00     0.060 A 
BRANCH  94  95
ATOM     95  S   UNL A   1      33.557  34.581  29.202  1.00  0.00     0.124 S 
ATOM     96  O   UNL A   1      32.738  33.852  28.241  1.00  0.00    -0.237 OA
ATOM     97  O   UNL A   1      32.932  34.863  30.490  1.00  0.00    -0.237 OA
ATOM     98  O   UNL A   1      34.348  35.675  28.643  1.00  0.00    -0.744 OA
ENDBRANCH  94  95
ENDBRANCH  62  87
BRANCH  74  99
ATOM     99  C   UNL A   1      42.086  29.784  33.581  1.00  0.00     0.058 A 
ATOM    100  C   UNL A   1      41.814  28.447  33.243  1.00  0.00     0.135 A 
ATOM    101  C   UNL A   1      42.226  30.078  34.945  1.00  0.00     0.135 A 
ATOM    102  F   UNL A   1      41.756  28.056  31.964  1.00  0.00    -0.206 F 
ATOM    103  C   UNL A   1      41.658  27.455  34.215  1.00  0.00     0.059 A 
ATOM    104  C   UNL A   1      42.101  29.101  35.930  1.00  0.00     0.059 A 
ATOM    105  F   UNL A   1      42.542  31.325  35.333  1.00  0.00    -0.206 F 
ATOM    106  C   UNL A   1      41.807  27.791  35.559  1.00  0.00     0.060 A 
BRANCH 106 107
ATOM    107  S   UNL A   1      41.689  26.493  36.811  1.00  0.00     0.124 S 
ATOM    108  O   UNL A   1      41.668  25.282  35.997  1.00  0.00    -0.237 OA
ATOM    109  O   UNL A   1      42.897  26.704  37.602  1.00  0.00    -0.237 OA
ATOM    110  O   UNL A   1      40.440  26.802  37.504  1.00  0.00    -0.744 OA
ENDBRANCH 106 107
ENDBRANCH  74  99
ENDBRANCH  48  49
ENDBRANCH  40  43
ENDBRANCH  38  39
ENDBRANCH  37  38
ENDBRANCH   1  37
TORSDOF 20
ENDMDL
