MODEL 1
REMARK VINA RESULT:     -11.4      0.000      0.000
REMARK SMILES O=C(NCCCCCCNC(=O)[C@@H]1CCC(=O)N(CCCOC2CCCCC2)[C@H]1c1ccco1)c1ccc(-c2c3nc(c(-c4c(F)cc(S(=O)(=O)[O-])cc4F)c4ccc([nH]4)c(-c4c(F)cc(S(=O)(=O)[O-])cc4F)c4nc(c(-c5c(F)cc(S(=O)(=O)[O-])cc5F)c5ccc2[nH]5)C=C4)C=C3)cc1
REMARK SMILES IDX 7 1 6 2 5 3 4 4 3 5 1 6 2 7 35 9 36 10 100 11 37 12 99 13
REMARK SMILES IDX 38 14 39 15 40 16 93 17 41 18 98 19 92 20 94 21 42 22 97 23
REMARK SMILES IDX 91 24 90 25 43 27 77 28 56 29 76 30 57 31 60 32 75 33 95 34
REMARK SMILES IDX 58 35 59 36 74 38 96 39 61 40 44 41 45 42 54 43 46 44 47 45
REMARK SMILES IDX 53 46 55 47 48 48 49 49 50 50 51 51 52 52 78 53 79 54 88 55
REMARK SMILES IDX 80 56 81 57 87 58 89 59 82 60 83 61 84 62 85 63 86 64 62 65
REMARK SMILES IDX 63 66 72 67 64 68 65 69 71 70 73 71 66 72 67 73 68 74 69 75
REMARK SMILES IDX 70 76 8 77 9 78 10 79 11 80 12 82 13 83 14 84 29 85 15 86
REMARK SMILES IDX 18 87 16 88 17 89 30 90 31 91 34 92 32 93 33 94 19 95 20 96
REMARK SMILES IDX 21 97 22 98 23 99 24 100 28 101 25 102 27 103 26 104
REMARK H PARENT 3 8 94 26 60 37 10 81
REMARK Flexibility Score: inf
ROOT
ATOM      1  C   UNL A   1      37.241  21.817  25.705  1.00  0.00     0.002 C 
ENDROOT
BRANCH   1   2
ATOM      2  C   UNL A   1      38.267  22.891  26.083  1.00  0.00     0.002 C 
BRANCH   2   3
ATOM      3  C   UNL A   1      39.642  22.370  26.506  1.00  0.00     0.021 C 
BRANCH   3   4
ATOM      4  C   UNL A   1      40.594  23.429  27.058  1.00  0.00     0.116 C 
BRANCH   4   5
ATOM      5  N   UNL A   1      41.217  24.219  26.008  1.00  0.00    -0.352 N 
ATOM      6  O   UNL A   1      41.830  26.092  24.915  1.00  0.00    -0.269 OA
ATOM      7  C   UNL A   1      41.453  25.571  25.964  1.00  0.00     0.251 C 
ATOM      8  H   UNL A   1      41.511  23.712  25.217  1.00  0.00     0.163 HD
BRANCH   7   9
ATOM      9  C   UNL A   1      41.233  26.402  27.167  1.00  0.00     0.039 A 
ATOM     10  C   UNL A   1      42.007  27.542  27.404  1.00  0.00     0.014 A 
ATOM     11  C   UNL A   1      40.218  26.047  28.060  1.00  0.00     0.014 A 
ATOM     12  C   UNL A   1      41.849  28.256  28.589  1.00  0.00     0.010 A 
ATOM     13  C   UNL A   1      40.013  26.807  29.214  1.00  0.00     0.010 A 
ATOM     14  C   UNL A   1      40.841  27.903  29.500  1.00  0.00    -0.014 A 
BRANCH  14  15
ATOM     15  C   UNL A   1      40.613  28.720  30.719  1.00  0.00     0.031 A 
ATOM     16  C   UNL A   1      39.549  29.781  30.747  1.00  0.00     0.074 A 
ATOM     17  C   UNL A   1      41.408  28.532  31.790  1.00  0.00     0.049 A 
ATOM     18  N   UNL A   1      39.274  30.650  31.686  1.00  0.00    -0.248 NA
ATOM     19  C   UNL A   1      38.687  29.884  29.560  1.00  0.00     0.031 C 
ATOM     20  C   UNL A   1      42.480  27.539  31.876  1.00  0.00     0.029 A 
ATOM     21  N   UNL A   1      41.454  29.177  33.000  1.00  0.00    -0.354 N 
ATOM     22  C   UNL A   1      38.226  31.421  31.196  1.00  0.00     0.074 A 
ATOM     23  C   UNL A   1      37.931  30.930  29.866  1.00  0.00     0.031 C 
ATOM     24  C   UNL A   1      43.081  27.642  33.069  1.00  0.00     0.029 A 
ATOM     25  C   UNL A   1      42.481  28.750  33.807  1.00  0.00     0.049 A 
ATOM     26  H   UNL A   1      40.815  29.878  33.264  1.00  0.00     0.167 HD
ATOM     27  C   UNL A   1      37.574  32.444  31.803  1.00  0.00     0.037 A 
ATOM     28  C   UNL A   1      42.925  29.219  34.990  1.00  0.00     0.037 A 
ATOM     29  C   UNL A   1      37.887  32.924  33.125  1.00  0.00     0.049 A 
ATOM     30  C   UNL A   1      42.216  30.377  35.630  1.00  0.00     0.074 A 
ATOM     31  C   UNL A   1      37.258  33.924  33.847  1.00  0.00     0.029 A 
ATOM     32  N   UNL A   1      38.928  32.457  33.915  1.00  0.00    -0.354 N 
ATOM     33  N   UNL A   1      41.195  31.064  35.178  1.00  0.00    -0.248 NA
ATOM     34  C   UNL A   1      42.711  30.823  36.938  1.00  0.00     0.031 C 
ATOM     35  C   UNL A   1      37.957  34.102  35.046  1.00  0.00     0.029 A 
ATOM     36  C   UNL A   1      38.979  33.168  35.104  1.00  0.00     0.049 A 
ATOM     37  H   UNL A   1      39.540  31.727  33.668  1.00  0.00     0.167 HD
ATOM     38  C   UNL A   1      40.907  32.008  36.156  1.00  0.00     0.074 A 
ATOM     39  C   UNL A   1      41.864  31.803  37.225  1.00  0.00     0.031 C 
ATOM     40  C   UNL A   1      39.932  32.950  36.167  1.00  0.00     0.037 A 
BRANCH  27  41
ATOM     41  C   UNL A   1      36.490  33.139  31.021  1.00  0.00     0.058 A 
ATOM     42  C   UNL A   1      36.777  34.000  29.950  1.00  0.00     0.135 A 
ATOM     43  C   UNL A   1      35.138  32.938  31.351  1.00  0.00     0.135 A 
ATOM     44  F   UNL A   1      38.051  34.236  29.593  1.00  0.00    -0.206 F 
ATOM     45  C   UNL A   1      35.771  34.682  29.273  1.00  0.00     0.059 A 
ATOM     46  C   UNL A   1      34.113  33.584  30.665  1.00  0.00     0.059 A 
ATOM     47  F   UNL A   1      34.802  32.118  32.358  1.00  0.00    -0.206 F 
ATOM     48  C   UNL A   1      34.441  34.476  29.646  1.00  0.00     0.060 A 
BRANCH  48  49
ATOM     49  S   UNL A   1      33.153  35.411  28.797  1.00  0.00     0.124 S 
ATOM     50  O   UNL A   1      32.416  35.976  29.925  1.00  0.00    -0.237 OA
ATOM     51  O   UNL A   1      33.926  36.364  28.007  1.00  0.00    -0.237 OA
ATOM     52  O   UNL A   1      32.441  34.394  28.029  1.00  0.00    -0.744 OA
ENDBRANCH  48  49
ENDBRANCH  27  41
BRANCH  28  53
ATOM     53  C   UNL A   1      44.115  28.584  35.612  1.00  0.00     0.058 A 
ATOM     54  C   UNL A   1      45.407  29.065  35.361  1.00  0.00     0.135 A 
ATOM     55  C   UNL A   1      43.970  27.544  36.545  1.00  0.00     0.135 A 
ATOM     56  F   UNL A   1      45.596  30.053  34.475  1.00  0.00    -0.206 F 
ATOM     57  C   UNL A   1      46.515  28.547  36.025  1.00  0.00     0.059 A 
ATOM     58  C   UNL A   1      45.058  27.028  37.240  1.00  0.00     0.059 A 
ATOM     59  F   UNL A   1      42.750  27.064  36.831  1.00  0.00    -0.206 F 
ATOM     60  C   UNL A   1      46.327  27.538  36.974  1.00  0.00     0.060 A 
BRANCH  60  61
ATOM     61  S   UNL A   1      47.760  26.951  37.904  1.00  0.00     0.124 S 
ATOM     62  O   UNL A   1      48.862  27.408  37.066  1.00  0.00    -0.237 OA
ATOM     63  O   UNL A   1      47.598  27.641  39.180  1.00  0.00    -0.237 OA
ATOM     64  O   UNL A   1      47.560  25.505  37.953  1.00  0.00    -0.744 OA
ENDBRANCH  60  61
ENDBRANCH  28  53
BRANCH  40  65
ATOM     65  C   UNL A   1      39.805  33.816  37.390  1.00  0.00     0.058 A 
ATOM     66  C   UNL A   1      40.475  35.042  37.504  1.00  0.00     0.135 A 
ATOM     67  C   UNL A   1      38.909  33.459  38.413  1.00  0.00     0.135 A 
ATOM     68  F   UNL A   1      41.353  35.424  36.562  1.00  0.00    -0.206 F 
ATOM     69  C   UNL A   1      40.258  35.890  38.586  1.00  0.00     0.059 A 
ATOM     70  C   UNL A   1      38.657  34.302  39.489  1.00  0.00     0.059 A 
ATOM     71  F   UNL A   1      38.240  32.296  38.349  1.00  0.00    -0.206 F 
ATOM     72  C   UNL A   1      39.336  35.516  39.568  1.00  0.00     0.060 A 
BRANCH  72  73
ATOM     73  S   UNL A   1      38.994  36.666  40.918  1.00  0.00     0.124 S 
ATOM     74  O   UNL A   1      38.065  35.893  41.735  1.00  0.00    -0.237 OA
ATOM     75  O   UNL A   1      40.320  36.874  41.491  1.00  0.00    -0.237 OA
ATOM     76  O   UNL A   1      38.421  37.825  40.241  1.00  0.00    -0.744 OA
ENDBRANCH  72  73
ENDBRANCH  40  65
ENDBRANCH  14  15
ENDBRANCH   7   9
ENDBRANCH   4   5
ENDBRANCH   3   4
ENDBRANCH   2   3
ENDBRANCH   1   2
BRANCH   1  77
ATOM     77  C   UNL A   1      36.960  21.652  24.201  1.00  0.00     0.021 C 
BRANCH  77  78
ATOM     78  C   UNL A   1      36.534  22.931  23.473  1.00  0.00     0.116 C 
BRANCH  78  79
ATOM     79  N   UNL A   1      35.121  22.897  23.147  1.00  0.00    -0.356 N 
ATOM     80  C   UNL A   1      34.057  23.603  23.614  1.00  0.00     0.225 C 
ATOM     81  H   UNL A   1      34.887  22.238  22.455  1.00  0.00     0.163 HD
ATOM     82  O   UNL A   1      32.947  23.207  23.257  1.00  0.00    -0.275 OA
BRANCH  80  83
ATOM     83  C   UNL A   1      34.240  24.841  24.496  1.00  0.00     0.109 C 
ATOM     84  C   UNL A   1      34.802  24.485  25.867  1.00  0.00     0.026 C 
ATOM     85  C   UNL A   1      32.904  25.584  24.674  1.00  0.00     0.164 C 
ATOM     86  C   UNL A   1      33.829  23.689  26.713  1.00  0.00     0.101 C 
ATOM     87  N   UNL A   1      31.955  24.966  25.627  1.00  0.00    -0.332 N 
ATOM     88  C   UNL A   1      32.360  24.026  26.573  1.00  0.00     0.223 C 
ATOM     89  O   UNL A   1      31.555  23.429  27.297  1.00  0.00    -0.275 OA
BRANCH  85  90
ATOM     90  C   UNL A   1      33.097  27.047  24.977  1.00  0.00     0.127 A 
ATOM     91  C   UNL A   1      33.411  27.708  26.150  1.00  0.00     0.048 A 
ATOM     92  O   UNL A   1      33.099  27.932  23.938  1.00  0.00    -0.467 OA
ATOM     93  C   UNL A   1      33.696  29.047  25.793  1.00  0.00     0.042 A 
ATOM     94  C   UNL A   1      33.504  29.129  24.434  1.00  0.00     0.195 A 
ENDBRANCH  85  90
BRANCH  87  95
ATOM     95  C   UNL A   1      30.489  25.197  25.565  1.00  0.00     0.122 C 
BRANCH  95  96
ATOM     96  C   UNL A   1      29.733  25.312  24.232  1.00  0.00     0.050 C 
BRANCH  96  97
ATOM     97  C   UNL A   1      28.845  26.539  24.030  1.00  0.00     0.162 C 
BRANCH  97  98
ATOM     98  O   UNL A   1      29.676  27.640  23.668  1.00  0.00    -0.378 OA
BRANCH  98  99
ATOM     99  C   UNL A   1      29.195  28.507  22.624  1.00  0.00     0.118 C 
ATOM    100  C   UNL A   1      27.704  28.816  22.813  1.00  0.00     0.032 C 
ATOM    101  C   UNL A   1      30.137  29.717  22.639  1.00  0.00     0.032 C 
ATOM    102  C   UNL A   1      27.231  30.206  23.207  1.00  0.00     0.003 C 
ATOM    103  C   UNL A   1      29.448  31.071  22.595  1.00  0.00     0.003 C 
ATOM    104  C   UNL A   1      28.349  31.124  23.638  1.00  0.00     0.000 C 
ENDBRANCH  98  99
ENDBRANCH  97  98
ENDBRANCH  96  97
ENDBRANCH  95  96
ENDBRANCH  87  95
ENDBRANCH  80  83
ENDBRANCH  78  79
ENDBRANCH  77  78
ENDBRANCH   1  77
TORSDOF 22
ENDMDL
MODEL 2
REMARK VINA RESULT:     -11.3      0.842      7.993
REMARK SMILES O=C(NCCCCCCNC(=O)[C@@H]1CCC(=O)N(CCCOC2CCCCC2)[C@H]1c1ccco1)c1ccc(-c2c3nc(c(-c4c(F)cc(S(=O)(=O)[O-])cc4F)c4ccc([nH]4)c(-c4c(F)cc(S(=O)(=O)[O-])cc4F)c4nc(c(-c5c(F)cc(S(=O)(=O)[O-])cc5F)c5ccc2[nH]5)C=C4)C=C3)cc1
REMARK SMILES IDX 7 1 6 2 5 3 4 4 3 5 1 6 2 7 35 9 36 10 100 11 37 12 99 13
REMARK SMILES IDX 38 14 39 15 40 16 93 17 41 18 98 19 92 20 94 21 42 22 97 23
REMARK SMILES IDX 91 24 90 25 43 27 77 28 56 29 76 30 57 31 60 32 75 33 95 34
REMARK SMILES IDX 58 35 59 36 74 38 96 39 61 40 44 41 45 42 54 43 46 44 47 45
REMARK SMILES IDX 53 46 55 47 48 48 49 49 50 50 51 51 52 52 78 53 79 54 88 55
REMARK SMILES IDX 80 56 81 57 87 58 89 59 82 60 83 61 84 62 85 63 86 64 62 65
REMARK SMILES IDX 63 66 72 67 64 68 65 69 71 70 73 71 66 72 67 73 68 74 69 75
REMARK SMILES IDX 70 76 8 77 9 78 10 79 11 80 12 82 13 83 14 84 29 85 15 86
REMARK SMILES IDX 18 87 16 88 17 89 30 90 31 91 34 92 32 93 33 94 19 95 20 96
REMARK SMILES IDX 21 97 22 98 23 99 24 100 28 101 25 102 27 103 26 104
REMARK H PARENT 3 8 94 26 60 37 10 81
REMARK Flexibility Score: inf
ROOT
ATOM      1  C   UNL A   1      36.886  22.142  24.575  1.00  0.00     0.002 C 
ENDROOT
BRANCH   1   2
ATOM      2  C   UNL A   1      38.084  22.093  25.530  1.00  0.00     0.002 C 
BRANCH   2   3
ATOM      3  C   UNL A   1      38.449  23.418  26.201  1.00  0.00     0.021 C 
BRANCH   3   4
ATOM      4  C   UNL A   1      39.750  23.404  27.000  1.00  0.00     0.116 C 
BRANCH   4   5
ATOM      5  N   UNL A   1      40.902  23.770  26.191  1.00  0.00    -0.352 N 
ATOM      6  O   UNL A   1      42.509  25.121  25.369  1.00  0.00    -0.269 OA
ATOM      7  C   UNL A   1      41.682  24.899  26.253  1.00  0.00     0.251 C 
ATOM      8  H   UNL A   1      41.159  23.116  25.502  1.00  0.00     0.163 HD
BRANCH   7   9
ATOM      9  C   UNL A   1      41.513  25.856  27.368  1.00  0.00     0.039 A 
ATOM     10  C   UNL A   1      40.506  25.679  28.321  1.00  0.00     0.014 A 
ATOM     11  C   UNL A   1      42.394  26.936  27.472  1.00  0.00     0.014 A 
ATOM     12  C   UNL A   1      40.304  26.642  29.306  1.00  0.00     0.010 A 
ATOM     13  C   UNL A   1      42.234  27.864  28.505  1.00  0.00     0.010 A 
ATOM     14  C   UNL A   1      41.174  27.738  29.416  1.00  0.00    -0.014 A 
BRANCH  14  15
ATOM     15  C   UNL A   1      41.014  28.715  30.523  1.00  0.00     0.031 A 
ATOM     16  C   UNL A   1      41.846  28.610  31.769  1.00  0.00     0.074 A 
ATOM     17  C   UNL A   1      40.073  29.674  30.416  1.00  0.00     0.049 A 
ATOM     18  N   UNL A   1      41.776  29.313  32.870  1.00  0.00    -0.248 NA
ATOM     19  C   UNL A   1      42.889  27.573  31.783  1.00  0.00     0.031 C 
ATOM     20  C   UNL A   1      39.199  29.867  29.259  1.00  0.00     0.029 A 
ATOM     21  N   UNL A   1      39.681  30.649  31.298  1.00  0.00    -0.354 N 
ATOM     22  C   UNL A   1      42.744  28.789  33.720  1.00  0.00     0.074 A 
ATOM     23  C   UNL A   1      43.373  27.693  33.011  1.00  0.00     0.031 C 
ATOM     24  C   UNL A   1      38.371  30.893  29.500  1.00  0.00     0.029 A 
ATOM     25  C   UNL A   1      38.610  31.387  30.852  1.00  0.00     0.049 A 
ATOM     26  H   UNL A   1      40.121  30.805  32.164  1.00  0.00     0.167 HD
ATOM     27  C   UNL A   1      43.073  29.188  34.973  1.00  0.00     0.037 A 
ATOM     28  C   UNL A   1      37.870  32.327  31.472  1.00  0.00     0.037 A 
ATOM     29  C   UNL A   1      42.431  30.277  35.665  1.00  0.00     0.049 A 
ATOM     30  C   UNL A   1      38.224  32.730  32.874  1.00  0.00     0.074 A 
ATOM     31  C   UNL A   1      42.720  30.789  36.919  1.00  0.00     0.029 A 
ATOM     32  N   UNL A   1      41.357  31.007  35.175  1.00  0.00    -0.354 N 
ATOM     33  N   UNL A   1      39.174  32.261  33.646  1.00  0.00    -0.248 NA
ATOM     34  C   UNL A   1      37.414  33.788  33.489  1.00  0.00     0.031 C 
ATOM     35  C   UNL A   1      41.783  31.785  37.210  1.00  0.00     0.029 A 
ATOM     36  C   UNL A   1      40.952  31.944  36.113  1.00  0.00     0.049 A 
ATOM     37  H   UNL A   1      40.944  30.879  34.291  1.00  0.00     0.167 HD
ATOM     38  C   UNL A   1      39.095  32.983  34.830  1.00  0.00     0.074 A 
ATOM     39  C   UNL A   1      38.002  33.921  34.672  1.00  0.00     0.031 C 
ATOM     40  C   UNL A   1      39.866  32.881  35.941  1.00  0.00     0.037 A 
BRANCH  27  41
ATOM     41  C   UNL A   1      44.147  28.411  35.690  1.00  0.00     0.058 A 
ATOM     42  C   UNL A   1      45.510  28.719  35.549  1.00  0.00     0.135 A 
ATOM     43  C   UNL A   1      43.805  27.340  36.533  1.00  0.00     0.135 A 
ATOM     44  F   UNL A   1      45.898  29.727  34.752  1.00  0.00    -0.206 F 
ATOM     45  C   UNL A   1      46.497  27.958  36.170  1.00  0.00     0.059 A 
ATOM     46  C   UNL A   1      44.773  26.586  37.190  1.00  0.00     0.059 A 
ATOM     47  F   UNL A   1      42.517  27.006  36.714  1.00  0.00    -0.206 F 
ATOM     48  C   UNL A   1      46.117  26.885  36.980  1.00  0.00     0.060 A 
BRANCH  48  49
ATOM     49  S   UNL A   1      47.410  25.874  37.731  1.00  0.00     0.124 S 
ATOM     50  O   UNL A   1      48.025  25.271  36.550  1.00  0.00    -0.237 OA
ATOM     51  O   UNL A   1      48.220  26.867  38.428  1.00  0.00    -0.237 OA
ATOM     52  O   UNL A   1      46.669  24.956  38.590  1.00  0.00    -0.744 OA
ENDBRANCH  48  49
ENDBRANCH  27  41
BRANCH  28  53
ATOM     53  C   UNL A   1      36.715  32.920  30.751  1.00  0.00     0.058 A 
ATOM     54  C   UNL A   1      35.399  32.561  31.071  1.00  0.00     0.135 A 
ATOM     55  C   UNL A   1      36.906  33.930  29.794  1.00  0.00     0.135 A 
ATOM     56  F   UNL A   1      35.166  31.598  31.975  1.00  0.00    -0.206 F 
ATOM     57  C   UNL A   1      34.309  33.193  30.478  1.00  0.00     0.059 A 
ATOM     58  C   UNL A   1      35.835  34.595  29.208  1.00  0.00     0.059 A 
ATOM     59  F   UNL A   1      38.148  34.321  29.469  1.00  0.00    -0.206 F 
ATOM     60  C   UNL A   1      34.539  34.219  29.557  1.00  0.00     0.060 A 
BRANCH  60  61
ATOM     61  S   UNL A   1      33.118  35.102  28.877  1.00  0.00     0.124 S 
ATOM     62  O   UNL A   1      32.585  34.122  27.938  1.00  0.00    -0.237 OA
ATOM     63  O   UNL A   1      32.314  35.349  30.070  1.00  0.00    -0.237 OA
ATOM     64  O   UNL A   1      33.717  36.291  28.277  1.00  0.00    -0.744 OA
ENDBRANCH  60  61
ENDBRANCH  28  53
BRANCH  40  65
ATOM     65  C   UNL A   1      39.598  33.835  37.072  1.00  0.00     0.058 A 
ATOM     66  C   UNL A   1      38.756  33.500  38.143  1.00  0.00     0.135 A 
ATOM     67  C   UNL A   1      40.286  35.059  37.137  1.00  0.00     0.135 A 
ATOM     68  F   UNL A   1      38.064  32.349  38.125  1.00  0.00    -0.206 F 
ATOM     69  C   UNL A   1      38.609  34.341  39.241  1.00  0.00     0.059 A 
ATOM     70  C   UNL A   1      40.174  35.902  38.236  1.00  0.00     0.059 A 
ATOM     71  F   UNL A   1      41.107  35.425  36.139  1.00  0.00    -0.206 F 
ATOM     72  C   UNL A   1      39.334  35.535  39.284  1.00  0.00     0.060 A 
BRANCH  72  73
ATOM     73  S   UNL A   1      39.206  36.573  40.757  1.00  0.00     0.124 S 
ATOM     74  O   UNL A   1      38.644  37.800  40.204  1.00  0.00    -0.237 OA
ATOM     75  O   UNL A   1      38.313  35.794  41.609  1.00  0.00    -0.237 OA
ATOM     76  O   UNL A   1      40.585  36.670  41.226  1.00  0.00    -0.744 OA
ENDBRANCH  72  73
ENDBRANCH  40  65
ENDBRANCH  14  15
ENDBRANCH   7   9
ENDBRANCH   4   5
ENDBRANCH   3   4
ENDBRANCH   2   3
ENDBRANCH   1   2
BRANCH   1  77
ATOM     77  C   UNL A   1      35.884  20.981  24.689  1.00  0.00     0.021 C 
BRANCH  77  78
ATOM     78  C   UNL A   1      34.491  21.370  25.198  1.00  0.00     0.116 C 
BRANCH  78  79
ATOM     79  N   UNL A   1      33.767  22.132  24.198  1.00  0.00    -0.356 N 
ATOM     80  C   UNL A   1      33.236  23.384  24.210  1.00  0.00     0.225 C 
ATOM     81  H   UNL A   1      33.634  21.652  23.349  1.00  0.00     0.163 HD
ATOM     82  O   UNL A   1      32.517  23.675  23.253  1.00  0.00    -0.275 OA
BRANCH  80  83
ATOM     83  C   UNL A   1      33.554  24.380  25.329  1.00  0.00     0.109 C 
ATOM     84  C   UNL A   1      33.531  23.719  26.702  1.00  0.00     0.026 C 
ATOM     85  C   UNL A   1      32.555  25.551  25.314  1.00  0.00     0.164 C 
ATOM     86  C   UNL A   1      32.144  23.274  27.118  1.00  0.00     0.101 C 
ATOM     87  N   UNL A   1      31.216  25.251  25.872  1.00  0.00    -0.332 N 
ATOM     88  C   UNL A   1      30.984  24.148  26.692  1.00  0.00     0.223 C 
ATOM     89  O   UNL A   1      29.850  23.836  27.071  1.00  0.00    -0.275 OA
BRANCH  85  90
ATOM     90  C   UNL A   1      33.127  26.801  25.927  1.00  0.00     0.127 A 
ATOM     91  C   UNL A   1      34.188  27.605  25.554  1.00  0.00     0.048 A 
ATOM     92  O   UNL A   1      32.463  27.376  26.972  1.00  0.00    -0.467 OA
ATOM     93  C   UNL A   1      34.116  28.766  26.360  1.00  0.00     0.042 A 
ATOM     94  C   UNL A   1      33.042  28.583  27.198  1.00  0.00     0.195 A 
ENDBRANCH  85  90
BRANCH  87  95
ATOM     95  C   UNL A   1      30.001  26.020  25.500  1.00  0.00     0.122 C 
BRANCH  95  96
ATOM     96  C   UNL A   1      29.367  25.925  24.103  1.00  0.00     0.050 C 
BRANCH  96  97
ATOM     97  C   UNL A   1      29.239  27.218  23.299  1.00  0.00     0.162 C 
BRANCH  97  98
ATOM     98  O   UNL A   1      30.071  28.206  23.903  1.00  0.00    -0.378 OA
BRANCH  98  99
ATOM     99  C   UNL A   1      30.185  29.470  23.223  1.00  0.00     0.118 C 
ATOM    100  C   UNL A   1      29.179  29.563  22.068  1.00  0.00     0.032 C 
ATOM    101  C   UNL A   1      30.046  30.532  24.320  1.00  0.00     0.032 C 
ATOM    102  C   UNL A   1      27.993  30.511  22.131  1.00  0.00     0.003 C 
ATOM    103  C   UNL A   1      29.094  31.672  23.997  1.00  0.00     0.003 C 
ATOM    104  C   UNL A   1      27.775  31.116  23.497  1.00  0.00     0.000 C 
ENDBRANCH  98  99
ENDBRANCH  97  98
ENDBRANCH  96  97
ENDBRANCH  95  96
ENDBRANCH  87  95
ENDBRANCH  80  83
ENDBRANCH  78  79
ENDBRANCH  77  78
ENDBRANCH   1  77
TORSDOF 22
ENDMDL
MODEL 3
REMARK VINA RESULT:     -11.3      6.244     11.665
REMARK SMILES O=C(NCCCCCCNC(=O)[C@@H]1CCC(=O)N(CCCOC2CCCCC2)[C@H]1c1ccco1)c1ccc(-c2c3nc(c(-c4c(F)cc(S(=O)(=O)[O-])cc4F)c4ccc([nH]4)c(-c4c(F)cc(S(=O)(=O)[O-])cc4F)c4nc(c(-c5c(F)cc(S(=O)(=O)[O-])cc5F)c5ccc2[nH]5)C=C4)C=C3)cc1
REMARK SMILES IDX 7 1 6 2 5 3 4 4 3 5 1 6 2 7 35 9 36 10 100 11 37 12 99 13
REMARK SMILES IDX 38 14 39 15 40 16 93 17 41 18 98 19 92 20 94 21 42 22 97 23
REMARK SMILES IDX 91 24 90 25 43 27 77 28 56 29 76 30 57 31 60 32 75 33 95 34
REMARK SMILES IDX 58 35 59 36 74 38 96 39 61 40 44 41 45 42 54 43 46 44 47 45
REMARK SMILES IDX 53 46 55 47 48 48 49 49 50 50 51 51 52 52 78 53 79 54 88 55
REMARK SMILES IDX 80 56 81 57 87 58 89 59 82 60 83 61 84 62 85 63 86 64 62 65
REMARK SMILES IDX 63 66 72 67 64 68 65 69 71 70 73 71 66 72 67 73 68 74 69 75
REMARK SMILES IDX 70 76 8 77 9 78 10 79 11 80 12 82 13 83 14 84 29 85 15 86
REMARK SMILES IDX 18 87 16 88 17 89 30 90 31 91 34 92 32 93 33 94 19 95 20 96
REMARK SMILES IDX 21 97 22 98 23 99 24 100 28 101 25 102 27 103 26 104
REMARK H PARENT 3 8 94 26 60 37 10 81
REMARK Flexibility Score: inf
ROOT
ATOM      1  C   UNL A   1      35.598  30.427  27.181  1.00  0.00     0.002 C 
ENDROOT
BRANCH   1   2
ATOM      2  C   UNL A   1      34.902  31.588  27.902  1.00  0.00     0.002 C 
BRANCH   2   3
ATOM      3  C   UNL A   1      35.752  32.844  28.103  1.00  0.00     0.021 C 
BRANCH   3   4
ATOM      4  C   UNL A   1      36.634  32.836  29.349  1.00  0.00     0.116 C 
BRANCH   4   5
ATOM      5  N   UNL A   1      36.143  31.927  30.372  1.00  0.00    -0.352 N 
ATOM      6  O   UNL A   1      36.032  30.015  31.562  1.00  0.00    -0.269 OA
ATOM      7  C   UNL A   1      36.682  30.741  30.810  1.00  0.00     0.251 C 
ATOM      8  H   UNL A   1      35.307  32.200  30.813  1.00  0.00     0.163 HD
BRANCH   7   9
ATOM      9  C   UNL A   1      38.029  30.329  30.363  1.00  0.00     0.039 A 
ATOM     10  C   UNL A   1      38.318  30.172  29.004  1.00  0.00     0.014 A 
ATOM     11  C   UNL A   1      39.026  30.117  31.319  1.00  0.00     0.014 A 
ATOM     12  C   UNL A   1      39.563  29.691  28.608  1.00  0.00     0.010 A 
ATOM     13  C   UNL A   1      40.298  29.704  30.915  1.00  0.00     0.010 A 
ATOM     14  C   UNL A   1      40.570  29.464  29.559  1.00  0.00    -0.014 A 
BRANCH  14  15
ATOM     15  C   UNL A   1      41.927  29.039  29.129  1.00  0.00     0.031 A 
ATOM     16  C   UNL A   1      43.050  30.033  29.030  1.00  0.00     0.074 A 
ATOM     17  C   UNL A   1      42.128  27.754  28.779  1.00  0.00     0.049 A 
ATOM     18  N   UNL A   1      44.267  29.861  28.583  1.00  0.00    -0.248 NA
ATOM     19  C   UNL A   1      42.763  31.401  29.485  1.00  0.00     0.031 C 
ATOM     20  C   UNL A   1      41.112  26.702  28.824  1.00  0.00     0.029 A 
ATOM     21  N   UNL A   1      43.245  27.119  28.297  1.00  0.00    -0.354 N 
ATOM     22  C   UNL A   1      44.887  31.102  28.676  1.00  0.00     0.074 A 
ATOM     23  C   UNL A   1      43.900  32.023  29.202  1.00  0.00     0.031 C 
ATOM     24  C   UNL A   1      41.646  25.554  28.386  1.00  0.00     0.029 A 
ATOM     25  C   UNL A   1      43.023  25.803  27.968  1.00  0.00     0.049 A 
ATOM     26  H   UNL A   1      44.119  27.561  28.196  1.00  0.00     0.167 HD
ATOM     27  C   UNL A   1      46.160  31.438  28.351  1.00  0.00     0.037 A 
ATOM     28  C   UNL A   1      43.817  24.902  27.356  1.00  0.00     0.037 A 
ATOM     29  C   UNL A   1      47.125  30.508  27.822  1.00  0.00     0.049 A 
ATOM     30  C   UNL A   1      45.211  25.301  26.968  1.00  0.00     0.074 A 
ATOM     31  C   UNL A   1      48.453  30.737  27.502  1.00  0.00     0.029 A 
ATOM     32  N   UNL A   1      46.864  29.180  27.512  1.00  0.00    -0.354 N 
ATOM     33  N   UNL A   1      45.800  26.464  27.108  1.00  0.00    -0.248 NA
ATOM     34  C   UNL A   1      46.051  24.272  26.344  1.00  0.00     0.031 C 
ATOM     35  C   UNL A   1      48.976  29.566  26.943  1.00  0.00     0.029 A 
ATOM     36  C   UNL A   1      47.997  28.585  26.977  1.00  0.00     0.049 A 
ATOM     37  H   UNL A   1      46.002  28.727  27.653  1.00  0.00     0.167 HD
ATOM     38  C   UNL A   1      47.088  26.301  26.614  1.00  0.00     0.074 A 
ATOM     39  C   UNL A   1      47.192  24.927  26.170  1.00  0.00     0.031 C 
ATOM     40  C   UNL A   1      48.092  27.210  26.545  1.00  0.00     0.037 A 
BRANCH  27  41
ATOM     41  C   UNL A   1      46.563  32.879  28.518  1.00  0.00     0.058 A 
ATOM     42  C   UNL A   1      47.090  33.372  29.722  1.00  0.00     0.135 A 
ATOM     43  C   UNL A   1      46.418  33.784  27.453  1.00  0.00     0.135 A 
ATOM     44  F   UNL A   1      47.246  32.555  30.778  1.00  0.00    -0.206 F 
ATOM     45  C   UNL A   1      47.405  34.718  29.884  1.00  0.00     0.059 A 
ATOM     46  C   UNL A   1      46.757  35.129  27.581  1.00  0.00     0.059 A 
ATOM     47  F   UNL A   1      45.928  33.369  26.274  1.00  0.00    -0.206 F 
ATOM     48  C   UNL A   1      47.223  35.591  28.810  1.00  0.00     0.060 A 
BRANCH  48  49
ATOM     49  S   UNL A   1      47.580  37.343  29.053  1.00  0.00     0.124 S 
ATOM     50  O   UNL A   1      47.310  37.880  27.722  1.00  0.00    -0.237 OA
ATOM     51  O   UNL A   1      46.624  37.717  30.091  1.00  0.00    -0.237 OA
ATOM     52  O   UNL A   1      48.981  37.353  29.462  1.00  0.00    -0.744 OA
ENDBRANCH  48  49
ENDBRANCH  27  41
BRANCH  28  53
ATOM     53  C   UNL A   1      43.278  23.548  27.071  1.00  0.00     0.058 A 
ATOM     54  C   UNL A   1      42.954  23.158  25.765  1.00  0.00     0.135 A 
ATOM     55  C   UNL A   1      43.170  22.588  28.090  1.00  0.00     0.135 A 
ATOM     56  F   UNL A   1      43.037  24.041  24.759  1.00  0.00    -0.206 F 
ATOM     57  C   UNL A   1      42.554  21.856  25.474  1.00  0.00     0.059 A 
ATOM     58  C   UNL A   1      42.798  21.275  27.821  1.00  0.00     0.059 A 
ATOM     59  F   UNL A   1      43.487  22.910  29.353  1.00  0.00    -0.206 F 
ATOM     60  C   UNL A   1      42.493  20.919  26.509  1.00  0.00     0.060 A 
BRANCH  60  61
ATOM     61  S   UNL A   1      42.077  19.209  26.100  1.00  0.00     0.124 S 
ATOM     62  O   UNL A   1      42.907  18.978  24.924  1.00  0.00    -0.237 OA
ATOM     63  O   UNL A   1      42.475  18.501  27.313  1.00  0.00    -0.237 OA
ATOM     64  O   UNL A   1      40.638  19.262  25.859  1.00  0.00    -0.744 OA
ENDBRANCH  60  61
ENDBRANCH  28  53
BRANCH  40  65
ATOM     65  C   UNL A   1      49.421  26.750  26.012  1.00  0.00     0.058 A 
ATOM     66  C   UNL A   1      49.792  26.947  24.673  1.00  0.00     0.135 A 
ATOM     67  C   UNL A   1      50.377  26.205  26.885  1.00  0.00     0.135 A 
ATOM     68  F   UNL A   1      48.911  27.451  23.794  1.00  0.00    -0.206 F 
ATOM     69  C   UNL A   1      51.067  26.625  24.219  1.00  0.00     0.059 A 
ATOM     70  C   UNL A   1      51.665  25.900  26.459  1.00  0.00     0.059 A 
ATOM     71  F   UNL A   1      50.073  26.000  28.177  1.00  0.00    -0.206 F 
ATOM     72  C   UNL A   1      52.002  26.115  25.124  1.00  0.00     0.060 A 
BRANCH  72  73
ATOM     73  S   UNL A   1      53.681  25.788  24.543  1.00  0.00     0.124 S 
ATOM     74  O   UNL A   1      53.796  24.352  24.767  1.00  0.00    -0.237 OA
ATOM     75  O   UNL A   1      53.614  26.210  23.148  1.00  0.00    -0.237 OA
ATOM     76  O   UNL A   1      54.508  26.626  25.406  1.00  0.00    -0.744 OA
ENDBRANCH  72  73
ENDBRANCH  40  65
ENDBRANCH  14  15
ENDBRANCH   7   9
ENDBRANCH   4   5
ENDBRANCH   3   4
ENDBRANCH   2   3
ENDBRANCH   1   2
BRANCH   1  77
ATOM     77  C   UNL A   1      35.006  29.029  27.425  1.00  0.00     0.021 C 
BRANCH  77  78
ATOM     78  C   UNL A   1      33.895  28.612  26.455  1.00  0.00     0.116 C 
BRANCH  78  79
ATOM     79  N   UNL A   1      32.699  28.214  27.173  1.00  0.00    -0.356 N 
ATOM     80  C   UNL A   1      31.621  27.469  26.811  1.00  0.00     0.225 C 
ATOM     81  H   UNL A   1      32.661  28.545  28.099  1.00  0.00     0.163 HD
ATOM     82  O   UNL A   1      30.678  27.465  27.604  1.00  0.00    -0.275 OA
BRANCH  80  83
ATOM     83  C   UNL A   1      31.606  26.656  25.514  1.00  0.00     0.109 C 
ATOM     84  C   UNL A   1      30.202  26.184  25.155  1.00  0.00     0.026 C 
ATOM     85  C   UNL A   1      32.537  25.435  25.628  1.00  0.00     0.164 C 
ATOM     86  C   UNL A   1      29.659  25.157  26.127  1.00  0.00     0.101 C 
ATOM     87  N   UNL A   1      32.006  24.303  26.420  1.00  0.00    -0.332 N 
ATOM     88  C   UNL A   1      30.650  24.173  26.714  1.00  0.00     0.223 C 
ATOM     89  O   UNL A   1      30.218  23.290  27.463  1.00  0.00    -0.275 OA
BRANCH  85  90
ATOM     90  C   UNL A   1      33.035  24.967  24.286  1.00  0.00     0.127 A 
ATOM     91  C   UNL A   1      34.204  25.232  23.597  1.00  0.00     0.048 A 
ATOM     92  O   UNL A   1      32.318  24.014  23.622  1.00  0.00    -0.467 OA
ATOM     93  C   UNL A   1      34.236  24.336  22.502  1.00  0.00     0.042 A 
ATOM     94  C   UNL A   1      33.072  23.609  22.568  1.00  0.00     0.195 A 
ENDBRANCH  85  90
BRANCH  87  95
ATOM     95  C   UNL A   1      32.884  23.296  27.071  1.00  0.00     0.122 C 
BRANCH  95  96
ATOM     96  C   UNL A   1      33.078  21.884  26.495  1.00  0.00     0.050 C 
BRANCH  96  97
ATOM     97  C   UNL A   1      34.197  21.688  25.473  1.00  0.00     0.162 C 
BRANCH  97  98
ATOM     98  O   UNL A   1      35.445  21.915  26.124  1.00  0.00    -0.378 OA
BRANCH  98  99
ATOM     99  C   UNL A   1      36.510  22.464  25.325  1.00  0.00     0.118 C 
ATOM    100  C   UNL A   1      36.816  23.909  25.742  1.00  0.00     0.032 C 
ATOM    101  C   UNL A   1      37.668  21.468  25.458  1.00  0.00     0.032 C 
ATOM    102  C   UNL A   1      38.116  24.267  26.444  1.00  0.00     0.003 C 
ATOM    103  C   UNL A   1      39.023  22.091  25.751  1.00  0.00     0.003 C 
ATOM    104  C   UNL A   1      38.904  23.066  26.906  1.00  0.00     0.000 C 
ENDBRANCH  98  99
ENDBRANCH  97  98
ENDBRANCH  96  97
ENDBRANCH  95  96
ENDBRANCH  87  95
ENDBRANCH  80  83
ENDBRANCH  78  79
ENDBRANCH  77  78
ENDBRANCH   1  77
TORSDOF 22
ENDMDL
