MODEL 1
REMARK VINA RESULT:     -10.6      0.000      0.000
REMARK SMILES COC(=O)[C@H]1Sc2nnc(CCC(=O)NCCCCCCNC(=O)c3ccc(-c4c5nc(c(-c6c(F)cc(S(=O)(=O)[O-])cc6F)c6ccc([nH]6)c(-c6c(F)cc(S(=O)(=O)[O-])cc6F)c6nc(c(-c7c(F)cc(S(=O)(=O)[O-])cc7F)c7ccc4[nH]7)C=C6)C=C5)cc3)c(=O)n2N=C1C
REMARK SMILES IDX 18 1 17 2 16 3 15 4 13 5 14 6 12 8 11 9 10 10 5 11 6 12
REMARK SMILES IDX 95 13 7 14 94 15 96 16 8 17 93 18 9 19 91 20 92 21 3 22 4 23
REMARK SMILES IDX 2 24 1 25 19 26 20 27 21 28 22 29 23 30 24 32 25 33 26 34
REMARK SMILES IDX 90 35 27 36 89 37 28 38 29 39 30 40 83 41 31 42 88 43 82 44
REMARK SMILES IDX 84 45 32 46 87 47 81 48 80 49 33 51 67 52 46 53 66 54 47 55
REMARK SMILES IDX 50 56 65 57 85 58 48 59 49 60 64 62 86 63 51 64 34 65 35 66
REMARK SMILES IDX 44 67 36 68 37 69 43 70 45 71 38 72 39 73 40 74 41 75 42 76
REMARK SMILES IDX 68 77 69 78 78 79 70 80 71 81 77 82 79 83 72 84 73 85 74 86
REMARK SMILES IDX 75 87 76 88 52 89 53 90 62 91 54 92 55 93 61 94 63 95 56 96
REMARK SMILES IDX 57 97 58 98 59 99 60 100
REMARK H PARENT 15 7 22 31 84 50 50 61
REMARK Flexibility Score: inf
ROOT
ATOM      1  C   UNL A   1      39.495  33.881  30.515  1.00  0.00     0.002 C 
ENDROOT
BRANCH   1   2
ATOM      2  C   UNL A   1      38.531  34.547  29.518  1.00  0.00     0.021 C 
BRANCH   2   3
ATOM      3  C   UNL A   1      37.352  33.710  28.993  1.00  0.00     0.116 C 
BRANCH   3   4
ATOM      4  N   UNL A   1      36.115  33.995  29.713  1.00  0.00    -0.356 N 
ATOM      5  C   UNL A   1      34.940  33.312  29.812  1.00  0.00     0.220 C 
ATOM      6  O   UNL A   1      34.028  33.818  30.470  1.00  0.00    -0.275 OA
ATOM      7  H   UNL A   1      36.134  34.838  30.223  1.00  0.00     0.163 HD
BRANCH   5   8
ATOM      8  C   UNL A   1      34.742  31.966  29.142  1.00  0.00     0.106 C 
BRANCH   8   9
ATOM      9  C   UNL A   1      33.878  32.067  27.888  1.00  0.00     0.074 C 
BRANCH   9  10
ATOM     10  C   UNL A   1      33.707  30.713  27.253  1.00  0.00     0.131 A 
ATOM     11  C   UNL A   1      32.587  27.405  23.482  1.00  0.00     0.210 C 
ATOM     12  S   UNL A   1      33.244  26.902  25.084  1.00  0.00    -0.063 SA
ATOM     13  C   UNL A   1      31.633  28.576  23.649  1.00  0.00     0.061 C 
ATOM     14  C   UNL A   1      33.472  28.449  25.841  1.00  0.00     0.214 A 
ATOM     15  N   UNL A   1      31.611  29.428  24.618  1.00  0.00    -0.171 NA
ATOM     16  C   UNL A   1      30.571  28.875  22.622  1.00  0.00     0.065 C 
ATOM     17  N   UNL A   1      34.459  28.592  26.668  1.00  0.00    -0.123 NA
ATOM     18  N   UNL A   1      32.535  29.419  25.609  1.00  0.00    -0.169 N 
ATOM     19  N   UNL A   1      34.652  29.826  27.310  1.00  0.00    -0.147 NA
ATOM     20  C   UNL A   1      32.445  30.473  26.487  1.00  0.00     0.296 A 
ATOM     21  O   UNL A   1      31.487  31.219  26.661  1.00  0.00    -0.265 OA
BRANCH  11  22
ATOM     22  C   UNL A   1      33.659  27.566  22.423  1.00  0.00     0.325 C 
ATOM     23  O   UNL A   1      34.301  28.598  22.306  1.00  0.00    -0.250 OA
BRANCH  22  24
ATOM     24  O   UNL A   1      33.773  26.540  21.541  1.00  0.00    -0.468 OA
ATOM     25  C   UNL A   1      32.588  25.743  21.372  1.00  0.00     0.282 C 
ENDBRANCH  22  24
ENDBRANCH  11  22
ENDBRANCH   9  10
ENDBRANCH   8   9
ENDBRANCH   5   8
ENDBRANCH   3   4
ENDBRANCH   2   3
ENDBRANCH   1   2
BRANCH   1  26
ATOM     26  C   UNL A   1      39.223  34.068  32.020  1.00  0.00     0.002 C 
BRANCH  26  27
ATOM     27  C   UNL A   1      39.148  32.820  32.932  1.00  0.00     0.021 C 
BRANCH  27  28
ATOM     28  C   UNL A   1      37.770  32.455  33.534  1.00  0.00     0.116 C 
BRANCH  28  29
ATOM     29  N   UNL A   1      36.855  31.755  32.628  1.00  0.00    -0.352 N 
ATOM     30  C   UNL A   1      36.965  30.590  31.890  1.00  0.00     0.251 C 
ATOM     31  H   UNL A   1      35.987  32.206  32.523  1.00  0.00     0.163 HD
ATOM     32  O   UNL A   1      35.945  29.902  31.786  1.00  0.00    -0.269 OA
BRANCH  30  33
ATOM     33  C   UNL A   1      38.137  30.180  31.057  1.00  0.00     0.039 A 
ATOM     34  C   UNL A   1      39.238  29.657  31.748  1.00  0.00     0.014 A 
ATOM     35  C   UNL A   1      38.329  30.493  29.713  1.00  0.00     0.014 A 
ATOM     36  C   UNL A   1      40.460  29.392  31.100  1.00  0.00     0.010 A 
ATOM     37  C   UNL A   1      39.532  30.152  29.035  1.00  0.00     0.010 A 
ATOM     38  C   UNL A   1      40.626  29.594  29.718  1.00  0.00    -0.014 A 
BRANCH  38  39
ATOM     39  C   UNL A   1      41.932  29.216  29.057  1.00  0.00     0.031 A 
ATOM     40  C   UNL A   1      43.114  30.165  28.978  1.00  0.00     0.074 A 
ATOM     41  C   UNL A   1      42.105  27.965  28.567  1.00  0.00     0.049 A 
ATOM     42  N   UNL A   1      44.335  29.931  28.552  1.00  0.00    -0.248 NA
ATOM     43  C   UNL A   1      42.905  31.548  29.428  1.00  0.00     0.031 C 
ATOM     44  C   UNL A   1      41.079  26.923  28.542  1.00  0.00     0.029 A 
ATOM     45  N   UNL A   1      43.209  27.342  28.021  1.00  0.00    -0.354 N 
ATOM     46  C   UNL A   1      45.043  31.120  28.711  1.00  0.00     0.074 A 
ATOM     47  C   UNL A   1      44.093  32.095  29.206  1.00  0.00     0.031 C 
ATOM     48  C   UNL A   1      41.607  25.786  28.063  1.00  0.00     0.029 A 
ATOM     49  C   UNL A   1      43.009  26.012  27.717  1.00  0.00     0.049 A 
ATOM     50  H   UNL A   1      44.063  27.806  27.862  1.00  0.00     0.167 HD
ATOM     51  C   UNL A   1      46.361  31.377  28.505  1.00  0.00     0.037 A 
ATOM     52  C   UNL A   1      43.844  25.065  27.239  1.00  0.00     0.037 A 
ATOM     53  C   UNL A   1      47.332  30.425  28.021  1.00  0.00     0.049 A 
ATOM     54  C   UNL A   1      45.288  25.391  26.962  1.00  0.00     0.074 A 
ATOM     55  C   UNL A   1      48.690  30.616  27.811  1.00  0.00     0.029 A 
ATOM     56  N   UNL A   1      47.064  29.110  27.678  1.00  0.00    -0.354 N 
ATOM     57  N   UNL A   1      45.933  26.511  27.171  1.00  0.00    -0.248 NA
ATOM     58  C   UNL A   1      46.120  24.319  26.390  1.00  0.00     0.031 C 
ATOM     59  C   UNL A   1      49.234  29.431  27.304  1.00  0.00     0.029 A 
ATOM     60  C   UNL A   1      48.224  28.487  27.240  1.00  0.00     0.049 A 
ATOM     61  H   UNL A   1      46.180  28.681  27.735  1.00  0.00     0.167 HD
ATOM     62  C   UNL A   1      47.250  26.268  26.788  1.00  0.00     0.074 A 
ATOM     63  C   UNL A   1      47.314  24.893  26.344  1.00  0.00     0.031 C 
ATOM     64  C   UNL A   1      48.306  27.116  26.807  1.00  0.00     0.037 A 
BRANCH  51  65
ATOM     65  C   UNL A   1      46.871  32.757  28.842  1.00  0.00     0.058 A 
ATOM     66  C   UNL A   1      47.466  33.022  30.086  1.00  0.00     0.135 A 
ATOM     67  C   UNL A   1      46.868  33.786  27.886  1.00  0.00     0.135 A 
ATOM     68  F   UNL A   1      47.494  32.075  31.036  1.00  0.00    -0.206 F 
ATOM     69  C   UNL A   1      48.022  34.263  30.377  1.00  0.00     0.059 A 
ATOM     70  C   UNL A   1      47.441  35.029  28.147  1.00  0.00     0.059 A 
ATOM     71  F   UNL A   1      46.324  33.583  26.677  1.00  0.00    -0.206 F 
ATOM     72  C   UNL A   1      48.009  35.260  29.399  1.00  0.00     0.060 A 
BRANCH  72  73
ATOM     73  S   UNL A   1      48.756  36.856  29.793  1.00  0.00     0.124 S 
ATOM     74  O   UNL A   1      47.652  37.535  30.467  1.00  0.00    -0.237 OA
ATOM     75  O   UNL A   1      49.878  36.474  30.644  1.00  0.00    -0.237 OA
ATOM     76  O   UNL A   1      49.117  37.396  28.486  1.00  0.00    -0.744 OA
ENDBRANCH  72  73
ENDBRANCH  51  65
BRANCH  52  77
ATOM     77  C   UNL A   1      43.350  23.675  27.015  1.00  0.00     0.058 A 
ATOM     78  C   UNL A   1      43.428  22.711  28.032  1.00  0.00     0.135 A 
ATOM     79  C   UNL A   1      42.818  23.279  25.779  1.00  0.00     0.135 A 
ATOM     80  F   UNL A   1      43.942  23.038  29.228  1.00  0.00    -0.206 F 
ATOM     81  C   UNL A   1      43.016  21.398  27.828  1.00  0.00     0.059 A 
ATOM     82  C   UNL A   1      42.374  21.978  25.558  1.00  0.00     0.059 A 
ATOM     83  F   UNL A   1      42.711  24.165  24.777  1.00  0.00    -0.206 F 
ATOM     84  C   UNL A   1      42.490  21.042  26.585  1.00  0.00     0.060 A 
BRANCH  84  85
ATOM     85  S   UNL A   1      41.925  19.344  26.340  1.00  0.00     0.124 S 
ATOM     86  O   UNL A   1      42.858  18.867  25.326  1.00  0.00    -0.237 OA
ATOM     87  O   UNL A   1      42.084  18.774  27.674  1.00  0.00    -0.237 OA
ATOM     88  O   UNL A   1      40.543  19.511  25.899  1.00  0.00    -0.744 OA
ENDBRANCH  84  85
ENDBRANCH  52  77
BRANCH  64  89
ATOM     89  C   UNL A   1      49.645  26.591  26.356  1.00  0.00     0.058 A 
ATOM     90  C   UNL A   1      50.075  26.715  25.026  1.00  0.00     0.135 A 
ATOM     91  C   UNL A   1      50.536  26.017  27.279  1.00  0.00     0.135 A 
ATOM     92  F   UNL A   1      49.262  27.248  24.100  1.00  0.00    -0.206 F 
ATOM     93  C   UNL A   1      51.334  26.278  24.623  1.00  0.00     0.059 A 
ATOM     94  C   UNL A   1      51.810  25.595  26.903  1.00  0.00     0.059 A 
ATOM     95  F   UNL A   1      50.180  25.879  28.566  1.00  0.00    -0.206 F 
ATOM     96  C   UNL A   1      52.198  25.725  25.570  1.00  0.00     0.060 A 
BRANCH  96  97
ATOM     97  S   UNL A   1      53.847  25.210  25.041  1.00  0.00     0.124 S 
ATOM     98  O   UNL A   1      54.066  26.068  23.881  1.00  0.00    -0.237 OA
ATOM     99  O   UNL A   1      54.659  25.515  26.215  1.00  0.00    -0.237 OA
ATOM    100  O   UNL A   1      53.684  23.789  24.749  1.00  0.00    -0.744 OA
ENDBRANCH  96  97
ENDBRANCH  64  89
ENDBRANCH  38  39
ENDBRANCH  30  33
ENDBRANCH  28  29
ENDBRANCH  27  28
ENDBRANCH  26  27
ENDBRANCH   1  26
TORSDOF 20
ENDMDL
MODEL 2
REMARK VINA RESULT:     -10.4      1.259      2.041
REMARK SMILES COC(=O)[C@H]1Sc2nnc(CCC(=O)NCCCCCCNC(=O)c3ccc(-c4c5nc(c(-c6c(F)cc(S(=O)(=O)[O-])cc6F)c6ccc([nH]6)c(-c6c(F)cc(S(=O)(=O)[O-])cc6F)c6nc(c(-c7c(F)cc(S(=O)(=O)[O-])cc7F)c7ccc4[nH]7)C=C6)C=C5)cc3)c(=O)n2N=C1C
REMARK SMILES IDX 18 1 17 2 16 3 15 4 13 5 14 6 12 8 11 9 10 10 5 11 6 12
REMARK SMILES IDX 95 13 7 14 94 15 96 16 8 17 93 18 9 19 91 20 92 21 3 22 4 23
REMARK SMILES IDX 2 24 1 25 19 26 20 27 21 28 22 29 23 30 24 32 25 33 26 34
REMARK SMILES IDX 90 35 27 36 89 37 28 38 29 39 30 40 83 41 31 42 88 43 82 44
REMARK SMILES IDX 84 45 32 46 87 47 81 48 80 49 33 51 67 52 46 53 66 54 47 55
REMARK SMILES IDX 50 56 65 57 85 58 48 59 49 60 64 62 86 63 51 64 34 65 35 66
REMARK SMILES IDX 44 67 36 68 37 69 43 70 45 71 38 72 39 73 40 74 41 75 42 76
REMARK SMILES IDX 68 77 69 78 78 79 70 80 71 81 77 82 79 83 72 84 73 85 74 86
REMARK SMILES IDX 75 87 76 88 52 89 53 90 62 91 54 92 55 93 61 94 63 95 56 96
REMARK SMILES IDX 57 97 58 98 59 99 60 100
REMARK H PARENT 15 7 22 31 84 50 50 61
REMARK Flexibility Score: inf
ROOT
ATOM      1  C   UNL A   1      39.478  33.894  30.553  1.00  0.00     0.002 C 
ENDROOT
BRANCH   1   2
ATOM      2  C   UNL A   1      38.596  34.625  29.526  1.00  0.00     0.021 C 
BRANCH   2   3
ATOM      3  C   UNL A   1      37.314  33.921  29.052  1.00  0.00     0.116 C 
BRANCH   3   4
ATOM      4  N   UNL A   1      36.221  34.073  30.007  1.00  0.00    -0.356 N 
ATOM      5  C   UNL A   1      34.900  33.744  29.939  1.00  0.00     0.220 C 
ATOM      6  O   UNL A   1      34.180  34.032  30.899  1.00  0.00    -0.275 OA
ATOM      7  H   UNL A   1      36.487  34.491  30.858  1.00  0.00     0.163 HD
BRANCH   5   8
ATOM      8  C   UNL A   1      34.313  33.042  28.730  1.00  0.00     0.106 C 
BRANCH   8   9
ATOM      9  C   UNL A   1      34.607  31.546  28.732  1.00  0.00     0.074 C 
BRANCH   9  10
ATOM     10  C   UNL A   1      33.894  30.864  27.594  1.00  0.00     0.131 A 
ATOM     11  C   UNL A   1      32.015  26.882  24.944  1.00  0.00     0.210 C 
ATOM     12  S   UNL A   1      31.749  28.602  24.476  1.00  0.00    -0.063 SA
ATOM     13  C   UNL A   1      33.409  26.703  25.521  1.00  0.00     0.061 C 
ATOM     14  C   UNL A   1      32.547  29.421  25.784  1.00  0.00     0.214 A 
ATOM     15  N   UNL A   1      34.146  27.610  26.067  1.00  0.00    -0.171 NA
ATOM     16  C   UNL A   1      34.092  25.359  25.519  1.00  0.00     0.065 C 
ATOM     17  N   UNL A   1      32.074  30.560  26.179  1.00  0.00    -0.123 NA
ATOM     18  N   UNL A   1      33.704  28.875  26.269  1.00  0.00    -0.169 N 
ATOM     19  N   UNL A   1      32.714  31.254  27.219  1.00  0.00    -0.147 NA
ATOM     20  C   UNL A   1      34.564  29.677  26.982  1.00  0.00     0.296 A 
ATOM     21  O   UNL A   1      35.761  29.493  27.181  1.00  0.00    -0.265 OA
BRANCH  11  22
ATOM     22  C   UNL A   1      30.877  26.305  25.763  1.00  0.00     0.325 C 
ATOM     23  O   UNL A   1      30.630  26.700  26.892  1.00  0.00    -0.250 OA
BRANCH  22  24
ATOM     24  O   UNL A   1      30.233  25.245  25.212  1.00  0.00    -0.468 OA
ATOM     25  C   UNL A   1      30.490  25.033  23.813  1.00  0.00     0.282 C 
ENDBRANCH  22  24
ENDBRANCH  11  22
ENDBRANCH   9  10
ENDBRANCH   8   9
ENDBRANCH   5   8
ENDBRANCH   3   4
ENDBRANCH   2   3
ENDBRANCH   1   2
BRANCH   1  26
ATOM     26  C   UNL A   1      39.252  34.195  32.047  1.00  0.00     0.002 C 
BRANCH  26  27
ATOM     27  C   UNL A   1      39.018  33.018  33.025  1.00  0.00     0.021 C 
BRANCH  27  28
ATOM     28  C   UNL A   1      37.588  32.826  33.585  1.00  0.00     0.116 C 
BRANCH  28  29
ATOM     29  N   UNL A   1      36.687  32.034  32.744  1.00  0.00    -0.352 N 
ATOM     30  C   UNL A   1      36.833  30.833  32.073  1.00  0.00     0.251 C 
ATOM     31  H   UNL A   1      35.797  32.439  32.633  1.00  0.00     0.163 HD
ATOM     32  O   UNL A   1      35.842  30.096  32.034  1.00  0.00    -0.269 OA
BRANCH  30  33
ATOM     33  C   UNL A   1      38.003  30.426  31.237  1.00  0.00     0.039 A 
ATOM     34  C   UNL A   1      39.123  29.943  31.928  1.00  0.00     0.014 A 
ATOM     35  C   UNL A   1      38.173  30.707  29.883  1.00  0.00     0.014 A 
ATOM     36  C   UNL A   1      40.343  29.687  31.272  1.00  0.00     0.010 A 
ATOM     37  C   UNL A   1      39.376  30.373  29.199  1.00  0.00     0.010 A 
ATOM     38  C   UNL A   1      40.489  29.855  29.884  1.00  0.00    -0.014 A 
BRANCH  38  39
ATOM     39  C   UNL A   1      41.795  29.487  29.217  1.00  0.00     0.031 A 
ATOM     40  C   UNL A   1      42.975  30.440  29.147  1.00  0.00     0.074 A 
ATOM     41  C   UNL A   1      41.970  28.242  28.714  1.00  0.00     0.049 A 
ATOM     42  N   UNL A   1      44.196  30.212  28.718  1.00  0.00    -0.248 NA
ATOM     43  C   UNL A   1      42.763  31.817  29.613  1.00  0.00     0.031 C 
ATOM     44  C   UNL A   1      40.946  27.198  28.679  1.00  0.00     0.029 A 
ATOM     45  N   UNL A   1      43.075  27.627  28.160  1.00  0.00    -0.354 N 
ATOM     46  C   UNL A   1      44.902  31.401  28.889  1.00  0.00     0.074 A 
ATOM     47  C   UNL A   1      43.950  32.370  29.395  1.00  0.00     0.031 C 
ATOM     48  C   UNL A   1      41.476  26.068  28.186  1.00  0.00     0.029 A 
ATOM     49  C   UNL A   1      42.877  26.301  27.842  1.00  0.00     0.049 A 
ATOM     50  H   UNL A   1      43.928  28.095  28.006  1.00  0.00     0.167 HD
ATOM     51  C   UNL A   1      46.220  31.664  28.684  1.00  0.00     0.037 A 
ATOM     52  C   UNL A   1      43.713  25.360  27.352  1.00  0.00     0.037 A 
ATOM     53  C   UNL A   1      47.192  30.719  28.190  1.00  0.00     0.049 A 
ATOM     54  C   UNL A   1      45.156  25.693  27.078  1.00  0.00     0.074 A 
ATOM     55  C   UNL A   1      48.549  30.914  27.980  1.00  0.00     0.029 A 
ATOM     56  N   UNL A   1      46.926  29.407  27.832  1.00  0.00    -0.354 N 
ATOM     57  N   UNL A   1      45.800  26.812  27.299  1.00  0.00    -0.248 NA
ATOM     58  C   UNL A   1      45.990  24.628  26.494  1.00  0.00     0.031 C 
ATOM     59  C   UNL A   1      49.095  29.736  27.460  1.00  0.00     0.029 A 
ATOM     60  C   UNL A   1      48.087  28.791  27.386  1.00  0.00     0.049 A 
ATOM     61  H   UNL A   1      46.043  28.976  27.885  1.00  0.00     0.167 HD
ATOM     62  C   UNL A   1      47.116  26.575  26.911  1.00  0.00     0.074 A 
ATOM     63  C   UNL A   1      47.183  25.206  26.452  1.00  0.00     0.031 C 
ATOM     64  C   UNL A   1      48.171  27.425  26.938  1.00  0.00     0.037 A 
BRANCH  51  65
ATOM     65  C   UNL A   1      46.727  33.040  29.036  1.00  0.00     0.058 A 
ATOM     66  C   UNL A   1      46.708  34.079  28.090  1.00  0.00     0.135 A 
ATOM     67  C   UNL A   1      47.128  33.354  30.344  1.00  0.00     0.135 A 
ATOM     68  F   UNL A   1      46.336  33.834  26.825  1.00  0.00    -0.206 F 
ATOM     69  C   UNL A   1      47.087  35.375  28.426  1.00  0.00     0.059 A 
ATOM     70  C   UNL A   1      47.488  34.651  30.709  1.00  0.00     0.059 A 
ATOM     71  F   UNL A   1      47.153  32.403  31.290  1.00  0.00    -0.206 F 
ATOM     72  C   UNL A   1      47.471  35.652  29.739  1.00  0.00     0.060 A 
BRANCH  72  73
ATOM     73  S   UNL A   1      47.938  37.346  30.155  1.00  0.00     0.124 S 
ATOM     74  O   UNL A   1      49.300  37.160  30.647  1.00  0.00    -0.237 OA
ATOM     75  O   UNL A   1      47.817  38.028  28.871  1.00  0.00    -0.237 OA
ATOM     76  O   UNL A   1      46.957  37.733  31.164  1.00  0.00    -0.744 OA
ENDBRANCH  72  73
ENDBRANCH  51  65
BRANCH  52  77
ATOM     77  C   UNL A   1      43.222  23.972  27.115  1.00  0.00     0.058 A 
ATOM     78  C   UNL A   1      43.121  23.053  28.170  1.00  0.00     0.135 A 
ATOM     79  C   UNL A   1      42.872  23.531  25.829  1.00  0.00     0.135 A 
ATOM     80  F   UNL A   1      43.457  23.423  29.415  1.00  0.00    -0.206 F 
ATOM     81  C   UNL A   1      42.709  21.741  27.960  1.00  0.00     0.059 A 
ATOM     82  C   UNL A   1      42.432  22.231  25.597  1.00  0.00     0.059 A 
ATOM     83  F   UNL A   1      42.941  24.373  24.787  1.00  0.00    -0.206 F 
ATOM     84  C   UNL A   1      42.367  21.340  26.668  1.00  0.00     0.060 A 
BRANCH  84  85
ATOM     85  S   UNL A   1      41.800  19.644  26.411  1.00  0.00     0.124 S 
ATOM     86  O   UNL A   1      42.243  18.996  27.640  1.00  0.00    -0.237 OA
ATOM     87  O   UNL A   1      40.360  19.823  26.265  1.00  0.00    -0.237 OA
ATOM     88  O   UNL A   1      42.499  19.238  25.195  1.00  0.00    -0.744 OA
ENDBRANCH  84  85
ENDBRANCH  52  77
BRANCH  64  89
ATOM     89  C   UNL A   1      49.510  26.908  26.481  1.00  0.00     0.058 A 
ATOM     90  C   UNL A   1      50.358  26.195  27.342  1.00  0.00     0.135 A 
ATOM     91  C   UNL A   1      49.922  27.070  25.147  1.00  0.00     0.135 A 
ATOM     92  F   UNL A   1      50.020  26.018  28.630  1.00  0.00    -0.206 F 
ATOM     93  C   UNL A   1      51.572  25.671  26.903  1.00  0.00     0.059 A 
ATOM     94  C   UNL A   1      51.121  26.533  24.680  1.00  0.00     0.059 A 
ATOM     95  F   UNL A   1      49.149  27.738  24.277  1.00  0.00    -0.206 F 
ATOM     96  C   UNL A   1      51.942  25.840  25.568  1.00  0.00     0.060 A 
BRANCH  96  97
ATOM     97  S   UNL A   1      53.495  25.111  25.002  1.00  0.00     0.124 S 
ATOM     98  O   UNL A   1      53.531  25.539  23.607  1.00  0.00    -0.237 OA
ATOM     99  O   UNL A   1      54.473  25.740  25.883  1.00  0.00    -0.237 OA
ATOM    100  O   UNL A   1      53.297  23.680  25.213  1.00  0.00    -0.744 OA
ENDBRANCH  96  97
ENDBRANCH  64  89
ENDBRANCH  38  39
ENDBRANCH  30  33
ENDBRANCH  28  29
ENDBRANCH  27  28
ENDBRANCH  26  27
ENDBRANCH   1  26
TORSDOF 20
ENDMDL
MODEL 3
REMARK VINA RESULT:     -10.1      6.048     12.339
REMARK SMILES COC(=O)[C@H]1Sc2nnc(CCC(=O)NCCCCCCNC(=O)c3ccc(-c4c5nc(c(-c6c(F)cc(S(=O)(=O)[O-])cc6F)c6ccc([nH]6)c(-c6c(F)cc(S(=O)(=O)[O-])cc6F)c6nc(c(-c7c(F)cc(S(=O)(=O)[O-])cc7F)c7ccc4[nH]7)C=C6)C=C5)cc3)c(=O)n2N=C1C
REMARK SMILES IDX 18 1 17 2 16 3 15 4 13 5 14 6 12 8 11 9 10 10 5 11 6 12
REMARK SMILES IDX 95 13 7 14 94 15 96 16 8 17 93 18 9 19 91 20 92 21 3 22 4 23
REMARK SMILES IDX 2 24 1 25 19 26 20 27 21 28 22 29 23 30 24 32 25 33 26 34
REMARK SMILES IDX 90 35 27 36 89 37 28 38 29 39 30 40 83 41 31 42 88 43 82 44
REMARK SMILES IDX 84 45 32 46 87 47 81 48 80 49 33 51 67 52 46 53 66 54 47 55
REMARK SMILES IDX 50 56 65 57 85 58 48 59 49 60 64 62 86 63 51 64 34 65 35 66
REMARK SMILES IDX 44 67 36 68 37 69 43 70 45 71 38 72 39 73 40 74 41 75 42 76
REMARK SMILES IDX 68 77 69 78 78 79 70 80 71 81 77 82 79 83 72 84 73 85 74 86
REMARK SMILES IDX 75 87 76 88 52 89 53 90 62 91 54 92 55 93 61 94 63 95 56 96
REMARK SMILES IDX 57 97 58 98 59 99 60 100
REMARK H PARENT 15 7 22 31 84 50 50 61
REMARK Flexibility Score: inf
ROOT
ATOM      1  C   UNL A   1      42.312  21.239  27.628  1.00  0.00     0.002 C 
ENDROOT
BRANCH   1   2
ATOM      2  C   UNL A   1      40.779  21.343  27.715  1.00  0.00     0.021 C 
BRANCH   2   3
ATOM      3  C   UNL A   1      39.992  21.441  26.398  1.00  0.00     0.116 C 
BRANCH   3   4
ATOM      4  N   UNL A   1      38.928  22.438  26.469  1.00  0.00    -0.356 N 
ATOM      5  C   UNL A   1      37.792  22.612  25.736  1.00  0.00     0.220 C 
ATOM      6  O   UNL A   1      37.080  23.586  25.992  1.00  0.00    -0.275 OA
ATOM      7  H   UNL A   1      39.055  23.110  27.178  1.00  0.00     0.163 HD
BRANCH   5   8
ATOM      8  C   UNL A   1      37.397  21.646  24.636  1.00  0.00     0.106 C 
BRANCH   8   9
ATOM      9  C   UNL A   1      36.130  20.870  24.976  1.00  0.00     0.074 C 
BRANCH   9  10
ATOM     10  C   UNL A   1      34.909  21.618  24.509  1.00  0.00     0.131 A 
ATOM     11  C   UNL A   1      30.570  24.320  25.042  1.00  0.00     0.210 C 
ATOM     12  S   UNL A   1      31.335  23.972  23.447  1.00  0.00    -0.063 SA
ATOM     13  C   UNL A   1      30.738  23.133  25.976  1.00  0.00     0.061 C 
ATOM     14  C   UNL A   1      32.764  23.121  23.952  1.00  0.00     0.214 A 
ATOM     15  N   UNL A   1      31.647  22.220  25.916  1.00  0.00    -0.171 NA
ATOM     16  C   UNL A   1      29.805  22.913  27.140  1.00  0.00     0.065 C 
ATOM     17  N   UNL A   1      33.843  23.255  23.249  1.00  0.00    -0.123 NA
ATOM     18  N   UNL A   1      32.655  22.262  25.012  1.00  0.00    -0.169 N 
ATOM     19  N   UNL A   1      35.005  22.560  23.622  1.00  0.00    -0.147 NA
ATOM     20  C   UNL A   1      33.610  21.286  25.171  1.00  0.00     0.296 A 
ATOM     21  O   UNL A   1      33.510  20.242  25.807  1.00  0.00    -0.265 OA
BRANCH  11  22
ATOM     22  C   UNL A   1      30.959  25.671  25.607  1.00  0.00     0.325 C 
ATOM     23  O   UNL A   1      31.326  25.806  26.764  1.00  0.00    -0.250 OA
BRANCH  22  24
ATOM     24  O   UNL A   1      30.759  26.732  24.785  1.00  0.00    -0.468 OA
ATOM     25  C   UNL A   1      31.349  27.968  25.224  1.00  0.00     0.282 C 
ENDBRANCH  22  24
ENDBRANCH  11  22
ENDBRANCH   9  10
ENDBRANCH   8   9
ENDBRANCH   5   8
ENDBRANCH   3   4
ENDBRANCH   2   3
ENDBRANCH   1   2
BRANCH   1  26
ATOM     26  C   UNL A   1      43.143  22.491  27.968  1.00  0.00     0.002 C 
BRANCH  26  27
ATOM     27  C   UNL A   1      43.491  23.492  26.839  1.00  0.00     0.021 C 
BRANCH  27  28
ATOM     28  C   UNL A   1      42.522  23.576  25.635  1.00  0.00     0.116 C 
BRANCH  28  29
ATOM     29  N   UNL A   1      42.472  24.875  24.960  1.00  0.00    -0.352 N 
ATOM     30  C   UNL A   1      42.674  26.173  25.393  1.00  0.00     0.251 C 
ATOM     31  H   UNL A   1      42.250  24.811  24.003  1.00  0.00     0.163 HD
ATOM     32  O   UNL A   1      43.225  26.943  24.600  1.00  0.00    -0.269 OA
BRANCH  30  33
ATOM     33  C   UNL A   1      42.127  26.780  26.645  1.00  0.00     0.039 A 
ATOM     34  C   UNL A   1      42.657  28.023  27.016  1.00  0.00     0.014 A 
ATOM     35  C   UNL A   1      41.336  26.127  27.588  1.00  0.00     0.014 A 
ATOM     36  C   UNL A   1      42.350  28.618  28.256  1.00  0.00     0.010 A 
ATOM     37  C   UNL A   1      40.956  26.758  28.805  1.00  0.00     0.010 A 
ATOM     38  C   UNL A   1      41.458  28.020  29.164  1.00  0.00    -0.014 A 
BRANCH  38  39
ATOM     39  C   UNL A   1      41.099  28.740  30.444  1.00  0.00     0.031 A 
ATOM     40  C   UNL A   1      41.928  28.623  31.710  1.00  0.00     0.074 A 
ATOM     41  C   UNL A   1      40.038  29.582  30.472  1.00  0.00     0.049 A 
ATOM     42  N   UNL A   1      41.808  29.282  32.841  1.00  0.00    -0.248 NA
ATOM     43  C   UNL A   1      43.027  27.647  31.713  1.00  0.00     0.031 C 
ATOM     44  C   UNL A   1      39.119  29.812  29.358  1.00  0.00     0.029 A 
ATOM     45  N   UNL A   1      39.565  30.424  31.458  1.00  0.00    -0.354 N 
ATOM     46  C   UNL A   1      42.828  28.825  33.674  1.00  0.00     0.074 A 
ATOM     47  C   UNL A   1      43.513  27.779  32.941  1.00  0.00     0.031 C 
ATOM     48  C   UNL A   1      38.232  30.761  29.697  1.00  0.00     0.029 A 
ATOM     49  C   UNL A   1      38.494  31.200  31.066  1.00  0.00     0.049 A 
ATOM     50  H   UNL A   1      39.956  30.467  32.360  1.00  0.00     0.167 HD
ATOM     51  C   UNL A   1      43.191  29.251  34.912  1.00  0.00     0.037 A 
ATOM     52  C   UNL A   1      37.806  32.169  31.706  1.00  0.00     0.037 A 
ATOM     53  C   UNL A   1      42.533  30.294  35.662  1.00  0.00     0.049 A 
ATOM     54  C   UNL A   1      38.191  32.582  33.103  1.00  0.00     0.074 A 
ATOM     55  C   UNL A   1      42.865  30.789  36.915  1.00  0.00     0.029 A 
ATOM     56  N   UNL A   1      41.423  31.007  35.242  1.00  0.00    -0.354 N 
ATOM     57  N   UNL A   1      39.191  32.164  33.838  1.00  0.00    -0.248 NA
ATOM     58  C   UNL A   1      37.358  33.608  33.752  1.00  0.00     0.031 C 
ATOM     59  C   UNL A   1      41.934  31.772  37.268  1.00  0.00     0.029 A 
ATOM     60  C   UNL A   1      41.047  31.921  36.216  1.00  0.00     0.049 A 
ATOM     61  H   UNL A   1      40.966  30.882  34.379  1.00  0.00     0.167 HD
ATOM     62  C   UNL A   1      39.124  32.897  35.021  1.00  0.00     0.074 A 
ATOM     63  C   UNL A   1      37.994  33.791  34.901  1.00  0.00     0.031 C 
ATOM     64  C   UNL A   1      39.933  32.827  36.105  1.00  0.00     0.037 A 
BRANCH  51  65
ATOM     65  C   UNL A   1      44.402  28.615  35.549  1.00  0.00     0.058 A 
ATOM     66  C   UNL A   1      44.274  27.484  36.372  1.00  0.00     0.135 A 
ATOM     67  C   UNL A   1      45.698  29.064  35.251  1.00  0.00     0.135 A 
ATOM     68  F   UNL A   1      43.058  27.014  36.690  1.00  0.00    -0.206 F 
ATOM     69  C   UNL A   1      45.388  26.833  36.892  1.00  0.00     0.059 A 
ATOM     70  C   UNL A   1      46.829  28.412  35.741  1.00  0.00     0.059 A 
ATOM     71  F   UNL A   1      45.878  30.133  34.460  1.00  0.00    -0.206 F 
ATOM     72  C   UNL A   1      46.662  27.302  36.567  1.00  0.00     0.060 A 
BRANCH  72  73
ATOM     73  S   UNL A   1      48.094  26.427  37.236  1.00  0.00     0.124 S 
ATOM     74  O   UNL A   1      47.771  26.390  38.660  1.00  0.00    -0.237 OA
ATOM     75  O   UNL A   1      48.031  25.147  36.539  1.00  0.00    -0.237 OA
ATOM     76  O   UNL A   1      49.218  27.284  36.872  1.00  0.00    -0.744 OA
ENDBRANCH  72  73
ENDBRANCH  51  65
BRANCH  52  77
ATOM     77  C   UNL A   1      36.680  32.865  31.020  1.00  0.00     0.058 A 
ATOM     78  C   UNL A   1      36.925  33.847  30.048  1.00  0.00     0.135 A 
ATOM     79  C   UNL A   1      35.343  32.583  31.340  1.00  0.00     0.135 A 
ATOM     80  F   UNL A   1      38.186  34.161  29.716  1.00  0.00    -0.206 F 
ATOM     81  C   UNL A   1      35.888  34.540  29.430  1.00  0.00     0.059 A 
ATOM     82  C   UNL A   1      34.287  33.244  30.718  1.00  0.00     0.059 A 
ATOM     83  F   UNL A   1      35.053  31.646  32.256  1.00  0.00    -0.206 F 
ATOM     84  C   UNL A   1      34.571  34.230  29.773  1.00  0.00     0.060 A 
BRANCH  84  85
ATOM     85  S   UNL A   1      33.231  35.110  28.942  1.00  0.00     0.124 S 
ATOM     86  O   UNL A   1      33.945  36.229  28.337  1.00  0.00    -0.237 OA
ATOM     87  O   UNL A   1      32.729  34.098  28.019  1.00  0.00    -0.237 OA
ATOM     88  O   UNL A   1      32.327  35.454  30.035  1.00  0.00    -0.744 OA
ENDBRANCH  84  85
ENDBRANCH  52  77
BRANCH  64  89
ATOM     89  C   UNL A   1      39.655  33.756  37.258  1.00  0.00     0.058 A 
ATOM     90  C   UNL A   1      38.792  33.396  38.304  1.00  0.00     0.135 A 
ATOM     91  C   UNL A   1      40.311  34.996  37.351  1.00  0.00     0.135 A 
ATOM     92  F   UNL A   1      38.132  32.227  38.263  1.00  0.00    -0.206 F 
ATOM     93  C   UNL A   1      38.579  34.234  39.396  1.00  0.00     0.059 A 
ATOM     94  C   UNL A   1      40.131  35.840  38.446  1.00  0.00     0.059 A 
ATOM     95  F   UNL A   1      41.153  35.390  36.383  1.00  0.00    -0.206 F 
ATOM     96  C   UNL A   1      39.258  35.452  39.461  1.00  0.00     0.060 A 
BRANCH  96  97
ATOM     97  S   UNL A   1      39.009  36.504  40.908  1.00  0.00     0.124 S 
ATOM     98  O   UNL A   1      40.356  36.563  41.466  1.00  0.00    -0.237 OA
ATOM     99  O   UNL A   1      38.517  37.742  40.311  1.00  0.00    -0.237 OA
ATOM    100  O   UNL A   1      38.032  35.766  41.703  1.00  0.00    -0.744 OA
ENDBRANCH  96  97
ENDBRANCH  64  89
ENDBRANCH  38  39
ENDBRANCH  30  33
ENDBRANCH  28  29
ENDBRANCH  27  28
ENDBRANCH  26  27
ENDBRANCH   1  26
TORSDOF 20
ENDMDL
