MODEL 1
REMARK VINA RESULT:     -11.4      0.000      0.000
REMARK SMILES Cc1n[nH]c(CN(C)C(=O)N[C@](C)(C(=O)NCCCCCCNC(=O)c2ccc(-c3c4nc(c(-c5c(F)cc(S(=O)(=O)[O-])cc5F)c5ccc([nH]5)c(-c5c(F)cc(S(=O)(=O)[O-])cc5F)c5nc(c(-c6c(F)cc(S(=O)(=O)[O-])cc6F)c6ccc3[nH]6)C=C5)C=C4)cc2)C(F)(F)F)n1
REMARK SMILES IDX 19 1 18 2 17 3 16 4 14 5 15 6 12 8 13 9 11 10 9 11 10 12
REMARK SMILES IDX 7 14 8 15 6 16 5 17 1 18 2 19 3 20 96 21 4 22 92 24 93 25
REMARK SMILES IDX 94 26 95 27 20 28 21 29 22 30 23 31 24 32 25 34 26 35 27 36
REMARK SMILES IDX 91 37 28 38 90 39 29 40 30 41 31 42 84 43 32 44 89 45 83 46
REMARK SMILES IDX 85 47 33 48 88 49 82 50 81 51 34 53 68 54 47 55 67 56 48 57
REMARK SMILES IDX 51 58 66 59 86 60 49 61 50 62 65 64 87 65 52 66 35 67 36 68
REMARK SMILES IDX 45 69 37 70 38 71 44 72 46 73 39 74 40 75 41 76 42 77 43 78
REMARK SMILES IDX 69 79 70 80 79 81 71 82 72 83 78 84 80 85 73 86 74 87 75 88
REMARK SMILES IDX 76 89 77 90 53 91 54 92 63 93 55 94 56 95 62 96 64 97 57 98
REMARK SMILES IDX 58 99 59 100 60 101 61 102
REMARK H PARENT 16 7 11 13 4 23 23 33 85 52 51 63
REMARK Flexibility Score: inf
ROOT
ATOM      1  C   UNL A   1      39.542  22.401  26.411  1.00  0.00     0.002 C 
ENDROOT
BRANCH   1   2
ATOM      2  C   UNL A   1      38.842  23.763  26.482  1.00  0.00     0.021 C 
BRANCH   2   3
ATOM      3  C   UNL A   1      37.389  23.736  26.025  1.00  0.00     0.116 C 
BRANCH   3   4
ATOM      4  N   UNL A   1      37.267  23.515  24.591  1.00  0.00    -0.354 N 
ATOM      5  C   UNL A   1      36.242  22.994  23.846  1.00  0.00     0.255 C 
ATOM      6  O   UNL A   1      36.411  22.984  22.623  1.00  0.00    -0.272 OA
ATOM      7  H   UNL A   1      38.055  23.785  24.067  1.00  0.00     0.163 HD
BRANCH   5   8
ATOM      8  C   UNL A   1      35.001  22.357  24.494  1.00  0.00     0.213 C 
ATOM      9  C   UNL A   1      34.497  23.400  25.532  1.00  0.00     0.056 C 
BRANCH   8  10
ATOM     10  N   UNL A   1      33.878  22.103  23.536  1.00  0.00    -0.316 N 
ATOM     11  C   UNL A   1      33.040  22.812  22.761  1.00  0.00     0.318 C 
ATOM     12  O   UNL A   1      32.290  22.130  22.052  1.00  0.00    -0.249 OA
ATOM     13  H   UNL A   1      33.702  21.138  23.448  1.00  0.00     0.166 HD
BRANCH  11  14
ATOM     14  N   UNL A   1      32.868  24.160  22.857  1.00  0.00    -0.320 N 
ATOM     15  C   UNL A   1      33.790  25.232  22.517  1.00  0.00     0.149 C 
BRANCH  14  16
ATOM     16  C   UNL A   1      31.525  24.619  23.220  1.00  0.00     0.197 C 
BRANCH  16  17
ATOM     17  C   UNL A   1      31.539  25.154  24.603  1.00  0.00     0.144 A 
ATOM     18  C   UNL A   1      31.588  27.602  27.120  1.00  0.00     0.092 C 
ATOM     19  C   UNL A   1      31.548  26.365  26.320  1.00  0.00     0.147 A 
ATOM     20  N   UNL A   1      31.097  25.197  26.794  1.00  0.00    -0.159 NA
ATOM     21  N   UNL A   1      31.902  26.355  25.002  1.00  0.00    -0.215 NA
ATOM     22  N   UNL A   1      31.067  24.452  25.674  1.00  0.00    -0.262 N 
ATOM     23  H   UNL A   1      30.747  23.523  25.633  1.00  0.00     0.192 HD
ENDBRANCH  16  17
ENDBRANCH  14  16
ENDBRANCH  11  14
ENDBRANCH   8  10
BRANCH   8  24
ATOM     24  C   UNL A   1      35.388  21.116  25.339  1.00  0.00     0.420 C 
ATOM     25  F   UNL A   1      34.567  20.061  25.138  1.00  0.00    -0.168 F 
ATOM     26  F   UNL A   1      36.634  20.691  24.971  1.00  0.00    -0.168 F 
ATOM     27  F   UNL A   1      35.460  21.333  26.666  1.00  0.00    -0.168 F 
ENDBRANCH   8  24
ENDBRANCH   5   8
ENDBRANCH   3   4
ENDBRANCH   2   3
ENDBRANCH   1   2
BRANCH   1  28
ATOM     28  C   UNL A   1      40.445  22.014  27.590  1.00  0.00     0.002 C 
BRANCH  28  29
ATOM     29  C   UNL A   1      41.360  20.790  27.441  1.00  0.00     0.021 C 
BRANCH  29  30
ATOM     30  C   UNL A   1      41.498  20.221  26.032  1.00  0.00     0.116 C 
BRANCH  30  31
ATOM     31  N   UNL A   1      42.873  19.867  25.673  1.00  0.00    -0.352 N 
ATOM     32  C   UNL A   1      43.916  20.714  25.326  1.00  0.00     0.251 C 
ATOM     33  H   UNL A   1      43.085  18.906  25.680  1.00  0.00     0.163 HD
ATOM     34  O   UNL A   1      44.882  20.297  24.701  1.00  0.00    -0.269 OA
BRANCH  32  35
ATOM     35  C   UNL A   1      43.833  22.130  25.733  1.00  0.00     0.039 A 
ATOM     36  C   UNL A   1      43.062  23.073  25.052  1.00  0.00     0.014 A 
ATOM     37  C   UNL A   1      44.515  22.482  26.887  1.00  0.00     0.014 A 
ATOM     38  C   UNL A   1      42.916  24.348  25.606  1.00  0.00     0.010 A 
ATOM     39  C   UNL A   1      44.203  23.648  27.531  1.00  0.00     0.010 A 
ATOM     40  C   UNL A   1      43.478  24.626  26.862  1.00  0.00    -0.014 A 
BRANCH  40  41
ATOM     41  C   UNL A   1      43.321  25.925  27.513  1.00  0.00     0.031 A 
ATOM     42  C   UNL A   1      44.320  26.983  27.174  1.00  0.00     0.074 A 
ATOM     43  C   UNL A   1      42.202  26.244  28.203  1.00  0.00     0.049 A 
ATOM     44  N   UNL A   1      45.148  27.586  27.963  1.00  0.00    -0.248 NA
ATOM     45  C   UNL A   1      44.458  27.376  25.763  1.00  0.00     0.031 C 
ATOM     46  C   UNL A   1      40.962  25.468  28.373  1.00  0.00     0.029 A 
ATOM     47  N   UNL A   1      41.897  27.417  28.813  1.00  0.00    -0.354 N 
ATOM     48  C   UNL A   1      45.800  28.553  27.195  1.00  0.00     0.074 A 
ATOM     49  C   UNL A   1      45.429  28.290  25.828  1.00  0.00     0.031 C 
ATOM     50  C   UNL A   1      39.975  26.277  28.809  1.00  0.00     0.029 A 
ATOM     51  C   UNL A   1      40.559  27.559  29.148  1.00  0.00     0.049 A 
ATOM     52  H   UNL A   1      42.570  28.111  29.001  1.00  0.00     0.167 HD
ATOM     53  C   UNL A   1      46.473  29.600  27.757  1.00  0.00     0.037 A 
ATOM     54  C   UNL A   1      39.963  28.660  29.657  1.00  0.00     0.037 A 
ATOM     55  C   UNL A   1      46.694  29.386  29.164  1.00  0.00     0.049 A 
ATOM     56  C   UNL A   1      41.037  29.489  30.261  1.00  0.00     0.074 A 
ATOM     57  C   UNL A   1      47.390  28.449  29.903  1.00  0.00     0.029 A 
ATOM     58  N   UNL A   1      45.847  30.002  30.054  1.00  0.00    -0.354 N 
ATOM     59  N   UNL A   1      41.749  29.118  31.291  1.00  0.00    -0.248 NA
ATOM     60  C   UNL A   1      41.627  30.537  29.444  1.00  0.00     0.031 C 
ATOM     61  C   UNL A   1      46.575  28.207  31.048  1.00  0.00     0.029 A 
ATOM     62  C   UNL A   1      45.463  29.049  30.964  1.00  0.00     0.049 A 
ATOM     63  H   UNL A   1      45.569  30.946  30.040  1.00  0.00     0.167 HD
ATOM     64  C   UNL A   1      43.032  29.579  31.030  1.00  0.00     0.074 A 
ATOM     65  C   UNL A   1      42.872  30.525  29.927  1.00  0.00     0.031 C 
ATOM     66  C   UNL A   1      44.137  28.956  31.541  1.00  0.00     0.037 A 
BRANCH  53  67
ATOM     67  C   UNL A   1      46.707  30.946  27.109  1.00  0.00     0.058 A 
ATOM     68  C   UNL A   1      48.019  31.456  26.999  1.00  0.00     0.135 A 
ATOM     69  C   UNL A   1      45.675  31.864  26.826  1.00  0.00     0.135 A 
ATOM     70  F   UNL A   1      49.082  30.675  27.250  1.00  0.00    -0.206 F 
ATOM     71  C   UNL A   1      48.281  32.795  26.697  1.00  0.00     0.059 A 
ATOM     72  C   UNL A   1      45.915  33.189  26.471  1.00  0.00     0.059 A 
ATOM     73  F   UNL A   1      44.383  31.546  26.979  1.00  0.00    -0.206 F 
ATOM     74  C   UNL A   1      47.218  33.658  26.453  1.00  0.00     0.060 A 
BRANCH  74  75
ATOM     75  S   UNL A   1      47.543  35.412  26.192  1.00  0.00     0.124 S 
ATOM     76  O   UNL A   1      46.233  35.890  25.766  1.00  0.00    -0.237 OA
ATOM     77  O   UNL A   1      47.982  35.844  27.514  1.00  0.00    -0.237 OA
ATOM     78  O   UNL A   1      48.579  35.412  25.163  1.00  0.00    -0.744 OA
ENDBRANCH  74  75
ENDBRANCH  53  67
BRANCH  54  79
ATOM     79  C   UNL A   1      38.607  29.165  29.334  1.00  0.00     0.058 A 
ATOM     80  C   UNL A   1      37.686  29.475  30.345  1.00  0.00     0.135 A 
ATOM     81  C   UNL A   1      38.281  29.604  28.032  1.00  0.00     0.135 A 
ATOM     82  F   UNL A   1      37.930  29.111  31.612  1.00  0.00    -0.206 F 
ATOM     83  C   UNL A   1      36.530  30.220  30.091  1.00  0.00     0.059 A 
ATOM     84  C   UNL A   1      37.131  30.337  27.754  1.00  0.00     0.059 A 
ATOM     85  F   UNL A   1      39.123  29.408  27.004  1.00  0.00    -0.206 F 
ATOM     86  C   UNL A   1      36.272  30.665  28.794  1.00  0.00     0.060 A 
BRANCH  86  87
ATOM     87  S   UNL A   1      34.883  31.783  28.497  1.00  0.00     0.124 S 
ATOM     88  O   UNL A   1      34.538  32.199  29.853  1.00  0.00    -0.237 OA
ATOM     89  O   UNL A   1      35.487  32.805  27.650  1.00  0.00    -0.237 OA
ATOM     90  O   UNL A   1      33.899  30.931  27.834  1.00  0.00    -0.744 OA
ENDBRANCH  86  87
ENDBRANCH  54  79
BRANCH  66  91
ATOM     91  C   UNL A   1      43.943  27.904  32.609  1.00  0.00     0.058 A 
ATOM     92  C   UNL A   1      43.651  28.193  33.954  1.00  0.00     0.135 A 
ATOM     93  C   UNL A   1      43.863  26.560  32.219  1.00  0.00     0.135 A 
ATOM     94  F   UNL A   1      43.600  29.457  34.391  1.00  0.00    -0.206 F 
ATOM     95  C   UNL A   1      43.326  27.195  34.874  1.00  0.00     0.059 A 
ATOM     96  C   UNL A   1      43.511  25.548  33.111  1.00  0.00     0.059 A 
ATOM     97  F   UNL A   1      44.065  26.219  30.935  1.00  0.00    -0.206 F 
ATOM     98  C   UNL A   1      43.253  25.872  34.442  1.00  0.00     0.060 A 
BRANCH  98  99
ATOM     99  S   UNL A   1      42.731  24.596  35.609  1.00  0.00     0.124 S 
ATOM    100  O   UNL A   1      43.584  24.867  36.762  1.00  0.00    -0.237 OA
ATOM    101  O   UNL A   1      41.311  24.889  35.790  1.00  0.00    -0.237 OA
ATOM    102  O   UNL A   1      43.014  23.350  34.902  1.00  0.00    -0.744 OA
ENDBRANCH  98  99
ENDBRANCH  66  91
ENDBRANCH  40  41
ENDBRANCH  32  35
ENDBRANCH  30  31
ENDBRANCH  29  30
ENDBRANCH  28  29
ENDBRANCH   1  28
TORSDOF 21
ENDMDL
MODEL 2
REMARK VINA RESULT:     -11.1      2.733      3.803
REMARK SMILES Cc1n[nH]c(CN(C)C(=O)N[C@](C)(C(=O)NCCCCCCNC(=O)c2ccc(-c3c4nc(c(-c5c(F)cc(S(=O)(=O)[O-])cc5F)c5ccc([nH]5)c(-c5c(F)cc(S(=O)(=O)[O-])cc5F)c5nc(c(-c6c(F)cc(S(=O)(=O)[O-])cc6F)c6ccc3[nH]6)C=C5)C=C4)cc2)C(F)(F)F)n1
REMARK SMILES IDX 19 1 18 2 17 3 16 4 14 5 15 6 12 8 13 9 11 10 9 11 10 12
REMARK SMILES IDX 7 14 8 15 6 16 5 17 1 18 2 19 3 20 96 21 4 22 92 24 93 25
REMARK SMILES IDX 94 26 95 27 20 28 21 29 22 30 23 31 24 32 25 34 26 35 27 36
REMARK SMILES IDX 91 37 28 38 90 39 29 40 30 41 31 42 84 43 32 44 89 45 83 46
REMARK SMILES IDX 85 47 33 48 88 49 82 50 81 51 34 53 68 54 47 55 67 56 48 57
REMARK SMILES IDX 51 58 66 59 86 60 49 61 50 62 65 64 87 65 52 66 35 67 36 68
REMARK SMILES IDX 45 69 37 70 38 71 44 72 46 73 39 74 40 75 41 76 42 77 43 78
REMARK SMILES IDX 69 79 70 80 79 81 71 82 72 83 78 84 80 85 73 86 74 87 75 88
REMARK SMILES IDX 76 89 77 90 53 91 54 92 63 93 55 94 56 95 62 96 64 97 57 98
REMARK SMILES IDX 58 99 59 100 60 101 61 102
REMARK H PARENT 16 7 11 13 4 23 23 33 85 52 51 63
REMARK Flexibility Score: inf
ROOT
ATOM      1  C   UNL A   1      36.658  23.407  25.056  1.00  0.00     0.002 C 
ENDROOT
BRANCH   1   2
ATOM      2  C   UNL A   1      35.436  24.007  24.352  1.00  0.00     0.021 C 
BRANCH   2   3
ATOM      3  C   UNL A   1      34.349  24.489  25.304  1.00  0.00     0.116 C 
BRANCH   3   4
ATOM      4  N   UNL A   1      33.170  23.636  25.271  1.00  0.00    -0.354 N 
ATOM      5  C   UNL A   1      31.971  23.784  24.624  1.00  0.00     0.255 C 
ATOM      6  O   UNL A   1      31.172  22.850  24.743  1.00  0.00    -0.272 OA
ATOM      7  H   UNL A   1      33.247  22.812  25.804  1.00  0.00     0.163 HD
BRANCH   5   8
ATOM      8  C   UNL A   1      31.594  25.080  23.888  1.00  0.00     0.213 C 
ATOM      9  C   UNL A   1      30.113  24.891  23.452  1.00  0.00     0.056 C 
BRANCH   8  10
ATOM     10  N   UNL A   1      31.651  26.306  24.748  1.00  0.00    -0.316 N 
ATOM     11  C   UNL A   1      31.280  27.595  24.684  1.00  0.00     0.318 C 
ATOM     12  O   UNL A   1      31.480  28.243  25.719  1.00  0.00    -0.249 OA
ATOM     13  H   UNL A   1      32.085  26.110  25.610  1.00  0.00     0.166 HD
BRANCH  11  14
ATOM     14  N   UNL A   1      30.891  28.221  23.539  1.00  0.00    -0.320 N 
ATOM     15  C   UNL A   1      31.707  28.793  22.480  1.00  0.00     0.149 C 
BRANCH  14  16
ATOM     16  C   UNL A   1      29.456  28.204  23.244  1.00  0.00     0.197 C 
BRANCH  16  17
ATOM     17  C   UNL A   1      29.003  29.573  22.897  1.00  0.00     0.144 A 
ATOM     18  C   UNL A   1      28.917  33.081  23.039  1.00  0.00     0.092 C 
ATOM     19  C   UNL A   1      28.727  31.651  22.741  1.00  0.00     0.147 A 
ATOM     20  N   UNL A   1      28.193  31.202  21.598  1.00  0.00    -0.159 NA
ATOM     21  N   UNL A   1      29.162  30.678  23.595  1.00  0.00    -0.215 NA
ATOM     22  N   UNL A   1      28.412  29.879  21.706  1.00  0.00    -0.262 N 
ATOM     23  H   UNL A   1      28.178  29.219  21.015  1.00  0.00     0.192 HD
ENDBRANCH  16  17
ENDBRANCH  14  16
ENDBRANCH  11  14
ENDBRANCH   8  10
BRANCH   8  24
ATOM     24  C   UNL A   1      32.381  25.217  22.560  1.00  0.00     0.420 C 
ATOM     25  F   UNL A   1      33.456  26.031  22.662  1.00  0.00    -0.168 F 
ATOM     26  F   UNL A   1      32.875  23.994  22.201  1.00  0.00    -0.168 F 
ATOM     27  F   UNL A   1      31.651  25.632  21.508  1.00  0.00    -0.168 F 
ENDBRANCH   8  24
ENDBRANCH   5   8
ENDBRANCH   3   4
ENDBRANCH   2   3
ENDBRANCH   1   2
BRANCH   1  28
ATOM     28  C   UNL A   1      37.323  22.192  24.394  1.00  0.00     0.002 C 
BRANCH  28  29
ATOM     29  C   UNL A   1      38.063  21.186  25.286  1.00  0.00     0.021 C 
BRANCH  29  30
ATOM     30  C   UNL A   1      39.086  21.771  26.254  1.00  0.00     0.116 C 
BRANCH  30  31
ATOM     31  N   UNL A   1      40.476  21.507  25.871  1.00  0.00    -0.352 N 
ATOM     32  C   UNL A   1      41.556  22.377  25.904  1.00  0.00     0.251 C 
ATOM     33  H   UNL A   1      40.668  20.596  25.551  1.00  0.00     0.163 HD
ATOM     34  O   UNL A   1      42.553  22.165  25.228  1.00  0.00    -0.269 OA
BRANCH  32  35
ATOM     35  C   UNL A   1      41.474  23.562  26.778  1.00  0.00     0.039 A 
ATOM     36  C   UNL A   1      42.123  23.646  28.011  1.00  0.00     0.014 A 
ATOM     37  C   UNL A   1      40.761  24.645  26.287  1.00  0.00     0.014 A 
ATOM     38  C   UNL A   1      42.120  24.866  28.691  1.00  0.00     0.010 A 
ATOM     39  C   UNL A   1      40.937  25.883  26.842  1.00  0.00     0.010 A 
ATOM     40  C   UNL A   1      41.538  25.993  28.090  1.00  0.00    -0.014 A 
BRANCH  40  41
ATOM     41  C   UNL A   1      41.543  27.306  28.732  1.00  0.00     0.031 A 
ATOM     42  C   UNL A   1      42.701  28.204  28.441  1.00  0.00     0.074 A 
ATOM     43  C   UNL A   1      40.452  27.790  29.369  1.00  0.00     0.049 A 
ATOM     44  N   UNL A   1      43.571  28.685  29.267  1.00  0.00    -0.248 NA
ATOM     45  C   UNL A   1      42.959  28.562  27.037  1.00  0.00     0.031 C 
ATOM     46  C   UNL A   1      39.105  27.204  29.482  1.00  0.00     0.029 A 
ATOM     47  N   UNL A   1      40.294  29.000  29.964  1.00  0.00    -0.354 N 
ATOM     48  C   UNL A   1      44.392  29.540  28.530  1.00  0.00     0.074 A 
ATOM     49  C   UNL A   1      44.050  29.325  27.147  1.00  0.00     0.031 C 
ATOM     50  C   UNL A   1      38.228  28.153  29.871  1.00  0.00     0.029 A 
ATOM     51  C   UNL A   1      38.977  29.337  30.236  1.00  0.00     0.049 A 
ATOM     52  H   UNL A   1      41.053  29.589  30.183  1.00  0.00     0.167 HD
ATOM     53  C   UNL A   1      45.185  30.482  29.122  1.00  0.00     0.037 A 
ATOM     54  C   UNL A   1      38.526  30.518  30.716  1.00  0.00     0.037 A 
ATOM     55  C   UNL A   1      45.307  30.248  30.538  1.00  0.00     0.049 A 
ATOM     56  C   UNL A   1      39.680  31.186  31.369  1.00  0.00     0.074 A 
ATOM     57  C   UNL A   1      45.823  29.225  31.309  1.00  0.00     0.029 A 
ATOM     58  N   UNL A   1      44.518  30.988  31.386  1.00  0.00    -0.354 N 
ATOM     59  N   UNL A   1      40.283  30.722  32.432  1.00  0.00    -0.248 NA
ATOM     60  C   UNL A   1      40.455  32.130  30.580  1.00  0.00     0.031 C 
ATOM     61  C   UNL A   1      44.929  29.113  32.415  1.00  0.00     0.029 A 
ATOM     62  C   UNL A   1      43.958  30.108  32.279  1.00  0.00     0.049 A 
ATOM     63  H   UNL A   1      44.382  31.963  31.360  1.00  0.00     0.167 HD
ATOM     64  C   UNL A   1      41.630  30.989  32.231  1.00  0.00     0.074 A 
ATOM     65  C   UNL A   1      41.661  31.939  31.121  1.00  0.00     0.031 C 
ATOM     66  C   UNL A   1      42.607  30.214  32.793  1.00  0.00     0.037 A 
BRANCH  53  67
ATOM     67  C   UNL A   1      45.643  31.774  28.485  1.00  0.00     0.058 A 
ATOM     68  C   UNL A   1      44.689  32.706  28.019  1.00  0.00     0.135 A 
ATOM     69  C   UNL A   1      46.973  32.017  28.084  1.00  0.00     0.135 A 
ATOM     70  F   UNL A   1      43.390  32.574  28.333  1.00  0.00    -0.206 F 
ATOM     71  C   UNL A   1      45.025  33.759  27.163  1.00  0.00     0.059 A 
ATOM     72  C   UNL A   1      47.337  33.090  27.275  1.00  0.00     0.059 A 
ATOM     73  F   UNL A   1      47.966  31.167  28.375  1.00  0.00    -0.206 F 
ATOM     74  C   UNL A   1      46.351  33.930  26.783  1.00  0.00     0.060 A 
BRANCH  74  75
ATOM     75  S   UNL A   1      46.770  35.204  25.577  1.00  0.00     0.124 S 
ATOM     76  O   UNL A   1      46.018  34.759  24.411  1.00  0.00    -0.237 OA
ATOM     77  O   UNL A   1      46.284  36.416  26.228  1.00  0.00    -0.237 OA
ATOM     78  O   UNL A   1      48.223  35.098  25.469  1.00  0.00    -0.744 OA
ENDBRANCH  74  75
ENDBRANCH  53  67
BRANCH  54  79
ATOM     79  C   UNL A   1      37.275  31.213  30.330  1.00  0.00     0.058 A 
ATOM     80  C   UNL A   1      36.416  31.756  31.296  1.00  0.00     0.135 A 
ATOM     81  C   UNL A   1      37.032  31.590  28.990  1.00  0.00     0.135 A 
ATOM     82  F   UNL A   1      36.591  31.462  32.593  1.00  0.00    -0.206 F 
ATOM     83  C   UNL A   1      35.402  32.659  30.962  1.00  0.00     0.059 A 
ATOM     84  C   UNL A   1      36.021  32.479  28.634  1.00  0.00     0.059 A 
ATOM     85  F   UNL A   1      37.832  31.172  27.996  1.00  0.00    -0.206 F 
ATOM     86  C   UNL A   1      35.226  33.031  29.629  1.00  0.00     0.060 A 
BRANCH  86  87
ATOM     87  S   UNL A   1      34.045  34.337  29.219  1.00  0.00     0.124 S 
ATOM     88  O   UNL A   1      33.135  33.644  28.313  1.00  0.00    -0.237 OA
ATOM     89  O   UNL A   1      33.503  34.683  30.528  1.00  0.00    -0.237 OA
ATOM     90  O   UNL A   1      34.879  35.365  28.603  1.00  0.00    -0.744 OA
ENDBRANCH  86  87
ENDBRANCH  54  79
BRANCH  66  91
ATOM     91  C   UNL A   1      42.212  29.210  33.851  1.00  0.00     0.058 A 
ATOM     92  C   UNL A   1      41.896  27.866  33.581  1.00  0.00     0.135 A 
ATOM     93  C   UNL A   1      42.343  29.570  35.200  1.00  0.00     0.135 A 
ATOM     94  F   UNL A   1      41.855  27.408  32.324  1.00  0.00    -0.206 F 
ATOM     95  C   UNL A   1      41.691  26.933  34.599  1.00  0.00     0.059 A 
ATOM     96  C   UNL A   1      42.172  28.651  36.234  1.00  0.00     0.059 A 
ATOM     97  F   UNL A   1      42.707  30.821  35.529  1.00  0.00    -0.206 F 
ATOM     98  C   UNL A   1      41.835  27.334  35.926  1.00  0.00     0.060 A 
BRANCH  98  99
ATOM     99  S   UNL A   1      41.670  26.102  37.237  1.00  0.00     0.124 S 
ATOM    100  O   UNL A   1      42.831  26.389  38.075  1.00  0.00    -0.237 OA
ATOM    101  O   UNL A   1      40.372  26.428  37.821  1.00  0.00    -0.237 OA
ATOM    102  O   UNL A   1      41.717  24.831  36.519  1.00  0.00    -0.744 OA
ENDBRANCH  98  99
ENDBRANCH  66  91
ENDBRANCH  40  41
ENDBRANCH  32  35
ENDBRANCH  30  31
ENDBRANCH  29  30
ENDBRANCH  28  29
ENDBRANCH   1  28
TORSDOF 21
ENDMDL
MODEL 3
REMARK VINA RESULT:     -11.0      2.695      3.716
REMARK SMILES Cc1n[nH]c(CN(C)C(=O)N[C@](C)(C(=O)NCCCCCCNC(=O)c2ccc(-c3c4nc(c(-c5c(F)cc(S(=O)(=O)[O-])cc5F)c5ccc([nH]5)c(-c5c(F)cc(S(=O)(=O)[O-])cc5F)c5nc(c(-c6c(F)cc(S(=O)(=O)[O-])cc6F)c6ccc3[nH]6)C=C5)C=C4)cc2)C(F)(F)F)n1
REMARK SMILES IDX 19 1 18 2 17 3 16 4 14 5 15 6 12 8 13 9 11 10 9 11 10 12
REMARK SMILES IDX 7 14 8 15 6 16 5 17 1 18 2 19 3 20 96 21 4 22 92 24 93 25
REMARK SMILES IDX 94 26 95 27 20 28 21 29 22 30 23 31 24 32 25 34 26 35 27 36
REMARK SMILES IDX 91 37 28 38 90 39 29 40 30 41 31 42 84 43 32 44 89 45 83 46
REMARK SMILES IDX 85 47 33 48 88 49 82 50 81 51 34 53 68 54 47 55 67 56 48 57
REMARK SMILES IDX 51 58 66 59 86 60 49 61 50 62 65 64 87 65 52 66 35 67 36 68
REMARK SMILES IDX 45 69 37 70 38 71 44 72 46 73 39 74 40 75 41 76 42 77 43 78
REMARK SMILES IDX 69 79 70 80 79 81 71 82 72 83 78 84 80 85 73 86 74 87 75 88
REMARK SMILES IDX 76 89 77 90 53 91 54 92 63 93 55 94 56 95 62 96 64 97 57 98
REMARK SMILES IDX 58 99 59 100 60 101 61 102
REMARK H PARENT 16 7 11 13 4 23 23 33 85 52 51 63
REMARK Flexibility Score: inf
ROOT
ATOM      1  C   UNL A   1      35.865  22.323  24.569  1.00  0.00     0.002 C 
ENDROOT
BRANCH   1   2
ATOM      2  C   UNL A   1      34.893  22.973  25.560  1.00  0.00     0.021 C 
BRANCH   2   3
ATOM      3  C   UNL A   1      33.432  22.899  25.132  1.00  0.00     0.116 C 
BRANCH   3   4
ATOM      4  N   UNL A   1      32.653  24.021  25.636  1.00  0.00    -0.354 N 
ATOM      5  C   UNL A   1      32.029  25.049  24.979  1.00  0.00     0.255 C 
ATOM      6  O   UNL A   1      31.387  25.832  25.685  1.00  0.00    -0.272 OA
ATOM      7  H   UNL A   1      32.559  24.046  26.616  1.00  0.00     0.163 HD
BRANCH   5   8
ATOM      8  C   UNL A   1      32.206  25.282  23.470  1.00  0.00     0.213 C 
ATOM      9  C   UNL A   1      31.940  23.901  22.806  1.00  0.00     0.056 C 
BRANCH   8  10
ATOM     10  N   UNL A   1      31.224  26.252  22.886  1.00  0.00    -0.316 N 
ATOM     11  C   UNL A   1      31.057  27.582  22.801  1.00  0.00     0.318 C 
ATOM     12  O   UNL A   1      30.084  27.939  22.124  1.00  0.00    -0.249 OA
ATOM     13  H   UNL A   1      30.489  25.778  22.433  1.00  0.00     0.166 HD
BRANCH  11  14
ATOM     14  N   UNL A   1      31.759  28.488  23.536  1.00  0.00    -0.320 N 
ATOM     15  C   UNL A   1      33.018  29.147  23.225  1.00  0.00     0.149 C 
BRANCH  14  16
ATOM     16  C   UNL A   1      31.107  28.987  24.749  1.00  0.00     0.197 C 
BRANCH  16  17
ATOM     17  C   UNL A   1      32.136  29.387  25.739  1.00  0.00     0.144 A 
ATOM     18  C   UNL A   1      35.178  29.214  27.485  1.00  0.00     0.092 C 
ATOM     19  C   UNL A   1      33.855  29.559  26.935  1.00  0.00     0.147 A 
ATOM     20  N   UNL A   1      33.316  30.781  27.028  1.00  0.00    -0.159 NA
ATOM     21  N   UNL A   1      33.122  28.657  26.219  1.00  0.00    -0.215 NA
ATOM     22  N   UNL A   1      32.241  30.656  26.229  1.00  0.00    -0.262 N 
ATOM     23  H   UNL A   1      31.612  31.384  26.025  1.00  0.00     0.192 HD
ENDBRANCH  16  17
ENDBRANCH  14  16
ENDBRANCH  11  14
ENDBRANCH   8  10
BRANCH   8  24
ATOM     24  C   UNL A   1      33.680  25.608  23.124  1.00  0.00     0.420 C 
ATOM     25  F   UNL A   1      34.377  26.094  24.177  1.00  0.00    -0.168 F 
ATOM     26  F   UNL A   1      34.321  24.460  22.754  1.00  0.00    -0.168 F 
ATOM     27  F   UNL A   1      33.847  26.461  22.095  1.00  0.00    -0.168 F 
ENDBRANCH   8  24
ENDBRANCH   5   8
ENDBRANCH   3   4
ENDBRANCH   2   3
ENDBRANCH   1   2
BRANCH   1  28
ATOM     28  C   UNL A   1      37.357  22.639  24.741  1.00  0.00     0.002 C 
BRANCH  28  29
ATOM     29  C   UNL A   1      38.123  21.956  25.883  1.00  0.00     0.021 C 
BRANCH  29  30
ATOM     30  C   UNL A   1      39.224  22.780  26.542  1.00  0.00     0.116 C 
BRANCH  30  31
ATOM     31  N   UNL A   1      40.576  22.319  26.220  1.00  0.00    -0.352 N 
ATOM     32  C   UNL A   1      41.709  23.083  25.976  1.00  0.00     0.251 C 
ATOM     33  H   UNL A   1      40.697  21.343  26.171  1.00  0.00     0.163 HD
ATOM     34  O   UNL A   1      42.661  22.615  25.367  1.00  0.00    -0.269 OA
BRANCH  32  35
ATOM     35  C   UNL A   1      41.737  24.471  26.473  1.00  0.00     0.039 A 
ATOM     36  C   UNL A   1      41.171  25.540  25.777  1.00  0.00     0.014 A 
ATOM     37  C   UNL A   1      42.304  24.670  27.722  1.00  0.00     0.014 A 
ATOM     38  C   UNL A   1      41.103  26.788  26.402  1.00  0.00     0.010 A 
ATOM     39  C   UNL A   1      42.049  25.825  28.409  1.00  0.00     0.010 A 
ATOM     40  C   UNL A   1      41.530  26.921  27.732  1.00  0.00    -0.014 A 
BRANCH  40  41
ATOM     41  C   UNL A   1      41.442  28.190  28.453  1.00  0.00     0.031 A 
ATOM     42  C   UNL A   1      42.529  29.186  28.217  1.00  0.00     0.074 A 
ATOM     43  C   UNL A   1      40.322  28.553  29.118  1.00  0.00     0.049 A 
ATOM     44  N   UNL A   1      43.366  29.679  29.071  1.00  0.00    -0.248 NA
ATOM     45  C   UNL A   1      42.755  29.647  26.838  1.00  0.00     0.031 C 
ATOM     46  C   UNL A   1      39.022  27.864  29.195  1.00  0.00     0.029 A 
ATOM     47  N   UNL A   1      40.078  29.709  29.786  1.00  0.00    -0.354 N 
ATOM     48  C   UNL A   1      44.119  30.635  28.388  1.00  0.00     0.074 A 
ATOM     49  C   UNL A   1      43.787  30.480  26.995  1.00  0.00     0.031 C 
ATOM     50  C   UNL A   1      38.079  28.720  29.641  1.00  0.00     0.029 A 
ATOM     51  C   UNL A   1      38.741  29.932  30.078  1.00  0.00     0.049 A 
ATOM     52  H   UNL A   1      40.792  30.338  30.041  1.00  0.00     0.167 HD
ATOM     53  C   UNL A   1      44.843  31.594  29.037  1.00  0.00     0.037 A 
ATOM     54  C   UNL A   1      38.207  31.045  30.629  1.00  0.00     0.037 A 
ATOM     55  C   UNL A   1      44.988  31.284  30.436  1.00  0.00     0.049 A 
ATOM     56  C   UNL A   1      39.312  31.754  31.323  1.00  0.00     0.074 A 
ATOM     57  C   UNL A   1      45.581  30.257  31.143  1.00  0.00     0.029 A 
ATOM     58  N   UNL A   1      44.151  31.911  31.328  1.00  0.00    -0.354 N 
ATOM     59  N   UNL A   1      39.951  31.272  32.355  1.00  0.00    -0.248 NA
ATOM     60  C   UNL A   1      40.012  32.799  30.592  1.00  0.00     0.031 C 
ATOM     61  C   UNL A   1      44.703  30.012  32.240  1.00  0.00     0.029 A 
ATOM     62  C   UNL A   1      43.661  30.940  32.165  1.00  0.00     0.049 A 
ATOM     63  H   UNL A   1      43.944  32.873  31.361  1.00  0.00     0.167 HD
ATOM     64  C   UNL A   1      41.274  31.648  32.171  1.00  0.00     0.074 A 
ATOM     65  C   UNL A   1      41.231  32.665  31.121  1.00  0.00     0.031 C 
ATOM     66  C   UNL A   1      42.308  30.915  32.684  1.00  0.00     0.037 A 
BRANCH  53  67
ATOM     67  C   UNL A   1      45.202  32.953  28.481  1.00  0.00     0.058 A 
ATOM     68  C   UNL A   1      46.557  33.292  28.269  1.00  0.00     0.135 A 
ATOM     69  C   UNL A   1      44.289  34.024  28.390  1.00  0.00     0.135 A 
ATOM     70  F   UNL A   1      47.517  32.356  28.337  1.00  0.00    -0.206 F 
ATOM     71  C   UNL A   1      46.977  34.608  28.051  1.00  0.00     0.059 A 
ATOM     72  C   UNL A   1      44.680  35.334  28.120  1.00  0.00     0.059 A 
ATOM     73  F   UNL A   1      42.986  33.868  28.657  1.00  0.00    -0.206 F 
ATOM     74  C   UNL A   1      46.029  35.624  27.998  1.00  0.00     0.060 A 
BRANCH  74  75
ATOM     75  S   UNL A   1      46.574  37.336  27.848  1.00  0.00     0.124 S 
ATOM     76  O   UNL A   1      45.767  37.801  26.726  1.00  0.00    -0.237 OA
ATOM     77  O   UNL A   1      46.227  37.885  29.155  1.00  0.00    -0.237 OA
ATOM     78  O   UNL A   1      48.005  37.211  27.587  1.00  0.00    -0.744 OA
ENDBRANCH  74  75
ENDBRANCH  53  67
BRANCH  54  79
ATOM     79  C   UNL A   1      36.907  31.668  30.287  1.00  0.00     0.058 A 
ATOM     80  C   UNL A   1      35.990  32.035  31.282  1.00  0.00     0.135 A 
ATOM     81  C   UNL A   1      36.651  32.159  28.987  1.00  0.00     0.135 A 
ATOM     82  F   UNL A   1      36.171  31.626  32.547  1.00  0.00    -0.206 F 
ATOM     83  C   UNL A   1      34.907  32.880  31.018  1.00  0.00     0.059 A 
ATOM     84  C   UNL A   1      35.574  32.993  28.698  1.00  0.00     0.059 A 
ATOM     85  F   UNL A   1      37.499  31.913  27.975  1.00  0.00    -0.206 F 
ATOM     86  C   UNL A   1      34.720  33.371  29.725  1.00  0.00     0.060 A 
BRANCH  86  87
ATOM     87  S   UNL A   1      33.437  34.608  29.422  1.00  0.00     0.124 S 
ATOM     88  O   UNL A   1      32.953  34.876  30.772  1.00  0.00    -0.237 OA
ATOM     89  O   UNL A   1      34.192  35.684  28.788  1.00  0.00    -0.237 OA
ATOM     90  O   UNL A   1      32.498  33.913  28.546  1.00  0.00    -0.744 OA
ENDBRANCH  86  87
ENDBRANCH  54  79
BRANCH  66  91
ATOM     91  C   UNL A   1      41.993  29.821  33.679  1.00  0.00     0.058 A 
ATOM     92  C   UNL A   1      41.726  28.487  33.323  1.00  0.00     0.135 A 
ATOM     93  C   UNL A   1      42.152  30.091  35.046  1.00  0.00     0.135 A 
ATOM     94  F   UNL A   1      41.663  28.117  32.038  1.00  0.00    -0.206 F 
ATOM     95  C   UNL A   1      41.595  27.477  34.277  1.00  0.00     0.059 A 
ATOM     96  C   UNL A   1      42.055  29.095  36.016  1.00  0.00     0.059 A 
ATOM     97  F   UNL A   1      42.473  31.331  35.453  1.00  0.00    -0.206 F 
ATOM     98  C   UNL A   1      41.766  27.789  35.624  1.00  0.00     0.060 A 
BRANCH  98  99
ATOM     99  S   UNL A   1      41.698  26.462  36.847  1.00  0.00     0.124 S 
ATOM    100  O   UNL A   1      42.904  26.708  37.634  1.00  0.00    -0.237 OA
ATOM    101  O   UNL A   1      40.434  26.720  37.531  1.00  0.00    -0.237 OA
ATOM    102  O   UNL A   1      41.719  25.247  36.036  1.00  0.00    -0.744 OA
ENDBRANCH  98  99
ENDBRANCH  66  91
ENDBRANCH  40  41
ENDBRANCH  32  35
ENDBRANCH  30  31
ENDBRANCH  29  30
ENDBRANCH  28  29
ENDBRANCH   1  28
TORSDOF 21
ENDMDL
