MODEL 1
REMARK VINA RESULT:     -11.6      0.000      0.000
REMARK SMILES CC(=O)NS(=O)(=O)c1ccc(-c2ccn(C(F)F)c(=O)c2)cc1C(=O)NCCCCCCNC(=O)c1ccc(-c2c3nc(c(-c4c(F)cc(S(=O)(=O)[O-])cc4F)c4ccc([nH]4)c(-c4c(F)cc(S(=O)(=O)[O-])cc4F)c4nc(c(-c5c(F)cc(S(=O)(=O)[O-])cc5F)c5ccc2[nH]5)C=C4)C=C3)cc1
REMARK SMILES IDX 30 1 29 2 28 3 27 4 26 5 24 6 25 7 23 9 8 10 9 11 10 12
REMARK SMILES IDX 22 13 11 14 5 15 6 16 7 17 4 18 1 19 2 20 3 21 12 23 13 24
REMARK SMILES IDX 21 25 14 26 19 27 15 28 20 29 16 30 17 31 18 32 31 33 32 34
REMARK SMILES IDX 33 35 34 36 35 38 36 39 37 40 101 41 38 42 100 43 39 44
REMARK SMILES IDX 40 45 41 46 94 47 42 48 99 49 93 50 95 51 43 52 98 53 92 54
REMARK SMILES IDX 91 55 44 57 78 58 57 59 77 60 58 61 61 62 76 63 96 64 59 65
REMARK SMILES IDX 60 66 75 68 97 69 62 70 45 71 46 72 55 73 47 74 48 75 54 76
REMARK SMILES IDX 56 77 49 78 50 79 51 80 52 81 53 82 79 83 80 84 89 85 81 86
REMARK SMILES IDX 82 87 88 88 90 89 83 90 84 91 85 92 86 93 87 94 63 95 64 96
REMARK SMILES IDX 73 97 65 98 66 99 72 100 74 101 67 102 68 103 69 104 70 105
REMARK SMILES IDX 71 106
REMARK H PARENT 26 8 4 22 33 37 95 56 61 67
REMARK Flexibility Score: inf
ROOT
ATOM      1  C   UNL A   1      39.738  22.643  26.885  1.00  0.00     0.002 C 
ENDROOT
BRANCH   1   2
ATOM      2  C   UNL A   1      38.776  23.717  26.377  1.00  0.00     0.002 C 
BRANCH   2   3
ATOM      3  C   UNL A   1      37.614  23.203  25.526  1.00  0.00     0.021 C 
BRANCH   3   4
ATOM      4  C   UNL A   1      36.229  23.743  25.925  1.00  0.00     0.116 C 
BRANCH   4   5
ATOM      5  N   UNL A   1      35.503  22.700  26.639  1.00  0.00    -0.352 N 
ATOM      6  C   UNL A   1      34.181  22.411  26.809  1.00  0.00     0.252 C 
ATOM      7  O   UNL A   1      33.871  21.485  27.561  1.00  0.00    -0.269 OA
ATOM      8  H   UNL A   1      36.097  22.065  27.099  1.00  0.00     0.163 HD
BRANCH   6   9
ATOM      9  C   UNL A   1      33.089  23.046  26.040  1.00  0.00     0.060 A 
ATOM     10  C   UNL A   1      32.445  22.536  24.913  1.00  0.00     0.100 A 
ATOM     11  C   UNL A   1      31.497  23.324  24.233  1.00  0.00     0.024 A 
ATOM     12  C   UNL A   1      31.299  24.662  24.585  1.00  0.00     0.010 A 
ATOM     13  C   UNL A   1      32.860  24.393  26.393  1.00  0.00     0.024 A 
ATOM     14  C   UNL A   1      32.019  25.228  25.641  1.00  0.00    -0.017 A 
BRANCH  10  15
ATOM     15  S   UNL A   1      32.925  21.008  24.166  1.00  0.00     0.264 S 
ATOM     16  O   UNL A   1      34.365  20.943  24.264  1.00  0.00    -0.201 OA
ATOM     17  O   UNL A   1      32.233  20.843  22.911  1.00  0.00    -0.201 OA
BRANCH  15  18
ATOM     18  N   UNL A   1      32.345  19.846  25.198  1.00  0.00    -0.249 N 
ATOM     19  C   UNL A   1      32.898  17.796  23.865  1.00  0.00     0.115 C 
ATOM     20  C   UNL A   1      32.594  18.466  25.175  1.00  0.00     0.230 C 
ATOM     21  O   UNL A   1      32.413  17.822  26.201  1.00  0.00    -0.274 OA
ATOM     22  H   UNL A   1      31.753  20.164  25.916  1.00  0.00     0.183 HD
ENDBRANCH  15  18
ENDBRANCH  10  15
BRANCH  14  23
ATOM     23  C   UNL A   1      32.051  26.695  25.865  1.00  0.00    -0.011 A 
ATOM     24  C   UNL A   1      31.572  27.278  27.110  1.00  0.00     0.027 A 
ATOM     25  C   UNL A   1      32.583  27.515  24.941  1.00  0.00     0.080 A 
ATOM     26  C   UNL A   1      31.667  28.591  27.341  1.00  0.00     0.095 A 
ATOM     27  C   UNL A   1      32.698  28.985  25.184  1.00  0.00     0.255 A 
ATOM     28  N   UNL A   1      32.221  29.438  26.403  1.00  0.00    -0.258 N 
ATOM     29  O   UNL A   1      33.206  29.685  24.314  1.00  0.00    -0.269 OA
BRANCH  28  30
ATOM     30  C   UNL A   1      32.349  30.846  26.682  1.00  0.00     0.451 C 
ATOM     31  F   UNL A   1      31.140  31.405  26.934  1.00  0.00    -0.185 F 
ATOM     32  F   UNL A   1      33.146  31.065  27.756  1.00  0.00    -0.185 F 
ENDBRANCH  28  30
ENDBRANCH  14  23
ENDBRANCH   6   9
ENDBRANCH   4   5
ENDBRANCH   3   4
ENDBRANCH   2   3
ENDBRANCH   1   2
BRANCH   1  33
ATOM     33  C   UNL A   1      39.768  21.325  26.098  1.00  0.00     0.021 C 
BRANCH  33  34
ATOM     34  C   UNL A   1      40.317  20.097  26.829  1.00  0.00     0.116 C 
BRANCH  34  35
ATOM     35  N   UNL A   1      41.299  19.362  26.051  1.00  0.00    -0.352 N 
ATOM     36  C   UNL A   1      42.533  19.758  25.596  1.00  0.00     0.251 C 
ATOM     37  H   UNL A   1      41.041  18.443  25.815  1.00  0.00     0.163 HD
ATOM     38  O   UNL A   1      43.173  19.013  24.859  1.00  0.00    -0.269 OA
BRANCH  36  39
ATOM     39  C   UNL A   1      43.087  21.085  25.957  1.00  0.00     0.039 A 
ATOM     40  C   UNL A   1      43.298  22.016  24.934  1.00  0.00     0.014 A 
ATOM     41  C   UNL A   1      43.435  21.402  27.272  1.00  0.00     0.014 A 
ATOM     42  C   UNL A   1      43.795  23.288  25.236  1.00  0.00     0.010 A 
ATOM     43  C   UNL A   1      43.911  22.682  27.577  1.00  0.00     0.010 A 
ATOM     44  C   UNL A   1      44.083  23.637  26.564  1.00  0.00    -0.014 A 
BRANCH  44  45
ATOM     45  C   UNL A   1      44.542  25.006  26.910  1.00  0.00     0.031 A 
ATOM     46  C   UNL A   1      43.572  26.025  27.433  1.00  0.00     0.074 A 
ATOM     47  C   UNL A   1      45.827  25.349  26.702  1.00  0.00     0.049 A 
ATOM     48  N   UNL A   1      43.765  27.297  27.671  1.00  0.00    -0.248 NA
ATOM     49  C   UNL A   1      42.208  25.555  27.713  1.00  0.00     0.031 C 
ATOM     50  C   UNL A   1      46.866  24.458  26.184  1.00  0.00     0.029 A 
ATOM     51  N   UNL A   1      46.472  26.545  26.887  1.00  0.00    -0.354 N 
ATOM     52  C   UNL A   1      42.539  27.792  28.095  1.00  0.00     0.074 A 
ATOM     53  C   UNL A   1      41.611  26.678  28.093  1.00  0.00     0.031 C 
ATOM     54  C   UNL A   1      48.021  25.140  26.094  1.00  0.00     0.029 A 
ATOM     55  C   UNL A   1      47.796  26.518  26.524  1.00  0.00     0.049 A 
ATOM     56  H   UNL A   1      46.028  27.347  27.247  1.00  0.00     0.167 HD
ATOM     57  C   UNL A   1      42.212  29.059  28.448  1.00  0.00     0.037 A 
ATOM     58  C   UNL A   1      48.723  27.494  26.523  1.00  0.00     0.037 A 
ATOM     59  C   UNL A   1      43.132  30.165  28.477  1.00  0.00     0.049 A 
ATOM     60  C   UNL A   1      48.354  28.876  26.975  1.00  0.00     0.074 A 
ATOM     61  C   UNL A   1      42.885  31.484  28.819  1.00  0.00     0.029 A 
ATOM     62  N   UNL A   1      44.479  30.079  28.166  1.00  0.00    -0.354 N 
ATOM     63  N   UNL A   1      47.185  29.329  27.359  1.00  0.00    -0.248 NA
ATOM     64  C   UNL A   1      49.428  29.880  26.992  1.00  0.00     0.031 C 
ATOM     65  C   UNL A   1      44.087  32.197  28.715  1.00  0.00     0.029 A 
ATOM     66  C   UNL A   1      45.080  31.318  28.316  1.00  0.00     0.049 A 
ATOM     67  H   UNL A   1      44.941  29.258  27.881  1.00  0.00     0.167 HD
ATOM     68  C   UNL A   1      47.382  30.671  27.664  1.00  0.00     0.074 A 
ATOM     69  C   UNL A   1      48.783  30.955  27.430  1.00  0.00     0.031 C 
ATOM     70  C   UNL A   1      46.478  31.583  28.092  1.00  0.00     0.037 A 
BRANCH  57  71
ATOM     71  C   UNL A   1      40.780  29.311  28.808  1.00  0.00     0.058 A 
ATOM     72  C   UNL A   1      39.791  29.439  27.823  1.00  0.00     0.135 A 
ATOM     73  C   UNL A   1      40.397  29.437  30.152  1.00  0.00     0.135 A 
ATOM     74  F   UNL A   1      40.115  29.343  26.525  1.00  0.00    -0.206 F 
ATOM     75  C   UNL A   1      38.468  29.707  28.157  1.00  0.00     0.059 A 
ATOM     76  C   UNL A   1      39.080  29.696  30.510  1.00  0.00     0.059 A 
ATOM     77  F   UNL A   1      41.312  29.329  31.129  1.00  0.00    -0.206 F 
ATOM     78  C   UNL A   1      38.124  29.848  29.503  1.00  0.00     0.060 A 
BRANCH  78  79
ATOM     79  S   UNL A   1      36.415  30.225  29.949  1.00  0.00     0.124 S 
ATOM     80  O   UNL A   1      35.691  29.660  28.815  1.00  0.00    -0.237 OA
ATOM     81  O   UNL A   1      36.247  29.525  31.219  1.00  0.00    -0.237 OA
ATOM     82  O   UNL A   1      36.412  31.682  30.037  1.00  0.00    -0.744 OA
ENDBRANCH  78  79
ENDBRANCH  57  71
BRANCH  58  83
ATOM     83  C   UNL A   1      50.101  27.186  26.074  1.00  0.00     0.058 A 
ATOM     84  C   UNL A   1      51.075  26.765  26.989  1.00  0.00     0.135 A 
ATOM     85  C   UNL A   1      50.453  27.263  24.719  1.00  0.00     0.135 A 
ATOM     86  F   UNL A   1      50.777  26.681  28.294  1.00  0.00    -0.206 F 
ATOM     87  C   UNL A   1      52.358  26.422  26.576  1.00  0.00     0.059 A 
ATOM     88  C   UNL A   1      51.726  26.918  24.282  1.00  0.00     0.059 A 
ATOM     89  F   UNL A   1      49.546  27.651  23.810  1.00  0.00    -0.206 F 
ATOM     90  C   UNL A   1      52.673  26.501  25.218  1.00  0.00     0.060 A 
BRANCH  90  91
ATOM     91  S   UNL A   1      54.308  25.976  24.656  1.00  0.00     0.124 S 
ATOM     92  O   UNL A   1      54.262  24.544  24.921  1.00  0.00    -0.237 OA
ATOM     93  O   UNL A   1      54.303  26.366  23.249  1.00  0.00    -0.237 OA
ATOM     94  O   UNL A   1      55.206  26.752  25.506  1.00  0.00    -0.744 OA
ENDBRANCH  90  91
ENDBRANCH  58  83
BRANCH  70  95
ATOM     95  C   UNL A   1      46.979  32.972  28.350  1.00  0.00     0.058 A 
ATOM     96  C   UNL A   1      47.507  33.331  29.598  1.00  0.00     0.135 A 
ATOM     97  C   UNL A   1      46.969  33.936  27.332  1.00  0.00     0.135 A 
ATOM     98  F   UNL A   1      47.532  32.442  30.603  1.00  0.00    -0.206 F 
ATOM     99  C   UNL A   1      48.007  34.609  29.831  1.00  0.00     0.059 A 
ATOM    100  C   UNL A   1      47.467  35.217  27.542  1.00  0.00     0.059 A 
ATOM    101  F   UNL A   1      46.471  33.636  26.122  1.00  0.00    -0.206 F 
ATOM    102  C   UNL A   1      47.978  35.547  28.798  1.00  0.00     0.060 A 
BRANCH 102 103
ATOM    103  S   UNL A   1      48.658  37.195  29.083  1.00  0.00     0.124 S 
ATOM    104  O   UNL A   1      48.403  37.374  30.509  1.00  0.00    -0.237 OA
ATOM    105  O   UNL A   1      50.059  37.039  28.705  1.00  0.00    -0.237 OA
ATOM    106  O   UNL A   1      47.868  38.039  28.191  1.00  0.00    -0.744 OA
ENDBRANCH 102 103
ENDBRANCH  70  95
ENDBRANCH  44  45
ENDBRANCH  36  39
ENDBRANCH  34  35
ENDBRANCH  33  34
ENDBRANCH   1  33
TORSDOF 20
ENDMDL
MODEL 2
REMARK VINA RESULT:     -11.5      6.378     11.245
REMARK SMILES CC(=O)NS(=O)(=O)c1ccc(-c2ccn(C(F)F)c(=O)c2)cc1C(=O)NCCCCCCNC(=O)c1ccc(-c2c3nc(c(-c4c(F)cc(S(=O)(=O)[O-])cc4F)c4ccc([nH]4)c(-c4c(F)cc(S(=O)(=O)[O-])cc4F)c4nc(c(-c5c(F)cc(S(=O)(=O)[O-])cc5F)c5ccc2[nH]5)C=C4)C=C3)cc1
REMARK SMILES IDX 30 1 29 2 28 3 27 4 26 5 24 6 25 7 23 9 8 10 9 11 10 12
REMARK SMILES IDX 22 13 11 14 5 15 6 16 7 17 4 18 1 19 2 20 3 21 12 23 13 24
REMARK SMILES IDX 21 25 14 26 19 27 15 28 20 29 16 30 17 31 18 32 31 33 32 34
REMARK SMILES IDX 33 35 34 36 35 38 36 39 37 40 101 41 38 42 100 43 39 44
REMARK SMILES IDX 40 45 41 46 94 47 42 48 99 49 93 50 95 51 43 52 98 53 92 54
REMARK SMILES IDX 91 55 44 57 78 58 57 59 77 60 58 61 61 62 76 63 96 64 59 65
REMARK SMILES IDX 60 66 75 68 97 69 62 70 45 71 46 72 55 73 47 74 48 75 54 76
REMARK SMILES IDX 56 77 49 78 50 79 51 80 52 81 53 82 79 83 80 84 89 85 81 86
REMARK SMILES IDX 82 87 88 88 90 89 83 90 84 91 85 92 86 93 87 94 63 95 64 96
REMARK SMILES IDX 73 97 65 98 66 99 72 100 74 101 67 102 68 103 69 104 70 105
REMARK SMILES IDX 71 106
REMARK H PARENT 26 8 4 22 33 37 95 56 61 67
REMARK Flexibility Score: inf
ROOT
ATOM      1  C   UNL A   1      36.998  22.969  25.691  1.00  0.00     0.002 C 
ENDROOT
BRANCH   1   2
ATOM      2  C   UNL A   1      36.967  22.648  24.196  1.00  0.00     0.002 C 
BRANCH   2   3
ATOM      3  C   UNL A   1      35.832  23.306  23.411  1.00  0.00     0.021 C 
BRANCH   3   4
ATOM      4  C   UNL A   1      35.283  24.604  24.030  1.00  0.00     0.116 C 
BRANCH   4   5
ATOM      5  N   UNL A   1      34.228  25.128  23.171  1.00  0.00    -0.352 N 
ATOM      6  C   UNL A   1      32.902  24.848  23.017  1.00  0.00     0.252 C 
ATOM      7  O   UNL A   1      32.277  25.419  22.121  1.00  0.00    -0.269 OA
ATOM      8  H   UNL A   1      34.542  25.841  22.569  1.00  0.00     0.163 HD
BRANCH   6   9
ATOM      9  C   UNL A   1      32.122  24.003  23.946  1.00  0.00     0.060 A 
ATOM     10  C   UNL A   1      31.450  24.414  25.097  1.00  0.00     0.100 A 
ATOM     11  C   UNL A   1      30.846  23.456  25.934  1.00  0.00     0.024 A 
ATOM     12  C   UNL A   1      31.032  22.090  25.704  1.00  0.00     0.010 A 
ATOM     13  C   UNL A   1      32.282  22.618  23.720  1.00  0.00     0.024 A 
ATOM     14  C   UNL A   1      31.799  21.656  24.619  1.00  0.00    -0.017 A 
BRANCH  10  15
ATOM     15  S   UNL A   1      31.507  26.083  25.673  1.00  0.00     0.264 S 
ATOM     16  O   UNL A   1      32.907  26.425  25.790  1.00  0.00    -0.201 OA
ATOM     17  O   UNL A   1      30.584  26.251  26.769  1.00  0.00    -0.201 OA
BRANCH  15  18
ATOM     18  N   UNL A   1      30.924  26.977  24.403  1.00  0.00    -0.249 N 
ATOM     19  C   UNL A   1      31.442  29.280  25.245  1.00  0.00     0.115 C 
ATOM     20  C   UNL A   1      31.156  28.329  24.117  1.00  0.00     0.230 C 
ATOM     21  O   UNL A   1      30.977  28.724  22.972  1.00  0.00    -0.274 OA
ATOM     22  H   UNL A   1      30.341  26.497  23.772  1.00  0.00     0.183 HD
ENDBRANCH  15  18
ENDBRANCH  10  15
BRANCH  14  23
ATOM     23  C   UNL A   1      32.253  20.247  24.501  1.00  0.00    -0.011 A 
ATOM     24  C   UNL A   1      32.656  19.484  25.673  1.00  0.00     0.027 A 
ATOM     25  C   UNL A   1      32.240  19.624  23.308  1.00  0.00     0.080 A 
ATOM     26  C   UNL A   1      32.996  18.194  25.577  1.00  0.00     0.095 A 
ATOM     27  C   UNL A   1      32.615  18.183  23.184  1.00  0.00     0.255 A 
ATOM     28  N   UNL A   1      32.976  17.546  24.359  1.00  0.00    -0.258 N 
ATOM     29  O   UNL A   1      32.571  17.660  22.075  1.00  0.00    -0.269 OA
BRANCH  28  30
ATOM     30  C   UNL A   1      33.310  16.146  24.278  1.00  0.00     0.451 C 
ATOM     31  F   UNL A   1      34.425  15.953  23.532  1.00  0.00    -0.185 F 
ATOM     32  F   UNL A   1      33.530  15.618  25.506  1.00  0.00    -0.185 F 
ENDBRANCH  28  30
ENDBRANCH  14  23
ENDBRANCH   6   9
ENDBRANCH   4   5
ENDBRANCH   3   4
ENDBRANCH   2   3
ENDBRANCH   1   2
BRANCH   1  33
ATOM     33  C   UNL A   1      37.994  24.048  26.138  1.00  0.00     0.021 C 
BRANCH  33  34
ATOM     34  C   UNL A   1      39.253  23.567  26.865  1.00  0.00     0.116 C 
BRANCH  34  35
ATOM     35  N   UNL A   1      40.474  23.826  26.122  1.00  0.00    -0.352 N 
ATOM     36  C   UNL A   1      41.422  24.803  26.303  1.00  0.00     0.251 C 
ATOM     37  H   UNL A   1      40.648  23.207  25.377  1.00  0.00     0.163 HD
ATOM     38  O   UNL A   1      42.339  24.914  25.493  1.00  0.00    -0.269 OA
BRANCH  36  39
ATOM     39  C   UNL A   1      41.334  25.746  27.443  1.00  0.00     0.039 A 
ATOM     40  C   UNL A   1      42.324  26.726  27.572  1.00  0.00     0.014 A 
ATOM     41  C   UNL A   1      40.319  25.648  28.400  1.00  0.00     0.014 A 
ATOM     42  C   UNL A   1      42.262  27.651  28.620  1.00  0.00     0.010 A 
ATOM     43  C   UNL A   1      40.246  26.587  29.435  1.00  0.00     0.010 A 
ATOM     44  C   UNL A   1      41.210  27.601  29.545  1.00  0.00    -0.014 A 
BRANCH  44  45
ATOM     45  C   UNL A   1      41.089  28.618  30.619  1.00  0.00     0.031 A 
ATOM     46  C   UNL A   1      41.985  28.567  31.823  1.00  0.00     0.074 A 
ATOM     47  C   UNL A   1      40.132  29.561  30.538  1.00  0.00     0.049 A 
ATOM     48  N   UNL A   1      41.944  29.291  32.911  1.00  0.00    -0.248 NA
ATOM     49  C   UNL A   1      43.058  27.563  31.803  1.00  0.00     0.031 C 
ATOM     50  C   UNL A   1      39.187  29.713  29.431  1.00  0.00     0.029 A 
ATOM     51  N   UNL A   1      39.788  30.562  31.411  1.00  0.00    -0.354 N 
ATOM     52  C   UNL A   1      42.961  28.811  33.724  1.00  0.00     0.074 A 
ATOM     53  C   UNL A   1      43.610  27.738  32.997  1.00  0.00     0.031 C 
ATOM     54  C   UNL A   1      38.370  30.747  29.691  1.00  0.00     0.029 A 
ATOM     55  C   UNL A   1      38.719  31.314  30.992  1.00  0.00     0.049 A 
ATOM     56  H   UNL A   1      40.263  30.725  32.258  1.00  0.00     0.167 HD
ATOM     57  C   UNL A   1      43.318  29.218  34.966  1.00  0.00     0.037 A 
ATOM     58  C   UNL A   1      38.079  32.337  31.592  1.00  0.00     0.037 A 
ATOM     59  C   UNL A   1      42.696  30.299  35.685  1.00  0.00     0.049 A 
ATOM     60  C   UNL A   1      38.531  32.811  32.941  1.00  0.00     0.074 A 
ATOM     61  C   UNL A   1      42.992  30.778  36.950  1.00  0.00     0.029 A 
ATOM     62  N   UNL A   1      41.660  31.078  35.196  1.00  0.00    -0.354 N 
ATOM     63  N   UNL A   1      39.486  32.334  33.702  1.00  0.00    -0.248 NA
ATOM     64  C   UNL A   1      37.817  33.962  33.515  1.00  0.00     0.031 C 
ATOM     65  C   UNL A   1      42.133  31.850  37.226  1.00  0.00     0.029 A 
ATOM     66  C   UNL A   1      41.310  32.040  36.129  1.00  0.00     0.049 A 
ATOM     67  H   UNL A   1      41.235  30.964  34.316  1.00  0.00     0.167 HD
ATOM     68  C   UNL A   1      39.489  33.126  34.844  1.00  0.00     0.074 A 
ATOM     69  C   UNL A   1      38.449  34.119  34.672  1.00  0.00     0.031 C 
ATOM     70  C   UNL A   1      40.281  33.030  35.939  1.00  0.00     0.037 A 
BRANCH  57  71
ATOM     71  C   UNL A   1      44.428  28.465  35.631  1.00  0.00     0.058 A 
ATOM     72  C   UNL A   1      45.768  28.840  35.464  1.00  0.00     0.135 A 
ATOM     73  C   UNL A   1      44.148  27.350  36.436  1.00  0.00     0.135 A 
ATOM     74  F   UNL A   1      46.084  29.889  34.690  1.00  0.00    -0.206 F 
ATOM     75  C   UNL A   1      46.801  28.119  36.055  1.00  0.00     0.059 A 
ATOM     76  C   UNL A   1      45.162  26.619  37.043  1.00  0.00     0.059 A 
ATOM     77  F   UNL A   1      42.879  26.950  36.619  1.00  0.00    -0.206 F 
ATOM     78  C   UNL A   1      46.488  27.002  36.831  1.00  0.00     0.060 A 
BRANCH  78  79
ATOM     79  S   UNL A   1      47.821  26.040  37.579  1.00  0.00     0.124 S 
ATOM     80  O   UNL A   1      47.154  24.765  37.822  1.00  0.00    -0.237 OA
ATOM     81  O   UNL A   1      48.842  26.031  36.536  1.00  0.00    -0.237 OA
ATOM     82  O   UNL A   1      48.157  26.813  38.770  1.00  0.00    -0.744 OA
ENDBRANCH  78  79
ENDBRANCH  57  71
BRANCH  58  83
ATOM     83  C   UNL A   1      36.936  32.980  30.905  1.00  0.00     0.058 A 
ATOM     84  C   UNL A   1      37.142  33.821  29.803  1.00  0.00     0.135 A 
ATOM     85  C   UNL A   1      35.617  32.729  31.309  1.00  0.00     0.135 A 
ATOM     86  F   UNL A   1      38.390  34.088  29.389  1.00  0.00    -0.206 F 
ATOM     87  C   UNL A   1      36.076  34.391  29.116  1.00  0.00     0.059 A 
ATOM     88  C   UNL A   1      34.535  33.281  30.633  1.00  0.00     0.059 A 
ATOM     89  F   UNL A   1      35.376  31.920  32.352  1.00  0.00    -0.206 F 
ATOM     90  C   UNL A   1      34.775  34.113  29.538  1.00  0.00     0.060 A 
BRANCH  90  91
ATOM     91  S   UNL A   1      33.379  34.777  28.603  1.00  0.00     0.124 S 
ATOM     92  O   UNL A   1      33.957  35.988  28.035  1.00  0.00    -0.237 OA
ATOM     93  O   UNL A   1      33.090  33.703  27.656  1.00  0.00    -0.237 OA
ATOM     94  O   UNL A   1      32.366  34.977  29.634  1.00  0.00    -0.744 OA
ENDBRANCH  90  91
ENDBRANCH  58  83
BRANCH  70  95
ATOM     95  C   UNL A   1      40.062  34.033  37.030  1.00  0.00     0.058 A 
ATOM     96  C   UNL A   1      40.686  35.288  36.995  1.00  0.00     0.135 A 
ATOM     97  C   UNL A   1      39.192  33.755  38.094  1.00  0.00     0.135 A 
ATOM     98  F   UNL A   1      41.531  35.596  35.998  1.00  0.00    -0.206 F 
ATOM     99  C   UNL A   1      40.458  36.238  37.986  1.00  0.00     0.059 A 
ATOM    100  C   UNL A   1      38.946  34.690  39.093  1.00  0.00     0.059 A 
ATOM    101  F   UNL A   1      38.574  32.566  38.168  1.00  0.00    -0.206 F 
ATOM    102  C   UNL A   1      39.590  35.927  39.035  1.00  0.00     0.060 A 
BRANCH 102 103
ATOM    103  S   UNL A   1      39.262  37.168  40.306  1.00  0.00     0.124 S 
ATOM    104  O   UNL A   1      38.506  38.164  39.554  1.00  0.00    -0.237 OA
ATOM    105  O   UNL A   1      38.506  36.418  41.304  1.00  0.00    -0.237 OA
ATOM    106  O   UNL A   1      40.600  37.575  40.723  1.00  0.00    -0.744 OA
ENDBRANCH 102 103
ENDBRANCH  70  95
ENDBRANCH  44  45
ENDBRANCH  36  39
ENDBRANCH  34  35
ENDBRANCH  33  34
ENDBRANCH   1  33
TORSDOF 20
ENDMDL
MODEL 3
REMARK VINA RESULT:     -11.5      6.083      8.307
REMARK SMILES CC(=O)NS(=O)(=O)c1ccc(-c2ccn(C(F)F)c(=O)c2)cc1C(=O)NCCCCCCNC(=O)c1ccc(-c2c3nc(c(-c4c(F)cc(S(=O)(=O)[O-])cc4F)c4ccc([nH]4)c(-c4c(F)cc(S(=O)(=O)[O-])cc4F)c4nc(c(-c5c(F)cc(S(=O)(=O)[O-])cc5F)c5ccc2[nH]5)C=C4)C=C3)cc1
REMARK SMILES IDX 30 1 29 2 28 3 27 4 26 5 24 6 25 7 23 9 8 10 9 11 10 12
REMARK SMILES IDX 22 13 11 14 5 15 6 16 7 17 4 18 1 19 2 20 3 21 12 23 13 24
REMARK SMILES IDX 21 25 14 26 19 27 15 28 20 29 16 30 17 31 18 32 31 33 32 34
REMARK SMILES IDX 33 35 34 36 35 38 36 39 37 40 101 41 38 42 100 43 39 44
REMARK SMILES IDX 40 45 41 46 94 47 42 48 99 49 93 50 95 51 43 52 98 53 92 54
REMARK SMILES IDX 91 55 44 57 78 58 57 59 77 60 58 61 61 62 76 63 96 64 59 65
REMARK SMILES IDX 60 66 75 68 97 69 62 70 45 71 46 72 55 73 47 74 48 75 54 76
REMARK SMILES IDX 56 77 49 78 50 79 51 80 52 81 53 82 79 83 80 84 89 85 81 86
REMARK SMILES IDX 82 87 88 88 90 89 83 90 84 91 85 92 86 93 87 94 63 95 64 96
REMARK SMILES IDX 73 97 65 98 66 99 72 100 74 101 67 102 68 103 69 104 70 105
REMARK SMILES IDX 71 106
REMARK H PARENT 26 8 4 22 33 37 95 56 61 67
REMARK Flexibility Score: inf
ROOT
ATOM      1  C   UNL A   1      39.098  22.674  26.470  1.00  0.00     0.002 C 
ENDROOT
BRANCH   1   2
ATOM      2  C   UNL A   1      38.271  21.647  25.694  1.00  0.00     0.002 C 
BRANCH   2   3
ATOM      3  C   UNL A   1      37.271  22.234  24.697  1.00  0.00     0.021 C 
BRANCH   3   4
ATOM      4  C   UNL A   1      36.155  23.088  25.325  1.00  0.00     0.116 C 
BRANCH   4   5
ATOM      5  N   UNL A   1      35.605  22.377  26.473  1.00  0.00    -0.352 N 
ATOM      6  C   UNL A   1      34.342  22.063  26.879  1.00  0.00     0.252 C 
ATOM      7  O   UNL A   1      34.192  21.513  27.972  1.00  0.00    -0.269 OA
ATOM      8  H   UNL A   1      36.299  22.053  27.091  1.00  0.00     0.163 HD
BRANCH   6   9
ATOM      9  C   UNL A   1      33.140  22.210  26.031  1.00  0.00     0.060 A 
ATOM     10  C   UNL A   1      32.594  21.260  25.168  1.00  0.00     0.100 A 
ATOM     11  C   UNL A   1      31.505  21.604  24.346  1.00  0.00     0.024 A 
ATOM     12  C   UNL A   1      31.054  22.926  24.277  1.00  0.00     0.010 A 
ATOM     13  C   UNL A   1      32.657  23.535  25.961  1.00  0.00     0.024 A 
ATOM     14  C   UNL A   1      31.663  23.919  25.049  1.00  0.00    -0.017 A 
BRANCH  10  15
ATOM     15  S   UNL A   1      33.354  19.686  24.902  1.00  0.00     0.264 S 
ATOM     16  O   UNL A   1      32.761  18.782  25.861  1.00  0.00    -0.201 OA
ATOM     17  O   UNL A   1      34.782  19.850  24.785  1.00  0.00    -0.201 OA
BRANCH  15  18
ATOM     18  N   UNL A   1      32.795  19.206  23.416  1.00  0.00    -0.249 N 
ATOM     19  C   UNL A   1      34.019  17.029  23.198  1.00  0.00     0.115 C 
ATOM     20  C   UNL A   1      32.878  17.935  22.829  1.00  0.00     0.230 C 
ATOM     21  O   UNL A   1      32.100  17.656  21.926  1.00  0.00    -0.274 OA
ATOM     22  H   UNL A   1      32.349  19.899  22.879  1.00  0.00     0.183 HD
ENDBRANCH  15  18
ENDBRANCH  10  15
BRANCH  14  23
ATOM     23  C   UNL A   1      31.411  25.361  24.801  1.00  0.00    -0.011 A 
ATOM     24  C   UNL A   1      31.536  26.343  25.870  1.00  0.00     0.027 A 
ATOM     25  C   UNL A   1      31.123  25.801  23.563  1.00  0.00     0.080 A 
ATOM     26  C   UNL A   1      31.380  27.649  25.631  1.00  0.00     0.095 A 
ATOM     27  C   UNL A   1      30.949  27.257  23.280  1.00  0.00     0.255 A 
ATOM     28  N   UNL A   1      31.094  28.109  24.363  1.00  0.00    -0.258 N 
ATOM     29  O   UNL A   1      30.702  27.605  22.130  1.00  0.00    -0.269 OA
BRANCH  28  30
ATOM     30  C   UNL A   1      30.966  29.523  24.115  1.00  0.00     0.451 C 
ATOM     31  F   UNL A   1      29.684  29.852  23.819  1.00  0.00    -0.185 F 
ATOM     32  F   UNL A   1      31.349  30.249  25.193  1.00  0.00    -0.185 F 
ENDBRANCH  28  30
ENDBRANCH  14  23
ENDBRANCH   6   9
ENDBRANCH   4   5
ENDBRANCH   3   4
ENDBRANCH   2   3
ENDBRANCH   1   2
BRANCH   1  33
ATOM     33  C   UNL A   1      40.384  22.157  27.130  1.00  0.00     0.021 C 
BRANCH  33  34
ATOM     34  C   UNL A   1      41.557  23.137  27.216  1.00  0.00     0.116 C 
BRANCH  34  35
ATOM     35  N   UNL A   1      41.614  24.057  26.094  1.00  0.00    -0.352 N 
ATOM     36  C   UNL A   1      41.482  25.424  26.072  1.00  0.00     0.251 C 
ATOM     37  H   UNL A   1      41.772  23.638  25.218  1.00  0.00     0.163 HD
ATOM     38  O   UNL A   1      41.460  26.013  24.994  1.00  0.00    -0.269 OA
BRANCH  36  39
ATOM     39  C   UNL A   1      41.333  26.194  27.330  1.00  0.00     0.039 A 
ATOM     40  C   UNL A   1      42.299  27.160  27.636  1.00  0.00     0.014 A 
ATOM     41  C   UNL A   1      40.286  25.948  28.222  1.00  0.00     0.014 A 
ATOM     42  C   UNL A   1      42.180  27.925  28.800  1.00  0.00     0.010 A 
ATOM     43  C   UNL A   1      40.155  26.728  29.375  1.00  0.00     0.010 A 
ATOM     44  C   UNL A   1      41.094  27.730  29.667  1.00  0.00    -0.014 A 
BRANCH  44  45
ATOM     45  C   UNL A   1      40.914  28.583  30.868  1.00  0.00     0.031 A 
ATOM     46  C   UNL A   1      39.848  29.639  30.901  1.00  0.00     0.074 A 
ATOM     47  C   UNL A   1      41.750  28.443  31.914  1.00  0.00     0.049 A 
ATOM     48  N   UNL A   1      39.624  30.553  31.809  1.00  0.00    -0.248 NA
ATOM     49  C   UNL A   1      38.922  29.677  29.760  1.00  0.00     0.031 C 
ATOM     50  C   UNL A   1      42.837  27.467  32.002  1.00  0.00     0.029 A 
ATOM     51  N   UNL A   1      41.824  29.135  33.096  1.00  0.00    -0.354 N 
ATOM     52  C   UNL A   1      38.554  31.301  31.336  1.00  0.00     0.074 A 
ATOM     53  C   UNL A   1      38.166  30.725  30.064  1.00  0.00     0.031 C 
ATOM     54  C   UNL A   1      43.469  27.622  33.178  1.00  0.00     0.029 A 
ATOM     55  C   UNL A   1      42.848  28.721  33.912  1.00  0.00     0.049 A 
ATOM     56  H   UNL A   1      41.201  29.859  33.337  1.00  0.00     0.167 HD
ATOM     57  C   UNL A   1      37.953  32.375  31.904  1.00  0.00     0.037 A 
ATOM     58  C   UNL A   1      43.253  29.184  35.111  1.00  0.00     0.037 A 
ATOM     59  C   UNL A   1      38.314  32.939  33.178  1.00  0.00     0.049 A 
ATOM     60  C   UNL A   1      42.534  30.335  35.749  1.00  0.00     0.074 A 
ATOM     61  C   UNL A   1      37.761  34.028  33.828  1.00  0.00     0.029 A 
ATOM     62  N   UNL A   1      39.314  32.448  34.002  1.00  0.00    -0.354 N 
ATOM     63  N   UNL A   1      41.533  31.040  35.280  1.00  0.00    -0.248 NA
ATOM     64  C   UNL A   1      43.000  30.756  37.078  1.00  0.00     0.031 C 
ATOM     65  C   UNL A   1      38.427  34.197  35.049  1.00  0.00     0.029 A 
ATOM     66  C   UNL A   1      39.389  33.206  35.159  1.00  0.00     0.049 A 
ATOM     67  H   UNL A   1      39.887  31.675  33.796  1.00  0.00     0.167 HD
ATOM     68  C   UNL A   1      41.249  31.988  36.255  1.00  0.00     0.074 A 
ATOM     69  C   UNL A   1      42.175  31.761  37.346  1.00  0.00     0.031 C 
ATOM     70  C   UNL A   1      40.307  32.961  36.241  1.00  0.00     0.037 A 
BRANCH  57  71
ATOM     71  C   UNL A   1      36.850  33.022  31.125  1.00  0.00     0.058 A 
ATOM     72  C   UNL A   1      35.503  32.791  31.437  1.00  0.00     0.135 A 
ATOM     73  C   UNL A   1      37.143  33.874  30.049  1.00  0.00     0.135 A 
ATOM     74  F   UNL A   1      35.175  31.970  32.447  1.00  0.00    -0.206 F 
ATOM     75  C   UNL A   1      34.478  33.365  30.693  1.00  0.00     0.059 A 
ATOM     76  C   UNL A   1      36.136  34.465  29.296  1.00  0.00     0.059 A 
ATOM     77  F   UNL A   1      38.419  34.118  29.710  1.00  0.00    -0.206 F 
ATOM     78  C   UNL A   1      34.805  34.190  29.614  1.00  0.00     0.060 A 
BRANCH  78  79
ATOM     79  S   UNL A   1      33.485  34.918  28.621  1.00  0.00     0.124 S 
ATOM     80  O   UNL A   1      34.219  35.920  27.857  1.00  0.00    -0.237 OA
ATOM     81  O   UNL A   1      32.988  33.778  27.855  1.00  0.00    -0.237 OA
ATOM     82  O   UNL A   1      32.565  35.439  29.626  1.00  0.00    -0.744 OA
ENDBRANCH  78  79
ENDBRANCH  57  71
BRANCH  58  83
ATOM     83  C   UNL A   1      44.406  28.543  35.784  1.00  0.00     0.058 A 
ATOM     84  C   UNL A   1      45.708  29.022  35.588  1.00  0.00     0.135 A 
ATOM     85  C   UNL A   1      44.221  27.471  36.669  1.00  0.00     0.135 A 
ATOM     86  F   UNL A   1      45.926  30.044  34.747  1.00  0.00    -0.206 F 
ATOM     87  C   UNL A   1      46.794  28.464  36.253  1.00  0.00     0.059 A 
ATOM     88  C   UNL A   1      45.289  26.902  37.351  1.00  0.00     0.059 A 
ATOM     89  F   UNL A   1      42.988  26.990  36.893  1.00  0.00    -0.206 F 
ATOM     90  C   UNL A   1      46.574  27.404  37.135  1.00  0.00     0.060 A 
BRANCH  90  91
ATOM     91  S   UNL A   1      47.963  26.726  38.071  1.00  0.00     0.124 S 
ATOM     92  O   UNL A   1      47.793  25.296  37.849  1.00  0.00    -0.237 OA
ATOM     93  O   UNL A   1      49.117  27.341  37.420  1.00  0.00    -0.237 OA
ATOM     94  O   UNL A   1      47.698  27.197  39.427  1.00  0.00    -0.744 OA
ENDBRANCH  90  91
ENDBRANCH  58  83
BRANCH  70  95
ATOM     95  C   UNL A   1      40.222  33.847  37.447  1.00  0.00     0.058 A 
ATOM     96  C   UNL A   1      39.365  33.538  38.513  1.00  0.00     0.135 A 
ATOM     97  C   UNL A   1      41.032  34.986  37.557  1.00  0.00     0.135 A 
ATOM     98  F   UNL A   1      38.569  32.459  38.450  1.00  0.00    -0.206 F 
ATOM     99  C   UNL A   1      39.309  34.336  39.652  1.00  0.00     0.059 A 
ATOM    100  C   UNL A   1      40.996  35.796  38.686  1.00  0.00     0.059 A 
ATOM    101  F   UNL A   1      41.867  35.320  36.560  1.00  0.00    -0.206 F 
ATOM    102  C   UNL A   1      40.125  35.467  39.727  1.00  0.00     0.060 A 
BRANCH 102 103
ATOM    103  S   UNL A   1      40.083  36.488  41.216  1.00  0.00     0.124 S 
ATOM    104  O   UNL A   1      38.775  37.123  41.099  1.00  0.00    -0.237 OA
ATOM    105  O   UNL A   1      40.217  35.505  42.287  1.00  0.00    -0.237 OA
ATOM    106  O   UNL A   1      41.232  37.372  41.043  1.00  0.00    -0.744 OA
ENDBRANCH 102 103
ENDBRANCH  70  95
ENDBRANCH  44  45
ENDBRANCH  36  39
ENDBRANCH  34  35
ENDBRANCH  33  34
ENDBRANCH   1  33
TORSDOF 20
ENDMDL
