MODEL 1
REMARK VINA RESULT:     -11.9      0.000      0.000
REMARK SMILES C[C@H]1SC[C@H](C(=O)NCCCCCCNC(=O)c2ccc(-c3c4nc(c(-c5c(F)cc(S(=O)(=O)[O-])cc5F)c5ccc([nH]5)c(-c5c(F)cc(S(=O)(=O)[O-])cc5F)c5nc(c(-c6c(F)cc(S(=O)(=O)[O-])cc6F)c6ccc3[nH]6)C=C5)C=C4)cc2)N1C(=O)[C@@H]1CSc2ccccc21
REMARK SMILES IDX 12 1 11 2 10 3 9 4 8 5 6 6 7 7 5 9 1 10 2 11 3 12 84 13 4 14
REMARK SMILES IDX 85 15 86 16 87 17 88 18 95 19 89 20 90 21 94 22 91 23 93 24
REMARK SMILES IDX 92 25 13 26 14 27 15 28 16 29 17 31 18 32 19 33 83 34 20 35
REMARK SMILES IDX 82 36 21 37 22 38 23 39 76 40 24 41 81 42 75 43 77 44 25 45
REMARK SMILES IDX 80 46 74 47 73 48 26 50 60 51 39 52 59 53 40 54 43 55 58 56
REMARK SMILES IDX 78 57 41 58 42 59 57 61 79 62 44 63 27 64 28 65 37 66 29 67
REMARK SMILES IDX 30 68 36 69 38 70 31 71 32 72 33 73 34 74 35 75 61 76 62 77
REMARK SMILES IDX 71 78 63 79 64 80 70 81 72 82 65 83 66 84 67 85 68 86 69 87
REMARK SMILES IDX 45 88 46 89 55 90 47 91 48 92 54 93 56 94 49 95 50 96 51 97
REMARK SMILES IDX 52 98 53 99
REMARK H PARENT 8 8 15 30 77 49 43 60
REMARK Flexibility Score: inf
ROOT
ATOM      1  C   UNL A   1      35.091  29.587  27.275  1.00  0.00     0.002 C 
ENDROOT
BRANCH   1   2
ATOM      2  C   UNL A   1      34.022  28.830  26.483  1.00  0.00     0.002 C 
BRANCH   2   3
ATOM      3  C   UNL A   1      32.825  28.352  27.311  1.00  0.00     0.021 C 
BRANCH   3   4
ATOM      4  C   UNL A   1      31.550  28.136  26.501  1.00  0.00     0.116 C 
BRANCH   4   5
ATOM      5  N   UNL A   1      30.898  26.898  26.876  1.00  0.00    -0.354 N 
ATOM      6  C   UNL A   1      30.580  25.811  26.121  1.00  0.00     0.243 C 
ATOM      7  O   UNL A   1      29.787  24.996  26.606  1.00  0.00    -0.273 OA
ATOM      8  H   UNL A   1      30.644  26.833  27.825  1.00  0.00     0.163 HD
BRANCH   6   9
ATOM      9  C   UNL A   1      31.002  25.699  24.646  1.00  0.00     0.185 C 
ATOM     10  C   UNL A   1      32.428  24.953  21.955  1.00  0.00     0.043 C 
ATOM     11  C   UNL A   1      32.653  26.114  22.928  1.00  0.00     0.141 C 
ATOM     12  S   UNL A   1      31.397  27.367  22.560  1.00  0.00    -0.135 SA
ATOM     13  N   UNL A   1      32.439  25.726  24.315  1.00  0.00    -0.318 N 
ATOM     14  C   UNL A   1      30.308  26.854  23.909  1.00  0.00     0.107 C 
BRANCH  13  15
ATOM     15  C   UNL A   1      33.326  24.974  25.075  1.00  0.00     0.232 C 
ATOM     16  O   UNL A   1      34.190  25.546  25.752  1.00  0.00    -0.274 OA
BRANCH  15  17
ATOM     17  C   UNL A   1      33.336  23.432  25.057  1.00  0.00     0.120 C 
ATOM     18  C   UNL A   1      32.823  22.768  26.344  1.00  0.00     0.093 C 
ATOM     19  C   UNL A   1      34.668  22.836  24.700  1.00  0.00    -0.021 A 
ATOM     20  S   UNL A   1      34.176  21.791  27.080  1.00  0.00    -0.125 SA
ATOM     21  C   UNL A   1      35.247  22.058  25.702  1.00  0.00     0.011 A 
ATOM     22  C   UNL A   1      35.342  23.067  23.503  1.00  0.00     0.006 A 
ATOM     23  C   UNL A   1      36.557  21.623  25.589  1.00  0.00     0.015 A 
ATOM     24  C   UNL A   1      36.651  22.607  23.371  1.00  0.00     0.000 A 
ATOM     25  C   UNL A   1      37.267  21.918  24.423  1.00  0.00     0.001 A 
ENDBRANCH  15  17
ENDBRANCH  13  15
ENDBRANCH   6   9
ENDBRANCH   4   5
ENDBRANCH   3   4
ENDBRANCH   2   3
ENDBRANCH   1   2
BRANCH   1  26
ATOM     26  C   UNL A   1      34.616  30.897  27.908  1.00  0.00     0.021 C 
BRANCH  26  27
ATOM     27  C   UNL A   1      35.685  31.644  28.699  1.00  0.00     0.116 C 
BRANCH  27  28
ATOM     28  N   UNL A   1      35.555  31.432  30.131  1.00  0.00    -0.352 N 
ATOM     29  C   UNL A   1      36.360  30.709  30.975  1.00  0.00     0.251 C 
ATOM     30  H   UNL A   1      34.780  31.867  30.556  1.00  0.00     0.163 HD
ATOM     31  O   UNL A   1      35.992  30.476  32.125  1.00  0.00    -0.269 OA
BRANCH  29  32
ATOM     32  C   UNL A   1      37.657  30.197  30.489  1.00  0.00     0.039 A 
ATOM     33  C   UNL A   1      37.988  30.362  29.142  1.00  0.00     0.014 A 
ATOM     34  C   UNL A   1      38.546  29.561  31.360  1.00  0.00     0.014 A 
ATOM     35  C   UNL A   1      39.237  29.939  28.681  1.00  0.00     0.010 A 
ATOM     36  C   UNL A   1      39.818  29.211  30.916  1.00  0.00     0.010 A 
ATOM     37  C   UNL A   1      40.176  29.392  29.571  1.00  0.00    -0.014 A 
BRANCH  37  38
ATOM     38  C   UNL A   1      41.535  29.006  29.115  1.00  0.00     0.031 A 
ATOM     39  C   UNL A   1      42.634  30.032  29.057  1.00  0.00     0.074 A 
ATOM     40  C   UNL A   1      41.765  27.744  28.698  1.00  0.00     0.049 A 
ATOM     41  N   UNL A   1      43.863  29.902  28.630  1.00  0.00    -0.248 NA
ATOM     42  C   UNL A   1      42.299  31.391  29.514  1.00  0.00     0.031 C 
ATOM     43  C   UNL A   1      40.768  26.671  28.664  1.00  0.00     0.029 A 
ATOM     44  N   UNL A   1      42.905  27.152  28.214  1.00  0.00    -0.354 N 
ATOM     45  C   UNL A   1      44.444  31.159  28.758  1.00  0.00     0.074 A 
ATOM     46  C   UNL A   1      43.416  32.050  29.247  1.00  0.00     0.031 C 
ATOM     47  C   UNL A   1      41.346  25.548  28.207  1.00  0.00     0.029 A 
ATOM     48  C   UNL A   1      42.739  25.829  27.877  1.00  0.00     0.049 A 
ATOM     49  H   UNL A   1      43.760  27.629  28.118  1.00  0.00     0.167 HD
ATOM     50  C   UNL A   1      45.725  31.529  28.515  1.00  0.00     0.037 A 
ATOM     51  C   UNL A   1      43.609  24.944  27.352  1.00  0.00     0.037 A 
ATOM     52  C   UNL A   1      46.747  30.630  28.044  1.00  0.00     0.049 A 
ATOM     53  C   UNL A   1      45.022  25.382  27.077  1.00  0.00     0.074 A 
ATOM     54  C   UNL A   1      48.085  30.894  27.815  1.00  0.00     0.029 A 
ATOM     55  N   UNL A   1      46.544  29.294  27.727  1.00  0.00    -0.354 N 
ATOM     56  N   UNL A   1      45.571  26.559  27.263  1.00  0.00    -0.248 NA
ATOM     57  C   UNL A   1      45.936  24.372  26.526  1.00  0.00     0.031 C 
ATOM     58  C   UNL A   1      48.681  29.734  27.310  1.00  0.00     0.029 A 
ATOM     59  C   UNL A   1      47.728  28.728  27.281  1.00  0.00     0.049 A 
ATOM     60  H   UNL A   1      45.686  28.818  27.807  1.00  0.00     0.167 HD
ATOM     61  C   UNL A   1      46.902  26.423  26.880  1.00  0.00     0.074 A 
ATOM     62  C   UNL A   1      47.077  25.046  26.465  1.00  0.00     0.031 C 
ATOM     63  C   UNL A   1      47.889  27.353  26.877  1.00  0.00     0.037 A 
BRANCH  50  64
ATOM     64  C   UNL A   1      46.094  32.968  28.755  1.00  0.00     0.058 A 
ATOM     65  C   UNL A   1      46.571  33.410  30.001  1.00  0.00     0.135 A 
ATOM     66  C   UNL A   1      46.005  33.912  27.719  1.00  0.00     0.135 A 
ATOM     67  F   UNL A   1      46.663  32.555  31.031  1.00  0.00    -0.206 F 
ATOM     68  C   UNL A   1      46.917  34.739  30.219  1.00  0.00     0.059 A 
ATOM     69  C   UNL A   1      46.377  35.241  27.906  1.00  0.00     0.059 A 
ATOM     70  F   UNL A   1      45.557  33.547  26.508  1.00  0.00    -0.206 F 
ATOM     71  C   UNL A   1      46.816  35.648  29.164  1.00  0.00     0.060 A 
BRANCH  71  72
ATOM     72  S   UNL A   1      47.276  37.368  29.464  1.00  0.00     0.124 S 
ATOM     73  O   UNL A   1      47.169  37.935  28.122  1.00  0.00    -0.237 OA
ATOM     74  O   UNL A   1      46.261  37.801  30.418  1.00  0.00    -0.237 OA
ATOM     75  O   UNL A   1      48.632  37.270  29.995  1.00  0.00    -0.744 OA
ENDBRANCH  71  72
ENDBRANCH  50  64
BRANCH  51  76
ATOM     76  C   UNL A   1      43.172  23.550  27.070  1.00  0.00     0.058 A 
ATOM     77  C   UNL A   1      42.914  23.124  25.758  1.00  0.00     0.135 A 
ATOM     78  C   UNL A   1      43.017  22.611  28.102  1.00  0.00     0.135 A 
ATOM     79  F   UNL A   1      43.042  23.986  24.737  1.00  0.00    -0.206 F 
ATOM     80  C   UNL A   1      42.502  21.825  25.480  1.00  0.00     0.059 A 
ATOM     81  C   UNL A   1      42.633  21.298  27.846  1.00  0.00     0.059 A 
ATOM     82  F   UNL A   1      43.267  22.961  29.373  1.00  0.00    -0.206 F 
ATOM     83  C   UNL A   1      42.368  20.918  26.532  1.00  0.00     0.060 A 
BRANCH  83  84
ATOM     84  S   UNL A   1      41.880  19.221  26.153  1.00  0.00     0.124 S 
ATOM     85  O   UNL A   1      42.242  18.529  27.384  1.00  0.00    -0.237 OA
ATOM     86  O   UNL A   1      40.451  19.364  25.897  1.00  0.00    -0.237 OA
ATOM     87  O   UNL A   1      42.689  18.892  24.983  1.00  0.00    -0.744 OA
ENDBRANCH  83  84
ENDBRANCH  51  76
BRANCH  63  88
ATOM     88  C   UNL A   1      49.260  26.908  26.444  1.00  0.00     0.058 A 
ATOM     89  C   UNL A   1      50.181  26.358  27.349  1.00  0.00     0.135 A 
ATOM     90  C   UNL A   1      49.637  26.986  25.092  1.00  0.00     0.135 A 
ATOM     91  F   UNL A   1      49.876  26.267  28.652  1.00  0.00    -0.206 F 
ATOM     92  C   UNL A   1      51.436  25.922  26.933  1.00  0.00     0.059 A 
ATOM     93  C   UNL A   1      50.873  26.529  24.650  1.00  0.00     0.059 A 
ATOM     94  F   UNL A   1      48.790  27.494  24.183  1.00  0.00    -0.206 F 
ATOM     95  C   UNL A   1      51.772  26.009  25.581  1.00  0.00     0.060 A 
BRANCH  95  96
ATOM     96  S   UNL A   1      53.389  25.408  25.052  1.00  0.00     0.124 S 
ATOM     97  O   UNL A   1      53.286  23.984  25.351  1.00  0.00    -0.237 OA
ATOM     98  O   UNL A   1      53.404  25.758  23.636  1.00  0.00    -0.237 OA
ATOM     99  O   UNL A   1      54.323  26.159  25.887  1.00  0.00    -0.744 OA
ENDBRANCH  95  96
ENDBRANCH  63  88
ENDBRANCH  37  38
ENDBRANCH  29  32
ENDBRANCH  27  28
ENDBRANCH  26  27
ENDBRANCH   1  26
TORSDOF 18
ENDMDL
MODEL 2
REMARK VINA RESULT:     -11.8      6.164     11.721
REMARK SMILES C[C@H]1SC[C@H](C(=O)NCCCCCCNC(=O)c2ccc(-c3c4nc(c(-c5c(F)cc(S(=O)(=O)[O-])cc5F)c5ccc([nH]5)c(-c5c(F)cc(S(=O)(=O)[O-])cc5F)c5nc(c(-c6c(F)cc(S(=O)(=O)[O-])cc6F)c6ccc3[nH]6)C=C5)C=C4)cc2)N1C(=O)[C@@H]1CSc2ccccc21
REMARK SMILES IDX 12 1 11 2 10 3 9 4 8 5 6 6 7 7 5 9 1 10 2 11 3 12 84 13 4 14
REMARK SMILES IDX 85 15 86 16 87 17 88 18 95 19 89 20 90 21 94 22 91 23 93 24
REMARK SMILES IDX 92 25 13 26 14 27 15 28 16 29 17 31 18 32 19 33 83 34 20 35
REMARK SMILES IDX 82 36 21 37 22 38 23 39 76 40 24 41 81 42 75 43 77 44 25 45
REMARK SMILES IDX 80 46 74 47 73 48 26 50 60 51 39 52 59 53 40 54 43 55 58 56
REMARK SMILES IDX 78 57 41 58 42 59 57 61 79 62 44 63 27 64 28 65 37 66 29 67
REMARK SMILES IDX 30 68 36 69 38 70 31 71 32 72 33 73 34 74 35 75 61 76 62 77
REMARK SMILES IDX 71 78 63 79 64 80 70 81 72 82 65 83 66 84 67 85 68 86 69 87
REMARK SMILES IDX 45 88 46 89 55 90 47 91 48 92 54 93 56 94 49 95 50 96 51 97
REMARK SMILES IDX 52 98 53 99
REMARK H PARENT 8 8 15 30 77 49 43 60
REMARK Flexibility Score: inf
ROOT
ATOM      1  C   UNL A   1      40.560  22.231  27.699  1.00  0.00     0.002 C 
ENDROOT
BRANCH   1   2
ATOM      2  C   UNL A   1      39.699  21.815  26.504  1.00  0.00     0.002 C 
BRANCH   2   3
ATOM      3  C   UNL A   1      38.644  22.842  26.082  1.00  0.00     0.021 C 
BRANCH   3   4
ATOM      4  C   UNL A   1      37.452  22.246  25.338  1.00  0.00     0.116 C 
BRANCH   4   5
ATOM      5  N   UNL A   1      36.409  21.846  26.259  1.00  0.00    -0.354 N 
ATOM      6  C   UNL A   1      35.063  21.762  26.077  1.00  0.00     0.243 C 
ATOM      7  O   UNL A   1      34.359  21.657  27.088  1.00  0.00    -0.273 OA
ATOM      8  H   UNL A   1      36.722  21.595  27.158  1.00  0.00     0.163 HD
BRANCH   6   9
ATOM      9  C   UNL A   1      34.415  22.009  24.704  1.00  0.00     0.185 C 
ATOM     10  C   UNL A   1      33.339  23.291  22.052  1.00  0.00     0.043 C 
ATOM     11  C   UNL A   1      32.657  23.040  23.400  1.00  0.00     0.141 C 
ATOM     12  S   UNL A   1      32.146  21.302  23.421  1.00  0.00    -0.135 SA
ATOM     13  N   UNL A   1      33.569  23.204  24.524  1.00  0.00    -0.318 N 
ATOM     14  C   UNL A   1      33.573  20.762  24.393  1.00  0.00     0.107 C 
BRANCH  13  15
ATOM     15  C   UNL A   1      34.004  24.426  25.020  1.00  0.00     0.232 C 
ATOM     16  O   UNL A   1      35.215  24.680  25.047  1.00  0.00    -0.274 OA
BRANCH  15  17
ATOM     17  C   UNL A   1      33.041  25.471  25.620  1.00  0.00     0.120 C 
ATOM     18  C   UNL A   1      31.928  24.888  26.505  1.00  0.00     0.093 C 
ATOM     19  C   UNL A   1      32.423  26.386  24.602  1.00  0.00    -0.021 A 
ATOM     20  S   UNL A   1      30.313  25.276  25.750  1.00  0.00    -0.125 SA
ATOM     21  C   UNL A   1      31.034  26.298  24.504  1.00  0.00     0.011 A 
ATOM     22  C   UNL A   1      33.141  27.224  23.753  1.00  0.00     0.006 A 
ATOM     23  C   UNL A   1      30.359  26.926  23.471  1.00  0.00     0.015 A 
ATOM     24  C   UNL A   1      32.464  27.881  22.728  1.00  0.00     0.000 A 
ATOM     25  C   UNL A   1      31.084  27.706  22.568  1.00  0.00     0.001 A 
ENDBRANCH  15  17
ENDBRANCH  13  15
ENDBRANCH   6   9
ENDBRANCH   4   5
ENDBRANCH   3   4
ENDBRANCH   2   3
ENDBRANCH   1   2
BRANCH   1  26
ATOM     26  C   UNL A   1      42.063  22.001  27.521  1.00  0.00     0.021 C 
BRANCH  26  27
ATOM     27  C   UNL A   1      42.884  23.276  27.355  1.00  0.00     0.116 C 
BRANCH  27  28
ATOM     28  N   UNL A   1      42.506  24.020  26.165  1.00  0.00    -0.352 N 
ATOM     29  C   UNL A   1      41.904  25.248  26.068  1.00  0.00     0.251 C 
ATOM     30  H   UNL A   1      42.710  23.580  25.307  1.00  0.00     0.163 HD
ATOM     31  O   UNL A   1      41.480  25.641  24.982  1.00  0.00    -0.269 OA
BRANCH  29  32
ATOM     32  C   UNL A   1      41.750  26.085  27.275  1.00  0.00     0.039 A 
ATOM     33  C   UNL A   1      42.679  27.099  27.519  1.00  0.00     0.014 A 
ATOM     34  C   UNL A   1      40.689  25.873  28.161  1.00  0.00     0.014 A 
ATOM     35  C   UNL A   1      42.510  27.939  28.623  1.00  0.00     0.010 A 
ATOM     36  C   UNL A   1      40.480  26.758  29.215  1.00  0.00     0.010 A 
ATOM     37  C   UNL A   1      41.391  27.797  29.460  1.00  0.00    -0.014 A 
BRANCH  37  38
ATOM     38  C   UNL A   1      41.156  28.728  30.594  1.00  0.00     0.031 A 
ATOM     39  C   UNL A   1      41.976  28.614  31.850  1.00  0.00     0.074 A 
ATOM     40  C   UNL A   1      40.164  29.639  30.512  1.00  0.00     0.049 A 
ATOM     41  N   UNL A   1      41.878  29.290  32.964  1.00  0.00    -0.248 NA
ATOM     42  C   UNL A   1      43.028  27.583  31.865  1.00  0.00     0.031 C 
ATOM     43  C   UNL A   1      39.271  29.816  29.365  1.00  0.00     0.029 A 
ATOM     44  N   UNL A   1      39.735  30.579  31.415  1.00  0.00    -0.354 N 
ATOM     45  C   UNL A   1      42.846  28.766  33.814  1.00  0.00     0.074 A 
ATOM     46  C   UNL A   1      43.480  27.675  33.107  1.00  0.00     0.031 C 
ATOM     47  C   UNL A   1      38.416  30.818  29.624  1.00  0.00     0.029 A 
ATOM     48  C   UNL A   1      38.670  31.327  30.967  1.00  0.00     0.049 A 
ATOM     49  H   UNL A   1      40.148  30.707  32.298  1.00  0.00     0.167 HD
ATOM     50  C   UNL A   1      43.190  29.173  35.059  1.00  0.00     0.037 A 
ATOM     51  C   UNL A   1      37.972  32.307  31.574  1.00  0.00     0.037 A 
ATOM     52  C   UNL A   1      42.564  30.272  35.749  1.00  0.00     0.049 A 
ATOM     53  C   UNL A   1      38.365  32.733  32.963  1.00  0.00     0.074 A 
ATOM     54  C   UNL A   1      42.874  30.795  36.991  1.00  0.00     0.029 A 
ATOM     55  N   UNL A   1      41.499  31.014  35.257  1.00  0.00    -0.354 N 
ATOM     56  N   UNL A   1      39.323  32.266  33.728  1.00  0.00    -0.248 NA
ATOM     57  C   UNL A   1      37.586  33.820  33.571  1.00  0.00     0.031 C 
ATOM     58  C   UNL A   1      41.965  31.819  37.274  1.00  0.00     0.029 A 
ATOM     59  C   UNL A   1      41.125  31.975  36.182  1.00  0.00     0.049 A 
ATOM     60  H   UNL A   1      41.073  30.878  34.381  1.00  0.00     0.167 HD
ATOM     61  C   UNL A   1      39.282  33.023  34.894  1.00  0.00     0.074 A 
ATOM     62  C   UNL A   1      38.212  33.986  34.728  1.00  0.00     0.031 C 
ATOM     63  C   UNL A   1      40.061  32.932  36.001  1.00  0.00     0.037 A 
BRANCH  50  64
ATOM     64  C   UNL A   1      44.296  28.427  35.757  1.00  0.00     0.058 A 
ATOM     65  C   UNL A   1      44.030  27.344  36.612  1.00  0.00     0.135 A 
ATOM     66  C   UNL A   1      45.640  28.774  35.543  1.00  0.00     0.135 A 
ATOM     67  F   UNL A   1      42.764  26.979  36.866  1.00  0.00    -0.206 F 
ATOM     68  C   UNL A   1      45.053  26.653  37.252  1.00  0.00     0.059 A 
ATOM     69  C   UNL A   1      46.682  28.075  36.147  1.00  0.00     0.059 A 
ATOM     70  F   UNL A   1      45.953  29.799  34.735  1.00  0.00    -0.206 F 
ATOM     71  C   UNL A   1      46.377  27.026  37.013  1.00  0.00     0.060 A 
BRANCH  71  72
ATOM     72  S   UNL A   1      47.692  26.113  37.848  1.00  0.00     0.124 S 
ATOM     73  O   UNL A   1      47.612  26.659  39.200  1.00  0.00    -0.237 OA
ATOM     74  O   UNL A   1      47.256  24.730  37.696  1.00  0.00    -0.237 OA
ATOM     75  O   UNL A   1      48.889  26.478  37.096  1.00  0.00    -0.744 OA
ENDBRANCH  71  72
ENDBRANCH  50  64
BRANCH  51  76
ATOM     76  C   UNL A   1      36.843  32.964  30.864  1.00  0.00     0.058 A 
ATOM     77  C   UNL A   1      35.513  32.605  31.131  1.00  0.00     0.135 A 
ATOM     78  C   UNL A   1      37.066  33.974  29.914  1.00  0.00     0.135 A 
ATOM     79  F   UNL A   1      35.246  31.640  32.026  1.00  0.00    -0.206 F 
ATOM     80  C   UNL A   1      34.447  33.208  30.473  1.00  0.00     0.059 A 
ATOM     81  C   UNL A   1      36.015  34.613  29.263  1.00  0.00     0.059 A 
ATOM     82  F   UNL A   1      38.318  34.368  29.634  1.00  0.00    -0.206 F 
ATOM     83  C   UNL A   1      34.709  34.215  29.542  1.00  0.00     0.060 A 
BRANCH  83  84
ATOM     84  S   UNL A   1      33.315  35.026  28.729  1.00  0.00     0.124 S 
ATOM     85  O   UNL A   1      33.986  36.073  27.968  1.00  0.00    -0.237 OA
ATOM     86  O   UNL A   1      32.741  33.936  27.948  1.00  0.00    -0.237 OA
ATOM     87  O   UNL A   1      32.495  35.484  29.847  1.00  0.00    -0.744 OA
ENDBRANCH  83  84
ENDBRANCH  51  76
BRANCH  63  88
ATOM     88  C   UNL A   1      39.813  33.920  37.109  1.00  0.00     0.058 A 
ATOM     89  C   UNL A   1      39.055  33.588  38.242  1.00  0.00     0.135 A 
ATOM     90  C   UNL A   1      40.389  35.201  37.058  1.00  0.00     0.135 A 
ATOM     91  F   UNL A   1      38.477  32.381  38.339  1.00  0.00    -0.206 F 
ATOM     92  C   UNL A   1      38.857  34.499  39.275  1.00  0.00     0.059 A 
ATOM     93  C   UNL A   1      40.230  36.116  38.092  1.00  0.00     0.059 A 
ATOM     94  F   UNL A   1      41.133  35.566  36.001  1.00  0.00    -0.206 F 
ATOM     95  C   UNL A   1      39.450  35.760  39.193  1.00  0.00     0.060 A 
BRANCH  95  96
ATOM     96  S   UNL A   1      39.213  36.918  40.556  1.00  0.00     0.124 S 
ATOM     97  O   UNL A   1      38.581  38.045  39.879  1.00  0.00    -0.237 OA
ATOM     98  O   UNL A   1      38.357  36.161  41.463  1.00  0.00    -0.237 OA
ATOM     99  O   UNL A   1      40.571  37.159  41.040  1.00  0.00    -0.744 OA
ENDBRANCH  95  96
ENDBRANCH  63  88
ENDBRANCH  37  38
ENDBRANCH  29  32
ENDBRANCH  27  28
ENDBRANCH  26  27
ENDBRANCH   1  26
TORSDOF 18
ENDMDL
MODEL 3
REMARK VINA RESULT:     -11.6      1.146      1.881
REMARK SMILES C[C@H]1SC[C@H](C(=O)NCCCCCCNC(=O)c2ccc(-c3c4nc(c(-c5c(F)cc(S(=O)(=O)[O-])cc5F)c5ccc([nH]5)c(-c5c(F)cc(S(=O)(=O)[O-])cc5F)c5nc(c(-c6c(F)cc(S(=O)(=O)[O-])cc6F)c6ccc3[nH]6)C=C5)C=C4)cc2)N1C(=O)[C@@H]1CSc2ccccc21
REMARK SMILES IDX 12 1 11 2 10 3 9 4 8 5 6 6 7 7 5 9 1 10 2 11 3 12 84 13 4 14
REMARK SMILES IDX 85 15 86 16 87 17 88 18 95 19 89 20 90 21 94 22 91 23 93 24
REMARK SMILES IDX 92 25 13 26 14 27 15 28 16 29 17 31 18 32 19 33 83 34 20 35
REMARK SMILES IDX 82 36 21 37 22 38 23 39 76 40 24 41 81 42 75 43 77 44 25 45
REMARK SMILES IDX 80 46 74 47 73 48 26 50 60 51 39 52 59 53 40 54 43 55 58 56
REMARK SMILES IDX 78 57 41 58 42 59 57 61 79 62 44 63 27 64 28 65 37 66 29 67
REMARK SMILES IDX 30 68 36 69 38 70 31 71 32 72 33 73 34 74 35 75 61 76 62 77
REMARK SMILES IDX 71 78 63 79 64 80 70 81 72 82 65 83 66 84 67 85 68 86 69 87
REMARK SMILES IDX 45 88 46 89 55 90 47 91 48 92 54 93 56 94 49 95 50 96 51 97
REMARK SMILES IDX 52 98 53 99
REMARK H PARENT 8 8 15 30 77 49 43 60
REMARK Flexibility Score: inf
ROOT
ATOM      1  C   UNL A   1      34.478  32.200  28.282  1.00  0.00     0.002 C 
ENDROOT
BRANCH   1   2
ATOM      2  C   UNL A   1      34.173  31.176  27.186  1.00  0.00     0.002 C 
BRANCH   2   3
ATOM      3  C   UNL A   1      34.637  29.748  27.491  1.00  0.00     0.021 C 
BRANCH   3   4
ATOM      4  C   UNL A   1      34.014  28.682  26.595  1.00  0.00     0.116 C 
BRANCH   4   5
ATOM      5  N   UNL A   1      34.352  28.905  25.205  1.00  0.00    -0.354 N 
ATOM      6  C   UNL A   1      33.690  28.543  24.073  1.00  0.00     0.243 C 
ATOM      7  O   UNL A   1      34.312  28.610  23.006  1.00  0.00    -0.273 OA
ATOM      8  H   UNL A   1      35.192  29.396  25.056  1.00  0.00     0.163 HD
BRANCH   6   9
ATOM      9  C   UNL A   1      32.308  27.870  24.123  1.00  0.00     0.185 C 
ATOM     10  C   UNL A   1      29.949  25.816  24.345  1.00  0.00     0.043 C 
ATOM     11  C   UNL A   1      30.707  26.354  23.127  1.00  0.00     0.141 C 
ATOM     12  S   UNL A   1      29.996  27.973  22.732  1.00  0.00    -0.135 SA
ATOM     13  N   UNL A   1      32.115  26.592  23.410  1.00  0.00    -0.318 N 
ATOM     14  C   UNL A   1      31.307  28.895  23.568  1.00  0.00     0.107 C 
BRANCH  13  15
ATOM     15  C   UNL A   1      33.082  25.601  23.520  1.00  0.00     0.232 C 
ATOM     16  O   UNL A   1      33.730  25.264  22.521  1.00  0.00    -0.274 OA
BRANCH  15  17
ATOM     17  C   UNL A   1      33.338  24.831  24.832  1.00  0.00     0.120 C 
ATOM     18  C   UNL A   1      34.654  25.186  25.541  1.00  0.00     0.093 C 
ATOM     19  C   UNL A   1      33.250  23.339  24.690  1.00  0.00    -0.021 A 
ATOM     20  S   UNL A   1      35.704  23.697  25.611  1.00  0.00    -0.125 SA
ATOM     21  C   UNL A   1      34.435  22.655  24.962  1.00  0.00     0.011 A 
ATOM     22  C   UNL A   1      32.119  22.650  24.258  1.00  0.00     0.006 A 
ATOM     23  C   UNL A   1      34.555  21.306  24.671  1.00  0.00     0.015 A 
ATOM     24  C   UNL A   1      32.224  21.287  23.990  1.00  0.00     0.000 A 
ATOM     25  C   UNL A   1      33.445  20.625  24.164  1.00  0.00     0.001 A 
ENDBRANCH  15  17
ENDBRANCH  13  15
ENDBRANCH   6   9
ENDBRANCH   4   5
ENDBRANCH   3   4
ENDBRANCH   2   3
ENDBRANCH   1   2
BRANCH   1  26
ATOM     26  C   UNL A   1      35.784  32.976  28.092  1.00  0.00     0.021 C 
BRANCH  26  27
ATOM     27  C   UNL A   1      36.713  32.961  29.302  1.00  0.00     0.116 C 
BRANCH  27  28
ATOM     28  N   UNL A   1      36.176  32.167  30.395  1.00  0.00    -0.352 N 
ATOM     29  C   UNL A   1      36.618  30.967  30.891  1.00  0.00     0.251 C 
ATOM     30  H   UNL A   1      35.382  32.542  30.842  1.00  0.00     0.163 HD
ATOM     31  O   UNL A   1      35.927  30.342  31.694  1.00  0.00    -0.269 OA
BRANCH  29  32
ATOM     32  C   UNL A   1      37.916  30.423  30.442  1.00  0.00     0.039 A 
ATOM     33  C   UNL A   1      38.143  30.259  29.074  1.00  0.00     0.014 A 
ATOM     34  C   UNL A   1      38.906  30.080  31.367  1.00  0.00     0.014 A 
ATOM     35  C   UNL A   1      39.388  29.805  28.631  1.00  0.00     0.010 A 
ATOM     36  C   UNL A   1      40.169  29.702  30.921  1.00  0.00     0.010 A 
ATOM     37  C   UNL A   1      40.422  29.555  29.548  1.00  0.00    -0.014 A 
BRANCH  37  38
ATOM     38  C   UNL A   1      41.774  29.144  29.091  1.00  0.00     0.031 A 
ATOM     39  C   UNL A   1      42.888  30.153  29.018  1.00  0.00     0.074 A 
ATOM     40  C   UNL A   1      41.983  27.874  28.687  1.00  0.00     0.049 A 
ATOM     41  N   UNL A   1      44.113  30.000  28.587  1.00  0.00    -0.248 NA
ATOM     42  C   UNL A   1      42.574  31.522  29.461  1.00  0.00     0.031 C 
ATOM     43  C   UNL A   1      40.970  26.816  28.668  1.00  0.00     0.029 A 
ATOM     44  N   UNL A   1      43.112  27.260  28.206  1.00  0.00    -0.354 N 
ATOM     45  C   UNL A   1      44.714  31.249  28.700  1.00  0.00     0.074 A 
ATOM     46  C   UNL A   1      43.701  32.161  29.183  1.00  0.00     0.031 C 
ATOM     47  C   UNL A   1      41.529  25.680  28.222  1.00  0.00     0.029 A 
ATOM     48  C   UNL A   1      42.925  25.936  27.883  1.00  0.00     0.049 A 
ATOM     49  H   UNL A   1      43.974  27.723  28.101  1.00  0.00     0.167 HD
ATOM     50  C   UNL A   1      45.998  31.597  28.448  1.00  0.00     0.037 A 
ATOM     51  C   UNL A   1      43.780  25.032  27.365  1.00  0.00     0.037 A 
ATOM     52  C   UNL A   1      47.005  30.678  27.983  1.00  0.00     0.049 A 
ATOM     53  C   UNL A   1      45.198  25.446  27.080  1.00  0.00     0.074 A 
ATOM     54  C   UNL A   1      48.346  30.919  27.746  1.00  0.00     0.029 A 
ATOM     55  N   UNL A   1      46.781  29.341  27.681  1.00  0.00    -0.354 N 
ATOM     56  N   UNL A   1      45.765  26.616  27.250  1.00  0.00    -0.248 NA
ATOM     57  C   UNL A   1      46.095  24.416  26.537  1.00  0.00     0.031 C 
ATOM     58  C   UNL A   1      48.923  29.744  27.252  1.00  0.00     0.029 A 
ATOM     59  C   UNL A   1      47.954  28.753  27.238  1.00  0.00     0.049 A 
ATOM     60  H   UNL A   1      45.917  28.880  27.770  1.00  0.00     0.167 HD
ATOM     61  C   UNL A   1      47.092  26.457  26.865  1.00  0.00     0.074 A 
ATOM     62  C   UNL A   1      47.245  25.073  26.464  1.00  0.00     0.031 C 
ATOM     63  C   UNL A   1      48.093  27.371  26.847  1.00  0.00     0.037 A 
BRANCH  50  64
ATOM     64  C   UNL A   1      46.390  33.033  28.670  1.00  0.00     0.058 A 
ATOM     65  C   UNL A   1      46.302  33.990  27.644  1.00  0.00     0.135 A 
ATOM     66  C   UNL A   1      46.825  33.470  29.932  1.00  0.00     0.135 A 
ATOM     67  F   UNL A   1      45.907  33.626  26.413  1.00  0.00    -0.206 F 
ATOM     68  C   UNL A   1      46.659  35.317  27.852  1.00  0.00     0.059 A 
ATOM     69  C   UNL A   1      47.157  34.801  30.172  1.00  0.00     0.059 A 
ATOM     70  F   UNL A   1      46.928  32.601  30.949  1.00  0.00    -0.206 F 
ATOM     71  C   UNL A   1      47.086  35.714  29.121  1.00  0.00     0.060 A 
BRANCH  71  72
ATOM     72  S   UNL A   1      47.539  37.443  29.374  1.00  0.00     0.124 S 
ATOM     73  O   UNL A   1      47.262  38.012  28.058  1.00  0.00    -0.237 OA
ATOM     74  O   UNL A   1      46.633  37.849  30.443  1.00  0.00    -0.237 OA
ATOM     75  O   UNL A   1      48.950  37.374  29.742  1.00  0.00    -0.744 OA
ENDBRANCH  71  72
ENDBRANCH  50  64
BRANCH  51  76
ATOM     76  C   UNL A   1      43.320  23.642  27.100  1.00  0.00     0.058 A 
ATOM     77  C   UNL A   1      43.135  23.179  25.788  1.00  0.00     0.135 A 
ATOM     78  C   UNL A   1      43.071  22.743  28.150  1.00  0.00     0.135 A 
ATOM     79  F   UNL A   1      43.354  24.002  24.750  1.00  0.00    -0.206 F 
ATOM     80  C   UNL A   1      42.703  21.884  25.525  1.00  0.00     0.059 A 
ATOM     81  C   UNL A   1      42.666  21.434  27.911  1.00  0.00     0.059 A 
ATOM     82  F   UNL A   1      43.249  23.130  29.422  1.00  0.00    -0.206 F 
ATOM     83  C   UNL A   1      42.476  21.016  26.595  1.00  0.00     0.060 A 
BRANCH  83  84
ATOM     84  S   UNL A   1      41.963  19.321  26.240  1.00  0.00     0.124 S 
ATOM     85  O   UNL A   1      42.450  18.613  27.418  1.00  0.00    -0.237 OA
ATOM     86  O   UNL A   1      40.514  19.458  26.130  1.00  0.00    -0.237 OA
ATOM     87  O   UNL A   1      42.652  19.017  24.990  1.00  0.00    -0.744 OA
ENDBRANCH  83  84
ENDBRANCH  51  76
BRANCH  63  88
ATOM     88  C   UNL A   1      49.456  26.901  26.414  1.00  0.00     0.058 A 
ATOM     89  C   UNL A   1      50.390  26.392  27.330  1.00  0.00     0.135 A 
ATOM     90  C   UNL A   1      49.810  26.913  25.054  1.00  0.00     0.135 A 
ATOM     91  F   UNL A   1      50.106  26.365  28.641  1.00  0.00    -0.206 F 
ATOM     92  C   UNL A   1      51.636  25.932  26.915  1.00  0.00     0.059 A 
ATOM     93  C   UNL A   1      51.038  26.430  24.615  1.00  0.00     0.059 A 
ATOM     94  F   UNL A   1      48.950  27.379  24.136  1.00  0.00    -0.206 F 
ATOM     95  C   UNL A   1      51.950  25.953  25.555  1.00  0.00     0.060 A 
BRANCH  95  96
ATOM     96  S   UNL A   1      53.557  25.320  25.029  1.00  0.00     0.124 S 
ATOM     97  O   UNL A   1      54.440  25.874  26.050  1.00  0.00    -0.237 OA
ATOM     98  O   UNL A   1      53.356  23.876  25.080  1.00  0.00    -0.237 OA
ATOM     99  O   UNL A   1      53.721  25.878  23.689  1.00  0.00    -0.744 OA
ENDBRANCH  95  96
ENDBRANCH  63  88
ENDBRANCH  37  38
ENDBRANCH  29  32
ENDBRANCH  27  28
ENDBRANCH  26  27
ENDBRANCH   1  26
TORSDOF 18
ENDMDL
