MODEL 1
REMARK VINA RESULT:     -11.5      0.000      0.000
REMARK SMILES O=C(NCCCCCCNC(=O)[C@@H]1CN(C(=O)[C@H]2CC=CCC2)c2ccccc2O1)c1ccc(-c2c3nc(c(-c4c(F)cc(S(=O)(=O)[O-])cc4F)c4ccc([nH]4)c(-c4c(F)cc(S(=O)(=O)[O-])cc4F)c4nc(c(-c5c(F)cc(S(=O)(=O)[O-])cc5F)c5ccc2[nH]5)C=C4)C=C3)cc1
REMARK SMILES IDX 6 1 5 2 4 3 3 4 1 5 2 6 31 8 32 9 96 10 33 11 95 12 34 13
REMARK SMILES IDX 35 14 36 15 89 16 37 17 94 18 88 19 90 20 38 21 93 22 87 23
REMARK SMILES IDX 86 24 39 26 73 27 52 28 72 29 53 30 56 31 71 32 91 33 54 34
REMARK SMILES IDX 55 35 70 37 92 38 57 39 40 40 41 41 50 42 42 43 43 44 49 45
REMARK SMILES IDX 51 46 44 47 45 48 46 49 47 50 48 51 74 52 75 53 84 54 76 55
REMARK SMILES IDX 77 56 83 57 85 58 78 59 79 60 80 61 81 62 82 63 58 64 59 65
REMARK SMILES IDX 68 66 60 67 61 68 67 69 69 70 62 71 63 72 64 73 65 74 66 75
REMARK SMILES IDX 7 76 8 77 9 78 10 79 11 80 12 82 13 83 14 84 30 85 15 86
REMARK SMILES IDX 29 87 24 88 28 89 25 90 27 91 26 92 16 93 17 94 18 95 19 96
REMARK SMILES IDX 23 97 20 98 22 99 21 100
REMARK H PARENT 3 7 90 25 56 36 10 81
REMARK Flexibility Score: inf
ROOT
ATOM      1  C   UNL A   1      32.776  28.687  24.549  1.00  0.00     0.002 C 
ENDROOT
BRANCH   1   2
ATOM      2  C   UNL A   1      33.892  27.872  25.207  1.00  0.00     0.021 C 
BRANCH   2   3
ATOM      3  C   UNL A   1      34.014  28.060  26.714  1.00  0.00     0.116 C 
BRANCH   3   4
ATOM      4  N   UNL A   1      33.695  29.419  27.120  1.00  0.00    -0.352 N 
ATOM      5  O   UNL A   1      33.942  31.329  28.289  1.00  0.00    -0.269 OA
ATOM      6  C   UNL A   1      34.442  30.296  27.869  1.00  0.00     0.251 C 
ATOM      7  H   UNL A   1      32.823  29.759  26.816  1.00  0.00     0.163 HD
BRANCH   6   8
ATOM      8  C   UNL A   1      35.852  29.968  28.165  1.00  0.00     0.039 A 
ATOM      9  C   UNL A   1      36.830  30.106  27.177  1.00  0.00     0.014 A 
ATOM     10  C   UNL A   1      36.196  29.528  29.445  1.00  0.00     0.014 A 
ATOM     11  C   UNL A   1      38.129  29.690  27.432  1.00  0.00     0.010 A 
ATOM     12  C   UNL A   1      37.523  29.194  29.726  1.00  0.00     0.010 A 
ATOM     13  C   UNL A   1      38.497  29.257  28.716  1.00  0.00    -0.014 A 
BRANCH  13  14
ATOM     14  C   UNL A   1      39.923  28.963  29.000  1.00  0.00     0.031 A 
ATOM     15  C   UNL A   1      40.817  29.983  29.645  1.00  0.00     0.074 A 
ATOM     16  C   UNL A   1      40.397  27.744  28.674  1.00  0.00     0.049 A 
ATOM     17  N   UNL A   1      42.083  29.883  29.957  1.00  0.00    -0.248 NA
ATOM     18  C   UNL A   1      40.219  31.286  29.975  1.00  0.00     0.031 C 
ATOM     19  C   UNL A   1      39.617  26.684  28.028  1.00  0.00     0.029 A 
ATOM     20  N   UNL A   1      41.636  27.183  28.847  1.00  0.00    -0.354 N 
ATOM     21  C   UNL A   1      42.441  31.108  30.505  1.00  0.00     0.074 A 
ATOM     22  C   UNL A   1      41.262  31.948  30.458  1.00  0.00     0.031 C 
ATOM     23  C   UNL A   1      40.379  25.590  27.901  1.00  0.00     0.029 A 
ATOM     24  C   UNL A   1      41.720  25.891  28.388  1.00  0.00     0.049 A 
ATOM     25  H   UNL A   1      42.390  27.660  29.260  1.00  0.00     0.167 HD
ATOM     26  C   UNL A   1      43.641  31.491  31.005  1.00  0.00     0.037 A 
ATOM     27  C   UNL A   1      42.766  25.046  28.339  1.00  0.00     0.037 A 
ATOM     28  C   UNL A   1      44.803  30.637  31.049  1.00  0.00     0.049 A 
ATOM     29  C   UNL A   1      44.090  25.505  28.874  1.00  0.00     0.074 A 
ATOM     30  C   UNL A   1      46.057  30.917  31.565  1.00  0.00     0.029 A 
ATOM     31  N   UNL A   1      44.859  29.343  30.550  1.00  0.00    -0.354 N 
ATOM     32  N   UNL A   1      44.402  26.657  29.420  1.00  0.00    -0.248 NA
ATOM     33  C   UNL A   1      45.207  24.557  28.783  1.00  0.00     0.031 C 
ATOM     34  C   UNL A   1      46.883  29.811  31.335  1.00  0.00     0.029 A 
ATOM     35  C   UNL A   1      46.131  28.820  30.724  1.00  0.00     0.049 A 
ATOM     36  H   UNL A   1      44.105  28.865  30.134  1.00  0.00     0.167 HD
ATOM     37  C   UNL A   1      45.747  26.566  29.753  1.00  0.00     0.074 A 
ATOM     38  C   UNL A   1      46.183  25.240  29.365  1.00  0.00     0.031 C 
ATOM     39  C   UNL A   1      46.549  27.497  30.328  1.00  0.00     0.037 A 
BRANCH  26  40
ATOM     40  C   UNL A   1      43.770  32.897  31.527  1.00  0.00     0.058 A 
ATOM     41  C   UNL A   1      43.408  33.237  32.840  1.00  0.00     0.135 A 
ATOM     42  C   UNL A   1      44.306  33.911  30.714  1.00  0.00     0.135 A 
ATOM     43  F   UNL A   1      42.879  32.312  33.656  1.00  0.00    -0.206 F 
ATOM     44  C   UNL A   1      43.549  34.536  33.321  1.00  0.00     0.059 A 
ATOM     45  C   UNL A   1      44.481  35.210  31.183  1.00  0.00     0.059 A 
ATOM     46  F   UNL A   1      44.670  33.643  29.451  1.00  0.00    -0.206 F 
ATOM     47  C   UNL A   1      44.086  35.516  32.485  1.00  0.00     0.060 A 
BRANCH  47  48
ATOM     48  S   UNL A   1      44.266  37.194  33.127  1.00  0.00     0.124 S 
ATOM     49  O   UNL A   1      43.369  37.163  34.278  1.00  0.00    -0.237 OA
ATOM     50  O   UNL A   1      45.691  37.259  33.436  1.00  0.00    -0.237 OA
ATOM     51  O   UNL A   1      43.832  38.034  32.015  1.00  0.00    -0.744 OA
ENDBRANCH  47  48
ENDBRANCH  26  40
BRANCH  27  52
ATOM     52  C   UNL A   1      42.592  23.690  27.755  1.00  0.00     0.058 A 
ATOM     53  C   UNL A   1      42.736  23.471  26.379  1.00  0.00     0.135 A 
ATOM     54  C   UNL A   1      42.315  22.580  28.570  1.00  0.00     0.135 A 
ATOM     55  F   UNL A   1      42.999  24.501  25.559  1.00  0.00    -0.206 F 
ATOM     56  C   UNL A   1      42.599  22.202  25.826  1.00  0.00     0.059 A 
ATOM     57  C   UNL A   1      42.203  21.298  28.046  1.00  0.00     0.059 A 
ATOM     58  F   UNL A   1      42.188  22.735  29.898  1.00  0.00    -0.206 F 
ATOM     59  C   UNL A   1      42.337  21.121  26.670  1.00  0.00     0.060 A 
BRANCH  59  60
ATOM     60  S   UNL A   1      42.212  19.470  25.949  1.00  0.00     0.124 S 
ATOM     61  O   UNL A   1      42.772  18.644  27.012  1.00  0.00    -0.237 OA
ATOM     62  O   UNL A   1      40.776  19.340  25.726  1.00  0.00    -0.237 OA
ATOM     63  O   UNL A   1      43.019  19.572  24.735  1.00  0.00    -0.744 OA
ENDBRANCH  59  60
ENDBRANCH  27  52
BRANCH  39  64
ATOM     64  C   UNL A   1      47.975  27.101  30.592  1.00  0.00     0.058 A 
ATOM     65  C   UNL A   1      48.998  27.369  29.670  1.00  0.00     0.135 A 
ATOM     66  C   UNL A   1      48.325  26.478  31.801  1.00  0.00     0.135 A 
ATOM     67  F   UNL A   1      48.715  27.953  28.496  1.00  0.00    -0.206 F 
ATOM     68  C   UNL A   1      50.318  27.009  29.925  1.00  0.00     0.059 A 
ATOM     69  C   UNL A   1      49.642  26.135  32.090  1.00  0.00     0.059 A 
ATOM     70  F   UNL A   1      47.385  26.206  32.720  1.00  0.00    -0.206 F 
ATOM     71  C   UNL A   1      50.629  26.394  31.139  1.00  0.00     0.060 A 
BRANCH  71  72
ATOM     72  S   UNL A   1      52.349  25.958  31.472  1.00  0.00     0.124 S 
ATOM     73  O   UNL A   1      52.928  26.005  30.132  1.00  0.00    -0.237 OA
ATOM     74  O   UNL A   1      52.770  27.019  32.381  1.00  0.00    -0.237 OA
ATOM     75  O   UNL A   1      52.255  24.629  32.068  1.00  0.00    -0.744 OA
ENDBRANCH  71  72
ENDBRANCH  39  64
ENDBRANCH  13  14
ENDBRANCH   6   8
ENDBRANCH   3   4
ENDBRANCH   2   3
ENDBRANCH   1   2
BRANCH   1  76
ATOM     76  C   UNL A   1      31.999  27.970  23.438  1.00  0.00     0.002 C 
BRANCH  76  77
ATOM     77  C   UNL A   1      31.748  26.483  23.675  1.00  0.00     0.021 C 
BRANCH  77  78
ATOM     78  C   UNL A   1      31.613  25.671  22.397  1.00  0.00     0.116 C 
BRANCH  78  79
ATOM     79  N   UNL A   1      32.791  24.888  22.113  1.00  0.00    -0.353 N 
ATOM     80  C   UNL A   1      33.107  23.614  22.467  1.00  0.00     0.262 C 
ATOM     81  H   UNL A   1      33.475  25.349  21.577  1.00  0.00     0.163 HD
ATOM     82  O   UNL A   1      34.210  23.197  22.087  1.00  0.00    -0.271 OA
BRANCH  80  83
ATOM     83  C   UNL A   1      32.138  22.646  23.204  1.00  0.00     0.281 C 
ATOM     84  C   UNL A   1      32.472  22.603  24.689  1.00  0.00     0.181 C 
ATOM     85  O   UNL A   1      31.805  21.376  22.677  1.00  0.00    -0.477 OA
ATOM     86  N   UNL A   1      33.540  21.658  24.989  1.00  0.00    -0.304 N 
ATOM     87  C   UNL A   1      32.403  20.293  23.280  1.00  0.00     0.144 A 
ATOM     88  C   UNL A   1      33.314  20.378  24.360  1.00  0.00     0.086 A 
ATOM     89  C   UNL A   1      32.190  19.086  22.605  1.00  0.00     0.049 A 
ATOM     90  C   UNL A   1      34.008  19.216  24.718  1.00  0.00     0.030 A 
ATOM     91  C   UNL A   1      32.906  17.951  22.966  1.00  0.00     0.004 A 
ATOM     92  C   UNL A   1      33.817  18.018  24.017  1.00  0.00     0.002 A 
BRANCH  86  93
ATOM     93  C   UNL A   1      34.713  21.970  25.672  1.00  0.00     0.230 C 
ATOM     94  O   UNL A   1      34.841  21.742  26.883  1.00  0.00    -0.274 OA
BRANCH  93  95
ATOM     95  C   UNL A   1      35.947  22.582  24.967  1.00  0.00     0.083 C 
ATOM     96  C   UNL A   1      36.460  23.909  25.543  1.00  0.00     0.040 C 
ATOM     97  C   UNL A   1      37.039  21.586  24.557  1.00  0.00     0.018 C 
ATOM     98  C   UNL A   1      37.843  23.872  26.131  1.00  0.00    -0.030 C 
ATOM     99  C   UNL A   1      38.237  21.484  25.496  1.00  0.00     0.028 C 
ATOM    100  C   UNL A   1      38.631  22.787  26.120  1.00  0.00    -0.031 C 
ENDBRANCH  93  95
ENDBRANCH  86  93
ENDBRANCH  80  83
ENDBRANCH  78  79
ENDBRANCH  77  78
ENDBRANCH  76  77
ENDBRANCH   1  76
TORSDOF 18
ENDMDL
MODEL 2
REMARK VINA RESULT:     -11.5      4.843     10.517
REMARK SMILES O=C(NCCCCCCNC(=O)[C@@H]1CN(C(=O)[C@H]2CC=CCC2)c2ccccc2O1)c1ccc(-c2c3nc(c(-c4c(F)cc(S(=O)(=O)[O-])cc4F)c4ccc([nH]4)c(-c4c(F)cc(S(=O)(=O)[O-])cc4F)c4nc(c(-c5c(F)cc(S(=O)(=O)[O-])cc5F)c5ccc2[nH]5)C=C4)C=C3)cc1
REMARK SMILES IDX 6 1 5 2 4 3 3 4 1 5 2 6 31 8 32 9 96 10 33 11 95 12 34 13
REMARK SMILES IDX 35 14 36 15 89 16 37 17 94 18 88 19 90 20 38 21 93 22 87 23
REMARK SMILES IDX 86 24 39 26 73 27 52 28 72 29 53 30 56 31 71 32 91 33 54 34
REMARK SMILES IDX 55 35 70 37 92 38 57 39 40 40 41 41 50 42 42 43 43 44 49 45
REMARK SMILES IDX 51 46 44 47 45 48 46 49 47 50 48 51 74 52 75 53 84 54 76 55
REMARK SMILES IDX 77 56 83 57 85 58 78 59 79 60 80 61 81 62 82 63 58 64 59 65
REMARK SMILES IDX 68 66 60 67 61 68 67 69 69 70 62 71 63 72 64 73 65 74 66 75
REMARK SMILES IDX 7 76 8 77 9 78 10 79 11 80 12 82 13 83 14 84 30 85 15 86
REMARK SMILES IDX 29 87 24 88 28 89 25 90 27 91 26 92 16 93 17 94 18 95 19 96
REMARK SMILES IDX 23 97 20 98 22 99 21 100
REMARK H PARENT 3 7 90 25 56 36 10 81
REMARK Flexibility Score: inf
ROOT
ATOM      1  C   UNL A   1      36.022  23.992  25.472  1.00  0.00     0.002 C 
ENDROOT
BRANCH   1   2
ATOM      2  C   UNL A   1      37.341  23.314  25.850  1.00  0.00     0.021 C 
BRANCH   2   3
ATOM      3  C   UNL A   1      38.307  24.194  26.633  1.00  0.00     0.116 C 
BRANCH   3   4
ATOM      4  N   UNL A   1      39.641  24.185  26.057  1.00  0.00    -0.352 N 
ATOM      5  O   UNL A   1      41.688  25.004  25.590  1.00  0.00    -0.269 OA
ATOM      6  C   UNL A   1      40.698  25.026  26.307  1.00  0.00     0.251 C 
ATOM      7  H   UNL A   1      39.812  23.476  25.396  1.00  0.00     0.163 HD
BRANCH   6   8
ATOM      8  C   UNL A   1      40.616  25.963  27.448  1.00  0.00     0.039 A 
ATOM      9  C   UNL A   1      41.445  27.086  27.498  1.00  0.00     0.014 A 
ATOM     10  C   UNL A   1      39.695  25.715  28.469  1.00  0.00     0.014 A 
ATOM     11  C   UNL A   1      41.437  27.897  28.624  1.00  0.00     0.010 A 
ATOM     12  C   UNL A   1      39.628  26.584  29.561  1.00  0.00     0.010 A 
ATOM     13  C   UNL A   1      40.511  27.672  29.655  1.00  0.00    -0.014 A 
BRANCH  13  14
ATOM     14  C   UNL A   1      40.424  28.642  30.774  1.00  0.00     0.031 A 
ATOM     15  C   UNL A   1      41.338  28.547  31.962  1.00  0.00     0.074 A 
ATOM     16  C   UNL A   1      39.506  29.625  30.692  1.00  0.00     0.049 A 
ATOM     17  N   UNL A   1      41.389  29.314  33.020  1.00  0.00    -0.248 NA
ATOM     18  C   UNL A   1      42.315  27.448  31.970  1.00  0.00     0.031 C 
ATOM     19  C   UNL A   1      38.557  29.799  29.588  1.00  0.00     0.029 A 
ATOM     20  N   UNL A   1      39.225  30.668  31.536  1.00  0.00    -0.354 N 
ATOM     21  C   UNL A   1      42.388  28.786  33.829  1.00  0.00     0.074 A 
ATOM     22  C   UNL A   1      42.901  27.615  33.148  1.00  0.00     0.031 C 
ATOM     23  C   UNL A   1      37.831  30.905  29.800  1.00  0.00     0.029 A 
ATOM     24  C   UNL A   1      38.210  31.479  31.085  1.00  0.00     0.049 A 
ATOM     25  H   UNL A   1      39.702  30.821  32.382  1.00  0.00     0.167 HD
ATOM     26  C   UNL A   1      42.836  29.244  35.023  1.00  0.00     0.037 A 
ATOM     27  C   UNL A   1      37.629  32.551  31.653  1.00  0.00     0.037 A 
ATOM     28  C   UNL A   1      42.316  30.417  35.682  1.00  0.00     0.049 A 
ATOM     29  C   UNL A   1      38.126  33.018  32.989  1.00  0.00     0.074 A 
ATOM     30  C   UNL A   1      42.723  30.983  36.878  1.00  0.00     0.029 A 
ATOM     31  N   UNL A   1      41.270  31.197  35.209  1.00  0.00    -0.354 N 
ATOM     32  N   UNL A   1      39.097  32.527  33.723  1.00  0.00    -0.248 NA
ATOM     33  C   UNL A   1      37.451  34.180  33.578  1.00  0.00     0.031 C 
ATOM     34  C   UNL A   1      41.892  32.075  37.151  1.00  0.00     0.029 A 
ATOM     35  C   UNL A   1      41.002  32.225  36.100  1.00  0.00     0.049 A 
ATOM     36  H   UNL A   1      40.789  31.044  34.363  1.00  0.00     0.167 HD
ATOM     37  C   UNL A   1      39.159  33.330  34.854  1.00  0.00     0.074 A 
ATOM     38  C   UNL A   1      38.141  34.350  34.697  1.00  0.00     0.031 C 
ATOM     39  C   UNL A   1      39.982  33.231  35.927  1.00  0.00     0.037 A 
BRANCH  26  40
ATOM     40  C   UNL A   1      43.928  28.467  35.708  1.00  0.00     0.058 A 
ATOM     41  C   UNL A   1      43.646  27.437  36.620  1.00  0.00     0.135 A 
ATOM     42  C   UNL A   1      45.278  28.726  35.413  1.00  0.00     0.135 A 
ATOM     43  F   UNL A   1      42.376  27.154  36.948  1.00  0.00    -0.206 F 
ATOM     44  C   UNL A   1      44.662  26.709  37.234  1.00  0.00     0.059 A 
ATOM     45  C   UNL A   1      46.309  27.993  35.996  1.00  0.00     0.059 A 
ATOM     46  F   UNL A   1      45.607  29.698  34.549  1.00  0.00    -0.206 F 
ATOM     47  C   UNL A   1      45.991  26.996  36.916  1.00  0.00     0.060 A 
BRANCH  47  48
ATOM     48  S   UNL A   1      47.296  26.039  37.718  1.00  0.00     0.124 S 
ATOM     49  O   UNL A   1      48.453  26.910  37.530  1.00  0.00    -0.237 OA
ATOM     50  O   UNL A   1      46.804  25.927  39.087  1.00  0.00    -0.237 OA
ATOM     51  O   UNL A   1      47.320  24.792  36.961  1.00  0.00    -0.744 OA
ENDBRANCH  47  48
ENDBRANCH  26  40
BRANCH  27  52
ATOM     52  C   UNL A   1      36.512  33.240  30.955  1.00  0.00     0.058 A 
ATOM     53  C   UNL A   1      35.195  33.138  31.421  1.00  0.00     0.135 A 
ATOM     54  C   UNL A   1      36.748  34.045  29.828  1.00  0.00     0.135 A 
ATOM     55  F   UNL A   1      34.919  32.379  32.493  1.00  0.00    -0.206 F 
ATOM     56  C   UNL A   1      34.147  33.798  30.788  1.00  0.00     0.059 A 
ATOM     57  C   UNL A   1      35.723  34.739  29.197  1.00  0.00     0.059 A 
ATOM     58  F   UNL A   1      37.996  34.191  29.355  1.00  0.00    -0.206 F 
ATOM     59  C   UNL A   1      34.422  34.600  29.679  1.00  0.00     0.060 A 
BRANCH  59  60
ATOM     60  S   UNL A   1      33.062  35.494  28.897  1.00  0.00     0.124 S 
ATOM     61  O   UNL A   1      32.280  35.908  30.056  1.00  0.00    -0.237 OA
ATOM     62  O   UNL A   1      33.764  36.559  28.186  1.00  0.00    -0.237 OA
ATOM     63  O   UNL A   1      32.443  34.484  28.043  1.00  0.00    -0.744 OA
ENDBRANCH  59  60
ENDBRANCH  27  52
BRANCH  39  64
ATOM     64  C   UNL A   1      39.831  34.271  37.003  1.00  0.00     0.058 A 
ATOM     65  C   UNL A   1      40.414  35.541  36.888  1.00  0.00     0.135 A 
ATOM     66  C   UNL A   1      39.063  34.001  38.147  1.00  0.00     0.135 A 
ATOM     67  F   UNL A   1      41.167  35.846  35.820  1.00  0.00    -0.206 F 
ATOM     68  C   UNL A   1      40.263  36.502  37.883  1.00  0.00     0.059 A 
ATOM     69  C   UNL A   1      38.873  34.956  39.141  1.00  0.00     0.059 A 
ATOM     70  F   UNL A   1      38.477  32.803  38.302  1.00  0.00    -0.206 F 
ATOM     71  C   UNL A   1      39.489  36.200  39.005  1.00  0.00     0.060 A 
BRANCH  71  72
ATOM     72  S   UNL A   1      39.275  37.465  40.274  1.00  0.00     0.124 S 
ATOM     73  O   UNL A   1      38.390  38.411  39.600  1.00  0.00    -0.237 OA
ATOM     74  O   UNL A   1      38.678  36.710  41.371  1.00  0.00    -0.237 OA
ATOM     75  O   UNL A   1      40.634  37.940  40.515  1.00  0.00    -0.744 OA
ENDBRANCH  71  72
ENDBRANCH  39  64
ENDBRANCH  13  14
ENDBRANCH   6   8
ENDBRANCH   3   4
ENDBRANCH   2   3
ENDBRANCH   1   2
BRANCH   1  76
ATOM     76  C   UNL A   1      34.971  23.082  24.824  1.00  0.00     0.002 C 
BRANCH  76  77
ATOM     77  C   UNL A   1      33.701  23.786  24.354  1.00  0.00     0.021 C 
BRANCH  77  78
ATOM     78  C   UNL A   1      32.423  23.198  24.930  1.00  0.00     0.116 C 
BRANCH  78  79
ATOM     79  N   UNL A   1      31.714  24.134  25.769  1.00  0.00    -0.353 N 
ATOM     80  C   UNL A   1      30.996  25.241  25.441  1.00  0.00     0.262 C 
ATOM     81  H   UNL A   1      31.757  23.939  26.733  1.00  0.00     0.163 HD
ATOM     82  O   UNL A   1      30.498  25.870  26.385  1.00  0.00    -0.271 OA
BRANCH  80  83
ATOM     83  C   UNL A   1      30.683  25.679  23.982  1.00  0.00     0.281 C 
ATOM     84  C   UNL A   1      31.814  26.544  23.442  1.00  0.00     0.181 C 
ATOM     85  O   UNL A   1      29.402  26.143  23.599  1.00  0.00    -0.477 OA
ATOM     86  N   UNL A   1      31.671  27.943  23.825  1.00  0.00    -0.304 N 
ATOM     87  C   UNL A   1      29.282  27.500  23.407  1.00  0.00     0.144 A 
ATOM     88  C   UNL A   1      30.336  28.431  23.577  1.00  0.00     0.086 A 
ATOM     89  C   UNL A   1      27.963  27.926  23.216  1.00  0.00     0.049 A 
ATOM     90  C   UNL A   1      30.008  29.793  23.564  1.00  0.00     0.030 A 
ATOM     91  C   UNL A   1      27.661  29.282  23.229  1.00  0.00     0.004 A 
ATOM     92  C   UNL A   1      28.680  30.213  23.408  1.00  0.00     0.002 A 
BRANCH  86  93
ATOM     93  C   UNL A   1      32.643  28.693  24.482  1.00  0.00     0.230 C 
ATOM     94  O   UNL A   1      33.433  29.420  23.865  1.00  0.00    -0.274 OA
BRANCH  93  95
ATOM     95  C   UNL A   1      32.779  28.706  26.024  1.00  0.00     0.083 C 
ATOM     96  C   UNL A   1      34.143  28.272  26.581  1.00  0.00     0.040 C 
ATOM     97  C   UNL A   1      32.137  29.902  26.738  1.00  0.00     0.018 C 
ATOM     98  C   UNL A   1      34.907  29.329  27.327  1.00  0.00    -0.030 C 
ATOM     99  C   UNL A   1      33.084  31.031  27.133  1.00  0.00     0.028 C 
ATOM    100  C   UNL A   1      34.440  30.563  27.564  1.00  0.00    -0.031 C 
ENDBRANCH  93  95
ENDBRANCH  86  93
ENDBRANCH  80  83
ENDBRANCH  78  79
ENDBRANCH  77  78
ENDBRANCH  76  77
ENDBRANCH   1  76
TORSDOF 18
ENDMDL
MODEL 3
REMARK VINA RESULT:     -11.4      0.461      8.076
REMARK SMILES O=C(NCCCCCCNC(=O)[C@@H]1CN(C(=O)[C@H]2CC=CCC2)c2ccccc2O1)c1ccc(-c2c3nc(c(-c4c(F)cc(S(=O)(=O)[O-])cc4F)c4ccc([nH]4)c(-c4c(F)cc(S(=O)(=O)[O-])cc4F)c4nc(c(-c5c(F)cc(S(=O)(=O)[O-])cc5F)c5ccc2[nH]5)C=C4)C=C3)cc1
REMARK SMILES IDX 6 1 5 2 4 3 3 4 1 5 2 6 31 8 32 9 96 10 33 11 95 12 34 13
REMARK SMILES IDX 35 14 36 15 89 16 37 17 94 18 88 19 90 20 38 21 93 22 87 23
REMARK SMILES IDX 86 24 39 26 73 27 52 28 72 29 53 30 56 31 71 32 91 33 54 34
REMARK SMILES IDX 55 35 70 37 92 38 57 39 40 40 41 41 50 42 42 43 43 44 49 45
REMARK SMILES IDX 51 46 44 47 45 48 46 49 47 50 48 51 74 52 75 53 84 54 76 55
REMARK SMILES IDX 77 56 83 57 85 58 78 59 79 60 80 61 81 62 82 63 58 64 59 65
REMARK SMILES IDX 68 66 60 67 61 68 67 69 69 70 62 71 63 72 64 73 65 74 66 75
REMARK SMILES IDX 7 76 8 77 9 78 10 79 11 80 12 82 13 83 14 84 30 85 15 86
REMARK SMILES IDX 29 87 24 88 28 89 25 90 27 91 26 92 16 93 17 94 18 95 19 96
REMARK SMILES IDX 23 97 20 98 22 99 21 100
REMARK H PARENT 3 7 90 25 56 36 10 81
REMARK Flexibility Score: inf
ROOT
ATOM      1  C   UNL A   1      32.711  27.497  24.429  1.00  0.00     0.002 C 
ENDROOT
BRANCH   1   2
ATOM      2  C   UNL A   1      33.988  28.133  24.982  1.00  0.00     0.021 C 
BRANCH   2   3
ATOM      3  C   UNL A   1      34.069  28.180  26.502  1.00  0.00     0.116 C 
BRANCH   3   4
ATOM      4  N   UNL A   1      33.720  29.489  27.026  1.00  0.00    -0.352 N 
ATOM      5  O   UNL A   1      33.916  31.291  28.366  1.00  0.00    -0.269 OA
ATOM      6  C   UNL A   1      34.441  30.309  27.859  1.00  0.00     0.251 C 
ATOM      7  H   UNL A   1      32.844  29.839  26.743  1.00  0.00     0.163 HD
BRANCH   6   8
ATOM      8  C   UNL A   1      35.855  29.982  28.141  1.00  0.00     0.039 A 
ATOM      9  C   UNL A   1      36.831  30.175  27.161  1.00  0.00     0.014 A 
ATOM     10  C   UNL A   1      36.203  29.489  29.401  1.00  0.00     0.014 A 
ATOM     11  C   UNL A   1      38.135  29.761  27.398  1.00  0.00     0.010 A 
ATOM     12  C   UNL A   1      37.534  29.157  29.667  1.00  0.00     0.010 A 
ATOM     13  C   UNL A   1      38.506  29.274  28.661  1.00  0.00    -0.014 A 
BRANCH  13  14
ATOM     14  C   UNL A   1      39.936  28.983  28.932  1.00  0.00     0.031 A 
ATOM     15  C   UNL A   1      40.543  27.656  28.578  1.00  0.00     0.074 A 
ATOM     16  C   UNL A   1      40.685  29.951  29.496  1.00  0.00     0.049 A 
ATOM     17  N   UNL A   1      41.773  27.245  28.750  1.00  0.00    -0.248 NA
ATOM     18  C   UNL A   1      39.657  26.657  27.959  1.00  0.00     0.031 C 
ATOM     19  C   UNL A   1      40.190  31.272  29.895  1.00  0.00     0.029 A 
ATOM     20  N   UNL A   1      42.016  29.985  29.822  1.00  0.00    -0.354 N 
ATOM     21  C   UNL A   1      41.809  25.938  28.278  1.00  0.00     0.074 A 
ATOM     22  C   UNL A   1      40.469  25.615  27.835  1.00  0.00     0.031 C 
ATOM     23  C   UNL A   1      41.209  32.001  30.369  1.00  0.00     0.029 A 
ATOM     24  C   UNL A   1      42.413  31.179  30.375  1.00  0.00     0.049 A 
ATOM     25  H   UNL A   1      42.627  29.229  29.674  1.00  0.00     0.167 HD
ATOM     26  C   UNL A   1      42.867  25.094  28.216  1.00  0.00     0.037 A 
ATOM     27  C   UNL A   1      43.608  31.565  30.859  1.00  0.00     0.037 A 
ATOM     28  C   UNL A   1      44.197  25.437  28.657  1.00  0.00     0.049 A 
ATOM     29  C   UNL A   1      44.754  30.599  30.805  1.00  0.00     0.074 A 
ATOM     30  C   UNL A   1      45.346  24.664  28.607  1.00  0.00     0.029 A 
ATOM     31  N   UNL A   1      44.557  26.645  29.237  1.00  0.00    -0.354 N 
ATOM     32  N   UNL A   1      44.779  29.379  30.323  1.00  0.00    -0.248 NA
ATOM     33  C   UNL A   1      46.033  31.056  31.361  1.00  0.00     0.031 C 
ATOM     34  C   UNL A   1      46.386  25.388  29.200  1.00  0.00     0.029 A 
ATOM     35  C   UNL A   1      45.902  26.632  29.572  1.00  0.00     0.049 A 
ATOM     36  H   UNL A   1      43.946  27.403  29.388  1.00  0.00     0.167 HD
ATOM     37  C   UNL A   1      46.080  28.927  30.503  1.00  0.00     0.074 A 
ATOM     38  C   UNL A   1      46.816  30.013  31.120  1.00  0.00     0.031 C 
ATOM     39  C   UNL A   1      46.617  27.722  30.188  1.00  0.00     0.037 A 
BRANCH  26  40
ATOM     40  C   UNL A   1      42.631  23.710  27.673  1.00  0.00     0.058 A 
ATOM     41  C   UNL A   1      42.610  23.448  26.294  1.00  0.00     0.135 A 
ATOM     42  C   UNL A   1      42.469  22.621  28.547  1.00  0.00     0.135 A 
ATOM     43  F   UNL A   1      42.746  24.451  25.413  1.00  0.00    -0.206 F 
ATOM     44  C   UNL A   1      42.411  22.162  25.800  1.00  0.00     0.059 A 
ATOM     45  C   UNL A   1      42.296  21.322  28.075  1.00  0.00     0.059 A 
ATOM     46  F   UNL A   1      42.482  22.811  29.874  1.00  0.00    -0.206 F 
ATOM     47  C   UNL A   1      42.254  21.105  26.699  1.00  0.00     0.060 A 
BRANCH  47  48
ATOM     48  S   UNL A   1      42.002  19.442  26.040  1.00  0.00     0.124 S 
ATOM     49  O   UNL A   1      42.811  19.485  24.826  1.00  0.00    -0.237 OA
ATOM     50  O   UNL A   1      42.517  18.600  27.114  1.00  0.00    -0.237 OA
ATOM     51  O   UNL A   1      40.559  19.373  25.831  1.00  0.00    -0.744 OA
ENDBRANCH  47  48
ENDBRANCH  26  40
BRANCH  27  52
ATOM     52  C   UNL A   1      43.763  32.924  31.441  1.00  0.00     0.058 A 
ATOM     53  C   UNL A   1      44.175  34.006  30.653  1.00  0.00     0.135 A 
ATOM     54  C   UNL A   1      43.466  33.172  32.792  1.00  0.00     0.135 A 
ATOM     55  F   UNL A   1      44.472  33.819  29.357  1.00  0.00    -0.206 F 
ATOM     56  C   UNL A   1      44.300  35.286  31.183  1.00  0.00     0.059 A 
ATOM     57  C   UNL A   1      43.554  34.447  33.338  1.00  0.00     0.059 A 
ATOM     58  F   UNL A   1      43.048  32.171  33.584  1.00  0.00    -0.206 F 
ATOM     59  C   UNL A   1      43.983  35.496  32.527  1.00  0.00     0.060 A 
BRANCH  59  60
ATOM     60  S   UNL A   1      44.098  37.171  33.192  1.00  0.00     0.124 S 
ATOM     61  O   UNL A   1      43.002  37.180  34.153  1.00  0.00    -0.237 OA
ATOM     62  O   UNL A   1      45.444  37.185  33.757  1.00  0.00    -0.237 OA
ATOM     63  O   UNL A   1      43.914  38.014  32.013  1.00  0.00    -0.744 OA
ENDBRANCH  59  60
ENDBRANCH  27  52
BRANCH  39  64
ATOM     64  C   UNL A   1      48.078  27.527  30.485  1.00  0.00     0.058 A 
ATOM     65  C   UNL A   1      49.072  27.882  29.560  1.00  0.00     0.135 A 
ATOM     66  C   UNL A   1      48.488  27.010  31.724  1.00  0.00     0.135 A 
ATOM     67  F   UNL A   1      48.734  28.371  28.357  1.00  0.00    -0.206 F 
ATOM     68  C   UNL A   1      50.423  27.707  29.844  1.00  0.00     0.059 A 
ATOM     69  C   UNL A   1      49.833  26.853  32.041  1.00  0.00     0.059 A 
ATOM     70  F   UNL A   1      47.577  26.661  32.647  1.00  0.00    -0.206 F 
ATOM     71  C   UNL A   1      50.793  27.194  31.089  1.00  0.00     0.060 A 
BRANCH  71  72
ATOM     72  S   UNL A   1      52.549  27.000  31.457  1.00  0.00     0.124 S 
ATOM     73  O   UNL A   1      52.755  28.037  32.464  1.00  0.00    -0.237 OA
ATOM     74  O   UNL A   1      52.618  25.625  31.940  1.00  0.00    -0.237 OA
ATOM     75  O   UNL A   1      53.196  27.239  30.170  1.00  0.00    -0.744 OA
ENDBRANCH  71  72
ENDBRANCH  39  64
ENDBRANCH  13  14
ENDBRANCH   6   8
ENDBRANCH   3   4
ENDBRANCH   2   3
ENDBRANCH   1   2
BRANCH   1  76
ATOM     76  C   UNL A   1      32.469  26.037  24.831  1.00  0.00     0.002 C 
BRANCH  76  77
ATOM     77  C   UNL A   1      31.147  25.441  24.355  1.00  0.00     0.021 C 
BRANCH  77  78
ATOM     78  C   UNL A   1      31.108  25.146  22.864  1.00  0.00     0.116 C 
BRANCH  78  79
ATOM     79  N   UNL A   1      32.306  24.489  22.401  1.00  0.00    -0.353 N 
ATOM     80  C   UNL A   1      32.749  23.220  22.605  1.00  0.00     0.262 C 
ATOM     81  H   UNL A   1      32.897  25.049  21.848  1.00  0.00     0.163 HD
ATOM     82  O   UNL A   1      33.837  22.929  22.086  1.00  0.00    -0.271 OA
BRANCH  80  83
ATOM     83  C   UNL A   1      31.933  22.117  23.336  1.00  0.00     0.281 C 
ATOM     84  C   UNL A   1      32.304  22.086  24.813  1.00  0.00     0.181 C 
ATOM     85  O   UNL A   1      31.758  20.826  22.785  1.00  0.00    -0.477 OA
ATOM     86  N   UNL A   1      33.494  21.284  25.069  1.00  0.00    -0.304 N 
ATOM     87  C   UNL A   1      32.508  19.819  23.349  1.00  0.00     0.144 A 
ATOM     88  C   UNL A   1      33.424  20.000  24.414  1.00  0.00     0.086 A 
ATOM     89  C   UNL A   1      32.440  18.609  22.650  1.00  0.00     0.049 A 
ATOM     90  C   UNL A   1      34.273  18.932  24.729  1.00  0.00     0.030 A 
ATOM     91  C   UNL A   1      33.308  17.571  22.969  1.00  0.00     0.004 A 
ATOM     92  C   UNL A   1      34.225  17.735  24.003  1.00  0.00     0.002 A 
BRANCH  86  93
ATOM     93  C   UNL A   1      34.631  21.734  25.736  1.00  0.00     0.230 C 
ATOM     94  O   UNL A   1      34.807  21.514  26.942  1.00  0.00    -0.274 OA
BRANCH  93  95
ATOM     95  C   UNL A   1      35.767  22.500  25.017  1.00  0.00     0.083 C 
ATOM     96  C   UNL A   1      36.159  23.851  25.632  1.00  0.00     0.040 C 
ATOM     97  C   UNL A   1      36.941  21.643  24.529  1.00  0.00     0.018 C 
ATOM     98  C   UNL A   1      37.559  23.938  26.173  1.00  0.00    -0.030 C 
ATOM     99  C   UNL A   1      38.177  21.632  25.424  1.00  0.00     0.028 C 
ATOM    100  C   UNL A   1      38.455  22.944  26.090  1.00  0.00    -0.031 C 
ENDBRANCH  93  95
ENDBRANCH  86  93
ENDBRANCH  80  83
ENDBRANCH  78  79
ENDBRANCH  77  78
ENDBRANCH  76  77
ENDBRANCH   1  76
TORSDOF 18
ENDMDL
