MODEL 1
REMARK VINA RESULT:     -11.7      0.000      0.000
REMARK SMILES O=C(COc1ccccc1C[NH+]1CCC2(CC[NH2+]CC2)CC1)NCCCCCCNC(=O)c1ccc(-c2c3nc(c(-c4c(F)cc(S(=O)(=O)[O-])cc4F)c4ccc([nH]4)c(-c4c(F)cc(S(=O)(=O)[O-])cc4F)c4nc(c(-c5c(F)cc(S(=O)(=O)[O-])cc5F)c5ccc2[nH]5)C=C4)C=C3)cc1
REMARK SMILES IDX 26 1 25 2 24 3 23 4 1 5 2 6 3 8 4 9 5 10 6 11 10 12 7 13
REMARK SMILES IDX 9 14 8 15 11 16 12 17 13 18 22 19 14 21 21 22 15 23 16 24
REMARK SMILES IDX 20 25 17 26 19 27 18 28 27 31 28 32 29 33 30 34 31 35 32 37
REMARK SMILES IDX 33 38 34 39 98 40 35 41 97 42 36 43 37 44 38 45 91 46 39 47
REMARK SMILES IDX 96 48 90 49 92 50 40 51 95 52 89 53 88 54 41 56 75 57 54 58
REMARK SMILES IDX 74 59 55 60 58 61 73 62 93 63 56 64 57 65 72 67 94 68 59 69
REMARK SMILES IDX 42 70 43 71 52 72 44 73 45 74 51 75 53 76 46 77 47 78 48 79
REMARK SMILES IDX 49 80 50 81 76 82 77 83 86 84 78 85 79 86 85 87 87 88 80 89
REMARK SMILES IDX 81 90 82 91 83 92 84 93 60 94 61 95 70 96 62 97 63 98 69 99
REMARK SMILES IDX 71 100 64 101 65 102 66 103 67 104 68 105
REMARK H PARENT 23 7 12 20 18 29 18 30 30 36 92 55 58 66
REMARK Flexibility Score: inf
ROOT
ATOM      1  C   UNL A   1      39.675  21.778  26.445  1.00  0.00     0.002 C 
ENDROOT
BRANCH   1   2
ATOM      2  C   UNL A   1      39.170  23.216  26.619  1.00  0.00     0.021 C 
BRANCH   2   3
ATOM      3  C   UNL A   1      37.746  23.550  26.174  1.00  0.00     0.116 C 
BRANCH   3   4
ATOM      4  N   UNL A   1      36.856  22.417  25.994  1.00  0.00    -0.353 N 
ATOM      5  O   UNL A   1      37.123  22.214  23.712  1.00  0.00    -0.271 OA
ATOM      6  C   UNL A   1      36.796  21.729  24.792  1.00  0.00     0.257 C 
ATOM      7  H   UNL A   1      36.283  22.130  26.741  1.00  0.00     0.163 HD
BRANCH   6   8
ATOM      8  C   UNL A   1      36.322  20.273  24.916  1.00  0.00     0.329 C 
BRANCH   8   9
ATOM      9  O   UNL A   1      34.977  20.204  25.407  1.00  0.00    -0.483 OA
BRANCH   9  10
ATOM     10  C   UNL A   1      34.179  19.332  24.707  1.00  0.00     0.128 A 
ATOM     11  C   UNL A   1      34.763  18.123  24.305  1.00  0.00     0.047 A 
ATOM     12  C   UNL A   1      32.893  19.673  24.256  1.00  0.00     0.048 A 
ATOM     13  C   UNL A   1      34.064  17.238  23.481  1.00  0.00     0.004 A 
ATOM     14  C   UNL A   1      32.190  18.744  23.464  1.00  0.00     0.013 A 
ATOM     15  C   UNL A   1      32.774  17.545  23.065  1.00  0.00     0.001 A 
BRANCH  12  16
ATOM     16  C   UNL A   1      32.232  21.003  24.516  1.00  0.00     0.302 C 
BRANCH  16  17
ATOM     17  N   UNL A   1      32.374  22.008  23.470  1.00  0.00    -0.331 N 
ATOM     18  C   UNL A   1      31.273  22.938  23.308  1.00  0.00     0.263 C 
ATOM     19  C   UNL A   1      33.699  22.551  23.227  1.00  0.00     0.263 C 
ATOM     20  H   UNL A   1      32.269  21.404  22.654  1.00  0.00     0.348 HD
ATOM     21  C   UNL A   1      31.489  24.347  23.845  1.00  0.00     0.069 C 
ATOM     22  C   UNL A   1      33.925  23.967  23.776  1.00  0.00     0.069 C 
ATOM     23  C   UNL A   1      32.815  24.958  23.359  1.00  0.00    -0.008 C 
ATOM     24  C   UNL A   1      32.838  25.184  21.824  1.00  0.00     0.069 C 
ATOM     25  C   UNL A   1      33.037  26.326  24.046  1.00  0.00     0.069 C 
ATOM     26  C   UNL A   1      31.908  26.311  21.374  1.00  0.00     0.261 C 
ATOM     27  C   UNL A   1      32.101  27.414  23.510  1.00  0.00     0.261 C 
ATOM     28  N   UNL A   1      32.211  27.566  22.061  1.00  0.00    -0.346 N 
ATOM     29  H   UNL A   1      31.553  28.282  21.751  1.00  0.00     0.346 HD
ATOM     30  H   UNL A   1      33.167  27.836  21.835  1.00  0.00     0.346 HD
ENDBRANCH  16  17
ENDBRANCH  12  16
ENDBRANCH   9  10
ENDBRANCH   8   9
ENDBRANCH   6   8
ENDBRANCH   3   4
ENDBRANCH   2   3
ENDBRANCH   1   2
BRANCH   1  31
ATOM     31  C   UNL A   1      41.169  21.506  26.631  1.00  0.00     0.002 C 
BRANCH  31  32
ATOM     32  C   UNL A   1      41.863  22.215  27.794  1.00  0.00     0.021 C 
BRANCH  32  33
ATOM     33  C   UNL A   1      43.014  23.135  27.404  1.00  0.00     0.116 C 
BRANCH  33  34
ATOM     34  N   UNL A   1      42.736  23.912  26.203  1.00  0.00    -0.352 N 
ATOM     35  C   UNL A   1      42.252  25.191  26.081  1.00  0.00     0.251 C 
ATOM     36  H   UNL A   1      42.923  23.451  25.353  1.00  0.00     0.163 HD
ATOM     37  O   UNL A   1      41.954  25.627  24.969  1.00  0.00    -0.269 OA
BRANCH  35  38
ATOM     38  C   UNL A   1      42.066  26.037  27.281  1.00  0.00     0.039 A 
ATOM     39  C   UNL A   1      42.976  27.068  27.533  1.00  0.00     0.014 A 
ATOM     40  C   UNL A   1      41.002  25.818  28.157  1.00  0.00     0.014 A 
ATOM     41  C   UNL A   1      42.779  27.917  28.626  1.00  0.00     0.010 A 
ATOM     42  C   UNL A   1      40.759  26.714  29.194  1.00  0.00     0.010 A 
ATOM     43  C   UNL A   1      41.648  27.770  29.445  1.00  0.00    -0.014 A 
BRANCH  43  44
ATOM     44  C   UNL A   1      41.377  28.698  30.575  1.00  0.00     0.031 A 
ATOM     45  C   UNL A   1      42.180  28.590  31.845  1.00  0.00     0.074 A 
ATOM     46  C   UNL A   1      40.366  29.585  30.485  1.00  0.00     0.049 A 
ATOM     47  N   UNL A   1      42.036  29.240  32.971  1.00  0.00    -0.248 NA
ATOM     48  C   UNL A   1      43.269  27.599  31.862  1.00  0.00     0.031 C 
ATOM     49  C   UNL A   1      39.487  29.753  29.324  1.00  0.00     0.029 A 
ATOM     50  N   UNL A   1      39.895  30.504  31.390  1.00  0.00    -0.354 N 
ATOM     51  C   UNL A   1      43.000  28.727  33.831  1.00  0.00     0.074 A 
ATOM     52  C   UNL A   1      43.685  27.673  33.117  1.00  0.00     0.031 C 
ATOM     53  C   UNL A   1      38.601  30.728  29.580  1.00  0.00     0.029 A 
ATOM     54  C   UNL A   1      38.815  31.225  30.936  1.00  0.00     0.049 A 
ATOM     55  H   UNL A   1      40.294  30.635  32.281  1.00  0.00     0.167 HD
ATOM     56  C   UNL A   1      43.305  29.118  35.092  1.00  0.00     0.037 A 
ATOM     57  C   UNL A   1      38.072  32.169  31.547  1.00  0.00     0.037 A 
ATOM     58  C   UNL A   1      42.635  30.187  35.785  1.00  0.00     0.049 A 
ATOM     59  C   UNL A   1      38.424  32.580  32.952  1.00  0.00     0.074 A 
ATOM     60  C   UNL A   1      42.904  30.697  37.043  1.00  0.00     0.029 A 
ATOM     61  N   UNL A   1      41.562  30.908  35.282  1.00  0.00    -0.354 N 
ATOM     62  N   UNL A   1      39.381  32.127  33.728  1.00  0.00    -0.248 NA
ATOM     63  C   UNL A   1      37.603  33.632  33.565  1.00  0.00     0.031 C 
ATOM     64  C   UNL A   1      41.960  31.691  37.322  1.00  0.00     0.029 A 
ATOM     65  C   UNL A   1      41.142  31.844  36.214  1.00  0.00     0.049 A 
ATOM     66  H   UNL A   1      41.157  30.775  34.395  1.00  0.00     0.167 HD
ATOM     67  C   UNL A   1      39.298  32.863  34.905  1.00  0.00     0.074 A 
ATOM     68  C   UNL A   1      38.203  33.797  34.735  1.00  0.00     0.031 C 
ATOM     69  C   UNL A   1      40.059  32.777  36.024  1.00  0.00     0.037 A 
BRANCH  56  70
ATOM     70  C   UNL A   1      44.413  28.389  35.804  1.00  0.00     0.058 A 
ATOM     71  C   UNL A   1      44.178  27.205  36.521  1.00  0.00     0.135 A 
ATOM     72  C   UNL A   1      45.737  28.854  35.729  1.00  0.00     0.135 A 
ATOM     73  F   UNL A   1      42.931  26.721  36.639  1.00  0.00    -0.206 F 
ATOM     74  C   UNL A   1      45.207  26.523  37.162  1.00  0.00     0.059 A 
ATOM     75  C   UNL A   1      46.787  28.171  36.336  1.00  0.00     0.059 A 
ATOM     76  F   UNL A   1      46.022  29.981  35.058  1.00  0.00    -0.206 F 
ATOM     77  C   UNL A   1      46.510  27.013  37.062  1.00  0.00     0.060 A 
BRANCH  77  78
ATOM     78  S   UNL A   1      47.836  26.107  37.886  1.00  0.00     0.124 S 
ATOM     79  O   UNL A   1      48.280  25.211  36.824  1.00  0.00    -0.237 OA
ATOM     80  O   UNL A   1      48.766  27.174  38.243  1.00  0.00    -0.237 OA
ATOM     81  O   UNL A   1      47.164  25.465  39.010  1.00  0.00    -0.744 OA
ENDBRANCH  77  78
ENDBRANCH  56  70
BRANCH  57  82
ATOM     82  C   UNL A   1      36.933  32.805  30.829  1.00  0.00     0.058 A 
ATOM     83  C   UNL A   1      35.612  32.390  31.055  1.00  0.00     0.135 A 
ATOM     84  C   UNL A   1      37.140  33.839  29.902  1.00  0.00     0.135 A 
ATOM     85  F   UNL A   1      35.359  31.401  31.927  1.00  0.00    -0.206 F 
ATOM     86  C   UNL A   1      34.540  32.960  30.374  1.00  0.00     0.059 A 
ATOM     87  C   UNL A   1      36.083  34.444  29.230  1.00  0.00     0.059 A 
ATOM     88  F   UNL A   1      38.382  34.287  29.661  1.00  0.00    -0.206 F 
ATOM     89  C   UNL A   1      34.787  33.988  29.463  1.00  0.00     0.060 A 
BRANCH  89  90
ATOM     90  S   UNL A   1      33.386  34.743  28.610  1.00  0.00     0.124 S 
ATOM     91  O   UNL A   1      34.017  35.891  27.969  1.00  0.00    -0.237 OA
ATOM     92  O   UNL A   1      32.954  33.670  27.720  1.00  0.00    -0.237 OA
ATOM     93  O   UNL A   1      32.460  35.057  29.696  1.00  0.00    -0.744 OA
ENDBRANCH  89  90
ENDBRANCH  57  82
BRANCH  69  94
ATOM     94  C   UNL A   1      39.774  33.748  37.137  1.00  0.00     0.058 A 
ATOM     95  C   UNL A   1      38.873  33.449  38.171  1.00  0.00     0.135 A 
ATOM     96  C   UNL A   1      40.463  34.971  37.202  1.00  0.00     0.135 A 
ATOM     97  F   UNL A   1      38.184  32.297  38.154  1.00  0.00    -0.206 F 
ATOM     98  C   UNL A   1      38.647  34.338  39.217  1.00  0.00     0.059 A 
ATOM     99  C   UNL A   1      40.276  35.861  38.255  1.00  0.00     0.059 A 
ATOM    100  F   UNL A   1      41.345  35.302  36.245  1.00  0.00    -0.206 F 
ATOM    101  C   UNL A   1      39.357  35.539  39.252  1.00  0.00     0.060 A 
BRANCH 101 102
ATOM    102  S   UNL A   1      39.083  36.665  40.636  1.00  0.00     0.124 S 
ATOM    103  O   UNL A   1      38.571  37.849  39.956  1.00  0.00    -0.237 OA
ATOM    104  O   UNL A   1      38.116  35.932  41.447  1.00  0.00    -0.237 OA
ATOM    105  O   UNL A   1      40.409  36.806  41.230  1.00  0.00    -0.744 OA
ENDBRANCH 101 102
ENDBRANCH  69  94
ENDBRANCH  43  44
ENDBRANCH  35  38
ENDBRANCH  33  34
ENDBRANCH  32  33
ENDBRANCH  31  32
ENDBRANCH   1  31
TORSDOF 20
ENDMDL
MODEL 2
REMARK VINA RESULT:     -11.4      6.159     12.128
REMARK SMILES O=C(COc1ccccc1C[NH+]1CCC2(CC[NH2+]CC2)CC1)NCCCCCCNC(=O)c1ccc(-c2c3nc(c(-c4c(F)cc(S(=O)(=O)[O-])cc4F)c4ccc([nH]4)c(-c4c(F)cc(S(=O)(=O)[O-])cc4F)c4nc(c(-c5c(F)cc(S(=O)(=O)[O-])cc5F)c5ccc2[nH]5)C=C4)C=C3)cc1
REMARK SMILES IDX 26 1 25 2 24 3 23 4 1 5 2 6 3 8 4 9 5 10 6 11 10 12 7 13
REMARK SMILES IDX 9 14 8 15 11 16 12 17 13 18 22 19 14 21 21 22 15 23 16 24
REMARK SMILES IDX 20 25 17 26 19 27 18 28 27 31 28 32 29 33 30 34 31 35 32 37
REMARK SMILES IDX 33 38 34 39 98 40 35 41 97 42 36 43 37 44 38 45 91 46 39 47
REMARK SMILES IDX 96 48 90 49 92 50 40 51 95 52 89 53 88 54 41 56 75 57 54 58
REMARK SMILES IDX 74 59 55 60 58 61 73 62 93 63 56 64 57 65 72 67 94 68 59 69
REMARK SMILES IDX 42 70 43 71 52 72 44 73 45 74 51 75 53 76 46 77 47 78 48 79
REMARK SMILES IDX 49 80 50 81 76 82 77 83 86 84 78 85 79 86 85 87 87 88 80 89
REMARK SMILES IDX 81 90 82 91 83 92 84 93 60 94 61 95 70 96 62 97 63 98 69 99
REMARK SMILES IDX 71 100 64 101 65 102 66 103 67 104 68 105
REMARK H PARENT 23 7 12 20 18 29 18 30 30 36 92 55 58 66
REMARK Flexibility Score: inf
ROOT
ATOM      1  C   UNL A   1      36.557  33.177  27.983  1.00  0.00     0.002 C 
ENDROOT
BRANCH   1   2
ATOM      2  C   UNL A   1      35.307  32.449  28.494  1.00  0.00     0.021 C 
BRANCH   2   3
ATOM      3  C   UNL A   1      35.195  30.942  28.266  1.00  0.00     0.116 C 
BRANCH   3   4
ATOM      4  N   UNL A   1      34.653  30.532  26.983  1.00  0.00    -0.353 N 
ATOM      5  O   UNL A   1      33.505  28.682  27.744  1.00  0.00    -0.271 OA
ATOM      6  C   UNL A   1      33.683  29.547  26.890  1.00  0.00     0.257 C 
ATOM      7  H   UNL A   1      34.981  30.964  26.162  1.00  0.00     0.163 HD
BRANCH   6   8
ATOM      8  C   UNL A   1      32.800  29.640  25.635  1.00  0.00     0.329 C 
BRANCH   8   9
ATOM      9  O   UNL A   1      32.397  28.341  25.185  1.00  0.00    -0.483 OA
BRANCH   9  10
ATOM     10  C   UNL A   1      31.277  28.356  24.390  1.00  0.00     0.128 A 
ATOM     11  C   UNL A   1      30.697  29.606  24.138  1.00  0.00     0.047 A 
ATOM     12  C   UNL A   1      30.624  27.183  23.974  1.00  0.00     0.048 A 
ATOM     13  C   UNL A   1      29.485  29.699  23.449  1.00  0.00     0.004 A 
ATOM     14  C   UNL A   1      29.428  27.304  23.241  1.00  0.00     0.013 A 
ATOM     15  C   UNL A   1      28.853  28.547  22.993  1.00  0.00     0.001 A 
BRANCH  12  16
ATOM     16  C   UNL A   1      31.091  25.790  24.315  1.00  0.00     0.302 C 
BRANCH  16  17
ATOM     17  N   UNL A   1      32.523  25.623  24.525  1.00  0.00    -0.331 N 
ATOM     18  C   UNL A   1      32.932  25.054  25.794  1.00  0.00     0.263 C 
ATOM     19  C   UNL A   1      33.338  25.258  23.379  1.00  0.00     0.263 C 
ATOM     20  H   UNL A   1      32.783  26.604  24.632  1.00  0.00     0.348 HD
ATOM     21  C   UNL A   1      33.383  23.599  25.774  1.00  0.00     0.069 C 
ATOM     22  C   UNL A   1      33.786  23.791  23.349  1.00  0.00     0.069 C 
ATOM     23  C   UNL A   1      34.428  23.329  24.677  1.00  0.00    -0.008 C 
ATOM     24  C   UNL A   1      35.760  24.084  24.927  1.00  0.00     0.069 C 
ATOM     25  C   UNL A   1      34.739  21.816  24.620  1.00  0.00     0.069 C 
ATOM     26  C   UNL A   1      36.548  23.523  26.111  1.00  0.00     0.261 C 
ATOM     27  C   UNL A   1      35.569  21.339  25.816  1.00  0.00     0.261 C 
ATOM     28  N   UNL A   1      36.813  22.094  25.955  1.00  0.00    -0.346 N 
ATOM     29  H   UNL A   1      37.317  21.758  26.776  1.00  0.00     0.346 HD
ATOM     30  H   UNL A   1      37.370  21.959  25.112  1.00  0.00     0.346 HD
ENDBRANCH  16  17
ENDBRANCH  12  16
ENDBRANCH   9  10
ENDBRANCH   8   9
ENDBRANCH   6   8
ENDBRANCH   3   4
ENDBRANCH   2   3
ENDBRANCH   1   2
BRANCH   1  31
ATOM     31  C   UNL A   1      37.504  33.799  29.011  1.00  0.00     0.002 C 
BRANCH  31  32
ATOM     32  C   UNL A   1      36.969  33.970  30.433  1.00  0.00     0.021 C 
BRANCH  32  33
ATOM     33  C   UNL A   1      37.582  33.041  31.475  1.00  0.00     0.116 C 
BRANCH  33  34
ATOM     34  N   UNL A   1      36.719  31.916  31.809  1.00  0.00    -0.352 N 
ATOM     35  C   UNL A   1      36.887  30.578  31.552  1.00  0.00     0.251 C 
ATOM     36  H   UNL A   1      35.893  32.151  32.291  1.00  0.00     0.163 HD
ATOM     37  O   UNL A   1      35.973  29.790  31.797  1.00  0.00    -0.269 OA
BRANCH  35  38
ATOM     38  C   UNL A   1      38.151  30.083  30.963  1.00  0.00     0.039 A 
ATOM     39  C   UNL A   1      38.344  30.189  29.582  1.00  0.00     0.014 A 
ATOM     40  C   UNL A   1      39.143  29.514  31.763  1.00  0.00     0.014 A 
ATOM     41  C   UNL A   1      39.557  29.785  29.017  1.00  0.00     0.010 A 
ATOM     42  C   UNL A   1      40.380  29.192  31.213  1.00  0.00     0.010 A 
ATOM     43  C   UNL A   1      40.600  29.317  29.833  1.00  0.00    -0.014 A 
BRANCH  43  44
ATOM     44  C   UNL A   1      41.924  28.943  29.269  1.00  0.00     0.031 A 
ATOM     45  C   UNL A   1      43.002  29.986  29.127  1.00  0.00     0.074 A 
ATOM     46  C   UNL A   1      42.131  27.688  28.821  1.00  0.00     0.049 A 
ATOM     47  N   UNL A   1      44.185  29.882  28.577  1.00  0.00    -0.248 NA
ATOM     48  C   UNL A   1      42.698  31.331  29.644  1.00  0.00     0.031 C 
ATOM     49  C   UNL A   1      41.149  26.601  28.861  1.00  0.00     0.029 A 
ATOM     50  N   UNL A   1      43.230  27.117  28.229  1.00  0.00    -0.354 N 
ATOM     51  C   UNL A   1      44.756  31.146  28.667  1.00  0.00     0.074 A 
ATOM     52  C   UNL A   1      43.771  32.014  29.272  1.00  0.00     0.031 C 
ATOM     53  C   UNL A   1      41.696  25.493  28.339  1.00  0.00     0.029 A 
ATOM     54  C   UNL A   1      43.050  25.797  27.884  1.00  0.00     0.049 A 
ATOM     55  H   UNL A   1      44.070  27.605  28.068  1.00  0.00     0.167 HD
ATOM     56  C   UNL A   1      46.000  31.541  28.303  1.00  0.00     0.037 A 
ATOM     57  C   UNL A   1      43.875  24.934  27.260  1.00  0.00     0.037 A 
ATOM     58  C   UNL A   1      46.984  30.663  27.726  1.00  0.00     0.049 A 
ATOM     59  C   UNL A   1      45.249  25.399  26.857  1.00  0.00     0.074 A 
ATOM     60  C   UNL A   1      48.292  30.951  27.373  1.00  0.00     0.029 A 
ATOM     61  N   UNL A   1      46.771  29.328  27.414  1.00  0.00    -0.354 N 
ATOM     62  N   UNL A   1      45.797  26.582  27.008  1.00  0.00    -0.248 NA
ATOM     63  C   UNL A   1      46.122  24.413  26.205  1.00  0.00     0.031 C 
ATOM     64  C   UNL A   1      48.850  29.805  26.800  1.00  0.00     0.029 A 
ATOM     65  C   UNL A   1      47.914  28.784  26.852  1.00  0.00     0.049 A 
ATOM     66  H   UNL A   1      45.930  28.839  27.569  1.00  0.00     0.167 HD
ATOM     67  C   UNL A   1      47.087  26.472  26.501  1.00  0.00     0.074 A 
ATOM     68  C   UNL A   1      47.242  25.104  26.049  1.00  0.00     0.031 C 
ATOM     69  C   UNL A   1      48.057  27.416  26.420  1.00  0.00     0.037 A 
BRANCH  56  70
ATOM     70  C   UNL A   1      46.370  32.984  28.520  1.00  0.00     0.058 A 
ATOM     71  C   UNL A   1      46.947  33.427  29.722  1.00  0.00     0.135 A 
ATOM     72  C   UNL A   1      46.190  33.929  27.497  1.00  0.00     0.135 A 
ATOM     73  F   UNL A   1      47.129  32.571  30.741  1.00  0.00    -0.206 F 
ATOM     74  C   UNL A   1      47.305  34.757  29.912  1.00  0.00     0.059 A 
ATOM     75  C   UNL A   1      46.571  35.259  27.654  1.00  0.00     0.059 A 
ATOM     76  F   UNL A   1      45.643  33.564  26.326  1.00  0.00    -0.206 F 
ATOM     77  C   UNL A   1      47.115  35.666  28.871  1.00  0.00     0.060 A 
BRANCH  77  78
ATOM     78  S   UNL A   1      47.601  37.385  29.129  1.00  0.00     0.124 S 
ATOM     79  O   UNL A   1      46.453  38.098  28.578  1.00  0.00    -0.237 OA
ATOM     80  O   UNL A   1      47.750  37.451  30.580  1.00  0.00    -0.237 OA
ATOM     81  O   UNL A   1      48.840  37.508  28.369  1.00  0.00    -0.744 OA
ENDBRANCH  77  78
ENDBRANCH  56  70
BRANCH  57  82
ATOM     82  C   UNL A   1      43.434  23.537  26.994  1.00  0.00     0.058 A 
ATOM     83  C   UNL A   1      43.338  22.596  28.030  1.00  0.00     0.135 A 
ATOM     84  C   UNL A   1      43.100  23.112  25.697  1.00  0.00     0.135 A 
ATOM     85  F   UNL A   1      43.652  22.949  29.287  1.00  0.00    -0.206 F 
ATOM     86  C   UNL A   1      42.949  21.282  27.791  1.00  0.00     0.059 A 
ATOM     87  C   UNL A   1      42.680  21.811  25.437  1.00  0.00     0.059 A 
ATOM     88  F   UNL A   1      43.156  23.975  24.671  1.00  0.00    -0.206 F 
ATOM     89  C   UNL A   1      42.621  20.899  26.490  1.00  0.00     0.060 A 
BRANCH  89  90
ATOM     90  S   UNL A   1      42.085  19.200  26.196  1.00  0.00     0.124 S 
ATOM     91  O   UNL A   1      42.339  18.584  27.493  1.00  0.00    -0.237 OA
ATOM     92  O   UNL A   1      40.682  19.379  25.836  1.00  0.00    -0.237 OA
ATOM     93  O   UNL A   1      42.952  18.757  25.107  1.00  0.00    -0.744 OA
ENDBRANCH  89  90
ENDBRANCH  57  82
BRANCH  69  94
ATOM     94  C   UNL A   1      49.393  26.997  25.868  1.00  0.00     0.058 A 
ATOM     95  C   UNL A   1      49.704  27.118  24.505  1.00  0.00     0.135 A 
ATOM     96  C   UNL A   1      50.397  26.525  26.730  1.00  0.00     0.135 A 
ATOM     97  F   UNL A   1      48.779  27.558  23.637  1.00  0.00    -0.206 F 
ATOM     98  C   UNL A   1      50.956  26.764  24.012  1.00  0.00     0.059 A 
ATOM     99  C   UNL A   1      51.666  26.196  26.264  1.00  0.00     0.059 A 
ATOM    100  F   UNL A   1      50.157  26.400  28.045  1.00  0.00    -0.206 F 
ATOM    101  C   UNL A   1      51.932  26.309  24.900  1.00  0.00     0.060 A 
BRANCH 101 102
ATOM    102  S   UNL A   1      53.564  25.892  24.252  1.00  0.00     0.124 S 
ATOM    103  O   UNL A   1      54.405  26.884  24.911  1.00  0.00    -0.237 OA
ATOM    104  O   UNL A   1      53.735  24.515  24.704  1.00  0.00    -0.237 OA
ATOM    105  O   UNL A   1      53.411  26.057  22.809  1.00  0.00    -0.744 OA
ENDBRANCH 101 102
ENDBRANCH  69  94
ENDBRANCH  43  44
ENDBRANCH  35  38
ENDBRANCH  33  34
ENDBRANCH  32  33
ENDBRANCH  31  32
ENDBRANCH   1  31
TORSDOF 20
ENDMDL
MODEL 3
REMARK VINA RESULT:     -11.4      0.891      8.032
REMARK SMILES O=C(COc1ccccc1C[NH+]1CCC2(CC[NH2+]CC2)CC1)NCCCCCCNC(=O)c1ccc(-c2c3nc(c(-c4c(F)cc(S(=O)(=O)[O-])cc4F)c4ccc([nH]4)c(-c4c(F)cc(S(=O)(=O)[O-])cc4F)c4nc(c(-c5c(F)cc(S(=O)(=O)[O-])cc5F)c5ccc2[nH]5)C=C4)C=C3)cc1
REMARK SMILES IDX 26 1 25 2 24 3 23 4 1 5 2 6 3 8 4 9 5 10 6 11 10 12 7 13
REMARK SMILES IDX 9 14 8 15 11 16 12 17 13 18 22 19 14 21 21 22 15 23 16 24
REMARK SMILES IDX 20 25 17 26 19 27 18 28 27 31 28 32 29 33 30 34 31 35 32 37
REMARK SMILES IDX 33 38 34 39 98 40 35 41 97 42 36 43 37 44 38 45 91 46 39 47
REMARK SMILES IDX 96 48 90 49 92 50 40 51 95 52 89 53 88 54 41 56 75 57 54 58
REMARK SMILES IDX 74 59 55 60 58 61 73 62 93 63 56 64 57 65 72 67 94 68 59 69
REMARK SMILES IDX 42 70 43 71 52 72 44 73 45 74 51 75 53 76 46 77 47 78 48 79
REMARK SMILES IDX 49 80 50 81 76 82 77 83 86 84 78 85 79 86 85 87 87 88 80 89
REMARK SMILES IDX 81 90 82 91 83 92 84 93 60 94 61 95 70 96 62 97 63 98 69 99
REMARK SMILES IDX 71 100 64 101 65 102 66 103 67 104 68 105
REMARK H PARENT 23 7 12 20 18 29 18 30 30 36 92 55 58 66
REMARK Flexibility Score: inf
ROOT
ATOM      1  C   UNL A   1      40.098  21.865  26.213  1.00  0.00     0.002 C 
ENDROOT
BRANCH   1   2
ATOM      2  C   UNL A   1      39.416  23.164  26.661  1.00  0.00     0.021 C 
BRANCH   2   3
ATOM      3  C   UNL A   1      38.000  23.456  26.163  1.00  0.00     0.116 C 
BRANCH   3   4
ATOM      4  N   UNL A   1      37.103  22.316  26.099  1.00  0.00    -0.353 N 
ATOM      5  O   UNL A   1      36.710  22.399  23.828  1.00  0.00    -0.271 OA
ATOM      6  C   UNL A   1      36.707  21.775  24.886  1.00  0.00     0.257 C 
ATOM      7  H   UNL A   1      36.768  21.919  26.935  1.00  0.00     0.163 HD
BRANCH   6   8
ATOM      8  C   UNL A   1      36.297  20.296  24.953  1.00  0.00     0.329 C 
BRANCH   8   9
ATOM      9  O   UNL A   1      34.945  20.151  25.404  1.00  0.00    -0.483 OA
BRANCH   9  10
ATOM     10  C   UNL A   1      34.229  19.209  24.706  1.00  0.00     0.128 A 
ATOM     11  C   UNL A   1      34.928  18.074  24.277  1.00  0.00     0.047 A 
ATOM     12  C   UNL A   1      32.906  19.420  24.283  1.00  0.00     0.048 A 
ATOM     13  C   UNL A   1      34.309  17.131  23.452  1.00  0.00     0.004 A 
ATOM     14  C   UNL A   1      32.288  18.433  23.490  1.00  0.00     0.013 A 
ATOM     15  C   UNL A   1      32.986  17.306  23.063  1.00  0.00     0.001 A 
BRANCH  12  16
ATOM     16  C   UNL A   1      32.114  20.670  24.573  1.00  0.00     0.302 C 
BRANCH  16  17
ATOM     17  N   UNL A   1      32.887  21.854  24.927  1.00  0.00    -0.331 N 
ATOM     18  C   UNL A   1      32.913  22.928  23.953  1.00  0.00     0.263 C 
ATOM     19  C   UNL A   1      32.896  22.266  26.320  1.00  0.00     0.263 C 
ATOM     20  H   UNL A   1      33.825  21.463  24.843  1.00  0.00     0.348 HD
ATOM     21  C   UNL A   1      32.051  24.146  24.260  1.00  0.00     0.069 C 
ATOM     22  C   UNL A   1      32.020  23.486  26.636  1.00  0.00     0.069 C 
ATOM     23  C   UNL A   1      32.281  24.677  25.687  1.00  0.00    -0.008 C 
ATOM     24  C   UNL A   1      33.716  25.229  25.890  1.00  0.00     0.069 C 
ATOM     25  C   UNL A   1      31.282  25.821  25.980  1.00  0.00     0.069 C 
ATOM     26  C   UNL A   1      33.963  26.537  25.136  1.00  0.00     0.261 C 
ATOM     27  C   UNL A   1      31.622  27.109  25.224  1.00  0.00     0.261 C 
ATOM     28  N   UNL A   1      32.985  27.561  25.497  1.00  0.00    -0.346 N 
ATOM     29  H   UNL A   1      33.171  28.405  24.955  1.00  0.00     0.346 HD
ATOM     30  H   UNL A   1      33.070  27.751  26.496  1.00  0.00     0.346 HD
ENDBRANCH  16  17
ENDBRANCH  12  16
ENDBRANCH   9  10
ENDBRANCH   8   9
ENDBRANCH   6   8
ENDBRANCH   3   4
ENDBRANCH   2   3
ENDBRANCH   1   2
BRANCH   1  31
ATOM     31  C   UNL A   1      41.593  21.699  26.490  1.00  0.00     0.002 C 
BRANCH  31  32
ATOM     32  C   UNL A   1      42.179  22.511  27.644  1.00  0.00     0.021 C 
BRANCH  32  33
ATOM     33  C   UNL A   1      43.178  23.590  27.240  1.00  0.00     0.116 C 
BRANCH  33  34
ATOM     34  N   UNL A   1      42.714  24.402  26.123  1.00  0.00    -0.352 N 
ATOM     35  C   UNL A   1      42.085  25.623  26.130  1.00  0.00     0.251 C 
ATOM     36  H   UNL A   1      42.876  24.018  25.231  1.00  0.00     0.163 HD
ATOM     37  O   UNL A   1      41.646  26.089  25.078  1.00  0.00    -0.269 OA
BRANCH  35  38
ATOM     38  C   UNL A   1      41.913  26.368  27.397  1.00  0.00     0.039 A 
ATOM     39  C   UNL A   1      42.766  27.441  27.675  1.00  0.00     0.014 A 
ATOM     40  C   UNL A   1      40.919  26.014  28.310  1.00  0.00     0.014 A 
ATOM     41  C   UNL A   1      42.577  28.195  28.837  1.00  0.00     0.010 A 
ATOM     42  C   UNL A   1      40.678  26.815  29.421  1.00  0.00     0.010 A 
ATOM     43  C   UNL A   1      41.508  27.911  29.702  1.00  0.00    -0.014 A 
BRANCH  43  44
ATOM     44  C   UNL A   1      41.242  28.737  30.910  1.00  0.00     0.031 A 
ATOM     45  C   UNL A   1      40.122  29.745  30.899  1.00  0.00     0.074 A 
ATOM     46  C   UNL A   1      42.048  28.630  31.985  1.00  0.00     0.049 A 
ATOM     47  N   UNL A   1      39.790  30.620  31.813  1.00  0.00    -0.248 NA
ATOM     48  C   UNL A   1      39.285  29.797  29.689  1.00  0.00     0.031 C 
ATOM     49  C   UNL A   1      43.194  27.723  32.098  1.00  0.00     0.029 A 
ATOM     50  N   UNL A   1      42.039  29.300  33.184  1.00  0.00    -0.354 N 
ATOM     51  C   UNL A   1      38.721  31.334  31.283  1.00  0.00     0.074 A 
ATOM     52  C   UNL A   1      38.497  30.829  29.947  1.00  0.00     0.031 C 
ATOM     53  C   UNL A   1      43.761  27.878  33.305  1.00  0.00     0.029 A 
ATOM     54  C   UNL A   1      43.053  28.925  34.035  1.00  0.00     0.049 A 
ATOM     55  H   UNL A   1      41.369  29.984  33.412  1.00  0.00     0.167 HD
ATOM     56  C   UNL A   1      37.977  32.303  31.867  1.00  0.00     0.037 A 
ATOM     57  C   UNL A   1      43.383  29.382  35.259  1.00  0.00     0.037 A 
ATOM     58  C   UNL A   1      38.191  32.781  33.208  1.00  0.00     0.049 A 
ATOM     59  C   UNL A   1      42.546  30.467  35.884  1.00  0.00     0.074 A 
ATOM     60  C   UNL A   1      37.459  33.720  33.914  1.00  0.00     0.029 A 
ATOM     61  N   UNL A   1      39.213  32.359  34.047  1.00  0.00    -0.354 N 
ATOM     62  N   UNL A   1      41.499  31.087  35.393  1.00  0.00    -0.248 NA
ATOM     63  C   UNL A   1      42.929  30.913  37.230  1.00  0.00     0.031 C 
ATOM     64  C   UNL A   1      38.070  33.905  35.158  1.00  0.00     0.029 A 
ATOM     65  C   UNL A   1      39.145  33.036  35.254  1.00  0.00     0.049 A 
ATOM     66  H   UNL A   1      39.888  31.680  33.818  1.00  0.00     0.167 HD
ATOM     67  C   UNL A   1      41.078  31.969  36.383  1.00  0.00     0.074 A 
ATOM     68  C   UNL A   1      41.979  31.794  37.504  1.00  0.00     0.031 C 
ATOM     69  C   UNL A   1      40.040  32.841  36.367  1.00  0.00     0.037 A 
BRANCH  56  70
ATOM     70  C   UNL A   1      36.860  32.912  31.062  1.00  0.00     0.058 A 
ATOM     71  C   UNL A   1      37.105  33.853  30.049  1.00  0.00     0.135 A 
ATOM     72  C   UNL A   1      35.529  32.514  31.273  1.00  0.00     0.135 A 
ATOM     73  F   UNL A   1      38.355  34.281  29.813  1.00  0.00    -0.206 F 
ATOM     74  C   UNL A   1      36.072  34.398  29.295  1.00  0.00     0.059 A 
ATOM     75  C   UNL A   1      34.483  33.023  30.509  1.00  0.00     0.059 A 
ATOM     76  F   UNL A   1      35.234  31.618  32.229  1.00  0.00    -0.206 F 
ATOM     77  C   UNL A   1      34.763  33.975  29.531  1.00  0.00     0.060 A 
BRANCH  77  78
ATOM     78  S   UNL A   1      33.437  34.682  28.531  1.00  0.00     0.124 S 
ATOM     79  O   UNL A   1      32.480  35.082  29.558  1.00  0.00    -0.237 OA
ATOM     80  O   UNL A   1      34.116  35.773  27.840  1.00  0.00    -0.237 OA
ATOM     81  O   UNL A   1      33.020  33.571  27.682  1.00  0.00    -0.744 OA
ENDBRANCH  77  78
ENDBRANCH  56  70
BRANCH  57  82
ATOM     82  C   UNL A   1      44.548  28.805  35.984  1.00  0.00     0.058 A 
ATOM     83  C   UNL A   1      44.392  27.724  36.864  1.00  0.00     0.135 A 
ATOM     84  C   UNL A   1      45.843  29.323  35.813  1.00  0.00     0.135 A 
ATOM     85  F   UNL A   1      43.175  27.195  37.067  1.00  0.00    -0.206 F 
ATOM     86  C   UNL A   1      45.469  27.190  37.564  1.00  0.00     0.059 A 
ATOM     87  C   UNL A   1      46.940  28.788  36.480  1.00  0.00     0.059 A 
ATOM     88  F   UNL A   1      46.052  30.346  34.970  1.00  0.00    -0.206 F 
ATOM     89  C   UNL A   1      46.741  27.729  37.365  1.00  0.00     0.060 A 
BRANCH  89  90
ATOM     90  S   UNL A   1      48.137  27.007  38.254  1.00  0.00     0.124 S 
ATOM     91  O   UNL A   1      47.748  27.229  39.642  1.00  0.00    -0.237 OA
ATOM     92  O   UNL A   1      48.107  25.621  37.796  1.00  0.00    -0.237 OA
ATOM     93  O   UNL A   1      49.276  27.790  37.784  1.00  0.00    -0.744 OA
ENDBRANCH  89  90
ENDBRANCH  57  82
BRANCH  69  94
ATOM     94  C   UNL A   1      39.784  33.642  37.614  1.00  0.00     0.058 A 
ATOM     95  C   UNL A   1      38.864  33.226  38.589  1.00  0.00     0.135 A 
ATOM     96  C   UNL A   1      40.519  34.813  37.865  1.00  0.00     0.135 A 
ATOM     97  F   UNL A   1      38.132  32.117  38.397  1.00  0.00    -0.206 F 
ATOM     98  C   UNL A   1      38.664  33.954  39.757  1.00  0.00     0.059 A 
ATOM     99  C   UNL A   1      40.358  35.540  39.041  1.00  0.00     0.059 A 
ATOM    100  F   UNL A   1      41.420  35.251  36.971  1.00  0.00    -0.206 F 
ATOM    101  C   UNL A   1      39.420  35.107  39.976  1.00  0.00     0.060 A 
BRANCH 101 102
ATOM    102  S   UNL A   1      39.178  36.020  41.514  1.00  0.00     0.124 S 
ATOM    103  O   UNL A   1      39.214  37.401  41.046  1.00  0.00    -0.237 OA
ATOM    104  O   UNL A   1      37.876  35.536  41.962  1.00  0.00    -0.237 OA
ATOM    105  O   UNL A   1      40.311  35.607  42.338  1.00  0.00    -0.744 OA
ENDBRANCH 101 102
ENDBRANCH  69  94
ENDBRANCH  43  44
ENDBRANCH  35  38
ENDBRANCH  33  34
ENDBRANCH  32  33
ENDBRANCH  31  32
ENDBRANCH   1  31
TORSDOF 20
ENDMDL
