MODEL 1
REMARK VINA RESULT:     -11.7      0.000      0.000
REMARK SMILES O=C(NCCCCCCNC(=O)[C@@H]1CCC[N@@H+]1CC(=O)N1CCSc2ccccc21)c1ccc(-c2c3nc(c(-c4c(F)cc(S(=O)(=O)[O-])cc4F)c4ccc([nH]4)c(-c4c(F)cc(S(=O)(=O)[O-])cc4F)c4nc(c(-c5c(F)cc(S(=O)(=O)[O-])cc5F)c5ccc2[nH]5)C=C4)C=C3)cc1
REMARK SMILES IDX 6 1 5 2 4 3 3 4 1 5 2 6 31 8 32 9 96 10 33 11 95 12 34 13
REMARK SMILES IDX 35 14 36 15 89 16 37 17 94 18 88 19 90 20 38 21 93 22 87 23
REMARK SMILES IDX 86 24 39 26 73 27 52 28 72 29 53 30 56 31 71 32 91 33 54 34
REMARK SMILES IDX 55 35 70 37 92 38 57 39 40 40 41 41 50 42 42 43 43 44 49 45
REMARK SMILES IDX 51 46 44 47 45 48 46 49 47 50 48 51 74 52 75 53 84 54 76 55
REMARK SMILES IDX 77 56 83 57 85 58 78 59 79 60 80 61 81 62 82 63 58 64 59 65
REMARK SMILES IDX 68 66 60 67 61 68 67 69 69 70 62 71 63 72 64 73 65 74 66 75
REMARK SMILES IDX 7 76 8 77 9 78 10 79 11 80 12 82 13 83 14 84 17 85 15 86
REMARK SMILES IDX 16 87 18 89 19 90 20 91 21 92 22 93 30 94 23 95 25 96 29 97
REMARK SMILES IDX 24 98 26 99 28 100 27 101
REMARK H PARENT 3 7 90 25 56 36 10 81 17 88
REMARK Flexibility Score: inf
ROOT
ATOM      1  C   UNL A   1      35.959  32.984  27.993  1.00  0.00     0.002 C 
ENDROOT
BRANCH   1   2
ATOM      2  C   UNL A   1      36.260  33.853  29.207  1.00  0.00     0.021 C 
BRANCH   2   3
ATOM      3  C   UNL A   1      37.125  33.193  30.275  1.00  0.00     0.116 C 
BRANCH   3   4
ATOM      4  N   UNL A   1      36.442  32.102  30.956  1.00  0.00    -0.352 N 
ATOM      5  O   UNL A   1      36.034  29.939  31.481  1.00  0.00    -0.269 OA
ATOM      6  C   UNL A   1      36.801  30.775  31.013  1.00  0.00     0.251 C 
ATOM      7  H   UNL A   1      35.618  32.344  31.437  1.00  0.00     0.163 HD
BRANCH   6   8
ATOM      8  C   UNL A   1      38.120  30.365  30.484  1.00  0.00     0.039 A 
ATOM      9  C   UNL A   1      39.150  30.055  31.374  1.00  0.00     0.014 A 
ATOM     10  C   UNL A   1      38.321  30.267  29.104  1.00  0.00     0.014 A 
ATOM     11  C   UNL A   1      40.374  29.603  30.876  1.00  0.00     0.010 A 
ATOM     12  C   UNL A   1      39.512  29.741  28.616  1.00  0.00     0.010 A 
ATOM     13  C   UNL A   1      40.560  29.428  29.495  1.00  0.00    -0.014 A 
BRANCH  13  14
ATOM     14  C   UNL A   1      41.871  29.003  28.942  1.00  0.00     0.031 A 
ATOM     15  C   UNL A   1      42.990  30.007  28.852  1.00  0.00     0.074 A 
ATOM     16  C   UNL A   1      42.052  27.742  28.503  1.00  0.00     0.049 A 
ATOM     17  N   UNL A   1      44.191  29.866  28.354  1.00  0.00    -0.248 NA
ATOM     18  C   UNL A   1      42.711  31.361  29.363  1.00  0.00     0.031 C 
ATOM     19  C   UNL A   1      41.035  26.688  28.510  1.00  0.00     0.029 A 
ATOM     20  N   UNL A   1      43.158  27.131  27.967  1.00  0.00    -0.354 N 
ATOM     21  C   UNL A   1      44.801  31.108  28.483  1.00  0.00     0.074 A 
ATOM     22  C   UNL A   1      43.817  32.010  29.039  1.00  0.00     0.031 C 
ATOM     23  C   UNL A   1      41.577  25.552  28.040  1.00  0.00     0.029 A 
ATOM     24  C   UNL A   1      42.965  25.802  27.665  1.00  0.00     0.049 A 
ATOM     25  H   UNL A   1      44.010  27.600  27.815  1.00  0.00     0.167 HD
ATOM     26  C   UNL A   1      46.077  31.459  28.202  1.00  0.00     0.037 A 
ATOM     27  C   UNL A   1      43.816  24.892  27.150  1.00  0.00     0.037 A 
ATOM     28  C   UNL A   1      47.064  30.547  27.691  1.00  0.00     0.049 A 
ATOM     29  C   UNL A   1      45.230  25.307  26.835  1.00  0.00     0.074 A 
ATOM     30  C   UNL A   1      48.396  30.790  27.411  1.00  0.00     0.029 A 
ATOM     31  N   UNL A   1      46.827  29.212  27.395  1.00  0.00    -0.354 N 
ATOM     32  N   UNL A   1      45.799  26.479  26.994  1.00  0.00    -0.248 NA
ATOM     33  C   UNL A   1      46.117  24.279  26.273  1.00  0.00     0.031 C 
ATOM     34  C   UNL A   1      48.958  29.611  26.912  1.00  0.00     0.029 A 
ATOM     35  C   UNL A   1      47.986  28.622  26.923  1.00  0.00     0.049 A 
ATOM     36  H   UNL A   1      45.964  28.754  27.506  1.00  0.00     0.167 HD
ATOM     37  C   UNL A   1      47.115  26.323  26.573  1.00  0.00     0.074 A 
ATOM     38  C   UNL A   1      47.261  24.941  26.163  1.00  0.00     0.031 C 
ATOM     39  C   UNL A   1      48.112  27.241  26.528  1.00  0.00     0.037 A 
BRANCH  26  40
ATOM     40  C   UNL A   1      46.483  32.883  28.466  1.00  0.00     0.058 A 
ATOM     41  C   UNL A   1      46.968  33.286  29.721  1.00  0.00     0.135 A 
ATOM     42  C   UNL A   1      46.418  33.847  27.448  1.00  0.00     0.135 A 
ATOM     43  F   UNL A   1      47.031  32.408  30.734  1.00  0.00    -0.206 F 
ATOM     44  C   UNL A   1      47.352  34.600  29.965  1.00  0.00     0.059 A 
ATOM     45  C   UNL A   1      46.823  35.162  27.663  1.00  0.00     0.059 A 
ATOM     46  F   UNL A   1      45.957  33.519  26.231  1.00  0.00    -0.206 F 
ATOM     47  C   UNL A   1      47.277  35.530  28.928  1.00  0.00     0.060 A 
BRANCH  47  48
ATOM     48  S   UNL A   1      47.793  37.228  29.262  1.00  0.00     0.124 S 
ATOM     49  O   UNL A   1      49.224  37.157  28.982  1.00  0.00    -0.237 OA
ATOM     50  O   UNL A   1      46.997  37.988  28.304  1.00  0.00    -0.237 OA
ATOM     51  O   UNL A   1      47.438  37.422  30.664  1.00  0.00    -0.744 OA
ENDBRANCH  47  48
ENDBRANCH  26  40
BRANCH  27  52
ATOM     52  C   UNL A   1      43.366  23.489  26.941  1.00  0.00     0.058 A 
ATOM     53  C   UNL A   1      43.094  23.006  25.652  1.00  0.00     0.135 A 
ATOM     54  C   UNL A   1      43.225  22.598  28.015  1.00  0.00     0.135 A 
ATOM     55  F   UNL A   1      43.205  23.822  24.593  1.00  0.00    -0.206 F 
ATOM     56  C   UNL A   1      42.692  21.692  25.435  1.00  0.00     0.059 A 
ATOM     57  C   UNL A   1      42.847  21.271  27.821  1.00  0.00     0.059 A 
ATOM     58  F   UNL A   1      43.485  23.006  29.268  1.00  0.00    -0.206 F 
ATOM     59  C   UNL A   1      42.578  20.830  26.527  1.00  0.00     0.060 A 
BRANCH  59  60
ATOM     60  S   UNL A   1      42.118  19.109  26.224  1.00  0.00     0.124 S 
ATOM     61  O   UNL A   1      40.716  19.240  25.846  1.00  0.00    -0.237 OA
ATOM     62  O   UNL A   1      43.036  18.732  25.154  1.00  0.00    -0.237 OA
ATOM     63  O   UNL A   1      42.368  18.463  27.509  1.00  0.00    -0.744 OA
ENDBRANCH  59  60
ENDBRANCH  27  52
BRANCH  39  64
ATOM     64  C   UNL A   1      49.458  26.788  26.036  1.00  0.00     0.058 A 
ATOM     65  C   UNL A   1      49.853  26.980  24.704  1.00  0.00     0.135 A 
ATOM     66  C   UNL A   1      50.393  26.238  26.929  1.00  0.00     0.135 A 
ATOM     67  F   UNL A   1      48.993  27.497  23.812  1.00  0.00    -0.206 F 
ATOM     68  C   UNL A   1      51.128  26.636  24.271  1.00  0.00     0.059 A 
ATOM     69  C   UNL A   1      51.682  25.912  26.522  1.00  0.00     0.059 A 
ATOM     70  F   UNL A   1      50.066  26.045  28.217  1.00  0.00    -0.206 F 
ATOM     71  C   UNL A   1      52.039  26.109  25.189  1.00  0.00     0.060 A 
BRANCH  71  72
ATOM     72  S   UNL A   1      53.708  25.721  24.621  1.00  0.00     0.124 S 
ATOM     73  O   UNL A   1      53.759  24.277  24.826  1.00  0.00    -0.237 OA
ATOM     74  O   UNL A   1      53.674  26.163  23.231  1.00  0.00    -0.237 OA
ATOM     75  O   UNL A   1      54.560  26.511  25.505  1.00  0.00    -0.744 OA
ENDBRANCH  71  72
ENDBRANCH  39  64
ENDBRANCH  13  14
ENDBRANCH   6   8
ENDBRANCH   3   4
ENDBRANCH   2   3
ENDBRANCH   1   2
BRANCH   1  76
ATOM     76  C   UNL A   1      34.662  32.183  28.058  1.00  0.00     0.002 C 
BRANCH  76  77
ATOM     77  C   UNL A   1      34.731  30.691  27.689  1.00  0.00     0.021 C 
BRANCH  77  78
ATOM     78  C   UNL A   1      33.471  30.110  27.038  1.00  0.00     0.116 C 
BRANCH  78  79
ATOM     79  N   UNL A   1      33.558  29.951  25.594  1.00  0.00    -0.351 N 
ATOM     80  C   UNL A   1      32.960  29.139  24.676  1.00  0.00     0.278 C 
ATOM     81  H   UNL A   1      34.198  30.577  25.183  1.00  0.00     0.163 HD
ATOM     82  O   UNL A   1      33.197  29.436  23.495  1.00  0.00    -0.268 OA
BRANCH  80  83
ATOM     83  C   UNL A   1      32.064  27.929  25.011  1.00  0.00     0.274 C 
ATOM     84  C   UNL A   1      31.829  27.436  26.418  1.00  0.00     0.081 C 
ATOM     85  N   UNL A   1      32.357  26.660  24.272  1.00  0.00    -0.317 N 
ATOM     86  C   UNL A   1      31.017  26.167  26.191  1.00  0.00     0.068 C 
ATOM     87  C   UNL A   1      31.463  25.639  24.833  1.00  0.00     0.263 C 
ATOM     88  H   UNL A   1      32.194  26.919  23.301  1.00  0.00     0.349 HD
BRANCH  85  89
ATOM     89  C   UNL A   1      33.728  26.154  24.024  1.00  0.00     0.364 C 
BRANCH  89  90
ATOM     90  C   UNL A   1      33.912  24.784  23.281  1.00  0.00     0.282 C 
ATOM     91  O   UNL A   1      33.699  24.730  22.066  1.00  0.00    -0.268 OA
BRANCH  90  92
ATOM     92  N   UNL A   1      34.427  23.712  24.041  1.00  0.00    -0.306 N 
ATOM     93  C   UNL A   1      35.205  24.006  25.220  1.00  0.00     0.137 C 
ATOM     94  C   UNL A   1      34.013  22.326  23.991  1.00  0.00     0.057 A 
ATOM     95  C   UNL A   1      36.552  23.350  25.298  1.00  0.00     0.097 C 
ATOM     96  C   UNL A   1      34.726  21.343  24.743  1.00  0.00     0.031 A 
ATOM     97  C   UNL A   1      32.865  21.902  23.311  1.00  0.00     0.027 A 
ATOM     98  S   UNL A   1      36.333  21.581  25.528  1.00  0.00    -0.122 SA
ATOM     99  C   UNL A   1      34.202  20.054  24.920  1.00  0.00     0.017 A 
ATOM    100  C   UNL A   1      32.366  20.600  23.478  1.00  0.00     0.002 A 
ATOM    101  C   UNL A   1      33.011  19.691  24.309  1.00  0.00     0.001 A 
ENDBRANCH  90  92
ENDBRANCH  89  90
ENDBRANCH  85  89
ENDBRANCH  80  83
ENDBRANCH  78  79
ENDBRANCH  77  78
ENDBRANCH  76  77
ENDBRANCH   1  76
TORSDOF 19
ENDMDL
MODEL 2
REMARK VINA RESULT:     -11.6      6.200     12.124
REMARK SMILES O=C(NCCCCCCNC(=O)[C@@H]1CCC[N@@H+]1CC(=O)N1CCSc2ccccc21)c1ccc(-c2c3nc(c(-c4c(F)cc(S(=O)(=O)[O-])cc4F)c4ccc([nH]4)c(-c4c(F)cc(S(=O)(=O)[O-])cc4F)c4nc(c(-c5c(F)cc(S(=O)(=O)[O-])cc5F)c5ccc2[nH]5)C=C4)C=C3)cc1
REMARK SMILES IDX 6 1 5 2 4 3 3 4 1 5 2 6 31 8 32 9 96 10 33 11 95 12 34 13
REMARK SMILES IDX 35 14 36 15 89 16 37 17 94 18 88 19 90 20 38 21 93 22 87 23
REMARK SMILES IDX 86 24 39 26 73 27 52 28 72 29 53 30 56 31 71 32 91 33 54 34
REMARK SMILES IDX 55 35 70 37 92 38 57 39 40 40 41 41 50 42 42 43 43 44 49 45
REMARK SMILES IDX 51 46 44 47 45 48 46 49 47 50 48 51 74 52 75 53 84 54 76 55
REMARK SMILES IDX 77 56 83 57 85 58 78 59 79 60 80 61 81 62 82 63 58 64 59 65
REMARK SMILES IDX 68 66 60 67 61 68 67 69 69 70 62 71 63 72 64 73 65 74 66 75
REMARK SMILES IDX 7 76 8 77 9 78 10 79 11 80 12 82 13 83 14 84 17 85 15 86
REMARK SMILES IDX 16 87 18 89 19 90 20 91 21 92 22 93 30 94 23 95 25 96 29 97
REMARK SMILES IDX 24 98 26 99 28 100 27 101
REMARK H PARENT 3 7 90 25 56 36 10 81 17 88
REMARK Flexibility Score: inf
ROOT
ATOM      1  C   UNL A   1      40.800  22.024  27.908  1.00  0.00     0.002 C 
ENDROOT
BRANCH   1   2
ATOM      2  C   UNL A   1      42.317  21.983  27.770  1.00  0.00     0.021 C 
BRANCH   2   3
ATOM      3  C   UNL A   1      42.993  23.345  27.667  1.00  0.00     0.116 C 
BRANCH   3   4
ATOM      4  N   UNL A   1      42.738  24.005  26.395  1.00  0.00    -0.352 N 
ATOM      5  O   UNL A   1      41.851  25.583  25.036  1.00  0.00    -0.269 OA
ATOM      6  C   UNL A   1      42.158  25.232  26.171  1.00  0.00     0.251 C 
ATOM      7  H   UNL A   1      43.014  23.510  25.590  1.00  0.00     0.163 HD
BRANCH   6   8
ATOM      8  C   UNL A   1      41.892  26.120  27.324  1.00  0.00     0.039 A 
ATOM      9  C   UNL A   1      42.710  27.232  27.538  1.00  0.00     0.014 A 
ATOM     10  C   UNL A   1      40.815  25.859  28.176  1.00  0.00     0.014 A 
ATOM     11  C   UNL A   1      42.419  28.107  28.587  1.00  0.00     0.010 A 
ATOM     12  C   UNL A   1      40.480  26.775  29.168  1.00  0.00     0.010 A 
ATOM     13  C   UNL A   1      41.294  27.894  29.400  1.00  0.00    -0.014 A 
BRANCH  13  14
ATOM     14  C   UNL A   1      40.998  28.781  30.554  1.00  0.00     0.031 A 
ATOM     15  C   UNL A   1      41.836  28.667  31.801  1.00  0.00     0.074 A 
ATOM     16  C   UNL A   1      39.979  29.661  30.498  1.00  0.00     0.049 A 
ATOM     17  N   UNL A   1      41.718  29.300  32.938  1.00  0.00    -0.248 NA
ATOM     18  C   UNL A   1      42.936  27.687  31.774  1.00  0.00     0.031 C 
ATOM     19  C   UNL A   1      39.079  29.843  29.357  1.00  0.00     0.029 A 
ATOM     20  N   UNL A   1      39.530  30.571  31.422  1.00  0.00    -0.354 N 
ATOM     21  C   UNL A   1      42.715  28.789  33.760  1.00  0.00     0.074 A 
ATOM     22  C   UNL A   1      43.385  27.745  33.017  1.00  0.00     0.031 C 
ATOM     23  C   UNL A   1      38.211  30.830  29.635  1.00  0.00     0.029 A 
ATOM     24  C   UNL A   1      38.469  31.328  30.983  1.00  0.00     0.049 A 
ATOM     25  H   UNL A   1      39.931  30.672  32.315  1.00  0.00     0.167 HD
ATOM     26  C   UNL A   1      43.070  29.180  35.006  1.00  0.00     0.037 A 
ATOM     27  C   UNL A   1      37.787  32.316  31.599  1.00  0.00     0.037 A 
ATOM     28  C   UNL A   1      42.431  30.249  35.722  1.00  0.00     0.049 A 
ATOM     29  C   UNL A   1      38.194  32.728  32.990  1.00  0.00     0.074 A 
ATOM     30  C   UNL A   1      42.739  30.753  36.972  1.00  0.00     0.029 A 
ATOM     31  N   UNL A   1      41.357  30.989  35.244  1.00  0.00    -0.354 N 
ATOM     32  N   UNL A   1      39.162  32.255  33.739  1.00  0.00    -0.248 NA
ATOM     33  C   UNL A   1      37.418  33.807  33.619  1.00  0.00     0.031 C 
ATOM     34  C   UNL A   1      41.831  31.773  37.267  1.00  0.00     0.029 A 
ATOM     35  C   UNL A   1      40.984  31.936  36.181  1.00  0.00     0.049 A 
ATOM     36  H   UNL A   1      40.928  30.859  34.368  1.00  0.00     0.167 HD
ATOM     37  C   UNL A   1      39.126  32.993  34.918  1.00  0.00     0.074 A 
ATOM     38  C   UNL A   1      38.048  33.951  34.777  1.00  0.00     0.031 C 
ATOM     39  C   UNL A   1      39.912  32.886  36.017  1.00  0.00     0.037 A 
BRANCH  26  40
ATOM     40  C   UNL A   1      44.219  28.463  35.660  1.00  0.00     0.058 A 
ATOM     41  C   UNL A   1      45.545  28.888  35.480  1.00  0.00     0.135 A 
ATOM     42  C   UNL A   1      43.992  27.363  36.501  1.00  0.00     0.135 A 
ATOM     43  F   UNL A   1      45.820  29.922  34.670  1.00  0.00    -0.206 F 
ATOM     44  C   UNL A   1      46.609  28.232  36.090  1.00  0.00     0.059 A 
ATOM     45  C   UNL A   1      45.039  26.709  37.145  1.00  0.00     0.059 A 
ATOM     46  F   UNL A   1      42.744  26.911  36.704  1.00  0.00    -0.206 F 
ATOM     47  C   UNL A   1      46.344  27.144  36.923  1.00  0.00     0.060 A 
BRANCH  47  48
ATOM     48  S   UNL A   1      47.737  26.314  37.718  1.00  0.00     0.124 S 
ATOM     49  O   UNL A   1      48.847  27.186  37.343  1.00  0.00    -0.237 OA
ATOM     50  O   UNL A   1      47.355  26.345  39.125  1.00  0.00    -0.237 OA
ATOM     51  O   UNL A   1      47.744  24.992  37.100  1.00  0.00    -0.744 OA
ENDBRANCH  47  48
ENDBRANCH  26  40
BRANCH  27  52
ATOM     52  C   UNL A   1      36.680  33.010  30.888  1.00  0.00     0.058 A 
ATOM     53  C   UNL A   1      35.342  32.765  31.228  1.00  0.00     0.135 A 
ATOM     54  C   UNL A   1      36.935  33.949  29.876  1.00  0.00     0.135 A 
ATOM     55  F   UNL A   1      35.046  31.869  32.183  1.00  0.00    -0.206 F 
ATOM     56  C   UNL A   1      34.293  33.420  30.589  1.00  0.00     0.059 A 
ATOM     57  C   UNL A   1      35.904  34.634  29.238  1.00  0.00     0.059 A 
ATOM     58  F   UNL A   1      38.199  34.230  29.521  1.00  0.00    -0.206 F 
ATOM     59  C   UNL A   1      34.586  34.359  29.598  1.00  0.00     0.060 A 
BRANCH  59  60
ATOM     60  S   UNL A   1      33.219  35.249  28.822  1.00  0.00     0.124 S 
ATOM     61  O   UNL A   1      32.454  35.685  29.983  1.00  0.00    -0.237 OA
ATOM     62  O   UNL A   1      33.918  36.298  28.086  1.00  0.00    -0.237 OA
ATOM     63  O   UNL A   1      32.583  34.229  27.993  1.00  0.00    -0.744 OA
ENDBRANCH  59  60
ENDBRANCH  27  52
BRANCH  39  64
ATOM     64  C   UNL A   1      39.657  33.835  37.154  1.00  0.00     0.058 A 
ATOM     65  C   UNL A   1      38.815  33.489  38.221  1.00  0.00     0.135 A 
ATOM     66  C   UNL A   1      40.334  35.064  37.220  1.00  0.00     0.135 A 
ATOM     67  F   UNL A   1      38.142  32.328  38.202  1.00  0.00    -0.206 F 
ATOM     68  C   UNL A   1      38.644  34.334  39.312  1.00  0.00     0.059 A 
ATOM     69  C   UNL A   1      40.198  35.912  38.314  1.00  0.00     0.059 A 
ATOM     70  F   UNL A   1      41.160  35.435  36.229  1.00  0.00    -0.206 F 
ATOM     71  C   UNL A   1      39.347  35.541  39.353  1.00  0.00     0.060 A 
BRANCH  71  72
ATOM     72  S   UNL A   1      39.157  36.598  40.803  1.00  0.00     0.124 S 
ATOM     73  O   UNL A   1      38.554  37.792  40.220  1.00  0.00    -0.237 OA
ATOM     74  O   UNL A   1      38.283  35.800  41.658  1.00  0.00    -0.237 OA
ATOM     75  O   UNL A   1      40.525  36.758  41.289  1.00  0.00    -0.744 OA
ENDBRANCH  71  72
ENDBRANCH  39  64
ENDBRANCH  13  14
ENDBRANCH   6   8
ENDBRANCH   3   4
ENDBRANCH   2   3
ENDBRANCH   1   2
BRANCH   1  76
ATOM     76  C   UNL A   1      40.012  21.683  26.647  1.00  0.00     0.002 C 
BRANCH  76  77
ATOM     77  C   UNL A   1      39.009  22.731  26.132  1.00  0.00     0.021 C 
BRANCH  77  78
ATOM     78  C   UNL A   1      37.638  22.188  25.716  1.00  0.00     0.116 C 
BRANCH  78  79
ATOM     79  N   UNL A   1      37.064  22.836  24.545  1.00  0.00    -0.351 N 
ATOM     80  C   UNL A   1      35.820  22.898  23.991  1.00  0.00     0.278 C 
ATOM     81  H   UNL A   1      37.730  23.351  24.034  1.00  0.00     0.163 HD
ATOM     82  O   UNL A   1      35.713  23.707  23.057  1.00  0.00    -0.268 OA
BRANCH  80  83
ATOM     83  C   UNL A   1      34.608  22.050  24.432  1.00  0.00     0.274 C 
ATOM     84  C   UNL A   1      33.390  21.832  23.569  1.00  0.00     0.081 C 
ATOM     85  N   UNL A   1      34.002  22.398  25.757  1.00  0.00    -0.317 N 
ATOM     86  C   UNL A   1      32.456  21.073  24.503  1.00  0.00     0.068 C 
ATOM     87  C   UNL A   1      32.817  21.545  25.906  1.00  0.00     0.263 C 
ATOM     88  H   UNL A   1      34.767  22.227  26.409  1.00  0.00     0.349 HD
BRANCH  85  89
ATOM     89  C   UNL A   1      33.775  23.790  26.215  1.00  0.00     0.364 C 
BRANCH  89  90
ATOM     90  C   UNL A   1      32.302  24.299  26.402  1.00  0.00     0.282 C 
ATOM     91  O   UNL A   1      31.674  23.955  27.407  1.00  0.00    -0.268 OA
BRANCH  90  92
ATOM     92  N   UNL A   1      31.823  25.224  25.450  1.00  0.00    -0.306 N 
ATOM     93  C   UNL A   1      30.867  24.777  24.465  1.00  0.00     0.137 C 
ATOM     94  C   UNL A   1      31.906  26.668  25.514  1.00  0.00     0.057 A 
ATOM     95  C   UNL A   1      31.218  25.061  23.035  1.00  0.00     0.097 C 
ATOM     96  C   UNL A   1      31.477  27.455  24.403  1.00  0.00     0.031 A 
ATOM     97  C   UNL A   1      32.298  27.353  26.670  1.00  0.00     0.027 A 
ATOM     98  S   UNL A   1      31.126  26.833  22.746  1.00  0.00    -0.122 SA
ATOM     99  C   UNL A   1      31.304  28.841  24.528  1.00  0.00     0.017 A 
ATOM    100  C   UNL A   1      32.143  28.745  26.772  1.00  0.00     0.002 A 
ATOM    101  C   UNL A   1      31.613  29.482  25.718  1.00  0.00     0.001 A 
ENDBRANCH  90  92
ENDBRANCH  89  90
ENDBRANCH  85  89
ENDBRANCH  80  83
ENDBRANCH  78  79
ENDBRANCH  77  78
ENDBRANCH  76  77
ENDBRANCH   1  76
TORSDOF 19
ENDMDL
MODEL 3
REMARK VINA RESULT:     -11.4      6.091     10.865
REMARK SMILES O=C(NCCCCCCNC(=O)[C@@H]1CCC[N@@H+]1CC(=O)N1CCSc2ccccc21)c1ccc(-c2c3nc(c(-c4c(F)cc(S(=O)(=O)[O-])cc4F)c4ccc([nH]4)c(-c4c(F)cc(S(=O)(=O)[O-])cc4F)c4nc(c(-c5c(F)cc(S(=O)(=O)[O-])cc5F)c5ccc2[nH]5)C=C4)C=C3)cc1
REMARK SMILES IDX 6 1 5 2 4 3 3 4 1 5 2 6 31 8 32 9 96 10 33 11 95 12 34 13
REMARK SMILES IDX 35 14 36 15 89 16 37 17 94 18 88 19 90 20 38 21 93 22 87 23
REMARK SMILES IDX 86 24 39 26 73 27 52 28 72 29 53 30 56 31 71 32 91 33 54 34
REMARK SMILES IDX 55 35 70 37 92 38 57 39 40 40 41 41 50 42 42 43 43 44 49 45
REMARK SMILES IDX 51 46 44 47 45 48 46 49 47 50 48 51 74 52 75 53 84 54 76 55
REMARK SMILES IDX 77 56 83 57 85 58 78 59 79 60 80 61 81 62 82 63 58 64 59 65
REMARK SMILES IDX 68 66 60 67 61 68 67 69 69 70 62 71 63 72 64 73 65 74 66 75
REMARK SMILES IDX 7 76 8 77 9 78 10 79 11 80 12 82 13 83 14 84 17 85 15 86
REMARK SMILES IDX 16 87 18 89 19 90 20 91 21 92 22 93 30 94 23 95 25 96 29 97
REMARK SMILES IDX 24 98 26 99 28 100 27 101
REMARK H PARENT 3 7 90 25 56 36 10 81 17 88
REMARK Flexibility Score: inf
ROOT
ATOM      1  C   UNL A   1      34.566  31.149  28.386  1.00  0.00     0.002 C 
ENDROOT
BRANCH   1   2
ATOM      2  C   UNL A   1      34.187  32.368  27.554  1.00  0.00     0.021 C 
BRANCH   2   3
ATOM      3  C   UNL A   1      32.812  32.954  27.856  1.00  0.00     0.116 C 
BRANCH   3   4
ATOM      4  N   UNL A   1      32.826  34.407  27.937  1.00  0.00    -0.352 N 
ATOM      5  O   UNL A   1      33.353  36.413  28.843  1.00  0.00    -0.269 OA
ATOM      6  C   UNL A   1      33.574  35.208  28.769  1.00  0.00     0.251 C 
ATOM      7  H   UNL A   1      32.222  34.878  27.318  1.00  0.00     0.163 HD
BRANCH   6   8
ATOM      8  C   UNL A   1      34.640  34.593  29.589  1.00  0.00     0.039 A 
ATOM      9  C   UNL A   1      34.316  34.025  30.822  1.00  0.00     0.014 A 
ATOM     10  C   UNL A   1      35.956  34.561  29.117  1.00  0.00     0.014 A 
ATOM     11  C   UNL A   1      35.310  33.385  31.566  1.00  0.00     0.010 A 
ATOM     12  C   UNL A   1      36.925  33.853  29.821  1.00  0.00     0.010 A 
ATOM     13  C   UNL A   1      36.618  33.281  31.065  1.00  0.00    -0.014 A 
BRANCH  13  14
ATOM     14  C   UNL A   1      37.702  32.654  31.864  1.00  0.00     0.031 A 
ATOM     15  C   UNL A   1      38.424  31.455  31.308  1.00  0.00     0.074 A 
ATOM     16  C   UNL A   1      38.020  33.135  33.082  1.00  0.00     0.049 A 
ATOM     17  N   UNL A   1      39.358  30.723  31.856  1.00  0.00    -0.248 NA
ATOM     18  C   UNL A   1      38.021  31.001  29.965  1.00  0.00     0.031 C 
ATOM     19  C   UNL A   1      37.371  34.271  33.740  1.00  0.00     0.029 A 
ATOM     20  N   UNL A   1      38.972  32.729  33.984  1.00  0.00    -0.354 N 
ATOM     21  C   UNL A   1      39.643  29.722  30.935  1.00  0.00     0.074 A 
ATOM     22  C   UNL A   1      38.736  29.897  29.823  1.00  0.00     0.031 C 
ATOM     23  C   UNL A   1      37.971  34.494  34.922  1.00  0.00     0.029 A 
ATOM     24  C   UNL A   1      39.020  33.500  35.122  1.00  0.00     0.049 A 
ATOM     25  H   UNL A   1      39.565  31.959  33.829  1.00  0.00     0.167 HD
ATOM     26  C   UNL A   1      40.599  28.767  30.989  1.00  0.00     0.037 A 
ATOM     27  C   UNL A   1      39.825  33.413  36.201  1.00  0.00     0.037 A 
ATOM     28  C   UNL A   1      41.529  28.626  32.077  1.00  0.00     0.049 A 
ATOM     29  C   UNL A   1      40.877  32.336  36.245  1.00  0.00     0.074 A 
ATOM     30  C   UNL A   1      42.564  27.719  32.213  1.00  0.00     0.029 A 
ATOM     31  N   UNL A   1      41.541  29.424  33.213  1.00  0.00    -0.354 N 
ATOM     32  N   UNL A   1      41.154  31.418  35.349  1.00  0.00    -0.248 NA
ATOM     33  C   UNL A   1      41.727  32.283  37.443  1.00  0.00     0.031 C 
ATOM     34  C   UNL A   1      43.181  27.944  33.446  1.00  0.00     0.029 A 
ATOM     35  C   UNL A   1      42.559  29.021  34.059  1.00  0.00     0.049 A 
ATOM     36  H   UNL A   1      40.921  30.166  33.389  1.00  0.00     0.167 HD
ATOM     37  C   UNL A   1      42.223  30.693  35.864  1.00  0.00     0.074 A 
ATOM     38  C   UNL A   1      42.550  31.286  37.145  1.00  0.00     0.031 C 
ATOM     39  C   UNL A   1      42.873  29.631  35.327  1.00  0.00     0.037 A 
BRANCH  26  40
ATOM     40  C   UNL A   1      40.705  27.819  29.827  1.00  0.00     0.058 A 
ATOM     41  C   UNL A   1      39.755  26.806  29.619  1.00  0.00     0.135 A 
ATOM     42  C   UNL A   1      41.746  27.942  28.894  1.00  0.00     0.135 A 
ATOM     43  F   UNL A   1      38.751  26.631  30.493  1.00  0.00    -0.206 F 
ATOM     44  C   UNL A   1      39.846  25.932  28.541  1.00  0.00     0.059 A 
ATOM     45  C   UNL A   1      41.841  27.096  27.792  1.00  0.00     0.059 A 
ATOM     46  F   UNL A   1      42.685  28.889  29.047  1.00  0.00    -0.206 F 
ATOM     47  C   UNL A   1      40.893  26.088  27.631  1.00  0.00     0.060 A 
BRANCH  47  48
ATOM     48  S   UNL A   1      40.985  24.953  26.230  1.00  0.00     0.124 S 
ATOM     49  O   UNL A   1      41.202  25.877  25.121  1.00  0.00    -0.237 OA
ATOM     50  O   UNL A   1      42.123  24.112  26.586  1.00  0.00    -0.237 OA
ATOM     51  O   UNL A   1      39.687  24.287  26.245  1.00  0.00    -0.744 OA
ENDBRANCH  47  48
ENDBRANCH  26  40
BRANCH  27  52
ATOM     52  C   UNL A   1      39.695  34.401  37.306  1.00  0.00     0.058 A 
ATOM     53  C   UNL A   1      38.987  34.083  38.475  1.00  0.00     0.135 A 
ATOM     54  C   UNL A   1      40.294  35.668  37.231  1.00  0.00     0.135 A 
ATOM     55  F   UNL A   1      38.388  32.889  38.591  1.00  0.00    -0.206 F 
ATOM     56  C   UNL A   1      38.871  34.986  39.527  1.00  0.00     0.059 A 
ATOM     57  C   UNL A   1      40.213  36.580  38.280  1.00  0.00     0.059 A 
ATOM     58  F   UNL A   1      40.994  36.017  36.140  1.00  0.00    -0.206 F 
ATOM     59  C   UNL A   1      39.495  36.231  39.422  1.00  0.00     0.060 A 
BRANCH  59  60
ATOM     60  S   UNL A   1      39.392  37.368  40.822  1.00  0.00     0.124 S 
ATOM     61  O   UNL A   1      38.512  38.405  40.296  1.00  0.00    -0.237 OA
ATOM     62  O   UNL A   1      38.827  36.518  41.865  1.00  0.00    -0.237 OA
ATOM     63  O   UNL A   1      40.781  37.767  41.034  1.00  0.00    -0.744 OA
ENDBRANCH  59  60
ENDBRANCH  27  52
BRANCH  39  64
ATOM     64  C   UNL A   1      44.017  29.045  36.107  1.00  0.00     0.058 A 
ATOM     65  C   UNL A   1      43.849  27.905  36.906  1.00  0.00     0.135 A 
ATOM     66  C   UNL A   1      45.311  29.577  35.978  1.00  0.00     0.135 A 
ATOM     67  F   UNL A   1      42.631  27.363  37.064  1.00  0.00    -0.206 F 
ATOM     68  C   UNL A   1      44.925  27.315  37.560  1.00  0.00     0.059 A 
ATOM     69  C   UNL A   1      46.405  28.987  36.602  1.00  0.00     0.059 A 
ATOM     70  F   UNL A   1      45.524  30.660  35.215  1.00  0.00    -0.206 F 
ATOM     71  C   UNL A   1      46.202  27.860  37.396  1.00  0.00     0.060 A 
BRANCH  71  72
ATOM     72  S   UNL A   1      47.594  27.048  38.207  1.00  0.00     0.124 S 
ATOM     73  O   UNL A   1      47.102  26.915  39.574  1.00  0.00    -0.237 OA
ATOM     74  O   UNL A   1      47.712  25.804  37.452  1.00  0.00    -0.237 OA
ATOM     75  O   UNL A   1      48.693  27.992  38.024  1.00  0.00    -0.744 OA
ENDBRANCH  71  72
ENDBRANCH  39  64
ENDBRANCH  13  14
ENDBRANCH   6   8
ENDBRANCH   3   4
ENDBRANCH   2   3
ENDBRANCH   1   2
BRANCH   1  76
ATOM     76  C   UNL A   1      35.280  30.031  27.632  1.00  0.00     0.002 C 
BRANCH  76  77
ATOM     77  C   UNL A   1      34.404  28.972  26.940  1.00  0.00     0.021 C 
BRANCH  77  78
ATOM     78  C   UNL A   1      32.905  29.046  27.249  1.00  0.00     0.116 C 
BRANCH  78  79
ATOM     79  N   UNL A   1      32.230  27.756  27.269  1.00  0.00    -0.351 N 
ATOM     80  C   UNL A   1      31.568  27.001  26.346  1.00  0.00     0.278 C 
ATOM     81  H   UNL A   1      32.258  27.328  28.155  1.00  0.00     0.163 HD
ATOM     82  O   UNL A   1      31.270  25.861  26.733  1.00  0.00    -0.268 OA
BRANCH  80  83
ATOM     83  C   UNL A   1      31.182  27.470  24.928  1.00  0.00     0.274 C 
ATOM     84  C   UNL A   1      30.201  26.733  24.049  1.00  0.00     0.081 C 
ATOM     85  N   UNL A   1      32.314  27.739  23.985  1.00  0.00    -0.317 N 
ATOM     86  C   UNL A   1      30.286  27.506  22.739  1.00  0.00     0.068 C 
ATOM     87  C   UNL A   1      31.705  28.058  22.688  1.00  0.00     0.263 C 
ATOM     88  H   UNL A   1      32.818  28.496  24.446  1.00  0.00     0.349 HD
BRANCH  85  89
ATOM     89  C   UNL A   1      33.507  26.867  23.866  1.00  0.00     0.364 C 
BRANCH  89  90
ATOM     90  C   UNL A   1      33.473  25.664  22.858  1.00  0.00     0.282 C 
ATOM     91  O   UNL A   1      33.750  25.870  21.673  1.00  0.00    -0.268 OA
BRANCH  90  92
ATOM     92  N   UNL A   1      33.235  24.385  23.402  1.00  0.00    -0.306 N 
ATOM     93  C   UNL A   1      31.978  23.732  23.123  1.00  0.00     0.137 C 
ATOM     94  C   UNL A   1      34.215  23.469  23.948  1.00  0.00     0.057 A 
ATOM     95  C   UNL A   1      31.213  23.246  24.319  1.00  0.00     0.097 C 
ATOM     96  C   UNL A   1      33.789  22.259  24.572  1.00  0.00     0.031 A 
ATOM     97  C   UNL A   1      35.595  23.663  23.803  1.00  0.00     0.027 A 
ATOM     98  S   UNL A   1      32.097  21.867  25.062  1.00  0.00    -0.122 SA
ATOM     99  C   UNL A   1      34.707  21.243  24.875  1.00  0.00     0.017 A 
ATOM    100  C   UNL A   1      36.505  22.646  24.135  1.00  0.00     0.002 A 
ATOM    101  C   UNL A   1      36.060  21.427  24.634  1.00  0.00     0.001 A 
ENDBRANCH  90  92
ENDBRANCH  89  90
ENDBRANCH  85  89
ENDBRANCH  80  83
ENDBRANCH  78  79
ENDBRANCH  77  78
ENDBRANCH  76  77
ENDBRANCH   1  76
TORSDOF 19
ENDMDL
