MODEL 1
REMARK VINA RESULT:     -11.6      0.000      0.000
REMARK SMILES COc1cccc(-c2ccc(=O)n(CC(=O)N[C@@H](C(=O)NCCCCCCNC(=O)c3ccc(-c4c5nc(c(-c6c(F)cc(S(=O)(=O)[O-])cc6F)c6ccc([nH]6)c(-c6c(F)cc(S(=O)(=O)[O-])cc6F)c6nc(c(-c7c(F)cc(S(=O)(=O)[O-])cc7F)c7ccc4[nH]7)C=C6)C=C5)cc3)C(C)C)n2)c1
REMARK SMILES IDX 23 1 22 2 21 3 19 4 20 5 18 7 17 8 15 9 16 10 14 12 13 13
REMARK SMILES IDX 8 14 9 15 100 16 10 17 11 18 12 19 7 20 3 21 4 22 101 23
REMARK SMILES IDX 5 24 6 25 2 26 1 27 97 28 98 29 99 30 24 31 25 32 26 33
REMARK SMILES IDX 27 34 28 35 29 36 30 38 31 39 32 40 96 41 33 42 95 43 34 44
REMARK SMILES IDX 35 45 36 46 89 47 37 48 94 49 88 50 90 51 38 52 93 53 87 54
REMARK SMILES IDX 86 55 39 57 73 58 52 59 72 60 53 61 56 62 71 63 91 64 54 65
REMARK SMILES IDX 55 66 70 68 92 69 57 70 40 71 41 72 50 73 42 74 43 75 49 76
REMARK SMILES IDX 51 77 44 78 45 79 46 80 47 81 48 82 74 83 75 84 84 85 76 86
REMARK SMILES IDX 77 87 83 88 85 89 78 90 79 91 80 92 81 93 82 94 58 95 59 96
REMARK SMILES IDX 68 97 60 98 61 99 67 100 69 101 62 102 63 103 64 104 65 105
REMARK SMILES IDX 66 106
REMARK H PARENT 21 6 17 11 28 37 90 56 56 67
REMARK Flexibility Score: inf
ROOT
ATOM      1  C   UNL A   1      33.179  30.603  27.002  1.00  0.00     0.021 C 
ENDROOT
BRANCH   1   2
ATOM      2  C   UNL A   1      32.061  30.168  26.065  1.00  0.00     0.116 C 
BRANCH   2   3
ATOM      3  N   UNL A   1      32.550  29.677  24.798  1.00  0.00    -0.354 N 
ATOM      4  C   UNL A   1      31.863  29.123  23.754  1.00  0.00     0.242 C 
ATOM      5  O   UNL A   1      32.508  28.934  22.719  1.00  0.00    -0.273 OA
ATOM      6  H   UNL A   1      33.523  29.753  24.665  1.00  0.00     0.163 HD
BRANCH   4   7
ATOM      7  C   UNL A   1      30.321  28.878  23.837  1.00  0.00     0.173 C 
BRANCH   7   8
ATOM      8  N   UNL A   1      30.008  27.514  23.402  1.00  0.00    -0.342 N 
ATOM      9  C   UNL A   1      30.178  26.313  24.033  1.00  0.00     0.242 C 
ATOM     10  O   UNL A   1      29.755  25.319  23.434  1.00  0.00    -0.273 OA
ATOM     11  H   UNL A   1      29.609  27.452  22.505  1.00  0.00     0.164 HD
BRANCH   9  12
ATOM     12  C   UNL A   1      30.744  26.196  25.459  1.00  0.00     0.248 C 
BRANCH  12  13
ATOM     13  N   UNL A   1      31.449  24.954  25.778  1.00  0.00    -0.220 N 
ATOM     14  C   UNL A   1      33.349  23.712  25.520  1.00  0.00     0.091 A 
ATOM     15  C   UNL A   1      32.843  22.611  26.355  1.00  0.00     0.036 A 
ATOM     16  N   UNL A   1      32.717  24.807  25.256  1.00  0.00    -0.169 NA
ATOM     17  C   UNL A   1      31.665  22.823  26.941  1.00  0.00     0.075 A 
ATOM     18  C   UNL A   1      30.873  24.041  26.656  1.00  0.00     0.267 A 
ATOM     19  O   UNL A   1      29.755  24.146  27.149  1.00  0.00    -0.268 OA
BRANCH  14  20
ATOM     20  C   UNL A   1      34.727  23.544  25.047  1.00  0.00     0.006 A 
ATOM     21  C   UNL A   1      37.061  23.540  25.625  1.00  0.00     0.119 A 
ATOM     22  C   UNL A   1      37.366  23.232  24.296  1.00  0.00     0.046 A 
ATOM     23  C   UNL A   1      35.736  23.720  25.995  1.00  0.00     0.056 A 
ATOM     24  C   UNL A   1      36.349  23.069  23.347  1.00  0.00     0.005 A 
ATOM     25  C   UNL A   1      35.014  23.222  23.721  1.00  0.00     0.011 A 
BRANCH  21  26
ATOM     26  O   UNL A   1      38.125  23.676  26.474  1.00  0.00    -0.497 OA
ATOM     27  C   UNL A   1      39.100  22.636  26.387  1.00  0.00     0.278 C 
ENDBRANCH  21  26
ENDBRANCH  14  20
ENDBRANCH  12  13
ENDBRANCH   9  12
ENDBRANCH   7   8
BRANCH   7  28
ATOM     28  C   UNL A   1      29.540  29.934  23.002  1.00  0.00     0.015 C 
ATOM     29  C   UNL A   1      28.246  29.389  22.384  1.00  0.00     0.010 C 
ATOM     30  C   UNL A   1      29.180  31.156  23.860  1.00  0.00     0.010 C 
ENDBRANCH   7  28
ENDBRANCH   4   7
ENDBRANCH   2   3
ENDBRANCH   1   2
BRANCH   1  31
ATOM     31  C   UNL A   1      33.139  32.091  27.357  1.00  0.00     0.002 C 
BRANCH  31  32
ATOM     32  C   UNL A   1      34.106  32.519  28.466  1.00  0.00     0.002 C 
BRANCH  32  33
ATOM     33  C   UNL A   1      35.555  32.726  28.023  1.00  0.00     0.021 C 
BRANCH  33  34
ATOM     34  C   UNL A   1      36.587  32.692  29.143  1.00  0.00     0.116 C 
BRANCH  34  35
ATOM     35  N   UNL A   1      36.139  31.891  30.270  1.00  0.00    -0.352 N 
ATOM     36  C   UNL A   1      36.656  30.725  30.778  1.00  0.00     0.251 C 
ATOM     37  H   UNL A   1      35.346  32.237  30.741  1.00  0.00     0.163 HD
ATOM     38  O   UNL A   1      36.016  30.089  31.609  1.00  0.00    -0.269 OA
BRANCH  36  39
ATOM     39  C   UNL A   1      37.970  30.229  30.310  1.00  0.00     0.039 A 
ATOM     40  C   UNL A   1      38.198  30.112  28.936  1.00  0.00     0.014 A 
ATOM     41  C   UNL A   1      38.970  29.864  31.216  1.00  0.00     0.014 A 
ATOM     42  C   UNL A   1      39.444  29.682  28.473  1.00  0.00     0.010 A 
ATOM     43  C   UNL A   1      40.237  29.522  30.752  1.00  0.00     0.010 A 
ATOM     44  C   UNL A   1      40.485  29.414  29.377  1.00  0.00    -0.014 A 
BRANCH  44  45
ATOM     45  C   UNL A   1      41.831  28.999  28.905  1.00  0.00     0.031 A 
ATOM     46  C   UNL A   1      42.942  30.011  28.815  1.00  0.00     0.074 A 
ATOM     47  C   UNL A   1      42.038  27.729  28.505  1.00  0.00     0.049 A 
ATOM     48  N   UNL A   1      44.162  29.862  28.366  1.00  0.00    -0.248 NA
ATOM     49  C   UNL A   1      42.635  31.380  29.264  1.00  0.00     0.031 C 
ATOM     50  C   UNL A   1      41.028  26.668  28.503  1.00  0.00     0.029 A 
ATOM     51  N   UNL A   1      43.162  27.114  28.013  1.00  0.00    -0.354 N 
ATOM     52  C   UNL A   1      44.759  31.114  28.463  1.00  0.00     0.074 A 
ATOM     53  C   UNL A   1      43.751  32.025  28.959  1.00  0.00     0.031 C 
ATOM     54  C   UNL A   1      41.585  25.531  28.056  1.00  0.00     0.029 A 
ATOM     55  C   UNL A   1      42.976  25.789  27.699  1.00  0.00     0.049 A 
ATOM     56  H   UNL A   1      44.023  27.580  27.897  1.00  0.00     0.167 HD
ATOM     57  C   UNL A   1      46.038  31.468  28.191  1.00  0.00     0.037 A 
ATOM     58  C   UNL A   1      43.827  24.885  27.173  1.00  0.00     0.037 A 
ATOM     59  C   UNL A   1      47.041  30.549  27.718  1.00  0.00     0.049 A 
ATOM     60  C   UNL A   1      45.240  25.305  26.866  1.00  0.00     0.074 A 
ATOM     61  C   UNL A   1      48.379  30.795  27.462  1.00  0.00     0.029 A 
ATOM     62  N   UNL A   1      46.817  29.212  27.427  1.00  0.00    -0.354 N 
ATOM     63  N   UNL A   1      45.805  26.478  27.026  1.00  0.00    -0.248 NA
ATOM     64  C   UNL A   1      46.134  24.277  26.314  1.00  0.00     0.031 C 
ATOM     65  C   UNL A   1      48.951  29.619  26.968  1.00  0.00     0.029 A 
ATOM     66  C   UNL A   1      47.986  28.624  26.973  1.00  0.00     0.049 A 
ATOM     67  H   UNL A   1      45.954  28.748  27.529  1.00  0.00     0.167 HD
ATOM     68  C   UNL A   1      47.128  26.322  26.624  1.00  0.00     0.074 A 
ATOM     69  C   UNL A   1      47.281  24.938  26.226  1.00  0.00     0.031 C 
ATOM     70  C   UNL A   1      48.125  27.241  26.590  1.00  0.00     0.037 A 
BRANCH  57  71
ATOM     71  C   UNL A   1      46.426  32.907  28.400  1.00  0.00     0.058 A 
ATOM     72  C   UNL A   1      46.990  33.352  29.608  1.00  0.00     0.135 A 
ATOM     73  C   UNL A   1      46.265  33.849  27.371  1.00  0.00     0.135 A 
ATOM     74  F   UNL A   1      47.153  32.500  30.633  1.00  0.00    -0.206 F 
ATOM     75  C   UNL A   1      47.351  34.681  29.797  1.00  0.00     0.059 A 
ATOM     76  C   UNL A   1      46.649  35.178  27.527  1.00  0.00     0.059 A 
ATOM     77  F   UNL A   1      45.731  33.481  26.195  1.00  0.00    -0.206 F 
ATOM     78  C   UNL A   1      47.178  35.588  28.750  1.00  0.00     0.060 A 
BRANCH  78  79
ATOM     79  S   UNL A   1      47.662  37.307  29.011  1.00  0.00     0.124 S 
ATOM     80  O   UNL A   1      47.016  37.966  27.879  1.00  0.00    -0.237 OA
ATOM     81  O   UNL A   1      47.090  37.597  30.321  1.00  0.00    -0.237 OA
ATOM     82  O   UNL A   1      49.120  37.263  28.962  1.00  0.00    -0.744 OA
ENDBRANCH  78  79
ENDBRANCH  57  71
BRANCH  58  83
ATOM     83  C   UNL A   1      43.371  23.492  26.920  1.00  0.00     0.058 A 
ATOM     84  C   UNL A   1      43.220  23.006  25.612  1.00  0.00     0.135 A 
ATOM     85  C   UNL A   1      43.087  22.613  27.977  1.00  0.00     0.135 A 
ATOM     86  F   UNL A   1      43.473  23.808  24.566  1.00  0.00    -0.206 F 
ATOM     87  C   UNL A   1      42.788  21.708  25.360  1.00  0.00     0.059 A 
ATOM     88  C   UNL A   1      42.681  21.301  27.751  1.00  0.00     0.059 A 
ATOM     89  F   UNL A   1      43.232  23.020  29.248  1.00  0.00    -0.206 F 
ATOM     90  C   UNL A   1      42.524  20.861  26.438  1.00  0.00     0.060 A 
BRANCH  90  91
ATOM     91  S   UNL A   1      42.011  19.162  26.099  1.00  0.00     0.124 S 
ATOM     92  O   UNL A   1      40.563  19.304  26.008  1.00  0.00    -0.237 OA
ATOM     93  O   UNL A   1      42.706  18.876  24.848  1.00  0.00    -0.237 OA
ATOM     94  O   UNL A   1      42.502  18.426  27.261  1.00  0.00    -0.744 OA
ENDBRANCH  90  91
ENDBRANCH  58  83
BRANCH  70  95
ATOM     95  C   UNL A   1      49.486  26.772  26.150  1.00  0.00     0.058 A 
ATOM     96  C   UNL A   1      49.946  26.958  24.838  1.00  0.00     0.135 A 
ATOM     97  C   UNL A   1      50.364  26.182  27.076  1.00  0.00     0.135 A 
ATOM     98  F   UNL A   1      49.146  27.510  23.913  1.00  0.00    -0.206 F 
ATOM     99  C   UNL A   1      51.220  26.553  24.451  1.00  0.00     0.059 A 
ATOM    100  C   UNL A   1      51.652  25.798  26.718  1.00  0.00     0.059 A 
ATOM    101  F   UNL A   1      49.978  25.991  28.348  1.00  0.00    -0.206 F 
ATOM    102  C   UNL A   1      52.068  25.978  25.400  1.00  0.00     0.060 A 
BRANCH 102 103
ATOM    103  S   UNL A   1      53.730  25.491  24.893  1.00  0.00     0.124 S 
ATOM    104  O   UNL A   1      53.670  24.041  25.039  1.00  0.00    -0.237 OA
ATOM    105  O   UNL A   1      53.796  25.989  23.522  1.00  0.00    -0.237 OA
ATOM    106  O   UNL A   1      54.593  26.184  25.846  1.00  0.00    -0.744 OA
ENDBRANCH 102 103
ENDBRANCH  70  95
ENDBRANCH  44  45
ENDBRANCH  36  39
ENDBRANCH  34  35
ENDBRANCH  33  34
ENDBRANCH  32  33
ENDBRANCH  31  32
ENDBRANCH   1  31
TORSDOF 22
ENDMDL
MODEL 2
REMARK VINA RESULT:     -11.4      3.051      5.129
REMARK SMILES COc1cccc(-c2ccc(=O)n(CC(=O)N[C@@H](C(=O)NCCCCCCNC(=O)c3ccc(-c4c5nc(c(-c6c(F)cc(S(=O)(=O)[O-])cc6F)c6ccc([nH]6)c(-c6c(F)cc(S(=O)(=O)[O-])cc6F)c6nc(c(-c7c(F)cc(S(=O)(=O)[O-])cc7F)c7ccc4[nH]7)C=C6)C=C5)cc3)C(C)C)n2)c1
REMARK SMILES IDX 23 1 22 2 21 3 19 4 20 5 18 7 17 8 15 9 16 10 14 12 13 13
REMARK SMILES IDX 8 14 9 15 100 16 10 17 11 18 12 19 7 20 3 21 4 22 101 23
REMARK SMILES IDX 5 24 6 25 2 26 1 27 97 28 98 29 99 30 24 31 25 32 26 33
REMARK SMILES IDX 27 34 28 35 29 36 30 38 31 39 32 40 96 41 33 42 95 43 34 44
REMARK SMILES IDX 35 45 36 46 89 47 37 48 94 49 88 50 90 51 38 52 93 53 87 54
REMARK SMILES IDX 86 55 39 57 73 58 52 59 72 60 53 61 56 62 71 63 91 64 54 65
REMARK SMILES IDX 55 66 70 68 92 69 57 70 40 71 41 72 50 73 42 74 43 75 49 76
REMARK SMILES IDX 51 77 44 78 45 79 46 80 47 81 48 82 74 83 75 84 84 85 76 86
REMARK SMILES IDX 77 87 83 88 85 89 78 90 79 91 80 92 81 93 82 94 58 95 59 96
REMARK SMILES IDX 68 97 60 98 61 99 67 100 69 101 62 102 63 103 64 104 65 105
REMARK SMILES IDX 66 106
REMARK H PARENT 21 6 17 11 28 37 90 56 56 67
REMARK Flexibility Score: inf
ROOT
ATOM      1  C   UNL A   1      33.835  24.858  25.749  1.00  0.00     0.021 C 
ENDROOT
BRANCH   1   2
ATOM      2  C   UNL A   1      35.293  24.433  25.647  1.00  0.00     0.116 C 
BRANCH   2   3
ATOM      3  N   UNL A   1      35.695  24.128  24.294  1.00  0.00    -0.354 N 
ATOM      4  C   UNL A   1      36.032  22.927  23.735  1.00  0.00     0.242 C 
ATOM      5  O   UNL A   1      36.184  22.922  22.510  1.00  0.00    -0.273 OA
ATOM      6  H   UNL A   1      35.731  24.899  23.683  1.00  0.00     0.163 HD
BRANCH   4   7
ATOM      7  C   UNL A   1      36.082  21.619  24.591  1.00  0.00     0.173 C 
BRANCH   7   8
ATOM      8  N   UNL A   1      35.487  21.864  25.909  1.00  0.00    -0.342 N 
ATOM      9  C   UNL A   1      34.404  21.296  26.520  1.00  0.00     0.242 C 
ATOM     10  O   UNL A   1      34.176  21.666  27.676  1.00  0.00    -0.273 OA
ATOM     11  H   UNL A   1      35.945  22.551  26.443  1.00  0.00     0.164 HD
BRANCH   9  12
ATOM     12  C   UNL A   1      33.579  20.171  25.872  1.00  0.00     0.248 C 
BRANCH  12  13
ATOM     13  N   UNL A   1      32.963  20.478  24.581  1.00  0.00    -0.220 N 
ATOM     14  C   UNL A   1      32.181  22.097  23.171  1.00  0.00     0.091 A 
ATOM     15  C   UNL A   1      31.796  21.126  22.135  1.00  0.00     0.036 A 
ATOM     16  N   UNL A   1      32.733  21.810  24.303  1.00  0.00    -0.169 NA
ATOM     17  C   UNL A   1      32.131  19.859  22.375  1.00  0.00     0.075 A 
ATOM     18  C   UNL A   1      32.736  19.455  23.665  1.00  0.00     0.267 A 
ATOM     19  O   UNL A   1      32.940  18.264  23.873  1.00  0.00    -0.268 OA
BRANCH  14  20
ATOM     20  C   UNL A   1      31.985  23.503  22.803  1.00  0.00     0.006 A 
ATOM     21  C   UNL A   1      30.598  25.457  23.008  1.00  0.00     0.119 A 
ATOM     22  C   UNL A   1      31.504  26.156  22.206  1.00  0.00     0.046 A 
ATOM     23  C   UNL A   1      30.829  24.117  23.287  1.00  0.00     0.056 A 
ATOM     24  C   UNL A   1      32.657  25.530  21.713  1.00  0.00     0.005 A 
ATOM     25  C   UNL A   1      32.906  24.191  22.014  1.00  0.00     0.011 A 
BRANCH  21  26
ATOM     26  O   UNL A   1      29.506  26.159  23.440  1.00  0.00    -0.497 OA
ATOM     27  C   UNL A   1      29.769  27.512  23.811  1.00  0.00     0.278 C 
ENDBRANCH  21  26
ENDBRANCH  14  20
ENDBRANCH  12  13
ENDBRANCH   9  12
ENDBRANCH   7   8
BRANCH   7  28
ATOM     28  C   UNL A   1      37.538  21.085  24.715  1.00  0.00     0.015 C 
ATOM     29  C   UNL A   1      38.367  21.811  25.782  1.00  0.00     0.010 C 
ATOM     30  C   UNL A   1      37.547  19.584  25.044  1.00  0.00     0.010 C 
ENDBRANCH   7  28
ENDBRANCH   4   7
ENDBRANCH   2   3
ENDBRANCH   1   2
BRANCH   1  31
ATOM     31  C   UNL A   1      33.567  26.267  25.216  1.00  0.00     0.002 C 
BRANCH  31  32
ATOM     32  C   UNL A   1      32.352  26.972  25.830  1.00  0.00     0.002 C 
BRANCH  32  33
ATOM     33  C   UNL A   1      32.635  27.765  27.107  1.00  0.00     0.021 C 
BRANCH  33  34
ATOM     34  C   UNL A   1      33.960  28.515  27.123  1.00  0.00     0.116 C 
BRANCH  34  35
ATOM     35  N   UNL A   1      33.810  29.875  27.613  1.00  0.00    -0.352 N 
ATOM     36  C   UNL A   1      34.677  30.644  28.349  1.00  0.00     0.251 C 
ATOM     37  H   UNL A   1      32.957  30.311  27.382  1.00  0.00     0.163 HD
ATOM     38  O   UNL A   1      34.285  31.697  28.842  1.00  0.00    -0.269 OA
BRANCH  36  39
ATOM     39  C   UNL A   1      36.071  30.194  28.563  1.00  0.00     0.039 A 
ATOM     40  C   UNL A   1      36.970  30.251  27.494  1.00  0.00     0.014 A 
ATOM     41  C   UNL A   1      36.491  29.705  29.802  1.00  0.00     0.014 A 
ATOM     42  C   UNL A   1      38.300  29.867  27.686  1.00  0.00     0.010 A 
ATOM     43  C   UNL A   1      37.834  29.409  30.015  1.00  0.00     0.010 A 
ATOM     44  C   UNL A   1      38.751  29.474  28.957  1.00  0.00    -0.014 A 
BRANCH  44  45
ATOM     45  C   UNL A   1      40.171  29.105  29.194  1.00  0.00     0.031 A 
ATOM     46  C   UNL A   1      41.128  30.120  29.760  1.00  0.00     0.074 A 
ATOM     47  C   UNL A   1      40.611  27.879  28.847  1.00  0.00     0.049 A 
ATOM     48  N   UNL A   1      42.414  30.014  29.976  1.00  0.00    -0.248 NA
ATOM     49  C   UNL A   1      40.571  31.439  30.107  1.00  0.00     0.031 C 
ATOM     50  C   UNL A   1      39.791  26.824  28.247  1.00  0.00     0.029 A 
ATOM     51  N   UNL A   1      41.859  27.314  28.938  1.00  0.00    -0.354 N 
ATOM     52  C   UNL A   1      42.820  31.251  30.465  1.00  0.00     0.074 A 
ATOM     53  C   UNL A   1      41.657  32.110  30.461  1.00  0.00     0.031 C 
ATOM     54  C   UNL A   1      40.550  25.735  28.048  1.00  0.00     0.029 A 
ATOM     55  C   UNL A   1      41.919  26.026  28.462  1.00  0.00     0.049 A 
ATOM     56  H   UNL A   1      42.638  27.789  29.310  1.00  0.00     0.167 HD
ATOM     57  C   UNL A   1      44.045  31.628  30.904  1.00  0.00     0.037 A 
ATOM     58  C   UNL A   1      42.961  25.177  28.362  1.00  0.00     0.037 A 
ATOM     59  C   UNL A   1      45.193  30.759  30.925  1.00  0.00     0.049 A 
ATOM     60  C   UNL A   1      44.316  25.623  28.845  1.00  0.00     0.074 A 
ATOM     61  C   UNL A   1      46.465  31.027  31.399  1.00  0.00     0.029 A 
ATOM     62  N   UNL A   1      45.209  29.456  30.450  1.00  0.00    -0.354 N 
ATOM     63  N   UNL A   1      44.667  26.775  29.365  1.00  0.00    -0.248 NA
ATOM     64  C   UNL A   1      45.414  24.653  28.734  1.00  0.00     0.031 C 
ATOM     65  C   UNL A   1      47.264  29.904  31.164  1.00  0.00     0.029 A 
ATOM     66  C   UNL A   1      46.476  28.914  30.598  1.00  0.00     0.049 A 
ATOM     67  H   UNL A   1      44.435  28.985  30.064  1.00  0.00     0.167 HD
ATOM     68  C   UNL A   1      46.019  26.657  29.672  1.00  0.00     0.074 A 
ATOM     69  C   UNL A   1      46.418  25.318  29.291  1.00  0.00     0.031 C 
ATOM     70  C   UNL A   1      46.854  27.574  30.223  1.00  0.00     0.037 A 
BRANCH  57  71
ATOM     71  C   UNL A   1      44.206  33.040  31.401  1.00  0.00     0.058 A 
ATOM     72  C   UNL A   1      44.033  33.371  32.756  1.00  0.00     0.135 A 
ATOM     73  C   UNL A   1      44.572  34.071  30.521  1.00  0.00     0.135 A 
ATOM     74  F   UNL A   1      43.668  32.430  33.641  1.00  0.00    -0.206 F 
ATOM     75  C   UNL A   1      44.186  34.675  33.212  1.00  0.00     0.059 A 
ATOM     76  C   UNL A   1      44.762  35.378  30.961  1.00  0.00     0.059 A 
ATOM     77  F   UNL A   1      44.751  33.814  29.215  1.00  0.00    -0.206 F 
ATOM     78  C   UNL A   1      44.552  35.673  32.307  1.00  0.00     0.060 A 
BRANCH  78  79
ATOM     79  S   UNL A   1      44.756  37.358  32.920  1.00  0.00     0.124 S 
ATOM     80  O   UNL A   1      44.601  38.135  31.693  1.00  0.00    -0.237 OA
ATOM     81  O   UNL A   1      43.667  37.474  33.884  1.00  0.00    -0.237 OA
ATOM     82  O   UNL A   1      46.099  37.353  33.493  1.00  0.00    -0.744 OA
ENDBRANCH  78  79
ENDBRANCH  57  71
BRANCH  58  83
ATOM     83  C   UNL A   1      42.761  23.815  27.798  1.00  0.00     0.058 A 
ATOM     84  C   UNL A   1      42.839  23.585  26.416  1.00  0.00     0.135 A 
ATOM     85  C   UNL A   1      42.498  22.713  28.626  1.00  0.00     0.135 A 
ATOM     86  F   UNL A   1      43.082  24.607  25.580  1.00  0.00    -0.206 F 
ATOM     87  C   UNL A   1      42.647  22.319  25.873  1.00  0.00     0.059 A 
ATOM     88  C   UNL A   1      42.331  21.431  28.110  1.00  0.00     0.059 A 
ATOM     89  F   UNL A   1      42.430  22.871  29.957  1.00  0.00    -0.206 F 
ATOM     90  C   UNL A   1      42.396  21.246  26.730  1.00  0.00     0.060 A 
BRANCH  90  91
ATOM     91  S   UNL A   1      42.198  19.598  26.019  1.00  0.00     0.124 S 
ATOM     92  O   UNL A   1      40.765  19.562  25.754  1.00  0.00    -0.237 OA
ATOM     93  O   UNL A   1      43.064  19.663  24.847  1.00  0.00    -0.237 OA
ATOM     94  O   UNL A   1      42.666  18.715  27.084  1.00  0.00    -0.744 OA
ENDBRANCH  90  91
ENDBRANCH  58  83
BRANCH  70  95
ATOM     95  C   UNL A   1      48.272  27.149  30.490  1.00  0.00     0.058 A 
ATOM     96  C   UNL A   1      49.311  27.422  29.587  1.00  0.00     0.135 A 
ATOM     97  C   UNL A   1      48.604  26.512  31.698  1.00  0.00     0.135 A 
ATOM     98  F   UNL A   1      49.048  28.022  28.415  1.00  0.00    -0.206 F 
ATOM     99  C   UNL A   1      50.626  27.057  29.861  1.00  0.00     0.059 A 
ATOM    100  C   UNL A   1      49.916  26.166  32.006  1.00  0.00     0.059 A 
ATOM    101  F   UNL A   1      47.651  26.238  32.603  1.00  0.00    -0.206 F 
ATOM    102  C   UNL A   1      50.919  26.433  31.074  1.00  0.00     0.060 A 
BRANCH 102 103
ATOM    103  S   UNL A   1      52.634  25.997  31.431  1.00  0.00     0.124 S 
ATOM    104  O   UNL A   1      53.222  25.996  30.096  1.00  0.00    -0.237 OA
ATOM    105  O   UNL A   1      53.055  27.085  32.309  1.00  0.00    -0.237 OA
ATOM    106  O   UNL A   1      52.527  24.689  32.072  1.00  0.00    -0.744 OA
ENDBRANCH 102 103
ENDBRANCH  70  95
ENDBRANCH  44  45
ENDBRANCH  36  39
ENDBRANCH  34  35
ENDBRANCH  33  34
ENDBRANCH  32  33
ENDBRANCH  31  32
ENDBRANCH   1  31
TORSDOF 22
ENDMDL
MODEL 3
REMARK VINA RESULT:     -11.3      1.780      2.498
REMARK SMILES COc1cccc(-c2ccc(=O)n(CC(=O)N[C@@H](C(=O)NCCCCCCNC(=O)c3ccc(-c4c5nc(c(-c6c(F)cc(S(=O)(=O)[O-])cc6F)c6ccc([nH]6)c(-c6c(F)cc(S(=O)(=O)[O-])cc6F)c6nc(c(-c7c(F)cc(S(=O)(=O)[O-])cc7F)c7ccc4[nH]7)C=C6)C=C5)cc3)C(C)C)n2)c1
REMARK SMILES IDX 23 1 22 2 21 3 19 4 20 5 18 7 17 8 15 9 16 10 14 12 13 13
REMARK SMILES IDX 8 14 9 15 100 16 10 17 11 18 12 19 7 20 3 21 4 22 101 23
REMARK SMILES IDX 5 24 6 25 2 26 1 27 97 28 98 29 99 30 24 31 25 32 26 33
REMARK SMILES IDX 27 34 28 35 29 36 30 38 31 39 32 40 96 41 33 42 95 43 34 44
REMARK SMILES IDX 35 45 36 46 89 47 37 48 94 49 88 50 90 51 38 52 93 53 87 54
REMARK SMILES IDX 86 55 39 57 73 58 52 59 72 60 53 61 56 62 71 63 91 64 54 65
REMARK SMILES IDX 55 66 70 68 92 69 57 70 40 71 41 72 50 73 42 74 43 75 49 76
REMARK SMILES IDX 51 77 44 78 45 79 46 80 47 81 48 82 74 83 75 84 84 85 76 86
REMARK SMILES IDX 77 87 83 88 85 89 78 90 79 91 80 92 81 93 82 94 58 95 59 96
REMARK SMILES IDX 68 97 60 98 61 99 67 100 69 101 62 102 63 103 64 104 65 105
REMARK SMILES IDX 66 106
REMARK H PARENT 21 6 17 11 28 37 90 56 56 67
REMARK Flexibility Score: inf
ROOT
ATOM      1  C   UNL A   1      33.255  29.907  27.700  1.00  0.00     0.021 C 
ENDROOT
BRANCH   1   2
ATOM      2  C   UNL A   1      32.731  29.027  26.574  1.00  0.00     0.116 C 
BRANCH   2   3
ATOM      3  N   UNL A   1      33.359  29.308  25.304  1.00  0.00    -0.354 N 
ATOM      4  C   UNL A   1      33.164  28.718  24.086  1.00  0.00     0.242 C 
ATOM      5  O   UNL A   1      33.718  29.260  23.125  1.00  0.00    -0.273 OA
ATOM      6  H   UNL A   1      34.025  30.032  25.316  1.00  0.00     0.163 HD
BRANCH   4   7
ATOM      7  C   UNL A   1      32.183  27.512  23.917  1.00  0.00     0.173 C 
BRANCH   7   8
ATOM      8  N   UNL A   1      32.619  26.667  22.801  1.00  0.00    -0.342 N 
ATOM      9  C   UNL A   1      33.357  25.516  22.785  1.00  0.00     0.242 C 
ATOM     10  O   UNL A   1      33.515  24.987  21.681  1.00  0.00    -0.273 OA
ATOM     11  H   UNL A   1      32.333  26.982  21.914  1.00  0.00     0.164 HD
BRANCH   9  12
ATOM     12  C   UNL A   1      33.863  24.836  24.069  1.00  0.00     0.248 C 
BRANCH  12  13
ATOM     13  N   UNL A   1      32.978  23.835  24.666  1.00  0.00    -0.220 N 
ATOM     14  C   UNL A   1      32.309  21.652  24.701  1.00  0.00     0.091 A 
ATOM     15  C   UNL A   1      31.322  21.884  25.767  1.00  0.00     0.036 A 
ATOM     16  N   UNL A   1      33.090  22.545  24.191  1.00  0.00    -0.169 NA
ATOM     17  C   UNL A   1      31.311  23.109  26.289  1.00  0.00     0.075 A 
ATOM     18  C   UNL A   1      32.156  24.190  25.731  1.00  0.00     0.267 A 
ATOM     19  O   UNL A   1      32.042  25.323  26.187  1.00  0.00    -0.268 OA
BRANCH  14  20
ATOM     20  C   UNL A   1      32.443  20.253  24.279  1.00  0.00     0.006 A 
ATOM     21  C   UNL A   1      32.917  17.991  24.946  1.00  0.00     0.119 A 
ATOM     22  C   UNL A   1      32.707  17.583  23.626  1.00  0.00     0.046 A 
ATOM     23  C   UNL A   1      32.807  19.337  25.267  1.00  0.00     0.056 A 
ATOM     24  C   UNL A   1      32.354  18.509  22.636  1.00  0.00     0.005 A 
ATOM     25  C   UNL A   1      32.216  19.859  22.961  1.00  0.00     0.011 A 
BRANCH  21  26
ATOM     26  O   UNL A   1      33.255  17.010  25.836  1.00  0.00    -0.497 OA
ATOM     27  C   UNL A   1      32.710  15.722  25.549  1.00  0.00     0.278 C 
ENDBRANCH  21  26
ENDBRANCH  14  20
ENDBRANCH  12  13
ENDBRANCH   9  12
ENDBRANCH   7   8
BRANCH   7  28
ATOM     28  C   UNL A   1      30.720  28.002  23.721  1.00  0.00     0.015 C 
ATOM     29  C   UNL A   1      30.597  29.190  22.758  1.00  0.00     0.010 C 
ATOM     30  C   UNL A   1      29.826  26.868  23.195  1.00  0.00     0.010 C 
ENDBRANCH   7  28
ENDBRANCH   4   7
ENDBRANCH   2   3
ENDBRANCH   1   2
BRANCH   1  31
ATOM     31  C   UNL A   1      33.863  31.226  27.216  1.00  0.00     0.002 C 
BRANCH  31  32
ATOM     32  C   UNL A   1      35.334  31.438  27.594  1.00  0.00     0.002 C 
BRANCH  32  33
ATOM     33  C   UNL A   1      35.673  32.826  28.139  1.00  0.00     0.021 C 
BRANCH  33  34
ATOM     34  C   UNL A   1      36.546  32.837  29.387  1.00  0.00     0.116 C 
BRANCH  34  35
ATOM     35  N   UNL A   1      36.114  31.849  30.362  1.00  0.00    -0.352 N 
ATOM     36  C   UNL A   1      36.689  30.654  30.713  1.00  0.00     0.251 C 
ATOM     37  H   UNL A   1      35.284  32.072  30.843  1.00  0.00     0.163 HD
ATOM     38  O   UNL A   1      36.063  29.862  31.411  1.00  0.00    -0.269 OA
BRANCH  36  39
ATOM     39  C   UNL A   1      38.048  30.313  30.234  1.00  0.00     0.039 A 
ATOM     40  C   UNL A   1      39.088  30.222  31.164  1.00  0.00     0.014 A 
ATOM     41  C   UNL A   1      38.304  30.098  28.878  1.00  0.00     0.014 A 
ATOM     42  C   UNL A   1      40.369  29.864  30.738  1.00  0.00     0.010 A 
ATOM     43  C   UNL A   1      39.559  29.654  28.469  1.00  0.00     0.010 A 
ATOM     44  C   UNL A   1      40.609  29.545  29.391  1.00  0.00    -0.014 A 
BRANCH  44  45
ATOM     45  C   UNL A   1      41.953  29.118  28.924  1.00  0.00     0.031 A 
ATOM     46  C   UNL A   1      43.072  30.121  28.833  1.00  0.00     0.074 A 
ATOM     47  C   UNL A   1      42.151  27.845  28.530  1.00  0.00     0.049 A 
ATOM     48  N   UNL A   1      44.292  29.961  28.389  1.00  0.00    -0.248 NA
ATOM     49  C   UNL A   1      42.774  31.494  29.277  1.00  0.00     0.031 C 
ATOM     50  C   UNL A   1      41.133  26.791  28.528  1.00  0.00     0.029 A 
ATOM     51  N   UNL A   1      43.272  27.220  28.042  1.00  0.00    -0.354 N 
ATOM     52  C   UNL A   1      44.897  31.209  28.483  1.00  0.00     0.074 A 
ATOM     53  C   UNL A   1      43.896  32.129  28.973  1.00  0.00     0.031 C 
ATOM     54  C   UNL A   1      41.682  25.648  28.086  1.00  0.00     0.029 A 
ATOM     55  C   UNL A   1      43.076  25.895  27.732  1.00  0.00     0.049 A 
ATOM     56  H   UNL A   1      44.136  27.679  27.927  1.00  0.00     0.167 HD
ATOM     57  C   UNL A   1      46.180  31.552  28.213  1.00  0.00     0.037 A 
ATOM     58  C   UNL A   1      43.922  24.983  27.211  1.00  0.00     0.037 A 
ATOM     59  C   UNL A   1      47.177  30.624  27.745  1.00  0.00     0.049 A 
ATOM     60  C   UNL A   1      45.339  25.391  26.906  1.00  0.00     0.074 A 
ATOM     61  C   UNL A   1      48.517  30.859  27.492  1.00  0.00     0.029 A 
ATOM     62  N   UNL A   1      46.944  29.287  27.458  1.00  0.00    -0.354 N 
ATOM     63  N   UNL A   1      45.912  26.560  27.064  1.00  0.00    -0.248 NA
ATOM     64  C   UNL A   1      46.226  24.354  26.361  1.00  0.00     0.031 C 
ATOM     65  C   UNL A   1      49.082  29.676  27.004  1.00  0.00     0.029 A 
ATOM     66  C   UNL A   1      48.110  28.689  27.009  1.00  0.00     0.049 A 
ATOM     67  H   UNL A   1      46.077  28.830  27.560  1.00  0.00     0.167 HD
ATOM     68  C   UNL A   1      47.234  26.392  26.666  1.00  0.00     0.074 A 
ATOM     69  C   UNL A   1      47.378  25.006  26.273  1.00  0.00     0.031 C 
ATOM     70  C   UNL A   1      48.239  27.303  26.632  1.00  0.00     0.037 A 
BRANCH  57  71
ATOM     71  C   UNL A   1      46.579  32.989  28.419  1.00  0.00     0.058 A 
ATOM     72  C   UNL A   1      46.474  33.940  27.389  1.00  0.00     0.135 A 
ATOM     73  C   UNL A   1      47.038  33.431  29.670  1.00  0.00     0.135 A 
ATOM     74  F   UNL A   1      46.056  33.571  26.168  1.00  0.00    -0.206 F 
ATOM     75  C   UNL A   1      46.839  35.267  27.584  1.00  0.00     0.059 A 
ATOM     76  C   UNL A   1      47.379  34.762  29.897  1.00  0.00     0.059 A 
ATOM     77  F   UNL A   1      47.159  32.567  30.690  1.00  0.00    -0.206 F 
ATOM     78  C   UNL A   1      47.291  35.670  28.842  1.00  0.00     0.060 A 
BRANCH  78  79
ATOM     79  S   UNL A   1      47.751  37.399  29.079  1.00  0.00     0.124 S 
ATOM     80  O   UNL A   1      48.632  37.624  27.936  1.00  0.00    -0.237 OA
ATOM     81  O   UNL A   1      46.459  38.075  29.024  1.00  0.00    -0.237 OA
ATOM     82  O   UNL A   1      48.404  37.404  30.384  1.00  0.00    -0.744 OA
ENDBRANCH  78  79
ENDBRANCH  57  71
BRANCH  58  83
ATOM     83  C   UNL A   1      43.456  23.592  26.962  1.00  0.00     0.058 A 
ATOM     84  C   UNL A   1      43.172  23.146  25.662  1.00  0.00     0.135 A 
ATOM     85  C   UNL A   1      43.294  22.676  28.013  1.00  0.00     0.135 A 
ATOM     86  F   UNL A   1      43.305  23.985  24.622  1.00  0.00    -0.206 F 
ATOM     87  C   UNL A   1      42.729  21.851  25.414  1.00  0.00     0.059 A 
ATOM     88  C   UNL A   1      42.879  21.367  27.788  1.00  0.00     0.059 A 
ATOM     89  F   UNL A   1      43.568  23.044  29.274  1.00  0.00    -0.206 F 
ATOM     90  C   UNL A   1      42.589  20.967  26.485  1.00  0.00     0.060 A 
BRANCH  90  91
ATOM     91  S   UNL A   1      42.060  19.273  26.146  1.00  0.00     0.124 S 
ATOM     92  O   UNL A   1      42.883  18.933  24.992  1.00  0.00    -0.237 OA
ATOM     93  O   UNL A   1      42.395  18.593  27.393  1.00  0.00    -0.237 OA
ATOM     94  O   UNL A   1      40.631  19.414  25.884  1.00  0.00    -0.744 OA
ENDBRANCH  90  91
ENDBRANCH  58  83
BRANCH  70  95
ATOM     95  C   UNL A   1      49.597  26.823  26.197  1.00  0.00     0.058 A 
ATOM     96  C   UNL A   1      50.069  27.017  24.890  1.00  0.00     0.135 A 
ATOM     97  C   UNL A   1      50.461  26.212  27.123  1.00  0.00     0.135 A 
ATOM     98  F   UNL A   1      49.283  27.589  23.965  1.00  0.00    -0.206 F 
ATOM     99  C   UNL A   1      51.342  26.601  24.509  1.00  0.00     0.059 A 
ATOM    100  C   UNL A   1      51.748  25.817  26.771  1.00  0.00     0.059 A 
ATOM    101  F   UNL A   1      50.064  26.013  28.389  1.00  0.00    -0.206 F 
ATOM    102  C   UNL A   1      52.175  26.005  25.457  1.00  0.00     0.060 A 
BRANCH 102 103
ATOM    103  S   UNL A   1      53.835  25.504  24.957  1.00  0.00     0.124 S 
ATOM    104  O   UNL A   1      53.805  25.774  23.524  1.00  0.00    -0.237 OA
ATOM    105  O   UNL A   1      54.680  26.389  25.752  1.00  0.00    -0.237 OA
ATOM    106  O   UNL A   1      53.891  24.093  25.330  1.00  0.00    -0.744 OA
ENDBRANCH 102 103
ENDBRANCH  70  95
ENDBRANCH  44  45
ENDBRANCH  36  39
ENDBRANCH  34  35
ENDBRANCH  33  34
ENDBRANCH  32  33
ENDBRANCH  31  32
ENDBRANCH   1  31
TORSDOF 22
ENDMDL
