MODEL 1
REMARK VINA RESULT:     -10.4      0.000      0.000
REMARK SMILES C=CCN(CC(=O)NCCCCCCNC(=O)c1ccc(-c2c3nc(c(-c4c(F)cc(S(=O)(=O)[O-])cc4F)c4ccc([nH]4)c(-c4c(F)cc(S(=O)(=O)[O-])cc4F)c4nc(c(-c5c(F)cc(S(=O)(=O)[O-])cc5F)c5ccc2[nH]5)C=C4)C=C3)cc1)C(=O)N1CC[C@@H]([NH+]2CCCCC2)C1
REMARK SMILES IDX 11 1 10 2 9 3 8 4 6 5 7 6 5 8 4 9 3 10 2 11 1 12 84 13 85 14
REMARK SMILES IDX 86 15 87 16 96 17 88 18 89 19 90 20 91 21 95 22 92 24 94 25
REMARK SMILES IDX 93 26 12 27 13 28 14 29 15 30 16 31 17 33 18 34 19 35 83 36
REMARK SMILES IDX 20 37 82 38 21 39 22 40 23 41 76 42 24 43 81 44 75 45 77 46
REMARK SMILES IDX 25 47 80 48 74 49 73 50 26 52 60 53 39 54 59 55 40 56 43 57
REMARK SMILES IDX 58 58 78 59 41 60 42 61 57 63 79 64 44 65 27 66 28 67 37 68
REMARK SMILES IDX 29 69 30 70 36 71 38 72 31 73 32 74 33 75 34 76 35 77 61 78
REMARK SMILES IDX 62 79 71 80 63 81 64 82 70 83 72 84 65 85 66 86 67 87 68 88
REMARK SMILES IDX 69 89 45 90 46 91 55 92 47 93 48 94 54 95 56 96 49 97 50 98
REMARK SMILES IDX 51 99 52 100 53 101
REMARK H PARENT 8 7 90 23 15 32 77 51 43 62
REMARK Flexibility Score: inf
ROOT
ATOM      1  C   UNL A   1      32.682  29.605  27.231  1.00  0.00     0.002 C 
ENDROOT
BRANCH   1   2
ATOM      2  C   UNL A   1      31.852  28.355  27.554  1.00  0.00     0.021 C 
BRANCH   2   3
ATOM      3  C   UNL A   1      31.253  27.633  26.350  1.00  0.00     0.116 C 
BRANCH   3   4
ATOM      4  N   UNL A   1      30.648  26.362  26.654  1.00  0.00    -0.355 N 
ATOM      5  C   UNL A   1      31.138  25.103  26.490  1.00  0.00     0.239 C 
ATOM      6  O   UNL A   1      30.643  24.223  27.209  1.00  0.00    -0.273 OA
ATOM      7  H   UNL A   1      29.741  26.411  27.038  1.00  0.00     0.163 HD
BRANCH   5   8
ATOM      8  C   UNL A   1      32.269  24.730  25.493  1.00  0.00     0.221 C 
BRANCH   8   9
ATOM      9  N   UNL A   1      32.223  23.509  24.662  1.00  0.00    -0.312 N 
BRANCH   9  10
ATOM     10  C   UNL A   1      32.194  23.719  23.217  1.00  0.00     0.149 C 
BRANCH  10  11
ATOM     11  C   UNL A   1      31.196  24.759  22.812  1.00  0.00    -0.013 C 
ATOM     12  C   UNL A   1      31.563  25.956  22.329  1.00  0.00     0.006 C 
ENDBRANCH  10  11
ENDBRANCH   9  10
BRANCH   9  13
ATOM     13  C   UNL A   1      32.446  22.203  25.112  1.00  0.00     0.320 C 
ATOM     14  O   UNL A   1      31.525  21.413  25.325  1.00  0.00    -0.248 OA
BRANCH  13  15
ATOM     15  N   UNL A   1      33.737  21.780  25.280  1.00  0.00    -0.318 N 
ATOM     16  C   UNL A   1      34.373  20.745  24.535  1.00  0.00     0.128 C 
ATOM     17  C   UNL A   1      34.804  22.603  25.866  1.00  0.00     0.186 C 
ATOM     18  C   UNL A   1      35.475  20.322  25.464  1.00  0.00     0.088 C 
ATOM     19  C   UNL A   1      36.076  21.665  25.894  1.00  0.00     0.205 C 
BRANCH  19  20
ATOM     20  N   UNL A   1      37.268  22.110  25.136  1.00  0.00    -0.331 N 
ATOM     21  C   UNL A   1      38.524  21.373  25.303  1.00  0.00     0.262 C 
ATOM     22  C   UNL A   1      37.517  23.558  25.187  1.00  0.00     0.262 C 
ATOM     23  H   UNL A   1      36.955  21.851  24.200  1.00  0.00     0.348 HD
ATOM     24  C   UNL A   1      39.361  21.751  26.533  1.00  0.00     0.062 C 
ATOM     25  C   UNL A   1      38.276  24.064  26.417  1.00  0.00     0.062 C 
ATOM     26  C   UNL A   1      39.532  23.252  26.724  1.00  0.00     0.012 C 
ENDBRANCH  19  20
ENDBRANCH  13  15
ENDBRANCH   9  13
ENDBRANCH   8   9
ENDBRANCH   5   8
ENDBRANCH   3   4
ENDBRANCH   2   3
ENDBRANCH   1   2
BRANCH   1  27
ATOM     27  C   UNL A   1      34.045  29.360  26.573  1.00  0.00     0.002 C 
BRANCH  27  28
ATOM     28  C   UNL A   1      35.224  29.177  27.531  1.00  0.00     0.021 C 
BRANCH  28  29
ATOM     29  C   UNL A   1      35.632  30.431  28.294  1.00  0.00     0.116 C 
BRANCH  29  30
ATOM     30  N   UNL A   1      35.593  30.231  29.734  1.00  0.00    -0.352 N 
ATOM     31  C   UNL A   1      36.575  29.761  30.570  1.00  0.00     0.251 C 
ATOM     32  H   UNL A   1      34.743  30.466  30.171  1.00  0.00     0.163 HD
ATOM     33  O   UNL A   1      36.301  29.463  31.733  1.00  0.00    -0.269 OA
BRANCH  31  34
ATOM     34  C   UNL A   1      37.956  29.593  30.067  1.00  0.00     0.039 A 
ATOM     35  C   UNL A   1      38.997  29.401  30.979  1.00  0.00     0.014 A 
ATOM     36  C   UNL A   1      38.225  29.625  28.696  1.00  0.00     0.014 A 
ATOM     37  C   UNL A   1      40.296  29.181  30.514  1.00  0.00     0.010 A 
ATOM     38  C   UNL A   1      39.503  29.330  28.231  1.00  0.00     0.010 A 
ATOM     39  C   UNL A   1      40.556  29.111  29.134  1.00  0.00    -0.014 A 
BRANCH  39  40
ATOM     40  C   UNL A   1      41.919  28.833  28.609  1.00  0.00     0.031 A 
ATOM     41  C   UNL A   1      42.284  27.434  28.186  1.00  0.00     0.074 A 
ATOM     42  C   UNL A   1      42.843  29.814  28.575  1.00  0.00     0.049 A 
ATOM     43  N   UNL A   1      43.446  26.958  27.819  1.00  0.00    -0.248 NA
ATOM     44  C   UNL A   1      41.205  26.431  28.202  1.00  0.00     0.031 C 
ATOM     45  C   UNL A   1      42.622  31.202  28.987  1.00  0.00     0.029 A 
ATOM     46  N   UNL A   1      44.161  29.792  28.191  1.00  0.00    -0.354 N 
ATOM     47  C   UNL A   1      43.240  25.607  27.568  1.00  0.00     0.074 A 
ATOM     48  C   UNL A   1      41.857  25.322  27.883  1.00  0.00     0.031 C 
ATOM     49  C   UNL A   1      43.760  31.898  28.824  1.00  0.00     0.029 A 
ATOM     50  C   UNL A   1      44.803  31.001  28.339  1.00  0.00     0.049 A 
ATOM     51  H   UNL A   1      44.607  28.987  27.841  1.00  0.00     0.167 HD
ATOM     52  C   UNL A   1      44.116  24.690  27.093  1.00  0.00     0.037 A 
ATOM     53  C   UNL A   1      46.091  31.342  28.129  1.00  0.00     0.037 A 
ATOM     54  C   UNL A   1      45.485  24.983  26.757  1.00  0.00     0.049 A 
ATOM     55  C   UNL A   1      47.053  30.293  27.627  1.00  0.00     0.074 A 
ATOM     56  C   UNL A   1      46.445  24.130  26.243  1.00  0.00     0.029 A 
ATOM     57  N   UNL A   1      46.086  26.225  26.896  1.00  0.00    -0.354 N 
ATOM     58  N   UNL A   1      46.828  29.030  27.358  1.00  0.00    -0.248 NA
ATOM     59  C   UNL A   1      48.440  30.718  27.392  1.00  0.00     0.031 C 
ATOM     60  C   UNL A   1      47.639  24.844  26.109  1.00  0.00     0.029 A 
ATOM     61  C   UNL A   1      47.408  26.157  26.485  1.00  0.00     0.049 A 
ATOM     62  H   UNL A   1      45.642  27.034  27.237  1.00  0.00     0.167 HD
ATOM     63  C   UNL A   1      48.033  28.523  26.881  1.00  0.00     0.074 A 
ATOM     64  C   UNL A   1      48.980  29.617  26.893  1.00  0.00     0.031 C 
ATOM     65  C   UNL A   1      48.328  27.265  26.469  1.00  0.00     0.037 A 
BRANCH  52  66
ATOM     66  C   UNL A   1      43.622  23.285  26.880  1.00  0.00     0.058 A 
ATOM     67  C   UNL A   1      43.343  22.795  25.594  1.00  0.00     0.135 A 
ATOM     68  C   UNL A   1      43.497  22.397  27.960  1.00  0.00     0.135 A 
ATOM     69  F   UNL A   1      43.428  23.605  24.528  1.00  0.00    -0.206 F 
ATOM     70  C   UNL A   1      42.949  21.477  25.387  1.00  0.00     0.059 A 
ATOM     71  C   UNL A   1      43.133  21.066  27.775  1.00  0.00     0.059 A 
ATOM     72  F   UNL A   1      43.747  22.815  29.211  1.00  0.00    -0.206 F 
ATOM     73  C   UNL A   1      42.856  20.618  26.484  1.00  0.00     0.060 A 
BRANCH  73  74
ATOM     74  S   UNL A   1      42.385  18.900  26.189  1.00  0.00     0.124 S 
ATOM     75  O   UNL A   1      43.425  18.468  25.260  1.00  0.00    -0.237 OA
ATOM     76  O   UNL A   1      42.455  18.326  27.530  1.00  0.00    -0.237 OA
ATOM     77  O   UNL A   1      41.044  19.007  25.625  1.00  0.00    -0.744 OA
ENDBRANCH  73  74
ENDBRANCH  52  66
BRANCH  53  78
ATOM     78  C   UNL A   1      46.559  32.730  28.392  1.00  0.00     0.058 A 
ATOM     79  C   UNL A   1      47.009  33.116  29.665  1.00  0.00     0.135 A 
ATOM     80  C   UNL A   1      46.527  33.713  27.390  1.00  0.00     0.135 A 
ATOM     81  F   UNL A   1      47.056  32.216  30.659  1.00  0.00    -0.206 F 
ATOM     82  C   UNL A   1      47.367  34.430  29.947  1.00  0.00     0.059 A 
ATOM     83  C   UNL A   1      46.913  35.027  27.638  1.00  0.00     0.059 A 
ATOM     84  F   UNL A   1      46.126  33.396  26.148  1.00  0.00    -0.206 F 
ATOM     85  C   UNL A   1      47.309  35.380  28.926  1.00  0.00     0.060 A 
BRANCH  85  86
ATOM     86  S   UNL A   1      47.769  37.086  29.303  1.00  0.00     0.124 S 
ATOM     87  O   UNL A   1      47.653  37.716  27.994  1.00  0.00    -0.237 OA
ATOM     88  O   UNL A   1      46.762  37.465  30.289  1.00  0.00    -0.237 OA
ATOM     89  O   UNL A   1      49.128  36.958  29.823  1.00  0.00    -0.744 OA
ENDBRANCH  85  86
ENDBRANCH  53  78
BRANCH  65  90
ATOM     90  C   UNL A   1      49.708  27.011  25.924  1.00  0.00     0.058 A 
ATOM     91  C   UNL A   1      50.733  26.473  26.716  1.00  0.00     0.135 A 
ATOM     92  C   UNL A   1      49.981  27.244  24.566  1.00  0.00     0.135 A 
ATOM     93  F   UNL A   1      50.527  26.236  28.021  1.00  0.00    -0.206 F 
ATOM     94  C   UNL A   1      51.988  26.192  26.184  1.00  0.00     0.059 A 
ATOM     95  C   UNL A   1      51.218  26.942  24.006  1.00  0.00     0.059 A 
ATOM     96  F   UNL A   1      49.031  27.749  23.762  1.00  0.00    -0.206 F 
ATOM     97  C   UNL A   1      52.218  26.425  24.827  1.00  0.00     0.060 A 
BRANCH  97  98
ATOM     98  S   UNL A   1      53.835  26.007  24.140  1.00  0.00     0.124 S 
ATOM     99  O   UNL A   1      54.671  27.070  24.688  1.00  0.00    -0.237 OA
ATOM    100  O   UNL A   1      54.069  24.674  24.685  1.00  0.00    -0.237 OA
ATOM    101  O   UNL A   1      53.618  26.060  22.698  1.00  0.00    -0.744 OA
ENDBRANCH  97  98
ENDBRANCH  65  90
ENDBRANCH  39  40
ENDBRANCH  31  34
ENDBRANCH  29  30
ENDBRANCH  28  29
ENDBRANCH  27  28
ENDBRANCH   1  27
TORSDOF 22
ENDMDL
MODEL 2
REMARK VINA RESULT:     -10.4      1.514      2.734
REMARK SMILES C=CCN(CC(=O)NCCCCCCNC(=O)c1ccc(-c2c3nc(c(-c4c(F)cc(S(=O)(=O)[O-])cc4F)c4ccc([nH]4)c(-c4c(F)cc(S(=O)(=O)[O-])cc4F)c4nc(c(-c5c(F)cc(S(=O)(=O)[O-])cc5F)c5ccc2[nH]5)C=C4)C=C3)cc1)C(=O)N1CC[C@@H]([NH+]2CCCCC2)C1
REMARK SMILES IDX 11 1 10 2 9 3 8 4 6 5 7 6 5 8 4 9 3 10 2 11 1 12 84 13 85 14
REMARK SMILES IDX 86 15 87 16 96 17 88 18 89 19 90 20 91 21 95 22 92 24 94 25
REMARK SMILES IDX 93 26 12 27 13 28 14 29 15 30 16 31 17 33 18 34 19 35 83 36
REMARK SMILES IDX 20 37 82 38 21 39 22 40 23 41 76 42 24 43 81 44 75 45 77 46
REMARK SMILES IDX 25 47 80 48 74 49 73 50 26 52 60 53 39 54 59 55 40 56 43 57
REMARK SMILES IDX 58 58 78 59 41 60 42 61 57 63 79 64 44 65 27 66 28 67 37 68
REMARK SMILES IDX 29 69 30 70 36 71 38 72 31 73 32 74 33 75 34 76 35 77 61 78
REMARK SMILES IDX 62 79 71 80 63 81 64 82 70 83 72 84 65 85 66 86 67 87 68 88
REMARK SMILES IDX 69 89 45 90 46 91 55 92 47 93 48 94 54 95 56 96 49 97 50 98
REMARK SMILES IDX 51 99 52 100 53 101
REMARK H PARENT 8 7 90 23 15 32 77 51 43 62
REMARK Flexibility Score: inf
ROOT
ATOM      1  C   UNL A   1      32.479  28.989  26.453  1.00  0.00     0.002 C 
ENDROOT
BRANCH   1   2
ATOM      2  C   UNL A   1      33.116  28.010  25.458  1.00  0.00     0.021 C 
BRANCH   2   3
ATOM      3  C   UNL A   1      32.437  27.923  24.094  1.00  0.00     0.116 C 
BRANCH   3   4
ATOM      4  N   UNL A   1      33.246  27.331  23.059  1.00  0.00    -0.355 N 
ATOM      5  C   UNL A   1      33.191  26.084  22.518  1.00  0.00     0.239 C 
ATOM      6  O   UNL A   1      33.667  25.956  21.382  1.00  0.00    -0.273 OA
ATOM      7  H   UNL A   1      33.945  27.918  22.687  1.00  0.00     0.163 HD
BRANCH   5   8
ATOM      8  C   UNL A   1      32.559  24.853  23.226  1.00  0.00     0.221 C 
BRANCH   8   9
ATOM      9  N   UNL A   1      33.233  24.142  24.332  1.00  0.00    -0.312 N 
BRANCH   9  10
ATOM     10  C   UNL A   1      32.699  24.386  25.669  1.00  0.00     0.149 C 
BRANCH  10  11
ATOM     11  C   UNL A   1      31.203  24.336  25.703  1.00  0.00    -0.013 C 
ATOM     12  C   UNL A   1      30.456  25.409  26.002  1.00  0.00     0.006 C 
ENDBRANCH  10  11
ENDBRANCH   9  10
BRANCH   9  13
ATOM     13  C   UNL A   1      34.154  23.097  24.194  1.00  0.00     0.320 C 
ATOM     14  O   UNL A   1      35.329  23.291  23.880  1.00  0.00    -0.248 OA
BRANCH  13  15
ATOM     15  N   UNL A   1      33.738  21.820  24.460  1.00  0.00    -0.318 N 
ATOM     16  C   UNL A   1      32.472  21.271  24.108  1.00  0.00     0.128 C 
ATOM     17  C   UNL A   1      34.648  20.687  24.685  1.00  0.00     0.186 C 
ATOM     18  C   UNL A   1      32.334  20.143  25.091  1.00  0.00     0.088 C 
ATOM     19  C   UNL A   1      33.703  19.460  25.002  1.00  0.00     0.205 C 
BRANCH  19  20
ATOM     20  N   UNL A   1      33.781  18.289  24.099  1.00  0.00    -0.331 N 
ATOM     21  C   UNL A   1      32.601  17.433  23.952  1.00  0.00     0.262 C 
ATOM     22  C   UNL A   1      34.988  17.467  24.271  1.00  0.00     0.262 C 
ATOM     23  H   UNL A   1      33.834  18.788  23.211  1.00  0.00     0.348 HD
ATOM     24  C   UNL A   1      32.403  16.375  25.047  1.00  0.00     0.062 C 
ATOM     25  C   UNL A   1      34.936  16.428  25.395  1.00  0.00     0.062 C 
ATOM     26  C   UNL A   1      33.663  15.586  25.376  1.00  0.00     0.012 C 
ENDBRANCH  19  20
ENDBRANCH  13  15
ENDBRANCH   9  13
ENDBRANCH   8   9
ENDBRANCH   5   8
ENDBRANCH   3   4
ENDBRANCH   2   3
ENDBRANCH   1   2
BRANCH   1  27
ATOM     27  C   UNL A   1      33.405  30.071  27.023  1.00  0.00     0.002 C 
BRANCH  27  28
ATOM     28  C   UNL A   1      34.729  29.575  27.609  1.00  0.00     0.021 C 
BRANCH  28  29
ATOM     29  C   UNL A   1      35.583  30.649  28.269  1.00  0.00     0.116 C 
BRANCH  29  30
ATOM     30  N   UNL A   1      35.575  30.539  29.719  1.00  0.00    -0.352 N 
ATOM     31  C   UNL A   1      36.523  29.994  30.550  1.00  0.00     0.251 C 
ATOM     32  H   UNL A   1      34.780  30.906  30.168  1.00  0.00     0.163 HD
ATOM     33  O   UNL A   1      36.259  29.801  31.738  1.00  0.00    -0.269 OA
BRANCH  31  34
ATOM     34  C   UNL A   1      37.850  29.621  30.015  1.00  0.00     0.039 A 
ATOM     35  C   UNL A   1      38.128  29.839  28.663  1.00  0.00     0.014 A 
ATOM     36  C   UNL A   1      38.821  29.056  30.847  1.00  0.00     0.014 A 
ATOM     37  C   UNL A   1      39.398  29.547  28.160  1.00  0.00     0.010 A 
ATOM     38  C   UNL A   1      40.108  28.838  30.363  1.00  0.00     0.010 A 
ATOM     39  C   UNL A   1      40.411  29.075  29.012  1.00  0.00    -0.014 A 
BRANCH  39  40
ATOM     40  C   UNL A   1      41.785  28.799  28.516  1.00  0.00     0.031 A 
ATOM     41  C   UNL A   1      42.159  27.401  28.095  1.00  0.00     0.074 A 
ATOM     42  C   UNL A   1      42.709  29.780  28.504  1.00  0.00     0.049 A 
ATOM     43  N   UNL A   1      43.329  26.927  27.752  1.00  0.00    -0.248 NA
ATOM     44  C   UNL A   1      41.081  26.398  28.085  1.00  0.00     0.031 C 
ATOM     45  C   UNL A   1      42.479  31.167  28.916  1.00  0.00     0.029 A 
ATOM     46  N   UNL A   1      44.035  29.760  28.148  1.00  0.00    -0.354 N 
ATOM     47  C   UNL A   1      43.129  25.577  27.493  1.00  0.00     0.074 A 
ATOM     48  C   UNL A   1      41.740  25.291  27.778  1.00  0.00     0.031 C 
ATOM     49  C   UNL A   1      43.619  31.864  28.779  1.00  0.00     0.029 A 
ATOM     50  C   UNL A   1      44.673  30.969  28.314  1.00  0.00     0.049 A 
ATOM     51  H   UNL A   1      44.488  28.956  27.805  1.00  0.00     0.167 HD
ATOM     52  C   UNL A   1      44.015  24.661  27.033  1.00  0.00     0.037 A 
ATOM     53  C   UNL A   1      45.965  31.310  28.132  1.00  0.00     0.037 A 
ATOM     54  C   UNL A   1      45.391  24.956  26.727  1.00  0.00     0.049 A 
ATOM     55  C   UNL A   1      46.937  30.264  27.647  1.00  0.00     0.074 A 
ATOM     56  C   UNL A   1      46.362  24.105  26.231  1.00  0.00     0.029 A 
ATOM     57  N   UNL A   1      45.989  26.197  26.883  1.00  0.00    -0.354 N 
ATOM     58  N   UNL A   1      46.719  29.001  27.369  1.00  0.00    -0.248 NA
ATOM     59  C   UNL A   1      48.330  30.690  27.443  1.00  0.00     0.031 C 
ATOM     60  C   UNL A   1      47.558  24.820  26.125  1.00  0.00     0.029 A 
ATOM     61  C   UNL A   1      47.318  26.131  26.500  1.00  0.00     0.049 A 
ATOM     62  H   UNL A   1      45.537  27.006  27.217  1.00  0.00     0.167 HD
ATOM     63  C   UNL A   1      47.934  28.496  26.916  1.00  0.00     0.074 A 
ATOM     64  C   UNL A   1      48.881  29.590  26.952  1.00  0.00     0.031 C 
ATOM     65  C   UNL A   1      48.239  27.240  26.506  1.00  0.00     0.037 A 
BRANCH  52  66
ATOM     66  C   UNL A   1      43.526  23.257  26.805  1.00  0.00     0.058 A 
ATOM     67  C   UNL A   1      43.416  22.722  25.512  1.00  0.00     0.135 A 
ATOM     68  C   UNL A   1      43.237  22.413  27.889  1.00  0.00     0.135 A 
ATOM     69  F   UNL A   1      43.662  23.489  24.439  1.00  0.00    -0.206 F 
ATOM     70  C   UNL A   1      43.027  21.403  25.301  1.00  0.00     0.059 A 
ATOM     71  C   UNL A   1      42.874  21.082  27.704  1.00  0.00     0.059 A 
ATOM     72  F   UNL A   1      43.323  22.875  29.147  1.00  0.00    -0.206 F 
ATOM     73  C   UNL A   1      42.767  20.589  26.405  1.00  0.00     0.060 A 
BRANCH  73  74
ATOM     74  S   UNL A   1      42.306  18.869  26.110  1.00  0.00     0.124 S 
ATOM     75  O   UNL A   1      42.580  18.266  27.411  1.00  0.00    -0.237 OA
ATOM     76  O   UNL A   1      40.896  18.983  25.750  1.00  0.00    -0.237 OA
ATOM     77  O   UNL A   1      43.196  18.458  25.029  1.00  0.00    -0.744 OA
ENDBRANCH  73  74
ENDBRANCH  52  66
BRANCH  53  78
ATOM     78  C   UNL A   1      46.427  32.698  28.409  1.00  0.00     0.058 A 
ATOM     79  C   UNL A   1      46.439  33.675  27.401  1.00  0.00     0.135 A 
ATOM     80  C   UNL A   1      46.907  33.067  29.676  1.00  0.00     0.135 A 
ATOM     81  F   UNL A   1      45.994  33.373  26.171  1.00  0.00    -0.206 F 
ATOM     82  C   UNL A   1      46.950  34.950  27.623  1.00  0.00     0.059 A 
ATOM     83  C   UNL A   1      47.391  34.346  29.933  1.00  0.00     0.059 A 
ATOM     84  F   UNL A   1      46.900  32.180  30.684  1.00  0.00    -0.206 F 
ATOM     85  C   UNL A   1      47.430  35.274  28.893  1.00  0.00     0.060 A 
BRANCH  85  86
ATOM     86  S   UNL A   1      48.097  36.929  29.171  1.00  0.00     0.124 S 
ATOM     87  O   UNL A   1      48.938  36.712  30.342  1.00  0.00    -0.237 OA
ATOM     88  O   UNL A   1      48.798  37.192  27.919  1.00  0.00    -0.237 OA
ATOM     89  O   UNL A   1      46.901  37.738  29.393  1.00  0.00    -0.744 OA
ENDBRANCH  85  86
ENDBRANCH  53  78
BRANCH  65  90
ATOM     90  C   UNL A   1      49.629  26.988  25.990  1.00  0.00     0.058 A 
ATOM     91  C   UNL A   1      50.664  26.543  26.826  1.00  0.00     0.135 A 
ATOM     92  C   UNL A   1      49.906  27.127  24.619  1.00  0.00     0.135 A 
ATOM     93  F   UNL A   1      50.455  26.399  28.145  1.00  0.00    -0.206 F 
ATOM     94  C   UNL A   1      51.931  26.262  26.324  1.00  0.00     0.059 A 
ATOM     95  C   UNL A   1      51.156  26.821  24.092  1.00  0.00     0.059 A 
ATOM     96  F   UNL A   1      48.948  27.540  23.774  1.00  0.00    -0.206 F 
ATOM     97  C   UNL A   1      52.165  26.398  24.955  1.00  0.00     0.060 A 
BRANCH  97  98
ATOM     98  S   UNL A   1      53.799  25.980  24.310  1.00  0.00     0.124 S 
ATOM     99  O   UNL A   1      53.575  26.050  22.870  1.00  0.00    -0.237 OA
ATOM    100  O   UNL A   1      54.634  27.037  24.873  1.00  0.00    -0.237 OA
ATOM    101  O   UNL A   1      54.045  24.644  24.843  1.00  0.00    -0.744 OA
ENDBRANCH  97  98
ENDBRANCH  65  90
ENDBRANCH  39  40
ENDBRANCH  31  34
ENDBRANCH  29  30
ENDBRANCH  28  29
ENDBRANCH  27  28
ENDBRANCH   1  27
TORSDOF 22
ENDMDL
MODEL 3
REMARK VINA RESULT:     -10.2      6.680     12.479
REMARK SMILES C=CCN(CC(=O)NCCCCCCNC(=O)c1ccc(-c2c3nc(c(-c4c(F)cc(S(=O)(=O)[O-])cc4F)c4ccc([nH]4)c(-c4c(F)cc(S(=O)(=O)[O-])cc4F)c4nc(c(-c5c(F)cc(S(=O)(=O)[O-])cc5F)c5ccc2[nH]5)C=C4)C=C3)cc1)C(=O)N1CC[C@@H]([NH+]2CCCCC2)C1
REMARK SMILES IDX 11 1 10 2 9 3 8 4 6 5 7 6 5 8 4 9 3 10 2 11 1 12 84 13 85 14
REMARK SMILES IDX 86 15 87 16 96 17 88 18 89 19 90 20 91 21 95 22 92 24 94 25
REMARK SMILES IDX 93 26 12 27 13 28 14 29 15 30 16 31 17 33 18 34 19 35 83 36
REMARK SMILES IDX 20 37 82 38 21 39 22 40 23 41 76 42 24 43 81 44 75 45 77 46
REMARK SMILES IDX 25 47 80 48 74 49 73 50 26 52 60 53 39 54 59 55 40 56 43 57
REMARK SMILES IDX 58 58 78 59 41 60 42 61 57 63 79 64 44 65 27 66 28 67 37 68
REMARK SMILES IDX 29 69 30 70 36 71 38 72 31 73 32 74 33 75 34 76 35 77 61 78
REMARK SMILES IDX 62 79 71 80 63 81 64 82 70 83 72 84 65 85 66 86 67 87 68 88
REMARK SMILES IDX 69 89 45 90 46 91 55 92 47 93 48 94 54 95 56 96 49 97 50 98
REMARK SMILES IDX 51 99 52 100 53 101
REMARK H PARENT 8 7 90 23 15 32 77 51 43 62
REMARK Flexibility Score: inf
ROOT
ATOM      1  C   UNL A   1      37.693  21.950  25.227  1.00  0.00     0.002 C 
ENDROOT
BRANCH   1   2
ATOM      2  C   UNL A   1      37.067  23.043  26.103  1.00  0.00     0.021 C 
BRANCH   2   3
ATOM      3  C   UNL A   1      35.966  23.868  25.439  1.00  0.00     0.116 C 
BRANCH   3   4
ATOM      4  N   UNL A   1      34.637  23.589  25.918  1.00  0.00    -0.355 N 
ATOM      5  C   UNL A   1      33.540  24.393  25.961  1.00  0.00     0.239 C 
ATOM      6  O   UNL A   1      32.441  23.822  25.994  1.00  0.00    -0.273 OA
ATOM      7  H   UNL A   1      34.501  22.678  26.270  1.00  0.00     0.163 HD
BRANCH   5   8
ATOM      8  C   UNL A   1      33.596  25.945  25.947  1.00  0.00     0.221 C 
BRANCH   8   9
ATOM      9  N   UNL A   1      32.794  26.759  25.009  1.00  0.00    -0.312 N 
BRANCH   9  10
ATOM     10  C   UNL A   1      33.432  27.082  23.735  1.00  0.00     0.149 C 
BRANCH  10  11
ATOM     11  C   UNL A   1      33.676  25.867  22.895  1.00  0.00    -0.013 C 
ATOM     12  C   UNL A   1      32.689  25.235  22.243  1.00  0.00     0.006 C 
ENDBRANCH  10  11
ENDBRANCH   9  10
BRANCH   9  13
ATOM     13  C   UNL A   1      31.427  27.034  25.124  1.00  0.00     0.320 C 
ATOM     14  O   UNL A   1      30.740  26.585  26.043  1.00  0.00    -0.248 OA
BRANCH  13  15
ATOM     15  N   UNL A   1      30.846  27.866  24.205  1.00  0.00    -0.318 N 
ATOM     16  C   UNL A   1      29.975  27.459  23.154  1.00  0.00     0.128 C 
ATOM     17  C   UNL A   1      30.612  29.300  24.424  1.00  0.00     0.186 C 
ATOM     18  C   UNL A   1      30.116  28.588  22.174  1.00  0.00     0.088 C 
ATOM     19  C   UNL A   1      29.980  29.822  23.072  1.00  0.00     0.205 C 
BRANCH  19  20
ATOM     20  N   UNL A   1      28.628  30.424  23.140  1.00  0.00    -0.331 N 
ATOM     21  C   UNL A   1      27.714  30.229  22.011  1.00  0.00     0.262 C 
ATOM     22  C   UNL A   1      28.607  31.828  23.576  1.00  0.00     0.262 C 
ATOM     23  H   UNL A   1      28.238  29.834  23.875  1.00  0.00     0.348 HD
ATOM     24  C   UNL A   1      27.906  31.184  20.824  1.00  0.00     0.062 C 
ATOM     25  C   UNL A   1      28.871  32.871  22.486  1.00  0.00     0.062 C 
ATOM     26  C   UNL A   1      28.040  32.647  21.226  1.00  0.00     0.012 C 
ENDBRANCH  19  20
ENDBRANCH  13  15
ENDBRANCH   9  13
ENDBRANCH   8   9
ENDBRANCH   5   8
ENDBRANCH   3   4
ENDBRANCH   2   3
ENDBRANCH   1   2
BRANCH   1  27
ATOM     27  C   UNL A   1      39.200  21.727  25.399  1.00  0.00     0.002 C 
BRANCH  27  28
ATOM     28  C   UNL A   1      39.728  21.818  26.832  1.00  0.00     0.021 C 
BRANCH  28  29
ATOM     29  C   UNL A   1      40.138  23.215  27.280  1.00  0.00     0.116 C 
BRANCH  29  30
ATOM     30  N   UNL A   1      40.697  23.996  26.188  1.00  0.00    -0.352 N 
ATOM     31  C   UNL A   1      40.974  25.340  26.139  1.00  0.00     0.251 C 
ATOM     32  H   UNL A   1      40.907  23.491  25.370  1.00  0.00     0.163 HD
ATOM     33  O   UNL A   1      41.255  25.870  25.063  1.00  0.00    -0.269 OA
BRANCH  31  34
ATOM     34  C   UNL A   1      40.916  26.153  27.374  1.00  0.00     0.039 A 
ATOM     35  C   UNL A   1      41.859  27.165  27.570  1.00  0.00     0.014 A 
ATOM     36  C   UNL A   1      39.932  25.917  28.337  1.00  0.00     0.014 A 
ATOM     37  C   UNL A   1      41.778  27.979  28.703  1.00  0.00     0.010 A 
ATOM     38  C   UNL A   1      39.805  26.776  29.425  1.00  0.00     0.010 A 
ATOM     39  C   UNL A   1      40.730  27.813  29.625  1.00  0.00    -0.014 A 
BRANCH  39  40
ATOM     40  C   UNL A   1      40.590  28.692  30.816  1.00  0.00     0.031 A 
ATOM     41  C   UNL A   1      39.569  29.800  30.809  1.00  0.00     0.074 A 
ATOM     42  C   UNL A   1      41.419  28.541  31.869  1.00  0.00     0.049 A 
ATOM     43  N   UNL A   1      39.372  30.748  31.689  1.00  0.00    -0.248 NA
ATOM     44  C   UNL A   1      38.667  29.866  29.647  1.00  0.00     0.031 C 
ATOM     45  C   UNL A   1      42.470  27.527  31.982  1.00  0.00     0.029 A 
ATOM     46  N   UNL A   1      41.521  29.251  33.040  1.00  0.00    -0.354 N 
ATOM     47  C   UNL A   1      38.334  31.522  31.186  1.00  0.00     0.074 A 
ATOM     48  C   UNL A   1      37.981  30.972  29.895  1.00  0.00     0.031 C 
ATOM     49  C   UNL A   1      43.101  27.674  33.159  1.00  0.00     0.029 A 
ATOM     50  C   UNL A   1      42.533  28.818  33.866  1.00  0.00     0.049 A 
ATOM     51  H   UNL A   1      40.925  30.001  33.268  1.00  0.00     0.167 HD
ATOM     52  C   UNL A   1      37.710  32.579  31.758  1.00  0.00     0.037 A 
ATOM     53  C   UNL A   1      42.968  29.300  35.047  1.00  0.00     0.037 A 
ATOM     54  C   UNL A   1      38.048  33.107  33.055  1.00  0.00     0.049 A 
ATOM     55  C   UNL A   1      42.275  30.497  35.649  1.00  0.00     0.074 A 
ATOM     56  C   UNL A   1      37.458  34.158  33.734  1.00  0.00     0.029 A 
ATOM     57  N   UNL A   1      39.059  32.622  33.869  1.00  0.00    -0.354 N 
ATOM     58  N   UNL A   1      41.268  31.191  35.175  1.00  0.00    -0.248 NA
ATOM     59  C   UNL A   1      42.770  30.973  36.949  1.00  0.00     0.031 C 
ATOM     60  C   UNL A   1      38.139  34.336  34.941  1.00  0.00     0.029 A 
ATOM     61  C   UNL A   1      39.115  33.359  35.041  1.00  0.00     0.049 A 
ATOM     62  H   UNL A   1      39.651  31.867  33.648  1.00  0.00     0.167 HD
ATOM     63  C   UNL A   1      40.982  32.153  36.139  1.00  0.00     0.074 A 
ATOM     64  C   UNL A   1      41.919  31.949  37.223  1.00  0.00     0.031 C 
ATOM     65  C   UNL A   1      40.030  33.119  36.127  1.00  0.00     0.037 A 
BRANCH  52  66
ATOM     66  C   UNL A   1      36.580  33.226  31.004  1.00  0.00     0.058 A 
ATOM     67  C   UNL A   1      35.247  33.086  31.422  1.00  0.00     0.135 A 
ATOM     68  C   UNL A   1      36.836  34.054  29.900  1.00  0.00     0.135 A 
ATOM     69  F   UNL A   1      34.943  32.291  32.460  1.00  0.00    -0.206 F 
ATOM     70  C   UNL A   1      34.207  33.735  30.766  1.00  0.00     0.059 A 
ATOM     71  C   UNL A   1      35.815  34.738  29.246  1.00  0.00     0.059 A 
ATOM     72  F   UNL A   1      38.092  34.221  29.456  1.00  0.00    -0.206 F 
ATOM     73  C   UNL A   1      34.503  34.567  29.684  1.00  0.00     0.060 A 
BRANCH  73  74
ATOM     74  S   UNL A   1      33.143  35.435  28.874  1.00  0.00     0.124 S 
ATOM     75  O   UNL A   1      33.860  36.448  28.106  1.00  0.00    -0.237 OA
ATOM     76  O   UNL A   1      32.519  34.372  28.092  1.00  0.00    -0.237 OA
ATOM     77  O   UNL A   1      32.349  35.939  29.989  1.00  0.00    -0.744 OA
ENDBRANCH  73  74
ENDBRANCH  52  66
BRANCH  53  78
ATOM     78  C   UNL A   1      44.118  28.665  35.748  1.00  0.00     0.058 A 
ATOM     79  C   UNL A   1      45.442  29.003  35.424  1.00  0.00     0.135 A 
ATOM     80  C   UNL A   1      43.921  27.676  36.724  1.00  0.00     0.135 A 
ATOM     81  F   UNL A   1      45.685  29.940  34.495  1.00  0.00    -0.206 F 
ATOM     82  C   UNL A   1      46.526  28.355  36.008  1.00  0.00     0.059 A 
ATOM     83  C   UNL A   1      44.989  27.037  37.348  1.00  0.00     0.059 A 
ATOM     84  F   UNL A   1      42.677  27.327  37.089  1.00  0.00    -0.206 F 
ATOM     85  C   UNL A   1      46.288  27.368  36.966  1.00  0.00     0.060 A 
BRANCH  85  86
ATOM     86  S   UNL A   1      47.700  26.527  37.714  1.00  0.00     0.124 S 
ATOM     87  O   UNL A   1      47.119  26.023  38.952  1.00  0.00    -0.237 OA
ATOM     88  O   UNL A   1      48.030  25.525  36.706  1.00  0.00    -0.237 OA
ATOM     89  O   UNL A   1      48.683  27.597  37.868  1.00  0.00    -0.744 OA
ENDBRANCH  85  86
ENDBRANCH  53  78
BRANCH  65  90
ATOM     90  C   UNL A   1      39.895  33.985  37.350  1.00  0.00     0.058 A 
ATOM     91  C   UNL A   1      40.724  35.095  37.572  1.00  0.00     0.135 A 
ATOM     92  C   UNL A   1      38.868  33.738  38.277  1.00  0.00     0.135 A 
ATOM     93  F   UNL A   1      41.724  35.373  36.720  1.00  0.00    -0.206 F 
ATOM     94  C   UNL A   1      40.551  35.919  38.679  1.00  0.00     0.059 A 
ATOM     95  C   UNL A   1      38.658  34.566  39.374  1.00  0.00     0.059 A 
ATOM     96  F   UNL A   1      38.040  32.694  38.107  1.00  0.00    -0.206 F 
ATOM     97  C   UNL A   1      39.511  35.650  39.571  1.00  0.00     0.060 A 
BRANCH  97  98
ATOM     98  S   UNL A   1      39.268  36.758  40.975  1.00  0.00     0.124 S 
ATOM     99  O   UNL A   1      38.572  35.889  41.919  1.00  0.00    -0.237 OA
ATOM    100  O   UNL A   1      40.638  37.113  41.332  1.00  0.00    -0.237 OA
ATOM    101  O   UNL A   1      38.469  37.845  40.418  1.00  0.00    -0.744 OA
ENDBRANCH  97  98
ENDBRANCH  65  90
ENDBRANCH  39  40
ENDBRANCH  31  34
ENDBRANCH  29  30
ENDBRANCH  28  29
ENDBRANCH  27  28
ENDBRANCH   1  27
TORSDOF 22
ENDMDL
