MODEL 1
REMARK VINA RESULT:     -10.0      0.000      0.000
REMARK SMILES NS(=O)(=O)c1ccc(-n2nc(NC(=O)NCCCCCCCCCCC(=O)NCCCCCCNC(=O)c3ccc(-c4c5nc(c(-c6c(F)cc(S(=O)(=O)[O-])cc6F)c6ccc([nH]6)c(-c6c(F)cc(S(=O)(=O)[O-])cc6F)c6nc(c(-c7c(F)cc(S(=O)(=O)[O-])cc7F)c7ccc4[nH]7)C=C6)C=C5)cc3)cc2-c2ccccc2)cc1
REMARK SMILES IDX 24 1 23 2 22 3 21 4 20 5 19 6 18 7 17 8 16 9 15 10 12 11
REMARK SMILES IDX 13 12 14 14 11 16 9 17 10 18 105 19 104 20 8 21 5 22 6 23
REMARK SMILES IDX 113 24 7 25 112 26 2 27 3 28 4 29 1 30 106 33 107 34 111 35
REMARK SMILES IDX 108 36 110 37 109 38 25 39 26 40 27 41 28 42 29 44 30 45
REMARK SMILES IDX 31 46 32 47 33 48 34 49 35 50 36 51 37 53 38 54 39 55 103 56
REMARK SMILES IDX 40 57 102 58 41 59 42 60 43 61 96 62 44 63 101 64 95 65
REMARK SMILES IDX 97 66 45 67 100 68 94 69 93 70 46 72 80 73 59 74 79 75 60 76
REMARK SMILES IDX 63 77 78 78 98 79 61 80 62 81 77 83 99 84 64 85 47 86 48 87
REMARK SMILES IDX 57 88 49 89 50 90 56 91 58 92 51 93 52 94 53 95 54 96 55 97
REMARK SMILES IDX 81 98 82 99 91 100 83 101 84 102 90 103 92 104 85 105 86 106
REMARK SMILES IDX 87 107 88 108 89 109 65 110 66 111 75 112 67 113 68 114
REMARK SMILES IDX 74 115 76 116 69 117 70 118 71 119 72 120 73 121
REMARK H PARENT 12 13 15 15 1 31 1 32 28 43 35 52 97 71 63 82
REMARK Flexibility Score: inf
ROOT
ATOM      1  C   UNL A   1      31.716  28.401  24.836  1.00  0.00     0.010 C 
ENDROOT
BRANCH   1   2
ATOM      2  C   UNL A   1      32.619  29.403  25.553  1.00  0.00     0.001 C 
BRANCH   2   3
ATOM      3  C   UNL A   1      33.270  28.872  26.837  1.00  0.00     0.000 C 
BRANCH   3   4
ATOM      4  C   UNL A   1      34.222  29.856  27.489  1.00  0.00     0.000 C 
BRANCH   4   5
ATOM      5  C   UNL A   1      35.686  29.435  27.425  1.00  0.00     0.000 C 
BRANCH   5   6
ATOM      6  C   UNL A   1      36.619  30.002  28.502  1.00  0.00     0.000 C 
BRANCH   6   7
ATOM      7  C   UNL A   1      37.816  29.133  28.904  1.00  0.00     0.002 C 
BRANCH   7   8
ATOM      8  C   UNL A   1      37.830  28.600  30.337  1.00  0.00     0.021 C 
BRANCH   8   9
ATOM      9  C   UNL A   1      39.144  28.735  31.090  1.00  0.00     0.117 C 
BRANCH   9  10
ATOM     10  N   UNL A   1      40.311  28.989  30.289  1.00  0.00    -0.338 N 
ATOM     11  N   UNL A   1      40.326  31.377  30.251  1.00  0.00    -0.291 N 
ATOM     12  C   UNL A   1      40.838  30.173  29.904  1.00  0.00     0.320 C 
ATOM     13  H   UNL A   1      40.616  32.114  29.665  1.00  0.00     0.173 HD
ATOM     14  O   UNL A   1      41.762  30.128  29.085  1.00  0.00    -0.248 OA
ATOM     15  H   UNL A   1      40.794  28.188  29.979  1.00  0.00     0.165 HD
BRANCH  11  16
ATOM     16  C   UNL A   1      39.478  31.776  31.264  1.00  0.00     0.157 A 
ATOM     17  N   UNL A   1      37.801  32.615  32.266  1.00  0.00    -0.231 N 
ATOM     18  N   UNL A   1      38.159  31.940  31.159  1.00  0.00    -0.149 NA
ATOM     19  C   UNL A   1      38.790  32.569  33.238  1.00  0.00     0.076 A 
ATOM     20  C   UNL A   1      39.895  32.041  32.592  1.00  0.00     0.078 A 
BRANCH  17  21
ATOM     21  C   UNL A   1      36.580  33.346  32.287  1.00  0.00     0.065 A 
ATOM     22  C   UNL A   1      34.213  34.813  32.350  1.00  0.00     0.082 A 
ATOM     23  C   UNL A   1      34.953  34.754  31.167  1.00  0.00     0.024 A 
ATOM     24  C   UNL A   1      34.627  34.116  33.490  1.00  0.00     0.024 A 
ATOM     25  C   UNL A   1      36.145  34.030  31.140  1.00  0.00     0.030 A 
ATOM     26  C   UNL A   1      35.805  33.365  33.453  1.00  0.00     0.030 A 
BRANCH  22  27
ATOM     27  S   UNL A   1      32.719  35.757  32.383  1.00  0.00     0.238 S 
ATOM     28  O   UNL A   1      31.605  34.908  32.718  1.00  0.00    -0.207 OA
ATOM     29  O   UNL A   1      32.700  36.643  31.237  1.00  0.00    -0.207 OA
BRANCH  27  30
ATOM     30  N   UNL A   1      32.967  36.740  33.723  1.00  0.00    -0.225 NA
ATOM     31  H   UNL A   1      33.715  36.351  34.297  1.00  0.00     0.137 HD
ATOM     32  H   UNL A   1      32.108  36.790  34.272  1.00  0.00     0.137 HD
ENDBRANCH  27  30
ENDBRANCH  22  27
ENDBRANCH  17  21
BRANCH  19  33
ATOM     33  C   UNL A   1      38.574  32.971  34.625  1.00  0.00     0.000 A 
ATOM     34  C   UNL A   1      38.194  32.005  35.570  1.00  0.00     0.010 A 
ATOM     35  C   UNL A   1      38.655  34.310  35.016  1.00  0.00     0.010 A 
ATOM     36  C   UNL A   1      37.853  32.372  36.869  1.00  0.00     0.001 A 
ATOM     37  C   UNL A   1      38.319  34.678  36.323  1.00  0.00     0.001 A 
ATOM     38  C   UNL A   1      37.910  33.712  37.244  1.00  0.00     0.000 A 
ENDBRANCH  19  33
ENDBRANCH  11  16
ENDBRANCH   9  10
ENDBRANCH   8   9
ENDBRANCH   7   8
ENDBRANCH   6   7
ENDBRANCH   5   6
ENDBRANCH   4   5
ENDBRANCH   3   4
ENDBRANCH   2   3
ENDBRANCH   1   2
BRANCH   1  39
ATOM     39  C   UNL A   1      31.757  26.958  25.347  1.00  0.00     0.100 C 
BRANCH  39  40
ATOM     40  C   UNL A   1      32.662  26.023  24.565  1.00  0.00     0.219 C 
ATOM     41  O   UNL A   1      33.276  26.423  23.574  1.00  0.00    -0.275 OA
ATOM     42  N   UNL A   1      32.859  24.734  24.958  1.00  0.00    -0.356 N 
ATOM     43  H   UNL A   1      33.486  24.223  24.395  1.00  0.00     0.163 HD
BRANCH  42  44
ATOM     44  C   UNL A   1      32.298  23.988  26.069  1.00  0.00     0.116 C 
BRANCH  44  45
ATOM     45  C   UNL A   1      33.013  22.646  26.261  1.00  0.00     0.021 C 
BRANCH  45  46
ATOM     46  C   UNL A   1      34.313  22.737  27.062  1.00  0.00     0.002 C 
BRANCH  46  47
ATOM     47  C   UNL A   1      35.598  22.536  26.247  1.00  0.00     0.002 C 
BRANCH  47  48
ATOM     48  C   UNL A   1      36.361  23.814  25.863  1.00  0.00     0.021 C 
BRANCH  48  49
ATOM     49  C   UNL A   1      37.869  23.718  26.063  1.00  0.00     0.116 C 
BRANCH  49  50
ATOM     50  N   UNL A   1      38.300  22.335  26.247  1.00  0.00    -0.352 N 
ATOM     51  C   UNL A   1      39.568  21.831  26.403  1.00  0.00     0.251 C 
ATOM     52  H   UNL A   1      37.575  21.668  26.262  1.00  0.00     0.163 HD
ATOM     53  O   UNL A   1      39.776  20.636  26.210  1.00  0.00    -0.269 OA
BRANCH  51  54
ATOM     54  C   UNL A   1      40.676  22.724  26.787  1.00  0.00     0.039 A 
ATOM     55  C   UNL A   1      40.434  23.803  27.645  1.00  0.00     0.014 A 
ATOM     56  C   UNL A   1      41.953  22.503  26.271  1.00  0.00     0.014 A 
ATOM     57  C   UNL A   1      41.498  24.609  28.041  1.00  0.00     0.010 A 
ATOM     58  C   UNL A   1      43.020  23.240  26.734  1.00  0.00     0.010 A 
ATOM     59  C   UNL A   1      42.794  24.309  27.599  1.00  0.00    -0.014 A 
BRANCH  59  60
ATOM     60  C   UNL A   1      43.941  25.014  28.169  1.00  0.00     0.031 A 
ATOM     61  C   UNL A   1      44.098  24.844  29.643  1.00  0.00     0.074 A 
ATOM     62  C   UNL A   1      44.913  25.570  27.416  1.00  0.00     0.049 A 
ATOM     63  N   UNL A   1      44.041  25.758  30.555  1.00  0.00    -0.248 NA
ATOM     64  C   UNL A   1      44.193  23.478  30.184  1.00  0.00     0.031 C 
ATOM     65  C   UNL A   1      45.044  25.550  25.957  1.00  0.00     0.029 A 
ATOM     66  N   UNL A   1      46.072  26.167  27.810  1.00  0.00    -0.354 N 
ATOM     67  C   UNL A   1      44.311  25.119  31.764  1.00  0.00     0.074 A 
ATOM     68  C   UNL A   1      44.210  23.708  31.499  1.00  0.00     0.031 C 
ATOM     69  C   UNL A   1      46.307  25.886  25.615  1.00  0.00     0.029 A 
ATOM     70  C   UNL A   1      47.033  26.277  26.810  1.00  0.00     0.049 A 
ATOM     71  H   UNL A   1      46.216  26.495  28.727  1.00  0.00     0.167 HD
ATOM     72  C   UNL A   1      44.814  25.801  32.832  1.00  0.00     0.037 A 
ATOM     73  C   UNL A   1      48.340  26.621  26.963  1.00  0.00     0.037 A 
ATOM     74  C   UNL A   1      44.678  27.225  32.642  1.00  0.00     0.049 A 
ATOM     75  C   UNL A   1      48.449  27.322  28.271  1.00  0.00     0.074 A 
ATOM     76  C   UNL A   1      43.608  28.072  32.416  1.00  0.00     0.029 A 
ATOM     77  N   UNL A   1      45.800  27.932  32.281  1.00  0.00    -0.354 N 
ATOM     78  N   UNL A   1      47.934  28.498  28.506  1.00  0.00    -0.248 NA
ATOM     79  C   UNL A   1      48.734  26.522  29.454  1.00  0.00     0.031 C 
ATOM     80  C   UNL A   1      44.091  29.027  31.476  1.00  0.00     0.029 A 
ATOM     81  C   UNL A   1      45.442  28.760  31.248  1.00  0.00     0.049 A 
ATOM     82  H   UNL A   1      46.694  27.858  32.688  1.00  0.00     0.167 HD
ATOM     83  C   UNL A   1      47.420  28.405  29.791  1.00  0.00     0.074 A 
ATOM     84  C   UNL A   1      48.031  27.206  30.361  1.00  0.00     0.031 C 
ATOM     85  C   UNL A   1      46.329  29.135  30.171  1.00  0.00     0.037 A 
BRANCH  72  86
ATOM     86  C   UNL A   1      45.742  25.224  33.879  1.00  0.00     0.058 A 
ATOM     87  C   UNL A   1      47.088  24.960  33.537  1.00  0.00     0.135 A 
ATOM     88  C   UNL A   1      45.308  24.660  35.099  1.00  0.00     0.135 A 
ATOM     89  F   UNL A   1      47.613  25.444  32.400  1.00  0.00    -0.206 F 
ATOM     90  C   UNL A   1      47.906  24.124  34.299  1.00  0.00     0.059 A 
ATOM     91  C   UNL A   1      46.128  23.876  35.905  1.00  0.00     0.059 A 
ATOM     92  F   UNL A   1      44.041  24.746  35.516  1.00  0.00    -0.206 F 
ATOM     93  C   UNL A   1      47.409  23.571  35.474  1.00  0.00     0.060 A 
BRANCH  93  94
ATOM     94  S   UNL A   1      48.420  22.400  36.396  1.00  0.00     0.124 S 
ATOM     95  O   UNL A   1      47.457  21.339  36.672  1.00  0.00    -0.237 OA
ATOM     96  O   UNL A   1      49.468  22.075  35.434  1.00  0.00    -0.237 OA
ATOM     97  O   UNL A   1      48.861  23.169  37.556  1.00  0.00    -0.744 OA
ENDBRANCH  93  94
ENDBRANCH  72  86
BRANCH  73  98
ATOM     98  C   UNL A   1      49.533  26.174  26.189  1.00  0.00     0.058 A 
ATOM     99  C   UNL A   1      49.894  26.805  24.982  1.00  0.00     0.135 A 
ATOM    100  C   UNL A   1      50.503  25.312  26.742  1.00  0.00     0.135 A 
ATOM    101  F   UNL A   1      49.044  27.651  24.380  1.00  0.00    -0.206 F 
ATOM    102  C   UNL A   1      51.160  26.650  24.403  1.00  0.00     0.059 A 
ATOM    103  C   UNL A   1      51.763  25.128  26.173  1.00  0.00     0.059 A 
ATOM    104  F   UNL A   1      50.295  24.691  27.912  1.00  0.00    -0.206 F 
ATOM    105  C   UNL A   1      52.100  25.828  25.022  1.00  0.00     0.060 A 
BRANCH 105 106
ATOM    106  S   UNL A   1      53.801  25.796  24.410  1.00  0.00     0.124 S 
ATOM    107  O   UNL A   1      54.247  24.469  24.818  1.00  0.00    -0.237 OA
ATOM    108  O   UNL A   1      53.619  25.994  22.975  1.00  0.00    -0.237 OA
ATOM    109  O   UNL A   1      54.435  26.911  25.110  1.00  0.00    -0.744 OA
ENDBRANCH 105 106
ENDBRANCH  73  98
BRANCH  85 110
ATOM    110  C   UNL A   1      45.868  30.265  29.286  1.00  0.00     0.058 A 
ATOM    111  C   UNL A   1      46.330  31.591  29.377  1.00  0.00     0.135 A 
ATOM    112  C   UNL A   1      45.051  29.947  28.190  1.00  0.00     0.135 A 
ATOM    113  F   UNL A   1      47.200  31.959  30.328  1.00  0.00    -0.206 F 
ATOM    114  C   UNL A   1      45.960  32.564  28.446  1.00  0.00     0.059 A 
ATOM    115  C   UNL A   1      44.700  30.892  27.231  1.00  0.00     0.059 A 
ATOM    116  F   UNL A   1      44.628  28.685  28.009  1.00  0.00    -0.206 F 
ATOM    117  C   UNL A   1      45.146  32.203  27.374  1.00  0.00     0.060 A 
BRANCH 117 118
ATOM    118  S   UNL A   1      44.734  33.441  26.126  1.00  0.00     0.124 S 
ATOM    119  O   UNL A   1      46.049  33.804  25.609  1.00  0.00    -0.237 OA
ATOM    120  O   UNL A   1      43.874  32.697  25.209  1.00  0.00    -0.237 OA
ATOM    121  O   UNL A   1      44.055  34.484  26.891  1.00  0.00    -0.744 OA
ENDBRANCH 117 118
ENDBRANCH  85 110
ENDBRANCH  59  60
ENDBRANCH  51  54
ENDBRANCH  49  50
ENDBRANCH  48  49
ENDBRANCH  47  48
ENDBRANCH  46  47
ENDBRANCH  45  46
ENDBRANCH  44  45
ENDBRANCH  42  44
ENDBRANCH  39  40
ENDBRANCH   1  39
TORSDOF 31
ENDMDL
MODEL 2
REMARK VINA RESULT:      -9.9      1.539      3.465
REMARK SMILES NS(=O)(=O)c1ccc(-n2nc(NC(=O)NCCCCCCCCCCC(=O)NCCCCCCNC(=O)c3ccc(-c4c5nc(c(-c6c(F)cc(S(=O)(=O)[O-])cc6F)c6ccc([nH]6)c(-c6c(F)cc(S(=O)(=O)[O-])cc6F)c6nc(c(-c7c(F)cc(S(=O)(=O)[O-])cc7F)c7ccc4[nH]7)C=C6)C=C5)cc3)cc2-c2ccccc2)cc1
REMARK SMILES IDX 24 1 23 2 22 3 21 4 20 5 19 6 18 7 17 8 16 9 15 10 12 11
REMARK SMILES IDX 13 12 14 14 11 16 9 17 10 18 105 19 104 20 8 21 5 22 6 23
REMARK SMILES IDX 113 24 7 25 112 26 2 27 3 28 4 29 1 30 106 33 107 34 111 35
REMARK SMILES IDX 108 36 110 37 109 38 25 39 26 40 27 41 28 42 29 44 30 45
REMARK SMILES IDX 31 46 32 47 33 48 34 49 35 50 36 51 37 53 38 54 39 55 103 56
REMARK SMILES IDX 40 57 102 58 41 59 42 60 43 61 96 62 44 63 101 64 95 65
REMARK SMILES IDX 97 66 45 67 100 68 94 69 93 70 46 72 80 73 59 74 79 75 60 76
REMARK SMILES IDX 63 77 78 78 98 79 61 80 62 81 77 83 99 84 64 85 47 86 48 87
REMARK SMILES IDX 57 88 49 89 50 90 56 91 58 92 51 93 52 94 53 95 54 96 55 97
REMARK SMILES IDX 81 98 82 99 91 100 83 101 84 102 90 103 92 104 85 105 86 106
REMARK SMILES IDX 87 107 88 108 89 109 65 110 66 111 75 112 67 113 68 114
REMARK SMILES IDX 74 115 76 116 69 117 70 118 71 119 72 120 73 121
REMARK H PARENT 12 13 15 15 1 31 1 32 28 43 35 52 97 71 63 82
REMARK Flexibility Score: inf
ROOT
ATOM      1  C   UNL A   1      31.864  28.186  24.079  1.00  0.00     0.010 C 
ENDROOT
BRANCH   1   2
ATOM      2  C   UNL A   1      31.756  28.573  25.553  1.00  0.00     0.001 C 
BRANCH   2   3
ATOM      3  C   UNL A   1      32.721  27.826  26.483  1.00  0.00     0.000 C 
BRANCH   3   4
ATOM      4  C   UNL A   1      33.758  28.721  27.132  1.00  0.00     0.000 C 
BRANCH   4   5
ATOM      5  C   UNL A   1      33.277  30.148  27.376  1.00  0.00     0.000 C 
BRANCH   5   6
ATOM      6  C   UNL A   1      34.356  31.222  27.559  1.00  0.00     0.000 C 
BRANCH   6   7
ATOM      7  C   UNL A   1      34.017  32.387  28.496  1.00  0.00     0.002 C 
BRANCH   7   8
ATOM      8  C   UNL A   1      34.157  33.797  27.920  1.00  0.00     0.021 C 
BRANCH   8   9
ATOM      9  C   UNL A   1      34.522  34.891  28.910  1.00  0.00     0.117 C 
BRANCH   9  10
ATOM     10  N   UNL A   1      33.425  35.643  29.459  1.00  0.00    -0.338 N 
ATOM     11  N   UNL A   1      33.780  35.321  31.800  1.00  0.00    -0.291 N 
ATOM     12  C   UNL A   1      33.085  35.829  30.755  1.00  0.00     0.320 C 
ATOM     13  H   UNL A   1      33.261  35.277  32.636  1.00  0.00     0.173 HD
ATOM     14  O   UNL A   1      32.005  36.389  30.969  1.00  0.00    -0.248 OA
ATOM     15  H   UNL A   1      32.841  36.082  28.800  1.00  0.00     0.165 HD
BRANCH  11  16
ATOM     16  C   UNL A   1      35.073  34.855  31.925  1.00  0.00     0.157 A 
ATOM     17  N   UNL A   1      36.798  33.631  31.699  1.00  0.00    -0.231 N 
ATOM     18  N   UNL A   1      35.714  34.085  31.044  1.00  0.00    -0.149 NA
ATOM     19  C   UNL A   1      37.053  34.372  32.845  1.00  0.00     0.076 A 
ATOM     20  C   UNL A   1      35.927  35.160  33.012  1.00  0.00     0.078 A 
BRANCH  17  21
ATOM     21  C   UNL A   1      37.460  32.456  31.245  1.00  0.00     0.065 A 
ATOM     22  C   UNL A   1      38.719  30.146  30.329  1.00  0.00     0.082 A 
ATOM     23  C   UNL A   1      39.085  31.385  29.798  1.00  0.00     0.024 A 
ATOM     24  C   UNL A   1      37.756  30.056  31.340  1.00  0.00     0.024 A 
ATOM     25  C   UNL A   1      38.444  32.540  30.247  1.00  0.00     0.030 A 
ATOM     26  C   UNL A   1      37.138  31.218  31.812  1.00  0.00     0.030 A 
BRANCH  22  27
ATOM     27  S   UNL A   1      39.516  28.686  29.732  1.00  0.00     0.238 S 
ATOM     28  O   UNL A   1      38.536  27.763  29.220  1.00  0.00    -0.207 OA
ATOM     29  O   UNL A   1      40.533  28.286  30.682  1.00  0.00    -0.207 OA
BRANCH  27  30
ATOM     30  N   UNL A   1      40.340  29.273  28.391  1.00  0.00    -0.225 NA
ATOM     31  H   UNL A   1      41.008  29.985  28.687  1.00  0.00     0.137 HD
ATOM     32  H   UNL A   1      39.675  29.683  27.735  1.00  0.00     0.137 HD
ENDBRANCH  27  30
ENDBRANCH  22  27
ENDBRANCH  17  21
BRANCH  19  33
ATOM     33  C   UNL A   1      38.302  34.287  33.595  1.00  0.00     0.000 A 
ATOM     34  C   UNL A   1      38.259  34.186  34.995  1.00  0.00     0.010 A 
ATOM     35  C   UNL A   1      39.542  34.387  32.958  1.00  0.00     0.010 A 
ATOM     36  C   UNL A   1      39.428  34.234  35.750  1.00  0.00     0.001 A 
ATOM     37  C   UNL A   1      40.716  34.429  33.717  1.00  0.00     0.001 A 
ATOM     38  C   UNL A   1      40.658  34.362  35.110  1.00  0.00     0.000 A 
ENDBRANCH  19  33
ENDBRANCH  11  16
ENDBRANCH   9  10
ENDBRANCH   8   9
ENDBRANCH   7   8
ENDBRANCH   6   7
ENDBRANCH   5   6
ENDBRANCH   4   5
ENDBRANCH   3   4
ENDBRANCH   2   3
ENDBRANCH   1   2
BRANCH   1  39
ATOM     39  C   UNL A   1      32.029  26.695  23.776  1.00  0.00     0.100 C 
BRANCH  39  40
ATOM     40  C   UNL A   1      33.196  26.346  22.870  1.00  0.00     0.219 C 
ATOM     41  O   UNL A   1      33.700  27.198  22.135  1.00  0.00    -0.275 OA
ATOM     42  N   UNL A   1      33.750  25.102  22.874  1.00  0.00    -0.356 N 
ATOM     43  H   UNL A   1      34.519  24.992  22.268  1.00  0.00     0.163 HD
BRANCH  42  44
ATOM     44  C   UNL A   1      33.396  23.912  23.624  1.00  0.00     0.116 C 
BRANCH  44  45
ATOM     45  C   UNL A   1      34.267  22.716  23.223  1.00  0.00     0.021 C 
BRANCH  45  46
ATOM     46  C   UNL A   1      35.045  22.090  24.382  1.00  0.00     0.002 C 
BRANCH  46  47
ATOM     47  C   UNL A   1      36.535  22.454  24.441  1.00  0.00     0.002 C 
BRANCH  47  48
ATOM     48  C   UNL A   1      36.878  23.789  25.121  1.00  0.00     0.021 C 
BRANCH  48  49
ATOM     49  C   UNL A   1      38.055  23.706  26.086  1.00  0.00     0.116 C 
BRANCH  49  50
ATOM     50  N   UNL A   1      38.529  22.335  26.241  1.00  0.00    -0.352 N 
ATOM     51  C   UNL A   1      39.814  21.865  26.373  1.00  0.00     0.251 C 
ATOM     52  H   UNL A   1      37.824  21.646  26.252  1.00  0.00     0.163 HD
ATOM     53  O   UNL A   1      40.054  20.681  26.157  1.00  0.00    -0.269 OA
BRANCH  51  54
ATOM     54  C   UNL A   1      40.898  22.785  26.760  1.00  0.00     0.039 A 
ATOM     55  C   UNL A   1      40.617  23.893  27.567  1.00  0.00     0.014 A 
ATOM     56  C   UNL A   1      42.194  22.558  26.296  1.00  0.00     0.014 A 
ATOM     57  C   UNL A   1      41.659  24.724  27.967  1.00  0.00     0.010 A 
ATOM     58  C   UNL A   1      43.238  23.323  26.767  1.00  0.00     0.010 A 
ATOM     59  C   UNL A   1      42.973  24.422  27.582  1.00  0.00    -0.014 A 
BRANCH  59  60
ATOM     60  C   UNL A   1      44.092  25.160  28.163  1.00  0.00     0.031 A 
ATOM     61  C   UNL A   1      44.207  25.038  29.646  1.00  0.00     0.074 A 
ATOM     62  C   UNL A   1      45.079  25.707  27.422  1.00  0.00     0.049 A 
ATOM     63  N   UNL A   1      44.111  25.978  30.527  1.00  0.00    -0.248 NA
ATOM     64  C   UNL A   1      44.305  23.690  30.231  1.00  0.00     0.031 C 
ATOM     65  C   UNL A   1      45.253  25.644  25.968  1.00  0.00     0.029 A 
ATOM     66  N   UNL A   1      46.217  26.333  27.831  1.00  0.00    -0.354 N 
ATOM     67  C   UNL A   1      44.354  25.381  31.762  1.00  0.00     0.074 A 
ATOM     68  C   UNL A   1      44.279  23.961  31.538  1.00  0.00     0.031 C 
ATOM     69  C   UNL A   1      46.521  25.988  25.654  1.00  0.00     0.029 A 
ATOM     70  C   UNL A   1      47.207  26.426  26.857  1.00  0.00     0.049 A 
ATOM     71  H   UNL A   1      46.330  26.690  28.742  1.00  0.00     0.167 HD
ATOM     72  C   UNL A   1      44.816  26.102  32.823  1.00  0.00     0.037 A 
ATOM     73  C   UNL A   1      48.503  26.793  27.037  1.00  0.00     0.037 A 
ATOM     74  C   UNL A   1      44.666  27.517  32.585  1.00  0.00     0.049 A 
ATOM     75  C   UNL A   1      48.564  27.535  28.325  1.00  0.00     0.074 A 
ATOM     76  C   UNL A   1      43.593  28.341  32.302  1.00  0.00     0.029 A 
ATOM     77  N   UNL A   1      45.789  28.229  32.235  1.00  0.00    -0.354 N 
ATOM     78  N   UNL A   1      48.027  28.710  28.509  1.00  0.00    -0.248 NA
ATOM     79  C   UNL A   1      48.824  26.775  29.541  1.00  0.00     0.031 C 
ATOM     80  C   UNL A   1      44.091  29.274  31.347  1.00  0.00     0.029 A 
ATOM     81  C   UNL A   1      45.451  29.019  31.167  1.00  0.00     0.049 A 
ATOM     82  H   UNL A   1      46.672  28.180  32.670  1.00  0.00     0.167 HD
ATOM     83  C   UNL A   1      47.476  28.649  29.780  1.00  0.00     0.074 A 
ATOM     84  C   UNL A   1      48.085  27.477  30.405  1.00  0.00     0.031 C 
ATOM     85  C   UNL A   1      46.365  29.374  30.105  1.00  0.00     0.037 A 
BRANCH  72  86
ATOM     86  C   UNL A   1      45.720  25.570  33.914  1.00  0.00     0.058 A 
ATOM     87  C   UNL A   1      46.978  25.030  33.565  1.00  0.00     0.135 A 
ATOM     88  C   UNL A   1      45.298  25.308  35.237  1.00  0.00     0.135 A 
ATOM     89  F   UNL A   1      47.485  25.214  32.334  1.00  0.00    -0.206 F 
ATOM     90  C   UNL A   1      47.712  24.216  34.428  1.00  0.00     0.059 A 
ATOM     91  C   UNL A   1      46.045  24.552  36.134  1.00  0.00     0.059 A 
ATOM     92  F   UNL A   1      44.095  25.676  35.689  1.00  0.00    -0.206 F 
ATOM     93  C   UNL A   1      47.226  23.968  35.707  1.00  0.00     0.060 A 
BRANCH  93  94
ATOM     94  S   UNL A   1      48.111  22.824  36.782  1.00  0.00     0.124 S 
ATOM     95  O   UNL A   1      47.434  21.566  36.487  1.00  0.00    -0.237 OA
ATOM     96  O   UNL A   1      49.481  22.941  36.293  1.00  0.00    -0.237 OA
ATOM     97  O   UNL A   1      47.882  23.365  38.118  1.00  0.00    -0.744 OA
ENDBRANCH  93  94
ENDBRANCH  72  86
BRANCH  73  98
ATOM     98  C   UNL A   1      49.725  26.339  26.313  1.00  0.00     0.058 A 
ATOM     99  C   UNL A   1      50.257  27.091  25.246  1.00  0.00     0.135 A 
ATOM    100  C   UNL A   1      50.557  25.318  26.817  1.00  0.00     0.135 A 
ATOM    101  F   UNL A   1      49.547  28.091  24.703  1.00  0.00    -0.206 F 
ATOM    102  C   UNL A   1      51.556  26.891  24.762  1.00  0.00     0.059 A 
ATOM    103  C   UNL A   1      51.847  25.090  26.338  1.00  0.00     0.059 A 
ATOM    104  F   UNL A   1      50.181  24.567  27.861  1.00  0.00    -0.206 F 
ATOM    105  C   UNL A   1      52.356  25.903  25.335  1.00  0.00     0.060 A 
BRANCH 105 106
ATOM    106  S   UNL A   1      54.101  25.787  24.874  1.00  0.00     0.124 S 
ATOM    107  O   UNL A   1      54.745  26.580  25.915  1.00  0.00    -0.237 OA
ATOM    108  O   UNL A   1      54.341  24.348  24.928  1.00  0.00    -0.237 OA
ATOM    109  O   UNL A   1      54.138  26.368  23.534  1.00  0.00    -0.744 OA
ENDBRANCH 105 106
ENDBRANCH  73  98
BRANCH  85 110
ATOM    110  C   UNL A   1      45.915  30.470  29.173  1.00  0.00     0.058 A 
ATOM    111  C   UNL A   1      46.446  31.772  29.155  1.00  0.00     0.135 A 
ATOM    112  C   UNL A   1      45.027  30.129  28.142  1.00  0.00     0.135 A 
ATOM    113  F   UNL A   1      47.383  32.152  30.035  1.00  0.00    -0.206 F 
ATOM    114  C   UNL A   1      46.077  32.704  28.182  1.00  0.00     0.059 A 
ATOM    115  C   UNL A   1      44.673  31.029  27.142  1.00  0.00     0.059 A 
ATOM    116  F   UNL A   1      44.531  28.882  28.065  1.00  0.00    -0.206 F 
ATOM    117  C   UNL A   1      45.191  32.321  27.177  1.00  0.00     0.060 A 
BRANCH 117 118
ATOM    118  S   UNL A   1      44.776  33.499  25.873  1.00  0.00     0.124 S 
ATOM    119  O   UNL A   1      44.251  32.627  24.829  1.00  0.00    -0.237 OA
ATOM    120  O   UNL A   1      43.800  34.368  26.525  1.00  0.00    -0.237 OA
ATOM    121  O   UNL A   1      46.055  34.136  25.570  1.00  0.00    -0.744 OA
ENDBRANCH 117 118
ENDBRANCH  85 110
ENDBRANCH  59  60
ENDBRANCH  51  54
ENDBRANCH  49  50
ENDBRANCH  48  49
ENDBRANCH  47  48
ENDBRANCH  46  47
ENDBRANCH  45  46
ENDBRANCH  44  45
ENDBRANCH  42  44
ENDBRANCH  39  40
ENDBRANCH   1  39
TORSDOF 31
ENDMDL
MODEL 3
REMARK VINA RESULT:      -9.6      1.882      3.730
REMARK SMILES NS(=O)(=O)c1ccc(-n2nc(NC(=O)NCCCCCCCCCCC(=O)NCCCCCCNC(=O)c3ccc(-c4c5nc(c(-c6c(F)cc(S(=O)(=O)[O-])cc6F)c6ccc([nH]6)c(-c6c(F)cc(S(=O)(=O)[O-])cc6F)c6nc(c(-c7c(F)cc(S(=O)(=O)[O-])cc7F)c7ccc4[nH]7)C=C6)C=C5)cc3)cc2-c2ccccc2)cc1
REMARK SMILES IDX 24 1 23 2 22 3 21 4 20 5 19 6 18 7 17 8 16 9 15 10 12 11
REMARK SMILES IDX 13 12 14 14 11 16 9 17 10 18 105 19 104 20 8 21 5 22 6 23
REMARK SMILES IDX 113 24 7 25 112 26 2 27 3 28 4 29 1 30 106 33 107 34 111 35
REMARK SMILES IDX 108 36 110 37 109 38 25 39 26 40 27 41 28 42 29 44 30 45
REMARK SMILES IDX 31 46 32 47 33 48 34 49 35 50 36 51 37 53 38 54 39 55 103 56
REMARK SMILES IDX 40 57 102 58 41 59 42 60 43 61 96 62 44 63 101 64 95 65
REMARK SMILES IDX 97 66 45 67 100 68 94 69 93 70 46 72 80 73 59 74 79 75 60 76
REMARK SMILES IDX 63 77 78 78 98 79 61 80 62 81 77 83 99 84 64 85 47 86 48 87
REMARK SMILES IDX 57 88 49 89 50 90 56 91 58 92 51 93 52 94 53 95 54 96 55 97
REMARK SMILES IDX 81 98 82 99 91 100 83 101 84 102 90 103 92 104 85 105 86 106
REMARK SMILES IDX 87 107 88 108 89 109 65 110 66 111 75 112 67 113 68 114
REMARK SMILES IDX 74 115 76 116 69 117 70 118 71 119 72 120 73 121
REMARK H PARENT 12 13 15 15 1 31 1 32 28 43 35 52 97 71 63 82
REMARK Flexibility Score: inf
ROOT
ATOM      1  C   UNL A   1      31.511  29.115  26.292  1.00  0.00     0.010 C 
ENDROOT
BRANCH   1   2
ATOM      2  C   UNL A   1      31.913  30.498  25.782  1.00  0.00     0.001 C 
BRANCH   2   3
ATOM      3  C   UNL A   1      31.104  31.658  26.377  1.00  0.00     0.000 C 
BRANCH   3   4
ATOM      4  C   UNL A   1      31.958  32.825  26.835  1.00  0.00     0.000 C 
BRANCH   4   5
ATOM      5  C   UNL A   1      33.205  32.411  27.610  1.00  0.00     0.000 C 
BRANCH   5   6
ATOM      6  C   UNL A   1      34.157  33.533  28.042  1.00  0.00     0.000 C 
BRANCH   6   7
ATOM      7  C   UNL A   1      35.232  33.166  29.072  1.00  0.00     0.002 C 
BRANCH   7   8
ATOM      8  C   UNL A   1      34.803  32.249  30.218  1.00  0.00     0.021 C 
BRANCH   8   9
ATOM      9  C   UNL A   1      34.484  32.932  31.538  1.00  0.00     0.117 C 
BRANCH   9  10
ATOM     10  N   UNL A   1      33.928  34.256  31.451  1.00  0.00    -0.338 N 
ATOM     11  N   UNL A   1      35.492  35.493  32.767  1.00  0.00    -0.291 N 
ATOM     12  C   UNL A   1      34.374  35.404  32.009  1.00  0.00     0.320 C 
ATOM     13  H   UNL A   1      35.518  36.293  33.340  1.00  0.00     0.173 HD
ATOM     14  O   UNL A   1      33.633  36.389  31.916  1.00  0.00    -0.248 OA
ATOM     15  H   UNL A   1      33.109  34.336  30.910  1.00  0.00     0.165 HD
BRANCH  11  16
ATOM     16  C   UNL A   1      36.602  34.684  32.893  1.00  0.00     0.157 A 
ATOM     17  N   UNL A   1      38.105  33.250  32.437  1.00  0.00    -0.231 N 
ATOM     18  N   UNL A   1      37.345  34.215  31.889  1.00  0.00    -0.149 NA
ATOM     19  C   UNL A   1      38.126  33.337  33.822  1.00  0.00     0.076 A 
ATOM     20  C   UNL A   1      37.138  34.256  34.133  1.00  0.00     0.078 A 
BRANCH  17  21
ATOM     21  C   UNL A   1      38.680  32.245  31.610  1.00  0.00     0.065 A 
ATOM     22  C   UNL A   1      39.798  30.304  29.953  1.00  0.00     0.082 A 
ATOM     23  C   UNL A   1      40.636  31.141  30.695  1.00  0.00     0.024 A 
ATOM     24  C   UNL A   1      38.408  30.406  30.061  1.00  0.00     0.024 A 
ATOM     25  C   UNL A   1      40.076  32.121  31.514  1.00  0.00     0.030 A 
ATOM     26  C   UNL A   1      37.847  31.367  30.907  1.00  0.00     0.030 A 
BRANCH  22  27
ATOM     27  S   UNL A   1      40.518  29.085  28.896  1.00  0.00     0.238 S 
ATOM     28  O   UNL A   1      40.601  27.822  29.583  1.00  0.00    -0.207 OA
ATOM     29  O   UNL A   1      41.653  29.670  28.211  1.00  0.00    -0.207 OA
BRANCH  27  30
ATOM     30  N   UNL A   1      39.323  28.897  27.730  1.00  0.00    -0.225 NA
ATOM     31  H   UNL A   1      39.716  29.078  26.807  1.00  0.00     0.137 HD
ATOM     32  H   UNL A   1      38.565  29.556  27.911  1.00  0.00     0.137 HD
ENDBRANCH  27  30
ENDBRANCH  22  27
ENDBRANCH  17  21
BRANCH  19  33
ATOM     33  C   UNL A   1      39.072  32.605  34.659  1.00  0.00     0.000 A 
ATOM     34  C   UNL A   1      40.277  33.222  35.037  1.00  0.00     0.010 A 
ATOM     35  C   UNL A   1      38.845  31.275  35.024  1.00  0.00     0.010 A 
ATOM     36  C   UNL A   1      41.258  32.511  35.723  1.00  0.00     0.001 A 
ATOM     37  C   UNL A   1      39.829  30.564  35.719  1.00  0.00     0.001 A 
ATOM     38  C   UNL A   1      41.035  31.178  36.059  1.00  0.00     0.000 A 
ENDBRANCH  19  33
ENDBRANCH  11  16
ENDBRANCH   9  10
ENDBRANCH   8   9
ENDBRANCH   7   8
ENDBRANCH   6   7
ENDBRANCH   5   6
ENDBRANCH   4   5
ENDBRANCH   3   4
ENDBRANCH   2   3
ENDBRANCH   1   2
BRANCH   1  39
ATOM     39  C   UNL A   1      32.458  28.459  27.301  1.00  0.00     0.100 C 
BRANCH  39  40
ATOM     40  C   UNL A   1      33.872  28.227  26.801  1.00  0.00     0.219 C 
ATOM     41  O   UNL A   1      34.766  29.042  27.039  1.00  0.00    -0.275 OA
ATOM     42  N   UNL A   1      34.207  27.096  26.119  1.00  0.00    -0.356 N 
ATOM     43  H   UNL A   1      35.157  27.035  25.866  1.00  0.00     0.163 HD
BRANCH  42  44
ATOM     44  C   UNL A   1      33.396  25.967  25.705  1.00  0.00     0.116 C 
BRANCH  44  45
ATOM     45  C   UNL A   1      34.251  24.871  25.058  1.00  0.00     0.021 C 
BRANCH  45  46
ATOM     46  C   UNL A   1      34.421  23.618  25.920  1.00  0.00     0.002 C 
BRANCH  46  47
ATOM     47  C   UNL A   1      35.795  22.942  25.823  1.00  0.00     0.002 C 
BRANCH  47  48
ATOM     48  C   UNL A   1      36.937  23.806  25.264  1.00  0.00     0.021 C 
BRANCH  48  49
ATOM     49  C   UNL A   1      38.177  23.839  26.149  1.00  0.00     0.116 C 
BRANCH  49  50
ATOM     50  N   UNL A   1      38.653  22.494  26.460  1.00  0.00    -0.352 N 
ATOM     51  C   UNL A   1      39.934  22.054  26.691  1.00  0.00     0.251 C 
ATOM     52  H   UNL A   1      37.953  21.803  26.510  1.00  0.00     0.163 HD
ATOM     53  O   UNL A   1      40.191  20.857  26.604  1.00  0.00    -0.269 OA
BRANCH  51  54
ATOM     54  C   UNL A   1      40.995  23.018  27.030  1.00  0.00     0.039 A 
ATOM     55  C   UNL A   1      40.680  24.178  27.746  1.00  0.00     0.014 A 
ATOM     56  C   UNL A   1      42.304  22.780  26.609  1.00  0.00     0.014 A 
ATOM     57  C   UNL A   1      41.699  25.055  28.103  1.00  0.00     0.010 A 
ATOM     58  C   UNL A   1      43.326  23.597  27.042  1.00  0.00     0.010 A 
ATOM     59  C   UNL A   1      43.026  24.749  27.767  1.00  0.00    -0.014 A 
BRANCH  59  60
ATOM     60  C   UNL A   1      44.121  25.547  28.313  1.00  0.00     0.031 A 
ATOM     61  C   UNL A   1      44.216  25.526  29.802  1.00  0.00     0.074 A 
ATOM     62  C   UNL A   1      45.108  26.065  27.551  1.00  0.00     0.049 A 
ATOM     63  N   UNL A   1      44.088  26.521  30.617  1.00  0.00    -0.248 NA
ATOM     64  C   UNL A   1      44.333  24.222  30.477  1.00  0.00     0.031 C 
ATOM     65  C   UNL A   1      45.305  25.910  26.107  1.00  0.00     0.029 A 
ATOM     66  N   UNL A   1      46.226  26.741  27.933  1.00  0.00    -0.354 N 
ATOM     67  C   UNL A   1      44.323  26.012  31.893  1.00  0.00     0.074 A 
ATOM     68  C   UNL A   1      44.282  24.579  31.762  1.00  0.00     0.031 C 
ATOM     69  C   UNL A   1      46.570  26.259  25.787  1.00  0.00     0.029 A 
ATOM     70  C   UNL A   1      47.228  26.790  26.968  1.00  0.00     0.049 A 
ATOM     71  H   UNL A   1      46.318  27.160  28.819  1.00  0.00     0.167 HD
ATOM     72  C   UNL A   1      44.755  26.811  32.909  1.00  0.00     0.037 A 
ATOM     73  C   UNL A   1      48.514  27.196  27.141  1.00  0.00     0.037 A 
ATOM     74  C   UNL A   1      44.580  28.204  32.575  1.00  0.00     0.049 A 
ATOM     75  C   UNL A   1      48.541  28.023  28.378  1.00  0.00     0.074 A 
ATOM     76  C   UNL A   1      43.494  28.984  32.223  1.00  0.00     0.029 A 
ATOM     77  N   UNL A   1      45.693  28.915  32.194  1.00  0.00    -0.354 N 
ATOM     78  N   UNL A   1      47.976  29.196  28.476  1.00  0.00    -0.248 NA
ATOM     79  C   UNL A   1      48.797  27.351  29.645  1.00  0.00     0.031 C 
ATOM     80  C   UNL A   1      43.987  29.862  31.216  1.00  0.00     0.029 A 
ATOM     81  C   UNL A   1      45.355  29.626  31.071  1.00  0.00     0.049 A 
ATOM     82  H   UNL A   1      46.570  28.914  32.644  1.00  0.00     0.167 HD
ATOM     83  C   UNL A   1      47.407  29.208  29.740  1.00  0.00     0.074 A 
ATOM     84  C   UNL A   1      48.031  28.092  30.450  1.00  0.00     0.031 C 
ATOM     85  C   UNL A   1      46.277  29.929  30.001  1.00  0.00     0.037 A 
BRANCH  72  86
ATOM     86  C   UNL A   1      45.653  26.373  34.046  1.00  0.00     0.058 A 
ATOM     87  C   UNL A   1      45.291  26.694  35.373  1.00  0.00     0.135 A 
ATOM     88  C   UNL A   1      46.977  25.910  33.878  1.00  0.00     0.135 A 
ATOM     89  F   UNL A   1      44.057  27.145  35.657  1.00  0.00    -0.206 F 
ATOM     90  C   UNL A   1      46.199  26.649  36.432  1.00  0.00     0.059 A 
ATOM     91  C   UNL A   1      47.880  25.797  34.931  1.00  0.00     0.059 A 
ATOM     92  F   UNL A   1      47.496  25.651  32.673  1.00  0.00    -0.206 F 
ATOM     93  C   UNL A   1      47.499  26.216  36.195  1.00  0.00     0.060 A 
BRANCH  93  94
ATOM     94  S   UNL A   1      48.705  26.269  37.532  1.00  0.00     0.124 S 
ATOM     95  O   UNL A   1      49.268  27.604  37.363  1.00  0.00    -0.237 OA
ATOM     96  O   UNL A   1      47.866  26.076  38.710  1.00  0.00    -0.237 OA
ATOM     97  O   UNL A   1      49.605  25.161  37.225  1.00  0.00    -0.744 OA
ENDBRANCH  93  94
ENDBRANCH  72  86
BRANCH  73  98
ATOM     98  C   UNL A   1      49.756  26.722  26.466  1.00  0.00     0.058 A 
ATOM     99  C   UNL A   1      50.526  27.592  25.669  1.00  0.00     0.135 A 
ATOM    100  C   UNL A   1      50.368  25.497  26.801  1.00  0.00     0.135 A 
ATOM    101  F   UNL A   1      50.036  28.786  25.303  1.00  0.00    -0.206 F 
ATOM    102  C   UNL A   1      51.843  27.298  25.293  1.00  0.00     0.059 A 
ATOM    103  C   UNL A   1      51.672  25.175  26.423  1.00  0.00     0.059 A 
ATOM    104  F   UNL A   1      49.755  24.606  27.593  1.00  0.00    -0.206 F 
ATOM    105  C   UNL A   1      52.418  26.096  25.699  1.00  0.00     0.060 A 
BRANCH 105 106
ATOM    106  S   UNL A   1      54.180  25.806  25.413  1.00  0.00     0.124 S 
ATOM    107  O   UNL A   1      54.162  24.592  24.604  1.00  0.00    -0.237 OA
ATOM    108  O   UNL A   1      54.588  27.026  24.724  1.00  0.00    -0.237 OA
ATOM    109  O   UNL A   1      54.722  25.650  26.762  1.00  0.00    -0.744 OA
ENDBRANCH 105 106
ENDBRANCH  73  98
BRANCH  85 110
ATOM    110  C   UNL A   1      45.819  30.950  28.992  1.00  0.00     0.058 A 
ATOM    111  C   UNL A   1      46.275  32.280  28.937  1.00  0.00     0.135 A 
ATOM    112  C   UNL A   1      45.012  30.508  27.932  1.00  0.00     0.135 A 
ATOM    113  F   UNL A   1      47.136  32.756  29.847  1.00  0.00    -0.206 F 
ATOM    114  C   UNL A   1      45.909  33.141  27.900  1.00  0.00     0.059 A 
ATOM    115  C   UNL A   1      44.665  31.338  26.870  1.00  0.00     0.059 A 
ATOM    116  F   UNL A   1      44.595  29.232  27.891  1.00  0.00    -0.206 F 
ATOM    117  C   UNL A   1      45.105  32.659  26.869  1.00  0.00     0.060 A 
BRANCH 117 118
ATOM    118  S   UNL A   1      44.699  33.747  25.487  1.00  0.00     0.124 S 
ATOM    119  O   UNL A   1      45.976  34.402  25.228  1.00  0.00    -0.237 OA
ATOM    120  O   UNL A   1      44.247  32.808  24.462  1.00  0.00    -0.237 OA
ATOM    121  O   UNL A   1      43.653  34.610  26.029  1.00  0.00    -0.744 OA
ENDBRANCH 117 118
ENDBRANCH  85 110
ENDBRANCH  59  60
ENDBRANCH  51  54
ENDBRANCH  49  50
ENDBRANCH  48  49
ENDBRANCH  47  48
ENDBRANCH  46  47
ENDBRANCH  45  46
ENDBRANCH  44  45
ENDBRANCH  42  44
ENDBRANCH  39  40
ENDBRANCH   1  39
TORSDOF 31
ENDMDL
