MODEL 1
REMARK VINA RESULT:     -12.3      0.000      0.000
REMARK SMILES O=C(NCCCCCCNC(=O)c1cnccc1C(=O)N1CCC(Cc2ccccc2)CC1)c1ccc(-c2c3nc(c(-c4c(F)cc(S(=O)(=O)[O-])cc4F)c4ccc([nH]4)c(-c4c(F)cc(S(=O)(=O)[O-])cc4F)c4nc(c(-c5c(F)cc(S(=O)(=O)[O-])cc5F)c5ccc2[nH]5)C=C4)C=C3)cc1
REMARK SMILES IDX 6 1 5 2 4 3 3 4 1 5 2 6 34 8 35 9 99 10 36 11 98 12 37 13
REMARK SMILES IDX 38 14 39 15 92 16 40 17 97 18 91 19 93 20 41 21 96 22 90 23
REMARK SMILES IDX 89 24 42 26 76 27 55 28 75 29 56 30 59 31 74 32 94 33 57 34
REMARK SMILES IDX 58 35 73 37 95 38 60 39 43 40 44 41 53 42 45 43 46 44 52 45
REMARK SMILES IDX 54 46 47 47 48 48 49 49 50 50 51 51 77 52 78 53 87 54 79 55
REMARK SMILES IDX 80 56 86 57 88 58 81 59 82 60 83 61 84 62 85 63 61 64 62 65
REMARK SMILES IDX 71 66 63 67 64 68 70 69 72 70 65 71 66 72 67 73 68 74 69 75
REMARK SMILES IDX 7 76 8 77 9 78 10 79 11 80 12 82 13 83 14 84 18 85 15 86
REMARK SMILES IDX 17 87 16 88 19 89 20 90 21 91 22 92 33 93 23 94 32 95 24 96
REMARK SMILES IDX 25 97 26 98 27 99 31 100 28 101 30 102 29 103
REMARK H PARENT 3 7 93 25 59 36 10 81
REMARK Flexibility Score: inf
ROOT
ATOM      1  C   UNL A   1      34.575  32.112  28.343  1.00  0.00     0.002 C 
ENDROOT
BRANCH   1   2
ATOM      2  C   UNL A   1      35.818  33.003  28.355  1.00  0.00     0.021 C 
BRANCH   2   3
ATOM      3  C   UNL A   1      36.663  32.919  29.621  1.00  0.00     0.116 C 
BRANCH   3   4
ATOM      4  N   UNL A   1      36.173  31.918  30.552  1.00  0.00    -0.352 N 
ATOM      5  O   UNL A   1      36.092  29.932  31.602  1.00  0.00    -0.269 OA
ATOM      6  C   UNL A   1      36.733  30.718  30.915  1.00  0.00     0.251 C 
ATOM      7  H   UNL A   1      35.314  32.129  30.985  1.00  0.00     0.163 HD
BRANCH   6   8
ATOM      8  C   UNL A   1      38.099  30.368  30.464  1.00  0.00     0.039 A 
ATOM      9  C   UNL A   1      39.147  30.209  31.377  1.00  0.00     0.014 A 
ATOM     10  C   UNL A   1      38.319  30.154  29.100  1.00  0.00     0.014 A 
ATOM     11  C   UNL A   1      40.432  29.930  30.920  1.00  0.00     0.010 A 
ATOM     12  C   UNL A   1      39.595  29.815  28.648  1.00  0.00     0.010 A 
ATOM     13  C   UNL A   1      40.664  29.715  29.553  1.00  0.00    -0.014 A 
BRANCH  13  14
ATOM     14  C   UNL A   1      42.011  29.317  29.075  1.00  0.00     0.031 A 
ATOM     15  C   UNL A   1      43.107  30.332  28.933  1.00  0.00     0.074 A 
ATOM     16  C   UNL A   1      42.222  28.034  28.723  1.00  0.00     0.049 A 
ATOM     17  N   UNL A   1      44.310  30.183  28.444  1.00  0.00    -0.248 NA
ATOM     18  C   UNL A   1      42.807  31.697  29.391  1.00  0.00     0.031 C 
ATOM     19  C   UNL A   1      41.223  26.966  28.806  1.00  0.00     0.029 A 
ATOM     20  N   UNL A   1      43.332  27.414  28.208  1.00  0.00    -0.354 N 
ATOM     21  C   UNL A   1      44.905  31.437  28.508  1.00  0.00     0.074 A 
ATOM     22  C   UNL A   1      43.921  32.339  29.070  1.00  0.00     0.031 C 
ATOM     23  C   UNL A   1      41.764  25.824  28.356  1.00  0.00     0.029 A 
ATOM     24  C   UNL A   1      43.126  26.090  27.904  1.00  0.00     0.049 A 
ATOM     25  H   UNL A   1      44.192  27.872  28.071  1.00  0.00     0.167 HD
ATOM     26  C   UNL A   1      46.155  31.799  28.131  1.00  0.00     0.037 A 
ATOM     27  C   UNL A   1      43.925  25.196  27.293  1.00  0.00     0.037 A 
ATOM     28  C   UNL A   1      47.124  30.886  27.579  1.00  0.00     0.049 A 
ATOM     29  C   UNL A   1      45.302  25.616  26.871  1.00  0.00     0.074 A 
ATOM     30  C   UNL A   1      48.433  31.140  27.208  1.00  0.00     0.029 A 
ATOM     31  N   UNL A   1      46.884  29.546  27.305  1.00  0.00    -0.354 N 
ATOM     32  N   UNL A   1      45.867  26.796  26.979  1.00  0.00    -0.248 NA
ATOM     33  C   UNL A   1      46.151  24.595  26.245  1.00  0.00     0.031 C 
ATOM     34  C   UNL A   1      48.971  29.964  26.671  1.00  0.00     0.029 A 
ATOM     35  C   UNL A   1      48.012  28.965  26.749  1.00  0.00     0.049 A 
ATOM     36  H   UNL A   1      46.036  29.077  27.480  1.00  0.00     0.167 HD
ATOM     37  C   UNL A   1      47.144  26.655  26.453  1.00  0.00     0.074 A 
ATOM     38  C   UNL A   1      47.271  25.275  26.028  1.00  0.00     0.031 C 
ATOM     39  C   UNL A   1      48.122  27.586  26.337  1.00  0.00     0.037 A 
BRANCH  26  40
ATOM     40  C   UNL A   1      46.528  33.248  28.271  1.00  0.00     0.058 A 
ATOM     41  C   UNL A   1      47.149  33.747  29.427  1.00  0.00     0.135 A 
ATOM     42  C   UNL A   1      46.254  34.155  27.233  1.00  0.00     0.135 A 
ATOM     43  F   UNL A   1      47.425  32.927  30.454  1.00  0.00    -0.206 F 
ATOM     44  C   UNL A   1      47.442  35.101  29.570  1.00  0.00     0.059 A 
ATOM     45  C   UNL A   1      46.562  35.508  27.344  1.00  0.00     0.059 A 
ATOM     46  F   UNL A   1      45.668  33.732  26.103  1.00  0.00    -0.206 F 
ATOM     47  C   UNL A   1      47.132  35.976  28.527  1.00  0.00     0.060 A 
BRANCH  47  48
ATOM     48  S   UNL A   1      47.469  37.737  28.743  1.00  0.00     0.124 S 
ATOM     49  O   UNL A   1      48.120  37.747  30.049  1.00  0.00    -0.237 OA
ATOM     50  O   UNL A   1      48.332  38.035  27.604  1.00  0.00    -0.237 OA
ATOM     51  O   UNL A   1      46.143  38.344  28.697  1.00  0.00    -0.744 OA
ENDBRANCH  47  48
ENDBRANCH  26  40
BRANCH  27  52
ATOM     52  C   UNL A   1      43.412  23.824  27.050  1.00  0.00     0.058 A 
ATOM     53  C   UNL A   1      43.272  22.907  28.099  1.00  0.00     0.135 A 
ATOM     54  C   UNL A   1      42.949  23.444  25.778  1.00  0.00     0.135 A 
ATOM     55  F   UNL A   1      43.702  23.225  29.329  1.00  0.00    -0.206 F 
ATOM     56  C   UNL A   1      42.676  21.665  27.903  1.00  0.00     0.059 A 
ATOM     57  C   UNL A   1      42.332  22.217  25.562  1.00  0.00     0.059 A 
ATOM     58  F   UNL A   1      43.044  24.297  24.746  1.00  0.00    -0.206 F 
ATOM     59  C   UNL A   1      42.197  21.335  26.633  1.00  0.00     0.060 A 
BRANCH  59  60
ATOM     60  S   UNL A   1      41.322  19.769  26.416  1.00  0.00     0.124 S 
ATOM     61  O   UNL A   1      41.495  19.153  27.726  1.00  0.00    -0.237 OA
ATOM     62  O   UNL A   1      39.970  20.215  26.093  1.00  0.00    -0.237 OA
ATOM     63  O   UNL A   1      42.042  19.133  25.317  1.00  0.00    -0.744 OA
ENDBRANCH  59  60
ENDBRANCH  27  52
BRANCH  39  64
ATOM     64  C   UNL A   1      49.435  27.147  25.754  1.00  0.00     0.058 A 
ATOM     65  C   UNL A   1      49.705  27.262  24.383  1.00  0.00     0.135 A 
ATOM     66  C   UNL A   1      50.466  26.697  26.594  1.00  0.00     0.135 A 
ATOM     67  F   UNL A   1      48.747  27.677  23.537  1.00  0.00    -0.206 F 
ATOM     68  C   UNL A   1      50.957  26.951  23.863  1.00  0.00     0.059 A 
ATOM     69  C   UNL A   1      51.731  26.399  26.099  1.00  0.00     0.059 A 
ATOM     70  F   UNL A   1      50.256  26.574  27.915  1.00  0.00    -0.206 F 
ATOM     71  C   UNL A   1      51.966  26.530  24.731  1.00  0.00     0.060 A 
BRANCH  71  72
ATOM     72  S   UNL A   1      53.611  26.207  24.058  1.00  0.00     0.124 S 
ATOM     73  O   UNL A   1      54.322  27.431  24.416  1.00  0.00    -0.237 OA
ATOM     74  O   UNL A   1      54.015  25.005  24.780  1.00  0.00    -0.237 OA
ATOM     75  O   UNL A   1      53.364  26.020  22.631  1.00  0.00    -0.744 OA
ENDBRANCH  71  72
ENDBRANCH  39  64
ENDBRANCH  13  14
ENDBRANCH   6   8
ENDBRANCH   3   4
ENDBRANCH   2   3
ENDBRANCH   1   2
BRANCH   1  76
ATOM     76  C   UNL A   1      34.692  30.798  27.569  1.00  0.00     0.002 C 
BRANCH  76  77
ATOM     77  C   UNL A   1      33.404  30.003  27.301  1.00  0.00     0.021 C 
BRANCH  77  78
ATOM     78  C   UNL A   1      32.883  29.960  25.863  1.00  0.00     0.116 C 
BRANCH  78  79
ATOM     79  N   UNL A   1      33.647  29.075  25.006  1.00  0.00    -0.352 N 
ATOM     80  C   UNL A   1      33.212  28.106  24.144  1.00  0.00     0.253 C 
ATOM     81  H   UNL A   1      34.624  29.188  25.050  1.00  0.00     0.163 HD
ATOM     82  O   UNL A   1      34.023  27.419  23.531  1.00  0.00    -0.269 OA
BRANCH  80  83
ATOM     83  C   UNL A   1      31.790  27.815  23.960  1.00  0.00     0.070 A 
ATOM     84  C   UNL A   1      31.194  28.464  22.882  1.00  0.00     0.125 A 
ATOM     85  C   UNL A   1      30.988  27.000  24.757  1.00  0.00     0.055 A 
ATOM     86  N   UNL A   1      29.899  28.312  22.514  1.00  0.00    -0.264 NA
ATOM     87  C   UNL A   1      29.643  26.827  24.386  1.00  0.00     0.035 A 
ATOM     88  C   UNL A   1      29.154  27.481  23.269  1.00  0.00     0.112 A 
BRANCH  85  89
ATOM     89  C   UNL A   1      31.474  26.078  25.805  1.00  0.00     0.254 C 
ATOM     90  O   UNL A   1      31.278  26.482  26.956  1.00  0.00    -0.269 OA
ATOM     91  N   UNL A   1      32.035  24.824  25.561  1.00  0.00    -0.339 N 
ATOM     92  C   UNL A   1      31.840  23.857  26.636  1.00  0.00     0.120 C 
ATOM     93  C   UNL A   1      32.521  24.303  24.279  1.00  0.00     0.120 C 
ATOM     94  C   UNL A   1      32.905  22.791  26.757  1.00  0.00     0.025 C 
ATOM     95  C   UNL A   1      33.620  23.239  24.433  1.00  0.00     0.025 C 
ATOM     96  C   UNL A   1      33.166  22.131  25.401  1.00  0.00    -0.003 C 
BRANCH  96  97
ATOM     97  C   UNL A   1      34.190  20.987  25.521  1.00  0.00     0.039 C 
BRANCH  97  98
ATOM     98  C   UNL A   1      33.831  19.801  24.647  1.00  0.00    -0.048 A 
ATOM     99  C   UNL A   1      34.641  18.656  24.635  1.00  0.00     0.004 A 
ATOM    100  C   UNL A   1      32.648  19.798  23.893  1.00  0.00     0.004 A 
ATOM    101  C   UNL A   1      34.269  17.529  23.899  1.00  0.00     0.000 A 
ATOM    102  C   UNL A   1      32.281  18.671  23.152  1.00  0.00     0.000 A 
ATOM    103  C   UNL A   1      33.090  17.536  23.159  1.00  0.00     0.000 A 
ENDBRANCH  97  98
ENDBRANCH  96  97
ENDBRANCH  85  89
ENDBRANCH  80  83
ENDBRANCH  78  79
ENDBRANCH  77  78
ENDBRANCH  76  77
ENDBRANCH   1  76
TORSDOF 19
ENDMDL
MODEL 2
REMARK VINA RESULT:     -12.3      1.083      2.034
REMARK SMILES O=C(NCCCCCCNC(=O)c1cnccc1C(=O)N1CCC(Cc2ccccc2)CC1)c1ccc(-c2c3nc(c(-c4c(F)cc(S(=O)(=O)[O-])cc4F)c4ccc([nH]4)c(-c4c(F)cc(S(=O)(=O)[O-])cc4F)c4nc(c(-c5c(F)cc(S(=O)(=O)[O-])cc5F)c5ccc2[nH]5)C=C4)C=C3)cc1
REMARK SMILES IDX 6 1 5 2 4 3 3 4 1 5 2 6 34 8 35 9 99 10 36 11 98 12 37 13
REMARK SMILES IDX 38 14 39 15 92 16 40 17 97 18 91 19 93 20 41 21 96 22 90 23
REMARK SMILES IDX 89 24 42 26 76 27 55 28 75 29 56 30 59 31 74 32 94 33 57 34
REMARK SMILES IDX 58 35 73 37 95 38 60 39 43 40 44 41 53 42 45 43 46 44 52 45
REMARK SMILES IDX 54 46 47 47 48 48 49 49 50 50 51 51 77 52 78 53 87 54 79 55
REMARK SMILES IDX 80 56 86 57 88 58 81 59 82 60 83 61 84 62 85 63 61 64 62 65
REMARK SMILES IDX 71 66 63 67 64 68 70 69 72 70 65 71 66 72 67 73 68 74 69 75
REMARK SMILES IDX 7 76 8 77 9 78 10 79 11 80 12 82 13 83 14 84 18 85 15 86
REMARK SMILES IDX 17 87 16 88 19 89 20 90 21 91 22 92 33 93 23 94 32 95 24 96
REMARK SMILES IDX 25 97 26 98 27 99 31 100 28 101 30 102 29 103
REMARK H PARENT 3 7 93 25 59 36 10 81
REMARK Flexibility Score: inf
ROOT
ATOM      1  C   UNL A   1      34.920  29.674  27.465  1.00  0.00     0.002 C 
ENDROOT
BRANCH   1   2
ATOM      2  C   UNL A   1      34.733  31.179  27.660  1.00  0.00     0.021 C 
BRANCH   2   3
ATOM      3  C   UNL A   1      35.753  31.845  28.577  1.00  0.00     0.116 C 
BRANCH   3   4
ATOM      4  N   UNL A   1      35.569  31.481  29.971  1.00  0.00    -0.352 N 
ATOM      5  O   UNL A   1      35.968  30.388  31.894  1.00  0.00    -0.269 OA
ATOM      6  C   UNL A   1      36.369  30.717  30.784  1.00  0.00     0.251 C 
ATOM      7  H   UNL A   1      34.752  31.831  30.394  1.00  0.00     0.163 HD
BRANCH   6   8
ATOM      8  C   UNL A   1      37.702  30.277  30.315  1.00  0.00     0.039 A 
ATOM      9  C   UNL A   1      38.007  30.214  28.951  1.00  0.00     0.014 A 
ATOM     10  C   UNL A   1      38.677  29.963  31.266  1.00  0.00     0.014 A 
ATOM     11  C   UNL A   1      39.252  29.748  28.537  1.00  0.00     0.010 A 
ATOM     12  C   UNL A   1      39.945  29.553  30.851  1.00  0.00     0.010 A 
ATOM     13  C   UNL A   1      40.237  29.428  29.483  1.00  0.00    -0.014 A 
BRANCH  13  14
ATOM     14  C   UNL A   1      41.597  29.029  29.045  1.00  0.00     0.031 A 
ATOM     15  C   UNL A   1      42.698  30.043  28.942  1.00  0.00     0.074 A 
ATOM     16  C   UNL A   1      41.816  27.747  28.693  1.00  0.00     0.049 A 
ATOM     17  N   UNL A   1      43.916  29.894  28.489  1.00  0.00    -0.248 NA
ATOM     18  C   UNL A   1      42.387  31.406  29.397  1.00  0.00     0.031 C 
ATOM     19  C   UNL A   1      40.813  26.681  28.740  1.00  0.00     0.029 A 
ATOM     20  N   UNL A   1      42.940  27.128  28.210  1.00  0.00    -0.354 N 
ATOM     21  C   UNL A   1      44.511  31.147  28.576  1.00  0.00     0.074 A 
ATOM     22  C   UNL A   1      43.511  32.048  29.113  1.00  0.00     0.031 C 
ATOM     23  C   UNL A   1      41.365  25.540  28.302  1.00  0.00     0.029 A 
ATOM     24  C   UNL A   1      42.741  25.806  27.893  1.00  0.00     0.049 A 
ATOM     25  H   UNL A   1      43.805  27.585  28.101  1.00  0.00     0.167 HD
ATOM     26  C   UNL A   1      45.773  31.508  28.240  1.00  0.00     0.037 A 
ATOM     27  C   UNL A   1      43.558  24.913  27.302  1.00  0.00     0.037 A 
ATOM     28  C   UNL A   1      46.756  30.596  27.713  1.00  0.00     0.049 A 
ATOM     29  C   UNL A   1      44.947  25.333  26.924  1.00  0.00     0.074 A 
ATOM     30  C   UNL A   1      48.076  30.849  27.384  1.00  0.00     0.029 A 
ATOM     31  N   UNL A   1      46.522  29.258  27.425  1.00  0.00    -0.354 N 
ATOM     32  N   UNL A   1      45.510  26.511  27.056  1.00  0.00    -0.248 NA
ATOM     33  C   UNL A   1      45.813  24.313  26.320  1.00  0.00     0.031 C 
ATOM     34  C   UNL A   1      48.628  29.675  26.858  1.00  0.00     0.029 A 
ATOM     35  C   UNL A   1      47.665  28.678  26.901  1.00  0.00     0.049 A 
ATOM     36  H   UNL A   1      45.668  28.789  27.572  1.00  0.00     0.167 HD
ATOM     37  C   UNL A   1      46.803  26.370  26.568  1.00  0.00     0.074 A 
ATOM     38  C   UNL A   1      46.940  24.992  26.141  1.00  0.00     0.031 C 
ATOM     39  C   UNL A   1      47.786  27.300  26.486  1.00  0.00     0.037 A 
BRANCH  26  40
ATOM     40  C   UNL A   1      46.143  32.956  28.398  1.00  0.00     0.058 A 
ATOM     41  C   UNL A   1      45.981  33.883  27.356  1.00  0.00     0.135 A 
ATOM     42  C   UNL A   1      46.674  33.424  29.612  1.00  0.00     0.135 A 
ATOM     43  F   UNL A   1      45.488  33.489  26.171  1.00  0.00    -0.206 F 
ATOM     44  C   UNL A   1      46.377  35.210  27.494  1.00  0.00     0.059 A 
ATOM     45  C   UNL A   1      47.052  34.753  29.782  1.00  0.00     0.059 A 
ATOM     46  F   UNL A   1      46.844  32.583  30.645  1.00  0.00    -0.206 F 
ATOM     47  C   UNL A   1      46.924  35.632  28.707  1.00  0.00     0.060 A 
BRANCH  47  48
ATOM     48  S   UNL A   1      47.481  37.344  28.860  1.00  0.00     0.124 S 
ATOM     49  O   UNL A   1      46.318  37.969  29.484  1.00  0.00    -0.237 OA
ATOM     50  O   UNL A   1      48.662  37.217  29.708  1.00  0.00    -0.237 OA
ATOM     51  O   UNL A   1      47.743  37.740  27.480  1.00  0.00    -0.744 OA
ENDBRANCH  47  48
ENDBRANCH  26  40
BRANCH  27  52
ATOM     52  C   UNL A   1      43.050  23.543  27.037  1.00  0.00     0.058 A 
ATOM     53  C   UNL A   1      42.741  23.126  25.736  1.00  0.00     0.135 A 
ATOM     54  C   UNL A   1      42.969  22.594  28.070  1.00  0.00     0.135 A 
ATOM     55  F   UNL A   1      42.802  23.998  24.719  1.00  0.00    -0.206 F 
ATOM     56  C   UNL A   1      42.385  21.808  25.463  1.00  0.00     0.059 A 
ATOM     57  C   UNL A   1      42.635  21.267  27.818  1.00  0.00     0.059 A 
ATOM     58  F   UNL A   1      43.273  22.943  29.329  1.00  0.00    -0.206 F 
ATOM     59  C   UNL A   1      42.348  20.884  26.508  1.00  0.00     0.060 A 
BRANCH  59  60
ATOM     60  S   UNL A   1      41.998  19.154  26.125  1.00  0.00     0.124 S 
ATOM     61  O   UNL A   1      42.927  18.902  25.030  1.00  0.00    -0.237 OA
ATOM     62  O   UNL A   1      42.305  18.491  27.389  1.00  0.00    -0.237 OA
ATOM     63  O   UNL A   1      40.584  19.170  25.763  1.00  0.00    -0.744 OA
ENDBRANCH  59  60
ENDBRANCH  27  52
BRANCH  39  64
ATOM     64  C   UNL A   1      49.115  26.862  25.942  1.00  0.00     0.058 A 
ATOM     65  C   UNL A   1      49.474  27.093  24.606  1.00  0.00     0.135 A 
ATOM     66  C   UNL A   1      50.074  26.291  26.793  1.00  0.00     0.135 A 
ATOM     67  F   UNL A   1      48.587  27.626  23.750  1.00  0.00    -0.206 F 
ATOM     68  C   UNL A   1      50.744  26.778  24.133  1.00  0.00     0.059 A 
ATOM     69  C   UNL A   1      51.356  25.986  26.347  1.00  0.00     0.059 A 
ATOM     70  F   UNL A   1      49.778  26.053  28.082  1.00  0.00    -0.206 F 
ATOM     71  C   UNL A   1      51.681  26.234  25.014  1.00  0.00     0.060 A 
BRANCH  71  72
ATOM     72  S   UNL A   1      53.351  25.906  24.410  1.00  0.00     0.124 S 
ATOM     73  O   UNL A   1      54.100  27.012  24.997  1.00  0.00    -0.237 OA
ATOM     74  O   UNL A   1      53.631  24.585  24.966  1.00  0.00    -0.237 OA
ATOM     75  O   UNL A   1      53.202  25.947  22.959  1.00  0.00    -0.744 OA
ENDBRANCH  71  72
ENDBRANCH  39  64
ENDBRANCH  13  14
ENDBRANCH   6   8
ENDBRANCH   3   4
ENDBRANCH   2   3
ENDBRANCH   1   2
BRANCH   1  76
ATOM     76  C   UNL A   1      33.653  28.867  27.175  1.00  0.00     0.002 C 
BRANCH  76  77
ATOM     77  C   UNL A   1      32.321  29.626  27.085  1.00  0.00     0.021 C 
BRANCH  77  78
ATOM     78  C   UNL A   1      31.940  30.235  25.735  1.00  0.00     0.116 C 
BRANCH  78  79
ATOM     79  N   UNL A   1      32.713  29.703  24.631  1.00  0.00    -0.352 N 
ATOM     80  C   UNL A   1      32.295  29.007  23.529  1.00  0.00     0.253 C 
ATOM     81  H   UNL A   1      33.682  29.868  24.679  1.00  0.00     0.163 HD
ATOM     82  O   UNL A   1      33.116  28.593  22.716  1.00  0.00    -0.269 OA
BRANCH  80  83
ATOM     83  C   UNL A   1      30.886  28.682  23.307  1.00  0.00     0.070 A 
ATOM     84  C   UNL A   1      30.238  29.495  22.380  1.00  0.00     0.125 A 
ATOM     85  C   UNL A   1      30.141  27.689  23.939  1.00  0.00     0.055 A 
ATOM     86  N   UNL A   1      28.945  29.349  22.002  1.00  0.00    -0.264 NA
ATOM     87  C   UNL A   1      28.799  27.520  23.554  1.00  0.00     0.035 A 
ATOM     88  C   UNL A   1      28.257  28.351  22.589  1.00  0.00     0.112 A 
BRANCH  85  89
ATOM     89  C   UNL A   1      30.692  26.609  24.785  1.00  0.00     0.254 C 
ATOM     90  O   UNL A   1      30.661  26.857  25.995  1.00  0.00    -0.269 OA
ATOM     91  N   UNL A   1      31.142  25.378  24.307  1.00  0.00    -0.339 N 
ATOM     92  C   UNL A   1      31.018  24.281  25.260  1.00  0.00     0.120 C 
ATOM     93  C   UNL A   1      31.437  25.020  22.915  1.00  0.00     0.120 C 
ATOM     94  C   UNL A   1      32.023  23.162  25.102  1.00  0.00     0.025 C 
ATOM     95  C   UNL A   1      32.479  23.897  22.785  1.00  0.00     0.025 C 
ATOM     96  C   UNL A   1      32.078  22.686  23.648  1.00  0.00    -0.003 C 
BRANCH  96  97
ATOM     97  C   UNL A   1      33.037  21.492  23.483  1.00  0.00     0.039 C 
BRANCH  97  98
ATOM     98  C   UNL A   1      34.438  21.809  23.969  1.00  0.00    -0.048 A 
ATOM     99  C   UNL A   1      34.969  21.147  25.085  1.00  0.00     0.004 A 
ATOM    100  C   UNL A   1      35.252  22.713  23.270  1.00  0.00     0.004 A 
ATOM    101  C   UNL A   1      36.289  21.372  25.485  1.00  0.00     0.000 A 
ATOM    102  C   UNL A   1      36.570  22.941  23.675  1.00  0.00     0.000 A 
ATOM    103  C   UNL A   1      37.089  22.267  24.780  1.00  0.00     0.000 A 
ENDBRANCH  97  98
ENDBRANCH  96  97
ENDBRANCH  85  89
ENDBRANCH  80  83
ENDBRANCH  78  79
ENDBRANCH  77  78
ENDBRANCH  76  77
ENDBRANCH   1  76
TORSDOF 19
ENDMDL
MODEL 3
REMARK VINA RESULT:     -11.9      0.524      8.027
REMARK SMILES O=C(NCCCCCCNC(=O)c1cnccc1C(=O)N1CCC(Cc2ccccc2)CC1)c1ccc(-c2c3nc(c(-c4c(F)cc(S(=O)(=O)[O-])cc4F)c4ccc([nH]4)c(-c4c(F)cc(S(=O)(=O)[O-])cc4F)c4nc(c(-c5c(F)cc(S(=O)(=O)[O-])cc5F)c5ccc2[nH]5)C=C4)C=C3)cc1
REMARK SMILES IDX 6 1 5 2 4 3 3 4 1 5 2 6 34 8 35 9 99 10 36 11 98 12 37 13
REMARK SMILES IDX 38 14 39 15 92 16 40 17 97 18 91 19 93 20 41 21 96 22 90 23
REMARK SMILES IDX 89 24 42 26 76 27 55 28 75 29 56 30 59 31 74 32 94 33 57 34
REMARK SMILES IDX 58 35 73 37 95 38 60 39 43 40 44 41 53 42 45 43 46 44 52 45
REMARK SMILES IDX 54 46 47 47 48 48 49 49 50 50 51 51 77 52 78 53 87 54 79 55
REMARK SMILES IDX 80 56 86 57 88 58 81 59 82 60 83 61 84 62 85 63 61 64 62 65
REMARK SMILES IDX 71 66 63 67 64 68 70 69 72 70 65 71 66 72 67 73 68 74 69 75
REMARK SMILES IDX 7 76 8 77 9 78 10 79 11 80 12 82 13 83 14 84 18 85 15 86
REMARK SMILES IDX 17 87 16 88 19 89 20 90 21 91 22 92 33 93 23 94 32 95 24 96
REMARK SMILES IDX 25 97 26 98 27 99 31 100 28 101 30 102 29 103
REMARK H PARENT 3 7 93 25 59 36 10 81
REMARK Flexibility Score: inf
ROOT
ATOM      1  C   UNL A   1      34.080  31.612  28.008  1.00  0.00     0.002 C 
ENDROOT
BRANCH   1   2
ATOM      2  C   UNL A   1      34.942  32.780  28.489  1.00  0.00     0.021 C 
BRANCH   2   3
ATOM      3  C   UNL A   1      36.241  32.385  29.183  1.00  0.00     0.116 C 
BRANCH   3   4
ATOM      4  N   UNL A   1      36.014  31.625  30.399  1.00  0.00    -0.352 N 
ATOM      5  O   UNL A   1      36.298  29.963  31.885  1.00  0.00    -0.269 OA
ATOM      6  C   UNL A   1      36.735  30.582  30.923  1.00  0.00     0.251 C 
ATOM      7  H   UNL A   1      35.227  31.898  30.925  1.00  0.00     0.163 HD
BRANCH   6   8
ATOM      8  C   UNL A   1      38.029  30.194  30.315  1.00  0.00     0.039 A 
ATOM      9  C   UNL A   1      38.183  30.114  28.927  1.00  0.00     0.014 A 
ATOM     10  C   UNL A   1      39.117  29.948  31.157  1.00  0.00     0.014 A 
ATOM     11  C   UNL A   1      39.396  29.697  28.385  1.00  0.00     0.010 A 
ATOM     12  C   UNL A   1      40.350  29.589  30.610  1.00  0.00     0.010 A 
ATOM     13  C   UNL A   1      40.494  29.446  29.221  1.00  0.00    -0.014 A 
BRANCH  13  14
ATOM     14  C   UNL A   1      41.815  29.101  28.641  1.00  0.00     0.031 A 
ATOM     15  C   UNL A   1      42.111  27.704  28.181  1.00  0.00     0.074 A 
ATOM     16  C   UNL A   1      42.765  30.055  28.576  1.00  0.00     0.049 A 
ATOM     17  N   UNL A   1      43.235  27.203  27.739  1.00  0.00    -0.248 NA
ATOM     18  C   UNL A   1      41.002  26.741  28.237  1.00  0.00     0.031 C 
ATOM     19  C   UNL A   1      42.590  31.443  29.008  1.00  0.00     0.029 A 
ATOM     20  N   UNL A   1      44.066  30.000  28.145  1.00  0.00    -0.354 N 
ATOM     21  C   UNL A   1      42.980  25.860  27.489  1.00  0.00     0.074 A 
ATOM     22  C   UNL A   1      41.596  25.623  27.845  1.00  0.00     0.031 C 
ATOM     23  C   UNL A   1      43.740  32.108  28.822  1.00  0.00     0.029 A 
ATOM     24  C   UNL A   1      44.746  31.182  28.311  1.00  0.00     0.049 A 
ATOM     25  H   UNL A   1      44.471  29.194  27.753  1.00  0.00     0.167 HD
ATOM     26  C   UNL A   1      43.825  24.916  27.007  1.00  0.00     0.037 A 
ATOM     27  C   UNL A   1      46.043  31.483  28.112  1.00  0.00     0.037 A 
ATOM     28  C   UNL A   1      45.198  25.170  26.652  1.00  0.00     0.049 A 
ATOM     29  C   UNL A   1      46.967  30.422  27.591  1.00  0.00     0.074 A 
ATOM     30  C   UNL A   1      46.124  24.296  26.113  1.00  0.00     0.029 A 
ATOM     31  N   UNL A   1      45.845  26.387  26.816  1.00  0.00    -0.354 N 
ATOM     32  N   UNL A   1      46.700  29.167  27.316  1.00  0.00    -0.248 NA
ATOM     33  C   UNL A   1      48.363  30.809  27.353  1.00  0.00     0.031 C 
ATOM     34  C   UNL A   1      47.343  24.973  25.989  1.00  0.00     0.029 A 
ATOM     35  C   UNL A   1      47.165  26.282  26.409  1.00  0.00     0.049 A 
ATOM     36  H   UNL A   1      45.427  27.207  27.169  1.00  0.00     0.167 HD
ATOM     37  C   UNL A   1      47.889  28.618  26.854  1.00  0.00     0.074 A 
ATOM     38  C   UNL A   1      48.877  29.678  26.884  1.00  0.00     0.031 C 
ATOM     39  C   UNL A   1      48.135  27.351  26.440  1.00  0.00     0.037 A 
BRANCH  26  40
ATOM     40  C   UNL A   1      43.293  23.516  26.874  1.00  0.00     0.058 A 
ATOM     41  C   UNL A   1      42.903  22.984  25.634  1.00  0.00     0.135 A 
ATOM     42  C   UNL A   1      43.166  22.694  28.006  1.00  0.00     0.135 A 
ATOM     43  F   UNL A   1      42.993  23.729  24.520  1.00  0.00    -0.206 F 
ATOM     44  C   UNL A   1      42.361  21.706  25.527  1.00  0.00     0.059 A 
ATOM     45  C   UNL A   1      42.652  21.403  27.919  1.00  0.00     0.059 A 
ATOM     46  F   UNL A   1      43.530  23.147  29.215  1.00  0.00    -0.206 F 
ATOM     47  C   UNL A   1      42.228  20.928  26.679  1.00  0.00     0.060 A 
BRANCH  47  48
ATOM     48  S   UNL A   1      41.477  19.291  26.538  1.00  0.00     0.124 S 
ATOM     49  O   UNL A   1      40.319  19.578  25.697  1.00  0.00    -0.237 OA
ATOM     50  O   UNL A   1      42.538  18.511  25.908  1.00  0.00    -0.237 OA
ATOM     51  O   UNL A   1      41.178  18.935  27.921  1.00  0.00    -0.744 OA
ENDBRANCH  47  48
ENDBRANCH  26  40
BRANCH  27  52
ATOM     52  C   UNL A   1      46.517  32.855  28.426  1.00  0.00     0.058 A 
ATOM     53  C   UNL A   1      46.485  33.870  27.461  1.00  0.00     0.135 A 
ATOM     54  C   UNL A   1      46.909  33.199  29.730  1.00  0.00     0.135 A 
ATOM     55  F   UNL A   1      46.119  33.587  26.202  1.00  0.00    -0.206 F 
ATOM     56  C   UNL A   1      46.808  35.185  27.781  1.00  0.00     0.059 A 
ATOM     57  C   UNL A   1      47.216  34.510  30.078  1.00  0.00     0.059 A 
ATOM     58  F   UNL A   1      46.937  32.264  30.693  1.00  0.00    -0.206 F 
ATOM     59  C   UNL A   1      47.159  35.498  29.096  1.00  0.00     0.060 A 
BRANCH  59  60
ATOM     60  S   UNL A   1      47.464  37.225  29.525  1.00  0.00     0.124 S 
ATOM     61  O   UNL A   1      48.375  37.090  30.655  1.00  0.00    -0.237 OA
ATOM     62  O   UNL A   1      48.048  37.749  28.292  1.00  0.00    -0.237 OA
ATOM     63  O   UNL A   1      46.133  37.733  29.842  1.00  0.00    -0.744 OA
ENDBRANCH  59  60
ENDBRANCH  27  52
BRANCH  39  64
ATOM     64  C   UNL A   1      49.520  27.035  25.954  1.00  0.00     0.058 A 
ATOM     65  C   UNL A   1      50.504  26.529  26.816  1.00  0.00     0.135 A 
ATOM     66  C   UNL A   1      49.834  27.150  24.590  1.00  0.00     0.135 A 
ATOM     67  F   UNL A   1      50.255  26.411  28.130  1.00  0.00    -0.206 F 
ATOM     68  C   UNL A   1      51.752  26.140  26.341  1.00  0.00     0.059 A 
ATOM     69  C   UNL A   1      51.069  26.750  24.090  1.00  0.00     0.059 A 
ATOM     70  F   UNL A   1      48.924  27.627  23.725  1.00  0.00    -0.206 F 
ATOM     71  C   UNL A   1      52.021  26.246  24.975  1.00  0.00     0.060 A 
BRANCH  71  72
ATOM     72  S   UNL A   1      53.615  25.663  24.357  1.00  0.00     0.124 S 
ATOM     73  O   UNL A   1      54.548  26.437  25.171  1.00  0.00    -0.237 OA
ATOM     74  O   UNL A   1      53.559  24.233  24.644  1.00  0.00    -0.237 OA
ATOM     75  O   UNL A   1      53.579  26.012  22.940  1.00  0.00    -0.744 OA
ENDBRANCH  71  72
ENDBRANCH  39  64
ENDBRANCH  13  14
ENDBRANCH   6   8
ENDBRANCH   3   4
ENDBRANCH   2   3
ENDBRANCH   1   2
BRANCH   1  76
ATOM     76  C   UNL A   1      34.827  30.339  27.609  1.00  0.00     0.002 C 
BRANCH  76  77
ATOM     77  C   UNL A   1      34.007  29.172  27.036  1.00  0.00     0.021 C 
BRANCH  77  78
ATOM     78  C   UNL A   1      33.313  29.386  25.691  1.00  0.00     0.116 C 
BRANCH  78  79
ATOM     79  N   UNL A   1      33.898  28.607  24.617  1.00  0.00    -0.352 N 
ATOM     80  C   UNL A   1      33.293  27.777  23.713  1.00  0.00     0.253 C 
ATOM     81  H   UNL A   1      34.874  28.687  24.523  1.00  0.00     0.163 HD
ATOM     82  O   UNL A   1      33.970  27.159  22.897  1.00  0.00    -0.269 OA
BRANCH  80  83
ATOM     83  C   UNL A   1      31.847  27.551  23.715  1.00  0.00     0.070 A 
ATOM     84  C   UNL A   1      31.155  28.179  22.682  1.00  0.00     0.125 A 
ATOM     85  C   UNL A   1      31.112  26.818  24.644  1.00  0.00     0.055 A 
ATOM     86  N   UNL A   1      29.820  28.076  22.479  1.00  0.00    -0.264 NA
ATOM     87  C   UNL A   1      29.725  26.697  24.445  1.00  0.00     0.035 A 
ATOM     88  C   UNL A   1      29.135  27.322  23.360  1.00  0.00     0.112 A 
BRANCH  85  89
ATOM     89  C   UNL A   1      31.679  25.923  25.675  1.00  0.00     0.254 C 
ATOM     90  O   UNL A   1      31.577  26.359  26.826  1.00  0.00    -0.269 OA
ATOM     91  N   UNL A   1      32.214  24.660  25.421  1.00  0.00    -0.339 N 
ATOM     92  C   UNL A   1      32.104  23.724  26.536  1.00  0.00     0.120 C 
ATOM     93  C   UNL A   1      32.594  24.101  24.119  1.00  0.00     0.120 C 
ATOM     94  C   UNL A   1      33.173  22.656  26.600  1.00  0.00     0.025 C 
ATOM     95  C   UNL A   1      33.698  23.036  24.214  1.00  0.00     0.025 C 
ATOM     96  C   UNL A   1      33.322  21.958  25.246  1.00  0.00    -0.003 C 
BRANCH  96  97
ATOM     97  C   UNL A   1      34.349  20.812  25.315  1.00  0.00     0.039 C 
BRANCH  97  98
ATOM     98  C   UNL A   1      33.878  19.574  24.577  1.00  0.00    -0.048 A 
ATOM     99  C   UNL A   1      32.692  19.601  23.828  1.00  0.00     0.004 A 
ATOM    100  C   UNL A   1      34.653  18.405  24.571  1.00  0.00     0.004 A 
ATOM    101  C   UNL A   1      32.299  18.491  23.077  1.00  0.00     0.000 A 
ATOM    102  C   UNL A   1      34.254  17.293  23.823  1.00  0.00     0.000 A 
ATOM    103  C   UNL A   1      33.080  17.338  23.074  1.00  0.00     0.000 A 
ENDBRANCH  97  98
ENDBRANCH  96  97
ENDBRANCH  85  89
ENDBRANCH  80  83
ENDBRANCH  78  79
ENDBRANCH  77  78
ENDBRANCH  76  77
ENDBRANCH   1  76
TORSDOF 19
ENDMDL
