MODEL 1
REMARK VINA RESULT:     -10.4      0.000      0.000
REMARK SMILES COc1ccc(/C=C2/SC(=S)N(c3ccc(C(=O)NCCCCCCNC(=O)c4ccc(-c5c6nc(c(-c7c(F)cc(S(=O)(=O)[O-])cc7F)c7ccc([nH]7)c(-c7c(F)cc(S(=O)(=O)[O-])cc7F)c7nc(c(-c8c(F)cc(S(=O)(=O)[O-])cc8F)c8ccc5[nH]8)C=C7)C=C6)cc4)c(O)c3)C2=O)cc1OC
REMARK SMILES IDX 22 1 21 2 20 3 19 4 17 5 18 6 16 8 13 9 14 10 97 11 15 12
REMARK SMILES IDX 95 13 12 14 7 15 8 16 9 17 98 18 10 19 99 20 11 21 6 22 3 23
REMARK SMILES IDX 4 24 101 25 5 26 100 27 2 28 1 29 102 30 103 31 96 32 23 34
REMARK SMILES IDX 24 35 25 36 26 37 27 38 28 40 29 41 30 42 94 43 31 44 93 45
REMARK SMILES IDX 32 46 33 47 34 48 87 49 35 50 92 51 86 52 88 53 36 54 91 55
REMARK SMILES IDX 85 56 84 57 37 59 71 60 50 61 70 62 51 63 54 64 69 65 89 66
REMARK SMILES IDX 52 67 53 68 68 70 90 71 55 72 38 73 39 74 48 75 40 76 41 77
REMARK SMILES IDX 47 78 49 79 42 80 43 81 44 82 45 83 46 84 72 85 73 86 82 87
REMARK SMILES IDX 74 88 75 89 81 90 83 91 76 92 77 93 78 94 79 95 80 96 56 97
REMARK SMILES IDX 57 98 66 99 58 100 59 101 65 102 67 103 60 104 61 105 62 106
REMARK SMILES IDX 63 107 64 108
REMARK H PARENT 19 7 96 33 26 39 88 58 54 69
REMARK Flexibility Score: inf
ROOT
ATOM      1  C   UNL A   1      41.350  22.514  26.855  1.00  0.00     0.002 C 
ENDROOT
BRANCH   1   2
ATOM      2  C   UNL A   1      40.244  23.488  27.276  1.00  0.00     0.021 C 
BRANCH   2   3
ATOM      3  C   UNL A   1      38.913  23.251  26.553  1.00  0.00     0.116 C 
BRANCH   3   4
ATOM      4  N   UNL A   1      38.927  21.948  25.919  1.00  0.00    -0.352 N 
ATOM      5  C   UNL A   1      37.958  21.241  25.259  1.00  0.00     0.255 C 
ATOM      6  O   UNL A   1      38.253  20.103  24.885  1.00  0.00    -0.269 OA
ATOM      7  H   UNL A   1      39.794  21.485  25.972  1.00  0.00     0.163 HD
BRANCH   5   8
ATOM      8  C   UNL A   1      36.626  21.791  24.870  1.00  0.00     0.081 A 
ATOM      9  C   UNL A   1      33.975  22.653  24.387  1.00  0.00     0.054 A 
ATOM     10  C   UNL A   1      34.232  21.703  25.374  1.00  0.00     0.028 A 
ATOM     11  C   UNL A   1      35.043  23.203  23.669  1.00  0.00     0.073 A 
ATOM     12  C   UNL A   1      35.539  21.260  25.591  1.00  0.00     0.020 A 
ATOM     13  C   UNL A   1      36.361  22.809  23.945  1.00  0.00     0.130 A 
BRANCH   9  14
ATOM     14  N   UNL A   1      32.666  23.163  24.203  1.00  0.00    -0.261 N 
ATOM     15  C   UNL A   1      30.483  26.018  24.590  1.00  0.00     0.029 C 
ATOM     16  C   UNL A   1      30.974  24.782  24.418  1.00  0.00     0.081 C 
ATOM     17  S   UNL A   1      30.272  23.623  23.354  1.00  0.00    -0.054 SA
ATOM     18  C   UNL A   1      32.258  24.251  24.965  1.00  0.00     0.270 C 
ATOM     19  C   UNL A   1      31.754  22.662  23.291  1.00  0.00     0.152 C 
ATOM     20  O   UNL A   1      32.828  24.720  25.937  1.00  0.00    -0.268 OA
ATOM     21  S   UNL A   1      31.891  21.328  22.292  1.00  0.00    -0.051 S 
BRANCH  15  22
ATOM     22  C   UNL A   1      31.231  27.091  25.253  1.00  0.00    -0.020 A 
ATOM     23  C   UNL A   1      32.824  29.056  26.463  1.00  0.00     0.160 A 
ATOM     24  C   UNL A   1      31.932  28.287  27.228  1.00  0.00     0.051 A 
ATOM     25  C   UNL A   1      32.924  28.850  25.083  1.00  0.00     0.161 A 
ATOM     26  C   UNL A   1      31.132  27.312  26.625  1.00  0.00     0.012 A 
ATOM     27  C   UNL A   1      32.112  27.874  24.493  1.00  0.00     0.058 A 
BRANCH  23  28
ATOM     28  O   UNL A   1      33.664  29.923  27.110  1.00  0.00    -0.493 OA
ATOM     29  C   UNL A   1      33.059  31.195  27.330  1.00  0.00     0.278 C 
ENDBRANCH  23  28
BRANCH  25  30
ATOM     30  O   UNL A   1      33.740  29.469  24.177  1.00  0.00    -0.493 OA
ATOM     31  C   UNL A   1      33.993  28.824  22.939  1.00  0.00     0.278 C 
ENDBRANCH  25  30
ENDBRANCH  15  22
ENDBRANCH   9  14
BRANCH  13  32
ATOM     32  O   UNL A   1      37.366  23.513  23.345  1.00  0.00    -0.507 OA
ATOM     33  H   UNL A   1      38.127  23.066  23.031  1.00  0.00     0.293 HD
ENDBRANCH  13  32
ENDBRANCH   5   8
ENDBRANCH   3   4
ENDBRANCH   2   3
ENDBRANCH   1   2
BRANCH   1  34
ATOM     34  C   UNL A   1      41.729  21.482  27.922  1.00  0.00     0.002 C 
BRANCH  34  35
ATOM     35  C   UNL A   1      42.002  20.068  27.396  1.00  0.00     0.021 C 
BRANCH  35  36
ATOM     36  C   UNL A   1      41.802  19.892  25.891  1.00  0.00     0.116 C 
BRANCH  36  37
ATOM     37  N   UNL A   1      42.951  19.257  25.268  1.00  0.00    -0.352 N 
ATOM     38  C   UNL A   1      44.107  19.818  24.790  1.00  0.00     0.251 C 
ATOM     39  H   UNL A   1      42.890  18.279  25.175  1.00  0.00     0.163 HD
ATOM     40  O   UNL A   1      44.858  19.148  24.085  1.00  0.00    -0.269 OA
BRANCH  38  41
ATOM     41  C   UNL A   1      44.453  21.221  25.111  1.00  0.00     0.039 A 
ATOM     42  C   UNL A   1      45.154  21.485  26.290  1.00  0.00     0.014 A 
ATOM     43  C   UNL A   1      44.044  22.278  24.290  1.00  0.00     0.014 A 
ATOM     44  C   UNL A   1      45.472  22.802  26.629  1.00  0.00     0.010 A 
ATOM     45  C   UNL A   1      44.414  23.587  24.599  1.00  0.00     0.010 A 
ATOM     46  C   UNL A   1      45.120  23.862  25.780  1.00  0.00    -0.014 A 
BRANCH  46  47
ATOM     47  C   UNL A   1      45.479  25.260  26.130  1.00  0.00     0.031 A 
ATOM     48  C   UNL A   1      44.454  26.187  26.725  1.00  0.00     0.074 A 
ATOM     49  C   UNL A   1      46.730  25.701  25.890  1.00  0.00     0.049 A 
ATOM     50  N   UNL A   1      44.592  27.428  27.115  1.00  0.00    -0.248 NA
ATOM     51  C   UNL A   1      43.089  25.658  26.882  1.00  0.00     0.031 C 
ATOM     52  C   UNL A   1      47.793  24.916  25.258  1.00  0.00     0.029 A 
ATOM     53  N   UNL A   1      47.319  26.912  26.148  1.00  0.00    -0.354 N 
ATOM     54  C   UNL A   1      43.337  27.831  27.556  1.00  0.00     0.074 A 
ATOM     55  C   UNL A   1      42.437  26.719  27.336  1.00  0.00     0.031 C 
ATOM     56  C   UNL A   1      48.913  25.657  25.206  1.00  0.00     0.029 A 
ATOM     57  C   UNL A   1      48.642  26.971  25.781  1.00  0.00     0.049 A 
ATOM     58  H   UNL A   1      46.839  27.667  26.558  1.00  0.00     0.167 HD
ATOM     59  C   UNL A   1      42.971  29.010  28.117  1.00  0.00     0.037 A 
ATOM     60  C   UNL A   1      49.538  27.968  25.906  1.00  0.00     0.037 A 
ATOM     61  C   UNL A   1      43.876  30.105  28.356  1.00  0.00     0.049 A 
ATOM     62  C   UNL A   1      49.121  29.250  26.571  1.00  0.00     0.074 A 
ATOM     63  C   UNL A   1      43.617  31.321  28.965  1.00  0.00     0.029 A 
ATOM     64  N   UNL A   1      45.217  30.115  28.001  1.00  0.00    -0.354 N 
ATOM     65  N   UNL A   1      47.946  29.589  27.042  1.00  0.00    -0.248 NA
ATOM     66  C   UNL A   1      50.158  30.278  26.737  1.00  0.00     0.031 C 
ATOM     67  C   UNL A   1      44.796  32.077  28.953  1.00  0.00     0.029 A 
ATOM     68  C   UNL A   1      45.797  31.318  28.369  1.00  0.00     0.049 A 
ATOM     69  H   UNL A   1      45.688  29.375  27.554  1.00  0.00     0.167 HD
ATOM     70  C   UNL A   1      48.103  30.863  27.576  1.00  0.00     0.074 A 
ATOM     71  C   UNL A   1      49.495  31.224  27.387  1.00  0.00     0.031 C 
ATOM     72  C   UNL A   1      47.182  31.662  28.168  1.00  0.00     0.037 A 
BRANCH  59  73
ATOM     73  C   UNL A   1      41.531  29.167  28.522  1.00  0.00     0.058 A 
ATOM     74  C   UNL A   1      40.512  29.317  27.567  1.00  0.00     0.135 A 
ATOM     75  C   UNL A   1      41.160  29.146  29.876  1.00  0.00     0.135 A 
ATOM     76  F   UNL A   1      40.813  29.360  26.259  1.00  0.00    -0.206 F 
ATOM     77  C   UNL A   1      39.181  29.472  27.940  1.00  0.00     0.059 A 
ATOM     78  C   UNL A   1      39.831  29.273  30.271  1.00  0.00     0.059 A 
ATOM     79  F   UNL A   1      42.094  29.005  30.831  1.00  0.00    -0.206 F 
ATOM     80  C   UNL A   1      38.850  29.452  29.296  1.00  0.00     0.060 A 
BRANCH  80  81
ATOM     81  S   UNL A   1      37.120  29.658  29.767  1.00  0.00     0.124 S 
ATOM     82  O   UNL A   1      37.048  31.099  29.987  1.00  0.00    -0.237 OA
ATOM     83  O   UNL A   1      36.412  29.161  28.591  1.00  0.00    -0.237 OA
ATOM     84  O   UNL A   1      36.994  28.833  30.964  1.00  0.00    -0.744 OA
ENDBRANCH  80  81
ENDBRANCH  59  73
BRANCH  60  85
ATOM     85  C   UNL A   1      50.933  27.770  25.431  1.00  0.00     0.058 A 
ATOM     86  C   UNL A   1      51.941  27.347  26.310  1.00  0.00     0.135 A 
ATOM     87  C   UNL A   1      51.278  27.977  24.088  1.00  0.00     0.135 A 
ATOM     88  F   UNL A   1      51.657  27.141  27.605  1.00  0.00    -0.206 F 
ATOM     89  C   UNL A   1      53.248  27.150  25.878  1.00  0.00     0.059 A 
ATOM     90  C   UNL A   1      52.575  27.765  23.627  1.00  0.00     0.059 A 
ATOM     91  F   UNL A   1      50.344  28.363  23.204  1.00  0.00    -0.206 F 
ATOM     92  C   UNL A   1      53.554  27.361  24.532  1.00  0.00     0.060 A 
BRANCH  92  93
ATOM     93  S   UNL A   1      55.241  27.048  23.966  1.00  0.00     0.124 S 
ATOM     94  O   UNL A   1      55.559  25.807  24.664  1.00  0.00    -0.237 OA
ATOM     95  O   UNL A   1      55.067  26.941  22.521  1.00  0.00    -0.237 OA
ATOM     96  O   UNL A   1      55.967  28.231  24.415  1.00  0.00    -0.744 OA
ENDBRANCH  92  93
ENDBRANCH  60  85
BRANCH  72  97
ATOM     97  C   UNL A   1      47.658  32.997  28.667  1.00  0.00     0.058 A 
ATOM     98  C   UNL A   1      48.153  33.160  29.970  1.00  0.00     0.135 A 
ATOM     99  C   UNL A   1      47.632  34.122  27.829  1.00  0.00     0.135 A 
ATOM    100  F   UNL A   1      48.195  32.115  30.813  1.00  0.00    -0.206 F 
ATOM    101  C   UNL A   1      48.571  34.402  30.438  1.00  0.00     0.059 A 
ATOM    102  C   UNL A   1      48.067  35.369  28.268  1.00  0.00     0.059 A 
ATOM    103  F   UNL A   1      47.178  34.017  26.569  1.00  0.00    -0.206 F 
ATOM    104  C   UNL A   1      48.518  35.502  29.581  1.00  0.00     0.060 A 
BRANCH 104 105
ATOM    105  S   UNL A   1      49.062  37.110  30.195  1.00  0.00     0.124 S 
ATOM    106  O   UNL A   1      49.975  36.720  31.264  1.00  0.00    -0.237 OA
ATOM    107  O   UNL A   1      49.684  37.705  29.016  1.00  0.00    -0.237 OA
ATOM    108  O   UNL A   1      47.820  37.744  30.628  1.00  0.00    -0.744 OA
ENDBRANCH 104 105
ENDBRANCH  72  97
ENDBRANCH  46  47
ENDBRANCH  38  41
ENDBRANCH  36  37
ENDBRANCH  35  36
ENDBRANCH  34  35
ENDBRANCH   1  34
TORSDOF 21
ENDMDL
MODEL 2
REMARK VINA RESULT:     -10.3      0.667      7.798
REMARK SMILES COc1ccc(/C=C2/SC(=S)N(c3ccc(C(=O)NCCCCCCNC(=O)c4ccc(-c5c6nc(c(-c7c(F)cc(S(=O)(=O)[O-])cc7F)c7ccc([nH]7)c(-c7c(F)cc(S(=O)(=O)[O-])cc7F)c7nc(c(-c8c(F)cc(S(=O)(=O)[O-])cc8F)c8ccc5[nH]8)C=C7)C=C6)cc4)c(O)c3)C2=O)cc1OC
REMARK SMILES IDX 22 1 21 2 20 3 19 4 17 5 18 6 16 8 13 9 14 10 97 11 15 12
REMARK SMILES IDX 95 13 12 14 7 15 8 16 9 17 98 18 10 19 99 20 11 21 6 22 3 23
REMARK SMILES IDX 4 24 101 25 5 26 100 27 2 28 1 29 102 30 103 31 96 32 23 34
REMARK SMILES IDX 24 35 25 36 26 37 27 38 28 40 29 41 30 42 94 43 31 44 93 45
REMARK SMILES IDX 32 46 33 47 34 48 87 49 35 50 92 51 86 52 88 53 36 54 91 55
REMARK SMILES IDX 85 56 84 57 37 59 71 60 50 61 70 62 51 63 54 64 69 65 89 66
REMARK SMILES IDX 52 67 53 68 68 70 90 71 55 72 38 73 39 74 48 75 40 76 41 77
REMARK SMILES IDX 47 78 49 79 42 80 43 81 44 82 45 83 46 84 72 85 73 86 82 87
REMARK SMILES IDX 74 88 75 89 81 90 83 91 76 92 77 93 78 94 79 95 80 96 56 97
REMARK SMILES IDX 57 98 66 99 58 100 59 101 65 102 67 103 60 104 61 105 62 106
REMARK SMILES IDX 63 107 64 108
REMARK H PARENT 19 7 96 33 26 39 88 58 54 69
REMARK Flexibility Score: inf
ROOT
ATOM      1  C   UNL A   1      41.301  22.579  27.261  1.00  0.00     0.002 C 
ENDROOT
BRANCH   1   2
ATOM      2  C   UNL A   1      40.023  23.384  27.524  1.00  0.00     0.021 C 
BRANCH   2   3
ATOM      3  C   UNL A   1      39.011  23.318  26.374  1.00  0.00     0.116 C 
BRANCH   3   4
ATOM      4  N   UNL A   1      38.976  21.975  25.832  1.00  0.00    -0.352 N 
ATOM      5  C   UNL A   1      37.969  21.248  25.254  1.00  0.00     0.255 C 
ATOM      6  O   UNL A   1      38.227  20.080  24.950  1.00  0.00    -0.269 OA
ATOM      7  H   UNL A   1      39.834  21.497  25.888  1.00  0.00     0.163 HD
BRANCH   5   8
ATOM      8  C   UNL A   1      36.637  21.802  24.873  1.00  0.00     0.081 A 
ATOM      9  C   UNL A   1      33.989  22.686  24.417  1.00  0.00     0.054 A 
ATOM     10  C   UNL A   1      34.257  21.786  25.447  1.00  0.00     0.028 A 
ATOM     11  C   UNL A   1      35.045  23.176  23.641  1.00  0.00     0.073 A 
ATOM     12  C   UNL A   1      35.562  21.331  25.651  1.00  0.00     0.020 A 
ATOM     13  C   UNL A   1      36.364  22.773  23.902  1.00  0.00     0.130 A 
BRANCH   9  14
ATOM     14  N   UNL A   1      32.683  23.211  24.242  1.00  0.00    -0.261 N 
ATOM     15  C   UNL A   1      30.520  26.071  24.696  1.00  0.00     0.029 C 
ATOM     16  C   UNL A   1      31.003  24.836  24.493  1.00  0.00     0.081 C 
ATOM     17  S   UNL A   1      30.296  23.710  23.397  1.00  0.00    -0.054 SA
ATOM     18  C   UNL A   1      32.281  24.281  25.030  1.00  0.00     0.270 C 
ATOM     19  C   UNL A   1      31.772  22.740  23.314  1.00  0.00     0.152 C 
ATOM     20  O   UNL A   1      32.851  24.721  26.017  1.00  0.00    -0.268 OA
ATOM     21  S   UNL A   1      31.902  21.431  22.282  1.00  0.00    -0.051 S 
BRANCH  15  22
ATOM     22  C   UNL A   1      31.274  27.121  25.388  1.00  0.00    -0.020 A 
ATOM     23  C   UNL A   1      32.876  29.040  26.658  1.00  0.00     0.160 A 
ATOM     24  C   UNL A   1      31.956  28.276  27.394  1.00  0.00     0.051 A 
ATOM     25  C   UNL A   1      33.000  28.851  25.277  1.00  0.00     0.161 A 
ATOM     26  C   UNL A   1      31.151  27.324  26.761  1.00  0.00     0.012 A 
ATOM     27  C   UNL A   1      32.183  27.899  24.657  1.00  0.00     0.058 A 
BRANCH  23  28
ATOM     28  O   UNL A   1      33.719  29.882  27.334  1.00  0.00    -0.493 OA
ATOM     29  C   UNL A   1      33.219  31.216  27.383  1.00  0.00     0.278 C 
ENDBRANCH  23  28
BRANCH  25  30
ATOM     30  O   UNL A   1      33.845  29.468  24.396  1.00  0.00    -0.493 OA
ATOM     31  C   UNL A   1      34.014  28.902  23.106  1.00  0.00     0.278 C 
ENDBRANCH  25  30
ENDBRANCH  15  22
ENDBRANCH   9  14
BRANCH  13  32
ATOM     32  O   UNL A   1      37.363  23.424  23.237  1.00  0.00    -0.507 OA
ATOM     33  H   UNL A   1      37.224  24.296  22.922  1.00  0.00     0.293 HD
ENDBRANCH  13  32
ENDBRANCH   5   8
ENDBRANCH   3   4
ENDBRANCH   2   3
ENDBRANCH   1   2
BRANCH   1  34
ATOM     34  C   UNL A   1      41.507  21.386  28.199  1.00  0.00     0.002 C 
BRANCH  34  35
ATOM     35  C   UNL A   1      41.924  20.080  27.513  1.00  0.00     0.021 C 
BRANCH  35  36
ATOM     36  C   UNL A   1      41.657  20.029  26.010  1.00  0.00     0.116 C 
BRANCH  36  37
ATOM     37  N   UNL A   1      42.788  19.477  25.282  1.00  0.00    -0.352 N 
ATOM     38  C   UNL A   1      43.902  20.106  24.790  1.00  0.00     0.251 C 
ATOM     39  H   UNL A   1      42.747  18.508  25.117  1.00  0.00     0.163 HD
ATOM     40  O   UNL A   1      44.631  19.515  23.999  1.00  0.00    -0.269 OA
BRANCH  38  41
ATOM     41  C   UNL A   1      44.228  21.490  25.201  1.00  0.00     0.039 A 
ATOM     42  C   UNL A   1      44.912  21.689  26.403  1.00  0.00     0.014 A 
ATOM     43  C   UNL A   1      43.816  22.591  24.441  1.00  0.00     0.014 A 
ATOM     44  C   UNL A   1      45.211  22.986  26.826  1.00  0.00     0.010 A 
ATOM     45  C   UNL A   1      44.168  23.883  24.834  1.00  0.00     0.010 A 
ATOM     46  C   UNL A   1      44.857  24.093  26.038  1.00  0.00    -0.014 A 
BRANCH  46  47
ATOM     47  C   UNL A   1      45.197  25.470  26.478  1.00  0.00     0.031 A 
ATOM     48  C   UNL A   1      46.597  25.999  26.324  1.00  0.00     0.074 A 
ATOM     49  C   UNL A   1      44.243  26.238  27.040  1.00  0.00     0.049 A 
ATOM     50  N   UNL A   1      47.071  27.180  26.628  1.00  0.00    -0.248 NA
ATOM     51  C   UNL A   1      47.602  25.073  25.776  1.00  0.00     0.031 C 
ATOM     52  C   UNL A   1      42.865  25.815  27.302  1.00  0.00     0.029 A 
ATOM     53  N   UNL A   1      44.284  27.533  27.491  1.00  0.00    -0.354 N 
ATOM     54  C   UNL A   1      48.425  27.139  26.317  1.00  0.00     0.074 A 
ATOM     55  C   UNL A   1      48.708  25.798  25.850  1.00  0.00     0.031 C 
ATOM     56  C   UNL A   1      42.186  26.842  27.840  1.00  0.00     0.029 A 
ATOM     57  C   UNL A   1      43.082  27.986  27.978  1.00  0.00     0.049 A 
ATOM     58  H   UNL A   1      45.099  28.085  27.467  1.00  0.00     0.167 HD
ATOM     59  C   UNL A   1      49.344  28.132  26.389  1.00  0.00     0.037 A 
ATOM     60  C   UNL A   1      42.737  29.192  28.468  1.00  0.00     0.037 A 
ATOM     61  C   UNL A   1      49.051  29.472  26.831  1.00  0.00     0.049 A 
ATOM     62  C   UNL A   1      43.762  30.291  28.497  1.00  0.00     0.074 A 
ATOM     63  C   UNL A   1      49.899  30.565  26.892  1.00  0.00     0.029 A 
ATOM     64  N   UNL A   1      47.814  29.902  27.285  1.00  0.00    -0.354 N 
ATOM     65  N   UNL A   1      45.022  30.253  28.137  1.00  0.00    -0.248 NA
ATOM     66  C   UNL A   1      43.313  31.603  28.983  1.00  0.00     0.031 C 
ATOM     67  C   UNL A   1      49.179  31.649  27.409  1.00  0.00     0.029 A 
ATOM     68  C   UNL A   1      47.875  31.241  27.636  1.00  0.00     0.049 A 
ATOM     69  H   UNL A   1      47.008  29.339  27.347  1.00  0.00     0.167 HD
ATOM     70  C   UNL A   1      45.514  31.538  28.336  1.00  0.00     0.074 A 
ATOM     71  C   UNL A   1      44.407  32.335  28.829  1.00  0.00     0.031 C 
ATOM     72  C   UNL A   1      46.766  32.016  28.131  1.00  0.00     0.037 A 
BRANCH  59  73
ATOM     73  C   UNL A   1      50.750  27.808  25.965  1.00  0.00     0.058 A 
ATOM     74  C   UNL A   1      51.739  27.467  26.903  1.00  0.00     0.135 A 
ATOM     75  C   UNL A   1      51.111  27.814  24.608  1.00  0.00     0.135 A 
ATOM     76  F   UNL A   1      51.453  27.460  28.214  1.00  0.00    -0.206 F 
ATOM     77  C   UNL A   1      53.043  27.176  26.514  1.00  0.00     0.059 A 
ATOM     78  C   UNL A   1      52.403  27.500  24.194  1.00  0.00     0.059 A 
ATOM     79  F   UNL A   1      50.205  28.132  23.669  1.00  0.00    -0.206 F 
ATOM     80  C   UNL A   1      53.366  27.198  25.156  1.00  0.00     0.060 A 
BRANCH  80  81
ATOM     81  S   UNL A   1      55.062  26.821  24.665  1.00  0.00     0.124 S 
ATOM     82  O   UNL A   1      55.035  25.363  24.620  1.00  0.00    -0.237 OA
ATOM     83  O   UNL A   1      55.171  27.492  23.373  1.00  0.00    -0.237 OA
ATOM     84  O   UNL A   1      55.863  27.403  25.738  1.00  0.00    -0.744 OA
ENDBRANCH  80  81
ENDBRANCH  59  73
BRANCH  60  85
ATOM     85  C   UNL A   1      41.344  29.432  28.926  1.00  0.00     0.058 A 
ATOM     86  C   UNL A   1      41.052  29.603  30.287  1.00  0.00     0.135 A 
ATOM     87  C   UNL A   1      40.283  29.517  28.012  1.00  0.00     0.135 A 
ATOM     88  F   UNL A   1      42.033  29.526  31.198  1.00  0.00    -0.206 F 
ATOM     89  C   UNL A   1      39.754  29.836  30.730  1.00  0.00     0.059 A 
ATOM     90  C   UNL A   1      38.980  29.771  28.428  1.00  0.00     0.059 A 
ATOM     91  F   UNL A   1      40.515  29.379  26.697  1.00  0.00    -0.206 F 
ATOM     92  C   UNL A   1      38.724  29.920  29.791  1.00  0.00     0.060 A 
BRANCH  92  93
ATOM     93  S   UNL A   1      37.050  30.279  30.367  1.00  0.00     0.124 S 
ATOM     94  O   UNL A   1      36.515  28.937  30.567  1.00  0.00    -0.237 OA
ATOM     95  O   UNL A   1      37.300  31.054  31.578  1.00  0.00    -0.237 OA
ATOM     96  O   UNL A   1      36.472  31.033  29.260  1.00  0.00    -0.744 OA
ENDBRANCH  92  93
ENDBRANCH  60  85
BRANCH  72  97
ATOM     97  C   UNL A   1      46.995  33.472  28.425  1.00  0.00     0.058 A 
ATOM     98  C   UNL A   1      47.403  33.909  29.694  1.00  0.00     0.135 A 
ATOM     99  C   UNL A   1      46.818  34.438  27.421  1.00  0.00     0.135 A 
ATOM    100  F   UNL A   1      47.582  33.025  30.688  1.00  0.00    -0.206 F 
ATOM    101  C   UNL A   1      47.592  35.260  29.970  1.00  0.00     0.059 A 
ATOM    102  C   UNL A   1      47.024  35.792  27.669  1.00  0.00     0.059 A 
ATOM    103  F   UNL A   1      46.440  34.070  26.187  1.00  0.00    -0.206 F 
ATOM    104  C   UNL A   1      47.393  36.194  28.952  1.00  0.00     0.060 A 
BRANCH 104 105
ATOM    105  S   UNL A   1      47.640  37.945  29.318  1.00  0.00     0.124 S 
ATOM    106  O   UNL A   1      47.633  38.527  27.981  1.00  0.00    -0.237 OA
ATOM    107  O   UNL A   1      46.484  38.259  30.152  1.00  0.00    -0.237 OA
ATOM    108  O   UNL A   1      48.927  37.967  30.008  1.00  0.00    -0.744 OA
ENDBRANCH 104 105
ENDBRANCH  72  97
ENDBRANCH  46  47
ENDBRANCH  38  41
ENDBRANCH  36  37
ENDBRANCH  35  36
ENDBRANCH  34  35
ENDBRANCH   1  34
TORSDOF 21
ENDMDL
MODEL 3
REMARK VINA RESULT:      -9.7      5.969     10.257
REMARK SMILES COc1ccc(/C=C2/SC(=S)N(c3ccc(C(=O)NCCCCCCNC(=O)c4ccc(-c5c6nc(c(-c7c(F)cc(S(=O)(=O)[O-])cc7F)c7ccc([nH]7)c(-c7c(F)cc(S(=O)(=O)[O-])cc7F)c7nc(c(-c8c(F)cc(S(=O)(=O)[O-])cc8F)c8ccc5[nH]8)C=C7)C=C6)cc4)c(O)c3)C2=O)cc1OC
REMARK SMILES IDX 22 1 21 2 20 3 19 4 17 5 18 6 16 8 13 9 14 10 97 11 15 12
REMARK SMILES IDX 95 13 12 14 7 15 8 16 9 17 98 18 10 19 99 20 11 21 6 22 3 23
REMARK SMILES IDX 4 24 101 25 5 26 100 27 2 28 1 29 102 30 103 31 96 32 23 34
REMARK SMILES IDX 24 35 25 36 26 37 27 38 28 40 29 41 30 42 94 43 31 44 93 45
REMARK SMILES IDX 32 46 33 47 34 48 87 49 35 50 92 51 86 52 88 53 36 54 91 55
REMARK SMILES IDX 85 56 84 57 37 59 71 60 50 61 70 62 51 63 54 64 69 65 89 66
REMARK SMILES IDX 52 67 53 68 68 70 90 71 55 72 38 73 39 74 48 75 40 76 41 77
REMARK SMILES IDX 47 78 49 79 42 80 43 81 44 82 45 83 46 84 72 85 73 86 82 87
REMARK SMILES IDX 74 88 75 89 81 90 83 91 76 92 77 93 78 94 79 95 80 96 56 97
REMARK SMILES IDX 57 98 66 99 58 100 59 101 65 102 67 103 60 104 61 105 62 106
REMARK SMILES IDX 63 107 64 108
REMARK H PARENT 19 7 96 33 26 39 88 58 54 69
REMARK Flexibility Score: inf
ROOT
ATOM      1  C   UNL A   1      40.151  25.717  27.210  1.00  0.00     0.002 C 
ENDROOT
BRANCH   1   2
ATOM      2  C   UNL A   1      39.191  24.775  26.476  1.00  0.00     0.021 C 
BRANCH   2   3
ATOM      3  C   UNL A   1      38.792  23.545  27.299  1.00  0.00     0.116 C 
BRANCH   3   4
ATOM      4  N   UNL A   1      38.998  22.345  26.514  1.00  0.00    -0.352 N 
ATOM      5  C   UNL A   1      38.163  21.634  25.694  1.00  0.00     0.255 C 
ATOM      6  O   UNL A   1      38.611  20.591  25.210  1.00  0.00    -0.269 OA
ATOM      7  H   UNL A   1      39.906  21.972  26.583  1.00  0.00     0.163 HD
BRANCH   5   8
ATOM      8  C   UNL A   1      36.808  22.090  25.265  1.00  0.00     0.081 A 
ATOM      9  C   UNL A   1      34.124  22.811  24.735  1.00  0.00     0.054 A 
ATOM     10  C   UNL A   1      34.431  22.029  25.848  1.00  0.00     0.028 A 
ATOM     11  C   UNL A   1      35.159  23.266  23.910  1.00  0.00     0.073 A 
ATOM     12  C   UNL A   1      35.754  21.653  26.091  1.00  0.00     0.020 A 
ATOM     13  C   UNL A   1      36.494  22.948  24.204  1.00  0.00     0.130 A 
BRANCH   9  14
ATOM     14  N   UNL A   1      32.798  23.259  24.515  1.00  0.00    -0.261 N 
ATOM     15  C   UNL A   1      30.484  26.021  24.802  1.00  0.00     0.029 C 
ATOM     16  C   UNL A   1      31.032  24.805  24.664  1.00  0.00     0.081 C 
ATOM     17  S   UNL A   1      30.405  23.597  23.608  1.00  0.00    -0.054 SA
ATOM     18  C   UNL A   1      32.327  24.341  25.247  1.00  0.00     0.270 C 
ATOM     19  C   UNL A   1      31.929  22.701  23.594  1.00  0.00     0.152 C 
ATOM     20  O   UNL A   1      32.855  24.853  26.222  1.00  0.00    -0.268 OA
ATOM     21  S   UNL A   1      32.145  21.357  22.624  1.00  0.00    -0.051 S 
BRANCH  15  22
ATOM     22  C   UNL A   1      31.170  27.138  25.460  1.00  0.00    -0.020 A 
ATOM     23  C   UNL A   1      32.649  29.196  26.660  1.00  0.00     0.160 A 
ATOM     24  C   UNL A   1      31.800  28.382  27.429  1.00  0.00     0.051 A 
ATOM     25  C   UNL A   1      32.762  28.988  25.282  1.00  0.00     0.161 A 
ATOM     26  C   UNL A   1      31.057  27.361  26.830  1.00  0.00     0.012 A 
ATOM     27  C   UNL A   1      32.006  27.965  24.696  1.00  0.00     0.058 A 
BRANCH  23  28
ATOM     28  O   UNL A   1      33.438  30.113  27.303  1.00  0.00    -0.493 OA
ATOM     29  C   UNL A   1      34.706  29.571  27.663  1.00  0.00     0.278 C 
ENDBRANCH  23  28
BRANCH  25  30
ATOM     30  O   UNL A   1      33.544  29.647  24.373  1.00  0.00    -0.493 OA
ATOM     31  C   UNL A   1      33.812  29.022  23.127  1.00  0.00     0.278 C 
ENDBRANCH  25  30
ENDBRANCH  15  22
ENDBRANCH   9  14
BRANCH  13  32
ATOM     32  O   UNL A   1      37.464  23.572  23.474  1.00  0.00    -0.507 OA
ATOM     33  H   UNL A   1      38.032  24.194  23.885  1.00  0.00     0.293 HD
ENDBRANCH  13  32
ENDBRANCH   5   8
ENDBRANCH   3   4
ENDBRANCH   2   3
ENDBRANCH   1   2
BRANCH   1  34
ATOM     34  C   UNL A   1      40.839  26.752  26.313  1.00  0.00     0.002 C 
BRANCH  34  35
ATOM     35  C   UNL A   1      42.044  26.232  25.522  1.00  0.00     0.021 C 
BRANCH  35  36
ATOM     36  C   UNL A   1      42.571  24.871  25.973  1.00  0.00     0.116 C 
BRANCH  36  37
ATOM     37  N   UNL A   1      44.024  24.842  26.007  1.00  0.00    -0.352 N 
ATOM     38  C   UNL A   1      44.897  25.615  26.727  1.00  0.00     0.251 C 
ATOM     39  H   UNL A   1      44.443  24.167  25.426  1.00  0.00     0.163 HD
ATOM     40  O   UNL A   1      46.092  25.601  26.445  1.00  0.00    -0.269 OA
BRANCH  38  41
ATOM     41  C   UNL A   1      44.410  26.468  27.835  1.00  0.00     0.039 A 
ATOM     42  C   UNL A   1      43.679  25.874  28.867  1.00  0.00     0.014 A 
ATOM     43  C   UNL A   1      44.620  27.852  27.834  1.00  0.00     0.014 A 
ATOM     44  C   UNL A   1      43.188  26.659  29.912  1.00  0.00     0.010 A 
ATOM     45  C   UNL A   1      44.180  28.626  28.909  1.00  0.00     0.010 A 
ATOM     46  C   UNL A   1      43.448  28.039  29.951  1.00  0.00    -0.014 A 
BRANCH  46  47
ATOM     47  C   UNL A   1      42.944  28.868  31.075  1.00  0.00     0.031 A 
ATOM     48  C   UNL A   1      43.666  28.886  32.396  1.00  0.00     0.074 A 
ATOM     49  C   UNL A   1      41.818  29.590  30.911  1.00  0.00     0.049 A 
ATOM     50  N   UNL A   1      43.388  29.566  33.478  1.00  0.00    -0.248 NA
ATOM     51  C   UNL A   1      44.841  28.010  32.524  1.00  0.00     0.031 C 
ATOM     52  C   UNL A   1      40.994  29.604  29.700  1.00  0.00     0.029 A 
ATOM     53  N   UNL A   1      41.173  30.450  31.762  1.00  0.00    -0.354 N 
ATOM     54  C   UNL A   1      44.345  29.197  34.416  1.00  0.00     0.074 A 
ATOM     55  C   UNL A   1      45.180  28.193  33.792  1.00  0.00     0.031 C 
ATOM     56  C   UNL A   1      39.970  30.455  29.875  1.00  0.00     0.029 A 
ATOM     57  C   UNL A   1      40.053  31.031  31.215  1.00  0.00     0.049 A 
ATOM     58  H   UNL A   1      41.482  30.635  32.678  1.00  0.00     0.167 HD
ATOM     59  C   UNL A   1      44.529  29.669  35.674  1.00  0.00     0.037 A 
ATOM     60  C   UNL A   1      39.198  31.934  31.730  1.00  0.00     0.037 A 
ATOM     61  C   UNL A   1      43.710  30.687  36.281  1.00  0.00     0.049 A 
ATOM     62  C   UNL A   1      39.448  32.476  33.109  1.00  0.00     0.074 A 
ATOM     63  C   UNL A   1      43.844  31.270  37.530  1.00  0.00     0.029 A 
ATOM     64  N   UNL A   1      42.606  31.274  35.683  1.00  0.00    -0.354 N 
ATOM     65  N   UNL A   1      40.397  32.163  33.958  1.00  0.00    -0.248 NA
ATOM     66  C   UNL A   1      38.519  33.506  33.595  1.00  0.00     0.031 C 
ATOM     67  C   UNL A   1      42.803  32.192  37.697  1.00  0.00     0.029 A 
ATOM     68  C   UNL A   1      42.043  32.208  36.538  1.00  0.00     0.049 A 
ATOM     69  H   UNL A   1      42.271  31.061  34.782  1.00  0.00     0.167 HD
ATOM     70  C   UNL A   1      40.192  32.969  35.072  1.00  0.00     0.074 A 
ATOM     71  C   UNL A   1      39.039  33.798  34.779  1.00  0.00     0.031 C 
ATOM     72  C   UNL A   1      40.892  33.019  36.232  1.00  0.00     0.037 A 
BRANCH  59  73
ATOM     73  C   UNL A   1      45.670  29.096  36.469  1.00  0.00     0.058 A 
ATOM     74  C   UNL A   1      46.957  29.655  36.413  1.00  0.00     0.135 A 
ATOM     75  C   UNL A   1      45.473  27.993  37.314  1.00  0.00     0.135 A 
ATOM     76  F   UNL A   1      47.205  30.702  35.610  1.00  0.00    -0.206 F 
ATOM     77  C   UNL A   1      48.016  29.121  37.141  1.00  0.00     0.059 A 
ATOM     78  C   UNL A   1      46.512  27.458  38.071  1.00  0.00     0.059 A 
ATOM     79  F   UNL A   1      44.262  27.419  37.406  1.00  0.00    -0.206 F 
ATOM     80  C   UNL A   1      47.784  28.020  37.965  1.00  0.00     0.060 A 
BRANCH  80  81
ATOM     81  S   UNL A   1      49.167  27.334  38.902  1.00  0.00     0.124 S 
ATOM     82  O   UNL A   1      50.303  27.732  38.076  1.00  0.00    -0.237 OA
ATOM     83  O   UNL A   1      49.047  28.019  40.186  1.00  0.00    -0.237 OA
ATOM     84  O   UNL A   1      48.881  25.903  38.930  1.00  0.00    -0.744 OA
ENDBRANCH  80  81
ENDBRANCH  59  73
BRANCH  60  85
ATOM     85  C   UNL A   1      38.054  32.417  30.913  1.00  0.00     0.058 A 
ATOM     86  C   UNL A   1      36.760  31.917  31.119  1.00  0.00     0.135 A 
ATOM     87  C   UNL A   1      38.229  33.402  29.930  1.00  0.00     0.135 A 
ATOM     88  F   UNL A   1      36.547  30.971  32.046  1.00  0.00    -0.206 F 
ATOM     89  C   UNL A   1      35.678  32.365  30.367  1.00  0.00     0.059 A 
ATOM     90  C   UNL A   1      37.158  33.882  29.180  1.00  0.00     0.059 A 
ATOM     91  F   UNL A   1      39.445  33.925  29.709  1.00  0.00    -0.206 F 
ATOM     92  C   UNL A   1      35.888  33.350  29.401  1.00  0.00     0.060 A 
BRANCH  92  93
ATOM     93  S   UNL A   1      34.470  33.969  28.469  1.00  0.00     0.124 S 
ATOM     94  O   UNL A   1      33.388  33.792  29.431  1.00  0.00    -0.237 OA
ATOM     95  O   UNL A   1      34.860  35.347  28.192  1.00  0.00    -0.237 OA
ATOM     96  O   UNL A   1      34.430  33.092  27.303  1.00  0.00    -0.744 OA
ENDBRANCH  92  93
ENDBRANCH  60  85
BRANCH  72  97
ATOM     97  C   UNL A   1      40.436  34.017  37.260  1.00  0.00     0.058 A 
ATOM     98  C   UNL A   1      39.449  33.698  38.205  1.00  0.00     0.135 A 
ATOM     99  C   UNL A   1      41.002  35.300  37.307  1.00  0.00     0.135 A 
ATOM    100  F   UNL A   1      38.874  32.485  38.199  1.00  0.00    -0.206 F 
ATOM    101  C   UNL A   1      39.012  34.631  39.141  1.00  0.00     0.059 A 
ATOM    102  C   UNL A   1      40.597  36.241  38.249  1.00  0.00     0.059 A 
ATOM    103  F   UNL A   1      41.958  35.651  36.432  1.00  0.00    -0.206 F 
ATOM    104  C   UNL A   1      39.587  35.902  39.150  1.00  0.00     0.060 A 
BRANCH 104 105
ATOM    105  S   UNL A   1      39.014  37.107  40.366  1.00  0.00     0.124 S 
ATOM    106  O   UNL A   1      40.263  37.474  41.025  1.00  0.00    -0.237 OA
ATOM    107  O   UNL A   1      38.412  38.140  39.529  1.00  0.00    -0.237 OA
ATOM    108  O   UNL A   1      38.074  36.343  41.180  1.00  0.00    -0.744 OA
ENDBRANCH 104 105
ENDBRANCH  72  97
ENDBRANCH  46  47
ENDBRANCH  38  41
ENDBRANCH  36  37
ENDBRANCH  35  36
ENDBRANCH  34  35
ENDBRANCH   1  34
TORSDOF 21
ENDMDL
