MODEL 1
REMARK VINA RESULT:     -10.9      0.000      0.000
REMARK SMILES Cc1cc(Br)cnc1SCC1(CC(=O)NCCCCCCNC(=O)c2ccc(-c3c4nc(c(-c5c(F)cc(S(=O)(=O)[O-])cc5F)c5ccc([nH]5)c(-c5c(F)cc(S(=O)(=O)[O-])cc5F)c5nc(c(-c6c(F)cc(S(=O)(=O)[O-])cc6F)c6ccc3[nH]6)C=C5)C=C4)cc2)CC1
REMARK SMILES IDX 18 1 17 2 16 3 15 4 13 5 14 6 12 8 11 9 91 10 92 11 10 12
REMARK SMILES IDX 9 13 8 14 1 15 2 16 3 17 4 18 7 19 5 20 6 21 19 22 20 23
REMARK SMILES IDX 21 24 22 25 23 26 24 28 25 29 26 30 90 31 27 32 89 33 28 34
REMARK SMILES IDX 29 35 30 36 83 37 31 38 88 39 82 40 84 41 32 42 87 43 81 44
REMARK SMILES IDX 80 45 33 47 67 48 46 49 66 50 47 51 50 52 65 53 85 54 48 55
REMARK SMILES IDX 49 56 64 58 86 59 51 60 34 61 35 62 44 63 36 64 37 65 43 66
REMARK SMILES IDX 45 67 38 68 39 69 40 70 41 71 42 72 68 73 69 74 78 75 70 76
REMARK SMILES IDX 71 77 77 78 79 79 72 80 73 81 74 82 75 83 76 84 52 85 53 86
REMARK SMILES IDX 62 87 54 88 55 89 61 90 63 91 56 92 57 93 58 94 59 95 60 96
REMARK H PARENT 15 7 22 27 84 46 50 57
REMARK Flexibility Score: inf
ROOT
ATOM      1  C   UNL A   1      36.858  21.135  24.581  1.00  0.00     0.002 C 
ENDROOT
BRANCH   1   2
ATOM      2  C   UNL A   1      35.611  20.707  25.364  1.00  0.00     0.021 C 
BRANCH   2   3
ATOM      3  C   UNL A   1      34.412  21.637  25.170  1.00  0.00     0.116 C 
BRANCH   3   4
ATOM      4  N   UNL A   1      34.441  22.251  23.861  1.00  0.00    -0.356 N 
ATOM      5  C   UNL A   1      34.234  23.556  23.521  1.00  0.00     0.220 C 
ATOM      6  O   UNL A   1      34.223  23.847  22.324  1.00  0.00    -0.275 OA
ATOM      7  H   UNL A   1      34.639  21.644  23.112  1.00  0.00     0.163 HD
BRANCH   5   8
ATOM      8  C   UNL A   1      34.046  24.608  24.601  1.00  0.00     0.107 C 
BRANCH   8   9
ATOM      9  C   UNL A   1      32.605  24.981  24.941  1.00  0.00    -0.011 C 
ATOM     10  C   UNL A   1      32.380  25.495  26.357  1.00  0.00     0.009 C 
ATOM     11  C   UNL A   1      31.850  24.154  25.982  1.00  0.00     0.009 C 
BRANCH   9  12
ATOM     12  C   UNL A   1      31.763  25.489  23.791  1.00  0.00     0.084 C 
BRANCH  12  13
ATOM     13  S   UNL A   1      32.356  26.861  22.785  1.00  0.00    -0.106 SA
BRANCH  13  14
ATOM     14  C   UNL A   1      31.271  28.241  23.060  1.00  0.00     0.099 A 
ATOM     15  C   UNL A   1      32.356  29.251  25.181  1.00  0.00     0.047 C 
ATOM     16  C   UNL A   1      31.330  29.191  24.089  1.00  0.00    -0.018 A 
ATOM     17  C   UNL A   1      30.286  30.138  24.175  1.00  0.00     0.023 A 
ATOM     18  C   UNL A   1      29.213  30.087  23.299  1.00  0.00     0.036 A 
ATOM     19  N   UNL A   1      30.216  28.202  22.199  1.00  0.00    -0.248 NA
ATOM     20  Br  UNL A   1      27.783  31.304  23.447  1.00  0.00    -0.049 Br
ATOM     21  C   UNL A   1      29.214  29.100  22.340  1.00  0.00     0.128 A 
ENDBRANCH  13  14
ENDBRANCH  12  13
ENDBRANCH   9  12
ENDBRANCH   8   9
ENDBRANCH   5   8
ENDBRANCH   3   4
ENDBRANCH   2   3
ENDBRANCH   1   2
BRANCH   1  22
ATOM     22  C   UNL A   1      37.882  21.941  25.388  1.00  0.00     0.002 C 
BRANCH  22  23
ATOM     23  C   UNL A   1      37.684  23.460  25.352  1.00  0.00     0.021 C 
BRANCH  23  24
ATOM     24  C   UNL A   1      38.543  24.231  26.350  1.00  0.00     0.116 C 
BRANCH  24  25
ATOM     25  N   UNL A   1      39.960  24.011  26.111  1.00  0.00    -0.352 N 
ATOM     26  C   UNL A   1      41.034  24.755  26.522  1.00  0.00     0.251 C 
ATOM     27  H   UNL A   1      40.179  23.213  25.577  1.00  0.00     0.163 HD
ATOM     28  O   UNL A   1      42.138  24.568  26.008  1.00  0.00    -0.269 OA
BRANCH  26  29
ATOM     29  C   UNL A   1      40.872  25.776  27.577  1.00  0.00     0.039 A 
ATOM     30  C   UNL A   1      41.809  26.809  27.674  1.00  0.00     0.014 A 
ATOM     31  C   UNL A   1      39.827  25.688  28.503  1.00  0.00     0.014 A 
ATOM     32  C   UNL A   1      41.682  27.769  28.680  1.00  0.00     0.010 A 
ATOM     33  C   UNL A   1      39.662  26.684  29.462  1.00  0.00     0.010 A 
ATOM     34  C   UNL A   1      40.599  27.722  29.573  1.00  0.00    -0.014 A 
BRANCH  34  35
ATOM     35  C   UNL A   1      40.458  28.719  30.665  1.00  0.00     0.031 A 
ATOM     36  C   UNL A   1      41.306  28.596  31.903  1.00  0.00     0.074 A 
ATOM     37  C   UNL A   1      39.539  29.699  30.565  1.00  0.00     0.049 A 
ATOM     38  N   UNL A   1      41.277  29.309  32.999  1.00  0.00    -0.248 NA
ATOM     39  C   UNL A   1      42.299  27.509  31.922  1.00  0.00     0.031 C 
ATOM     40  C   UNL A   1      38.630  29.895  29.433  1.00  0.00     0.029 A 
ATOM     41  N   UNL A   1      39.208  30.707  31.434  1.00  0.00    -0.354 N 
ATOM     42  C   UNL A   1      42.235  28.751  33.840  1.00  0.00     0.074 A 
ATOM     43  C   UNL A   1      42.787  27.605  33.151  1.00  0.00     0.031 C 
ATOM     44  C   UNL A   1      37.855  30.966  29.673  1.00  0.00     0.029 A 
ATOM     45  C   UNL A   1      38.187  31.512  30.985  1.00  0.00     0.049 A 
ATOM     46  H   UNL A   1      39.659  30.843  32.298  1.00  0.00     0.167 HD
ATOM     47  C   UNL A   1      42.637  29.171  35.063  1.00  0.00     0.037 A 
ATOM     48  C   UNL A   1      37.583  32.564  31.570  1.00  0.00     0.037 A 
ATOM     49  C   UNL A   1      42.106  30.332  35.728  1.00  0.00     0.049 A 
ATOM     50  C   UNL A   1      38.058  33.021  32.923  1.00  0.00     0.074 A 
ATOM     51  C   UNL A   1      42.470  30.864  36.952  1.00  0.00     0.029 A 
ATOM     52  N   UNL A   1      41.105  31.146  35.221  1.00  0.00    -0.354 N 
ATOM     53  N   UNL A   1      38.993  32.505  33.686  1.00  0.00    -0.248 NA
ATOM     54  C   UNL A   1      37.408  34.211  33.490  1.00  0.00     0.031 C 
ATOM     55  C   UNL A   1      41.667  31.982  37.200  1.00  0.00     0.029 A 
ATOM     56  C   UNL A   1      40.835  32.173  36.108  1.00  0.00     0.049 A 
ATOM     57  H   UNL A   1      40.652  31.013  34.357  1.00  0.00     0.167 HD
ATOM     58  C   UNL A   1      39.066  33.326  34.806  1.00  0.00     0.074 A 
ATOM     59  C   UNL A   1      38.087  34.377  34.616  1.00  0.00     0.031 C 
ATOM     60  C   UNL A   1      39.869  33.222  35.893  1.00  0.00     0.037 A 
BRANCH  47  61
ATOM     61  C   UNL A   1      43.716  28.382  35.753  1.00  0.00     0.058 A 
ATOM     62  C   UNL A   1      43.408  27.336  36.638  1.00  0.00     0.135 A 
ATOM     63  C   UNL A   1      45.072  28.646  35.499  1.00  0.00     0.135 A 
ATOM     64  F   UNL A   1      42.128  27.052  36.931  1.00  0.00    -0.206 F 
ATOM     65  C   UNL A   1      44.404  26.596  37.265  1.00  0.00     0.059 A 
ATOM     66  C   UNL A   1      46.085  27.898  36.094  1.00  0.00     0.059 A 
ATOM     67  F   UNL A   1      45.423  29.636  34.663  1.00  0.00    -0.206 F 
ATOM     68  C   UNL A   1      45.741  26.884  36.985  1.00  0.00     0.060 A 
BRANCH  68  69
ATOM     69  S   UNL A   1      47.021  25.903  37.796  1.00  0.00     0.124 S 
ATOM     70  O   UNL A   1      48.094  26.882  37.933  1.00  0.00    -0.237 OA
ATOM     71  O   UNL A   1      46.368  25.503  39.038  1.00  0.00    -0.237 OA
ATOM     72  O   UNL A   1      47.274  24.823  36.847  1.00  0.00    -0.744 OA
ENDBRANCH  68  69
ENDBRANCH  47  61
BRANCH  48  73
ATOM     73  C   UNL A   1      36.475  33.271  30.872  1.00  0.00     0.058 A 
ATOM     74  C   UNL A   1      36.734  34.165  29.824  1.00  0.00     0.135 A 
ATOM     75  C   UNL A   1      35.136  33.065  31.241  1.00  0.00     0.135 A 
ATOM     76  F   UNL A   1      37.997  34.397  29.436  1.00  0.00    -0.206 F 
ATOM     77  C   UNL A   1      35.708  34.854  29.182  1.00  0.00     0.059 A 
ATOM     78  C   UNL A   1      34.092  33.722  30.597  1.00  0.00     0.059 A 
ATOM     79  F   UNL A   1      34.833  32.204  32.224  1.00  0.00    -0.206 F 
ATOM     80  C   UNL A   1      34.390  34.626  29.578  1.00  0.00     0.060 A 
BRANCH  80  81
ATOM     81  S   UNL A   1      33.063  35.501  28.722  1.00  0.00     0.124 S 
ATOM     82  O   UNL A   1      32.233  35.940  29.837  1.00  0.00    -0.237 OA
ATOM     83  O   UNL A   1      33.792  36.551  28.016  1.00  0.00    -0.237 OA
ATOM     84  O   UNL A   1      32.481  34.471  27.866  1.00  0.00    -0.744 OA
ENDBRANCH  80  81
ENDBRANCH  48  73
BRANCH  60  85
ATOM     85  C   UNL A   1      39.764  34.297  36.939  1.00  0.00     0.058 A 
ATOM     86  C   UNL A   1      38.994  34.128  38.099  1.00  0.00     0.135 A 
ATOM     87  C   UNL A   1      40.486  35.492  36.797  1.00  0.00     0.135 A 
ATOM     88  F   UNL A   1      38.282  33.004  38.280  1.00  0.00    -0.206 F 
ATOM     89  C   UNL A   1      38.923  35.119  39.072  1.00  0.00     0.059 A 
ATOM     90  C   UNL A   1      40.451  36.486  37.769  1.00  0.00     0.059 A 
ATOM     91  F   UNL A   1      41.247  35.699  35.710  1.00  0.00    -0.206 F 
ATOM     92  C   UNL A   1      39.656  36.295  38.898  1.00  0.00     0.060 A 
BRANCH  92  93
ATOM     93  S   UNL A   1      39.578  37.562  40.182  1.00  0.00     0.124 S 
ATOM     94  O   UNL A   1      39.040  36.806  41.309  1.00  0.00    -0.237 OA
ATOM     95  O   UNL A   1      40.974  37.971  40.303  1.00  0.00    -0.237 OA
ATOM     96  O   UNL A   1      38.684  38.566  39.614  1.00  0.00    -0.744 OA
ENDBRANCH  92  93
ENDBRANCH  60  85
ENDBRANCH  34  35
ENDBRANCH  26  29
ENDBRANCH  24  25
ENDBRANCH  23  24
ENDBRANCH  22  23
ENDBRANCH   1  22
TORSDOF 20
ENDMDL
MODEL 2
REMARK VINA RESULT:     -10.9      6.521     11.948
REMARK SMILES Cc1cc(Br)cnc1SCC1(CC(=O)NCCCCCCNC(=O)c2ccc(-c3c4nc(c(-c5c(F)cc(S(=O)(=O)[O-])cc5F)c5ccc([nH]5)c(-c5c(F)cc(S(=O)(=O)[O-])cc5F)c5nc(c(-c6c(F)cc(S(=O)(=O)[O-])cc6F)c6ccc3[nH]6)C=C5)C=C4)cc2)CC1
REMARK SMILES IDX 18 1 17 2 16 3 15 4 13 5 14 6 12 8 11 9 91 10 92 11 10 12
REMARK SMILES IDX 9 13 8 14 1 15 2 16 3 17 4 18 7 19 5 20 6 21 19 22 20 23
REMARK SMILES IDX 21 24 22 25 23 26 24 28 25 29 26 30 90 31 27 32 89 33 28 34
REMARK SMILES IDX 29 35 30 36 83 37 31 38 88 39 82 40 84 41 32 42 87 43 81 44
REMARK SMILES IDX 80 45 33 47 67 48 46 49 66 50 47 51 50 52 65 53 85 54 48 55
REMARK SMILES IDX 49 56 64 58 86 59 51 60 34 61 35 62 44 63 36 64 37 65 43 66
REMARK SMILES IDX 45 67 38 68 39 69 40 70 41 71 42 72 68 73 69 74 78 75 70 76
REMARK SMILES IDX 71 77 77 78 79 79 72 80 73 81 74 82 75 83 76 84 52 85 53 86
REMARK SMILES IDX 62 87 54 88 55 89 61 90 63 91 56 92 57 93 58 94 59 95 60 96
REMARK H PARENT 15 7 22 27 84 46 50 57
REMARK Flexibility Score: inf
ROOT
ATOM      1  C   UNL A   1      32.278  30.066  26.592  1.00  0.00     0.002 C 
ENDROOT
BRANCH   1   2
ATOM      2  C   UNL A   1      31.809  28.792  27.306  1.00  0.00     0.021 C 
BRANCH   2   3
ATOM      3  C   UNL A   1      32.407  27.508  26.728  1.00  0.00     0.116 C 
BRANCH   3   4
ATOM      4  N   UNL A   1      31.556  26.373  27.002  1.00  0.00    -0.356 N 
ATOM      5  C   UNL A   1      31.461  25.190  26.330  1.00  0.00     0.220 C 
ATOM      6  O   UNL A   1      30.599  24.387  26.690  1.00  0.00    -0.275 OA
ATOM      7  H   UNL A   1      30.963  26.465  27.782  1.00  0.00     0.163 HD
BRANCH   5   8
ATOM      8  C   UNL A   1      32.413  24.881  25.186  1.00  0.00     0.107 C 
BRANCH   8   9
ATOM      9  C   UNL A   1      31.808  24.868  23.784  1.00  0.00    -0.011 C 
ATOM     10  C   UNL A   1      31.323  23.510  23.295  1.00  0.00     0.009 C 
ATOM     11  C   UNL A   1      32.533  24.113  22.670  1.00  0.00     0.009 C 
BRANCH   9  12
ATOM     12  C   UNL A   1      31.112  26.140  23.351  1.00  0.00     0.084 C 
BRANCH  12  13
ATOM     13  S   UNL A   1      29.408  26.443  23.853  1.00  0.00    -0.106 SA
BRANCH  13  14
ATOM     14  C   UNL A   1      28.918  28.013  23.182  1.00  0.00     0.099 A 
ATOM     15  C   UNL A   1      26.390  27.970  23.734  1.00  0.00     0.047 C 
ATOM     16  C   UNL A   1      27.635  28.579  23.162  1.00  0.00    -0.018 A 
ATOM     17  C   UNL A   1      27.460  29.795  22.467  1.00  0.00     0.023 A 
ATOM     18  C   UNL A   1      28.517  30.376  21.783  1.00  0.00     0.036 A 
ATOM     19  N   UNL A   1      29.952  28.594  22.512  1.00  0.00    -0.248 NA
ATOM     20  Br  UNL A   1      28.278  31.963  20.798  1.00  0.00    -0.049 Br
ATOM     21  C   UNL A   1      29.735  29.737  21.823  1.00  0.00     0.128 A 
ENDBRANCH  13  14
ENDBRANCH  12  13
ENDBRANCH   9  12
ENDBRANCH   8   9
ENDBRANCH   5   8
ENDBRANCH   3   4
ENDBRANCH   2   3
ENDBRANCH   1   2
BRANCH   1  22
ATOM     22  C   UNL A   1      33.309  30.896  27.364  1.00  0.00     0.002 C 
BRANCH  22  23
ATOM     23  C   UNL A   1      34.758  30.413  27.235  1.00  0.00     0.021 C 
BRANCH  23  24
ATOM     24  C   UNL A   1      35.293  29.691  28.467  1.00  0.00     0.116 C 
BRANCH  24  25
ATOM     25  N   UNL A   1      35.435  30.598  29.595  1.00  0.00    -0.352 N 
ATOM     26  C   UNL A   1      36.526  30.828  30.390  1.00  0.00     0.251 C 
ATOM     27  H   UNL A   1      34.632  31.124  29.817  1.00  0.00     0.163 HD
ATOM     28  O   UNL A   1      36.387  31.432  31.455  1.00  0.00    -0.269 OA
BRANCH  26  29
ATOM     29  C   UNL A   1      37.863  30.355  29.975  1.00  0.00     0.039 A 
ATOM     30  C   UNL A   1      38.774  29.950  30.955  1.00  0.00     0.014 A 
ATOM     31  C   UNL A   1      38.237  30.359  28.628  1.00  0.00     0.014 A 
ATOM     32  C   UNL A   1      40.050  29.522  30.580  1.00  0.00     0.010 A 
ATOM     33  C   UNL A   1      39.483  29.868  28.250  1.00  0.00     0.010 A 
ATOM     34  C   UNL A   1      40.409  29.464  29.223  1.00  0.00    -0.014 A 
BRANCH  34  35
ATOM     35  C   UNL A   1      41.767  29.034  28.804  1.00  0.00     0.031 A 
ATOM     36  C   UNL A   1      42.884  30.043  28.743  1.00  0.00     0.074 A 
ATOM     37  C   UNL A   1      41.984  27.758  28.435  1.00  0.00     0.049 A 
ATOM     38  N   UNL A   1      44.114  29.891  28.324  1.00  0.00    -0.248 NA
ATOM     39  C   UNL A   1      42.567  31.412  29.183  1.00  0.00     0.031 C 
ATOM     40  C   UNL A   1      40.972  26.699  28.412  1.00  0.00     0.029 A 
ATOM     41  N   UNL A   1      43.125  27.135  27.995  1.00  0.00    -0.354 N 
ATOM     42  C   UNL A   1      44.710  31.142  28.438  1.00  0.00     0.074 A 
ATOM     43  C   UNL A   1      43.693  32.055  28.910  1.00  0.00     0.031 C 
ATOM     44  C   UNL A   1      41.540  25.556  27.994  1.00  0.00     0.029 A 
ATOM     45  C   UNL A   1      42.945  25.806  27.687  1.00  0.00     0.049 A 
ATOM     46  H   UNL A   1      43.990  27.595  27.908  1.00  0.00     0.167 HD
ATOM     47  C   UNL A   1      45.997  31.492  28.199  1.00  0.00     0.037 A 
ATOM     48  C   UNL A   1      43.814  24.897  27.206  1.00  0.00     0.037 A 
ATOM     49  C   UNL A   1      47.012  30.570  27.761  1.00  0.00     0.049 A 
ATOM     50  C   UNL A   1      45.242  25.306  26.962  1.00  0.00     0.074 A 
ATOM     51  C   UNL A   1      48.353  30.816  27.524  1.00  0.00     0.029 A 
ATOM     52  N   UNL A   1      46.801  29.224  27.504  1.00  0.00    -0.354 N 
ATOM     53  N   UNL A   1      45.799  26.485  27.113  1.00  0.00    -0.248 NA
ATOM     54  C   UNL A   1      46.164  24.261  26.494  1.00  0.00     0.031 C 
ATOM     55  C   UNL A   1      48.947  29.625  27.094  1.00  0.00     0.029 A 
ATOM     56  C   UNL A   1      47.985  28.627  27.107  1.00  0.00     0.049 A 
ATOM     57  H   UNL A   1      45.937  28.762  27.591  1.00  0.00     0.167 HD
ATOM     58  C   UNL A   1      47.141  26.315  26.793  1.00  0.00     0.074 A 
ATOM     59  C   UNL A   1      47.314  24.919  26.448  1.00  0.00     0.031 C 
ATOM     60  C   UNL A   1      48.141  27.231  26.786  1.00  0.00     0.037 A 
BRANCH  47  61
ATOM     61  C   UNL A   1      46.383  32.929  28.422  1.00  0.00     0.058 A 
ATOM     62  C   UNL A   1      46.292  33.882  27.395  1.00  0.00     0.135 A 
ATOM     63  C   UNL A   1      46.812  33.368  29.686  1.00  0.00     0.135 A 
ATOM     64  F   UNL A   1      45.904  33.513  26.163  1.00  0.00    -0.206 F 
ATOM     65  C   UNL A   1      46.634  35.213  27.604  1.00  0.00     0.059 A 
ATOM     66  C   UNL A   1      47.132  34.702  29.924  1.00  0.00     0.059 A 
ATOM     67  F   UNL A   1      46.920  32.499  30.702  1.00  0.00    -0.206 F 
ATOM     68  C   UNL A   1      47.053  35.614  28.874  1.00  0.00     0.060 A 
BRANCH  68  69
ATOM     69  S   UNL A   1      47.479  37.349  29.132  1.00  0.00     0.124 S 
ATOM     70  O   UNL A   1      47.002  37.953  27.892  1.00  0.00    -0.237 OA
ATOM     71  O   UNL A   1      46.718  37.682  30.331  1.00  0.00    -0.237 OA
ATOM     72  O   UNL A   1      48.929  37.321  29.299  1.00  0.00    -0.744 OA
ENDBRANCH  68  69
ENDBRANCH  47  61
BRANCH  48  73
ATOM     73  C   UNL A   1      43.365  23.503  26.939  1.00  0.00     0.058 A 
ATOM     74  C   UNL A   1      43.143  22.601  27.990  1.00  0.00     0.135 A 
ATOM     75  C   UNL A   1      43.149  23.047  25.629  1.00  0.00     0.135 A 
ATOM     76  F   UNL A   1      43.337  22.989  29.259  1.00  0.00    -0.206 F 
ATOM     77  C   UNL A   1      42.750  21.287  27.752  1.00  0.00     0.059 A 
ATOM     78  C   UNL A   1      42.731  21.747  25.367  1.00  0.00     0.059 A 
ATOM     79  F   UNL A   1      43.328  23.877  24.590  1.00  0.00    -0.206 F 
ATOM     80  C   UNL A   1      42.548  20.869  26.436  1.00  0.00     0.060 A 
BRANCH  80  81
ATOM     81  S   UNL A   1      42.010  19.172  26.137  1.00  0.00     0.124 S 
ATOM     82  O   UNL A   1      42.403  18.517  27.379  1.00  0.00    -0.237 OA
ATOM     83  O   UNL A   1      40.575  19.336  25.928  1.00  0.00    -0.237 OA
ATOM     84  O   UNL A   1      42.768  18.785  24.951  1.00  0.00    -0.744 OA
ENDBRANCH  80  81
ENDBRANCH  48  73
BRANCH  60  85
ATOM     85  C   UNL A   1      49.522  26.745  26.443  1.00  0.00     0.058 A 
ATOM     86  C   UNL A   1      50.350  26.134  27.397  1.00  0.00     0.135 A 
ATOM     87  C   UNL A   1      50.000  26.849  25.127  1.00  0.00     0.135 A 
ATOM     88  F   UNL A   1      49.940  26.014  28.669  1.00  0.00    -0.206 F 
ATOM     89  C   UNL A   1      51.616  25.665  27.063  1.00  0.00     0.059 A 
ATOM     90  C   UNL A   1      51.253  26.364  24.765  1.00  0.00     0.059 A 
ATOM     91  F   UNL A   1      49.243  27.415  24.174  1.00  0.00    -0.206 F 
ATOM     92  C   UNL A   1      52.059  25.785  25.744  1.00  0.00     0.060 A 
BRANCH  92  93
ATOM     93  S   UNL A   1      53.693  25.147  25.318  1.00  0.00     0.124 S 
ATOM     94  O   UNL A   1      53.463  23.706  25.347  1.00  0.00    -0.237 OA
ATOM     95  O   UNL A   1      53.920  25.725  23.996  1.00  0.00    -0.237 OA
ATOM     96  O   UNL A   1      54.549  25.669  26.378  1.00  0.00    -0.744 OA
ENDBRANCH  92  93
ENDBRANCH  60  85
ENDBRANCH  34  35
ENDBRANCH  26  29
ENDBRANCH  24  25
ENDBRANCH  23  24
ENDBRANCH  22  23
ENDBRANCH   1  22
TORSDOF 20
ENDMDL
MODEL 3
REMARK VINA RESULT:     -10.7      2.828      3.998
REMARK SMILES Cc1cc(Br)cnc1SCC1(CC(=O)NCCCCCCNC(=O)c2ccc(-c3c4nc(c(-c5c(F)cc(S(=O)(=O)[O-])cc5F)c5ccc([nH]5)c(-c5c(F)cc(S(=O)(=O)[O-])cc5F)c5nc(c(-c6c(F)cc(S(=O)(=O)[O-])cc6F)c6ccc3[nH]6)C=C5)C=C4)cc2)CC1
REMARK SMILES IDX 18 1 17 2 16 3 15 4 13 5 14 6 12 8 11 9 91 10 92 11 10 12
REMARK SMILES IDX 9 13 8 14 1 15 2 16 3 17 4 18 7 19 5 20 6 21 19 22 20 23
REMARK SMILES IDX 21 24 22 25 23 26 24 28 25 29 26 30 90 31 27 32 89 33 28 34
REMARK SMILES IDX 29 35 30 36 83 37 31 38 88 39 82 40 84 41 32 42 87 43 81 44
REMARK SMILES IDX 80 45 33 47 67 48 46 49 66 50 47 51 50 52 65 53 85 54 48 55
REMARK SMILES IDX 49 56 64 58 86 59 51 60 34 61 35 62 44 63 36 64 37 65 43 66
REMARK SMILES IDX 45 67 38 68 39 69 40 70 41 71 42 72 68 73 69 74 78 75 70 76
REMARK SMILES IDX 71 77 77 78 79 79 72 80 73 81 74 82 75 83 76 84 52 85 53 86
REMARK SMILES IDX 62 87 54 88 55 89 61 90 63 91 56 92 57 93 58 94 59 95 60 96
REMARK H PARENT 15 7 22 27 84 46 50 57
REMARK Flexibility Score: inf
ROOT
ATOM      1  C   UNL A   1      38.959  23.331  26.859  1.00  0.00     0.002 C 
ENDROOT
BRANCH   1   2
ATOM      2  C   UNL A   1      37.897  23.355  25.754  1.00  0.00     0.021 C 
BRANCH   2   3
ATOM      3  C   UNL A   1      37.459  21.964  25.290  1.00  0.00     0.116 C 
BRANCH   3   4
ATOM      4  N   UNL A   1      36.388  21.458  26.119  1.00  0.00    -0.356 N 
ATOM      5  C   UNL A   1      35.191  22.037  26.421  1.00  0.00     0.220 C 
ATOM      6  O   UNL A   1      34.455  21.460  27.223  1.00  0.00    -0.275 OA
ATOM      7  H   UNL A   1      36.543  20.572  26.519  1.00  0.00     0.163 HD
BRANCH   5   8
ATOM      8  C   UNL A   1      34.785  23.345  25.763  1.00  0.00     0.107 C 
BRANCH   8   9
ATOM      9  C   UNL A   1      33.999  23.232  24.458  1.00  0.00    -0.011 C 
ATOM     10  C   UNL A   1      34.843  23.172  23.191  1.00  0.00     0.009 C 
ATOM     11  C   UNL A   1      34.039  24.395  23.466  1.00  0.00     0.009 C 
BRANCH   9  12
ATOM     12  C   UNL A   1      32.676  22.503  24.541  1.00  0.00     0.084 C 
BRANCH  12  13
ATOM     13  S   UNL A   1      32.151  21.445  23.180  1.00  0.00    -0.106 SA
BRANCH  13  14
ATOM     14  C   UNL A   1      32.438  19.760  23.663  1.00  0.00     0.099 A 
ATOM     15  C   UNL A   1      32.241  18.593  21.361  1.00  0.00     0.047 C 
ATOM     16  C   UNL A   1      32.451  18.621  22.846  1.00  0.00    -0.018 A 
ATOM     17  C   UNL A   1      32.587  17.361  23.470  1.00  0.00     0.023 A 
ATOM     18  C   UNL A   1      32.650  17.262  24.851  1.00  0.00     0.036 A 
ATOM     19  N   UNL A   1      32.507  19.653  25.019  1.00  0.00    -0.248 NA
ATOM     20  Br  UNL A   1      32.764  15.582  25.696  1.00  0.00    -0.049 Br
ATOM     21  C   UNL A   1      32.594  18.426  25.582  1.00  0.00     0.128 A 
ENDBRANCH  13  14
ENDBRANCH  12  13
ENDBRANCH   9  12
ENDBRANCH   8   9
ENDBRANCH   5   8
ENDBRANCH   3   4
ENDBRANCH   2   3
ENDBRANCH   1   2
BRANCH   1  22
ATOM     22  C   UNL A   1      40.161  22.421  26.579  1.00  0.00     0.002 C 
BRANCH  22  23
ATOM     23  C   UNL A   1      41.115  22.224  27.762  1.00  0.00     0.021 C 
BRANCH  23  24
ATOM     24  C   UNL A   1      42.377  23.077  27.702  1.00  0.00     0.116 C 
BRANCH  24  25
ATOM     25  N   UNL A   1      42.441  23.846  26.469  1.00  0.00    -0.352 N 
ATOM     26  C   UNL A   1      42.088  25.150  26.242  1.00  0.00     0.251 C 
ATOM     27  H   UNL A   1      42.788  23.359  25.687  1.00  0.00     0.163 HD
ATOM     28  O   UNL A   1      41.962  25.553  25.084  1.00  0.00    -0.269 OA
BRANCH  26  29
ATOM     29  C   UNL A   1      41.860  26.068  27.375  1.00  0.00     0.039 A 
ATOM     30  C   UNL A   1      40.701  25.926  28.143  1.00  0.00     0.014 A 
ATOM     31  C   UNL A   1      42.761  27.102  27.650  1.00  0.00     0.014 A 
ATOM     32  C   UNL A   1      40.461  26.801  29.205  1.00  0.00     0.010 A 
ATOM     33  C   UNL A   1      42.556  27.930  28.750  1.00  0.00     0.010 A 
ATOM     34  C   UNL A   1      41.393  27.801  29.525  1.00  0.00    -0.014 A 
BRANCH  34  35
ATOM     35  C   UNL A   1      41.146  28.757  30.634  1.00  0.00     0.031 A 
ATOM     36  C   UNL A   1      41.964  28.665  31.896  1.00  0.00     0.074 A 
ATOM     37  C   UNL A   1      40.161  29.669  30.529  1.00  0.00     0.049 A 
ATOM     38  N   UNL A   1      41.850  29.345  33.007  1.00  0.00    -0.248 NA
ATOM     39  C   UNL A   1      43.034  27.653  31.921  1.00  0.00     0.031 C 
ATOM     40  C   UNL A   1      39.274  29.828  29.374  1.00  0.00     0.029 A 
ATOM     41  N   UNL A   1      39.731  30.628  31.411  1.00  0.00    -0.354 N 
ATOM     42  C   UNL A   1      42.821  28.837  33.864  1.00  0.00     0.074 A 
ATOM     43  C   UNL A   1      43.476  27.753  33.166  1.00  0.00     0.031 C 
ATOM     44  C   UNL A   1      38.415  30.832  29.614  1.00  0.00     0.029 A 
ATOM     45  C   UNL A   1      38.667  31.367  30.948  1.00  0.00     0.049 A 
ATOM     46  H   UNL A   1      40.145  30.774  32.291  1.00  0.00     0.167 HD
ATOM     47  C   UNL A   1      43.155  29.254  35.108  1.00  0.00     0.037 A 
ATOM     48  C   UNL A   1      37.970  32.357  31.538  1.00  0.00     0.037 A 
ATOM     49  C   UNL A   1      42.520  30.356  35.784  1.00  0.00     0.049 A 
ATOM     50  C   UNL A   1      38.370  32.813  32.916  1.00  0.00     0.074 A 
ATOM     51  C   UNL A   1      42.807  30.881  37.031  1.00  0.00     0.029 A 
ATOM     52  N   UNL A   1      41.476  31.107  35.265  1.00  0.00    -0.354 N 
ATOM     53  N   UNL A   1      39.317  32.347  33.696  1.00  0.00    -0.248 NA
ATOM     54  C   UNL A   1      37.617  33.938  33.490  1.00  0.00     0.031 C 
ATOM     55  C   UNL A   1      41.917  31.931  37.279  1.00  0.00     0.029 A 
ATOM     56  C   UNL A   1      41.105  32.089  36.167  1.00  0.00     0.049 A 
ATOM     57  H   UNL A   1      41.061  30.963  34.384  1.00  0.00     0.167 HD
ATOM     58  C   UNL A   1      39.295  33.143  34.837  1.00  0.00     0.074 A 
ATOM     59  C   UNL A   1      38.248  34.124  34.641  1.00  0.00     0.031 C 
ATOM     60  C   UNL A   1      40.072  33.069  35.945  1.00  0.00     0.037 A 
BRANCH  47  61
ATOM     61  C   UNL A   1      44.268  28.529  35.814  1.00  0.00     0.058 A 
ATOM     62  C   UNL A   1      44.013  27.436  36.657  1.00  0.00     0.135 A 
ATOM     63  C   UNL A   1      45.607  28.902  35.615  1.00  0.00     0.135 A 
ATOM     64  F   UNL A   1      42.749  27.046  36.897  1.00  0.00    -0.206 F 
ATOM     65  C   UNL A   1      45.042  26.755  37.298  1.00  0.00     0.059 A 
ATOM     66  C   UNL A   1      46.654  28.216  36.224  1.00  0.00     0.059 A 
ATOM     67  F   UNL A   1      45.908  29.941  34.820  1.00  0.00    -0.206 F 
ATOM     68  C   UNL A   1      46.360  27.151  37.074  1.00  0.00     0.060 A 
BRANCH  68  69
ATOM     69  S   UNL A   1      47.685  26.247  37.901  1.00  0.00     0.124 S 
ATOM     70  O   UNL A   1      48.726  26.257  36.879  1.00  0.00    -0.237 OA
ATOM     71  O   UNL A   1      47.942  27.074  39.075  1.00  0.00    -0.237 OA
ATOM     72  O   UNL A   1      47.086  24.943  38.175  1.00  0.00    -0.744 OA
ENDBRANCH  68  69
ENDBRANCH  47  61
BRANCH  48  73
ATOM     73  C   UNL A   1      36.834  32.999  30.823  1.00  0.00     0.058 A 
ATOM     74  C   UNL A   1      37.056  33.977  29.843  1.00  0.00     0.135 A 
ATOM     75  C   UNL A   1      35.505  32.646  31.106  1.00  0.00     0.135 A 
ATOM     76  F   UNL A   1      38.308  34.350  29.539  1.00  0.00    -0.206 F 
ATOM     77  C   UNL A   1      36.001  34.605  29.187  1.00  0.00     0.059 A 
ATOM     78  C   UNL A   1      34.435  33.241  30.445  1.00  0.00     0.059 A 
ATOM     79  F   UNL A   1      35.239  31.701  32.020  1.00  0.00    -0.206 F 
ATOM     80  C   UNL A   1      34.693  34.230  29.497  1.00  0.00     0.060 A 
BRANCH  80  81
ATOM     81  S   UNL A   1      33.331  35.028  28.621  1.00  0.00     0.124 S 
ATOM     82  O   UNL A   1      34.039  36.015  27.814  1.00  0.00    -0.237 OA
ATOM     83  O   UNL A   1      32.739  33.912  27.890  1.00  0.00    -0.237 OA
ATOM     84  O   UNL A   1      32.508  35.567  29.701  1.00  0.00    -0.744 OA
ENDBRANCH  80  81
ENDBRANCH  48  73
BRANCH  60  85
ATOM     85  C   UNL A   1      39.856  34.107  37.012  1.00  0.00     0.058 A 
ATOM     86  C   UNL A   1      39.082  33.846  38.153  1.00  0.00     0.135 A 
ATOM     87  C   UNL A   1      40.477  35.362  36.912  1.00  0.00     0.135 A 
ATOM     88  F   UNL A   1      38.465  32.662  38.294  1.00  0.00    -0.206 F 
ATOM     89  C   UNL A   1      38.909  34.804  39.146  1.00  0.00     0.059 A 
ATOM     90  C   UNL A   1      40.340  36.325  37.905  1.00  0.00     0.059 A 
ATOM     91  F   UNL A   1      41.238  35.657  35.846  1.00  0.00    -0.206 F 
ATOM     92  C   UNL A   1      39.543  36.042  39.013  1.00  0.00     0.060 A 
BRANCH  92  93
ATOM     93  S   UNL A   1      39.334  37.266  40.322  1.00  0.00     0.124 S 
ATOM     94  O   UNL A   1      40.705  37.426  40.797  1.00  0.00    -0.237 OA
ATOM     95  O   UNL A   1      38.777  38.406  39.599  1.00  0.00    -0.237 OA
ATOM     96  O   UNL A   1      38.418  36.615  41.254  1.00  0.00    -0.744 OA
ENDBRANCH  92  93
ENDBRANCH  60  85
ENDBRANCH  34  35
ENDBRANCH  26  29
ENDBRANCH  24  25
ENDBRANCH  23  24
ENDBRANCH  22  23
ENDBRANCH   1  22
TORSDOF 20
ENDMDL
