MODEL 1
REMARK VINA RESULT:     -12.2      0.000      0.000
REMARK SMILES C[C@@H]1CCC/C(=C\Nc2ccc(C(=O)NCCCCCCNC(=O)c3ccc(-c4c5nc(c(-c6c(F)cc(S(=O)(=O)[O-])cc6F)c6ccc([nH]6)c(-c6c(F)cc(S(=O)(=O)[O-])cc6F)c6nc(c(-c7c(F)cc(S(=O)(=O)[O-])cc7F)c7ccc4[nH]7)C=C6)C=C5)cc3)c(O)c2)C1=O
REMARK SMILES IDX 19 1 18 2 17 3 16 4 15 5 13 6 14 7 12 9 9 10 10 11 93 12
REMARK SMILES IDX 11 13 91 14 8 15 7 17 1 18 2 19 3 20 94 21 4 22 6 23 95 24
REMARK SMILES IDX 5 25 92 26 20 28 21 29 22 30 23 31 24 33 25 34 26 35 90 36
REMARK SMILES IDX 27 37 89 38 28 39 29 40 30 41 83 42 31 43 88 44 82 45 84 46
REMARK SMILES IDX 32 47 87 48 81 49 80 50 33 52 67 53 46 54 66 55 47 56 50 57
REMARK SMILES IDX 65 58 85 59 48 60 49 61 64 63 86 64 51 65 34 66 35 67 44 68
REMARK SMILES IDX 36 69 37 70 43 71 45 72 38 73 39 74 40 75 41 76 42 77 68 78
REMARK SMILES IDX 69 79 78 80 70 81 71 82 77 83 79 84 72 85 73 86 74 87 75 88
REMARK SMILES IDX 76 89 52 90 53 91 62 92 54 93 55 94 61 95 63 96 56 97 57 98
REMARK SMILES IDX 58 99 59 100 60 101
REMARK H PARENT 15 8 8 16 92 27 22 32 84 51 50 62
REMARK Flexibility Score: inf
ROOT
ATOM      1  C   UNL A   1      37.656  23.737  26.084  1.00  0.00     0.002 C 
ENDROOT
BRANCH   1   2
ATOM      2  C   UNL A   1      36.673  23.593  24.920  1.00  0.00     0.002 C 
BRANCH   2   3
ATOM      3  C   UNL A   1      36.314  22.168  24.487  1.00  0.00     0.021 C 
BRANCH   3   4
ATOM      4  C   UNL A   1      35.426  21.374  25.440  1.00  0.00     0.116 C 
BRANCH   4   5
ATOM      5  N   UNL A   1      34.678  20.299  24.810  1.00  0.00    -0.352 N 
ATOM      6  C   UNL A   1      33.379  20.275  24.359  1.00  0.00     0.255 C 
ATOM      7  O   UNL A   1      32.929  19.233  23.887  1.00  0.00    -0.269 OA
ATOM      8  H   UNL A   1      35.178  19.459  24.688  1.00  0.00     0.163 HD
BRANCH   6   9
ATOM      9  C   UNL A   1      32.492  21.461  24.470  1.00  0.00     0.081 A 
ATOM     10  C   UNL A   1      30.948  23.798  24.893  1.00  0.00     0.042 A 
ATOM     11  C   UNL A   1      31.277  22.958  25.960  1.00  0.00     0.027 A 
ATOM     12  C   UNL A   1      31.354  23.417  23.607  1.00  0.00     0.073 A 
ATOM     13  C   UNL A   1      32.046  21.804  25.754  1.00  0.00     0.020 A 
ATOM     14  C   UNL A   1      32.066  22.238  23.393  1.00  0.00     0.130 A 
BRANCH  10  15
ATOM     15  N   UNL A   1      30.232  24.997  25.028  1.00  0.00    -0.361 N 
ATOM     16  H   UNL A   1      29.443  25.084  24.445  1.00  0.00     0.166 HD
BRANCH  15  17
ATOM     17  C   UNL A   1      30.472  26.062  25.852  1.00  0.00     0.090 C 
ATOM     18  C   UNL A   1      31.534  29.658  25.377  1.00  0.00     0.016 C 
ATOM     19  C   UNL A   1      32.422  28.986  26.423  1.00  0.00     0.058 C 
ATOM     20  C   UNL A   1      33.782  28.548  25.861  1.00  0.00     0.012 C 
ATOM     21  C   UNL A   1      31.672  27.804  27.011  1.00  0.00     0.163 C 
ATOM     22  C   UNL A   1      33.709  27.304  24.970  1.00  0.00     0.006 C 
ATOM     23  C   UNL A   1      31.670  26.568  26.181  1.00  0.00     0.011 C 
ATOM     24  O   UNL A   1      31.031  27.882  28.055  1.00  0.00    -0.294 OA
ATOM     25  C   UNL A   1      33.014  26.142  25.679  1.00  0.00     0.041 C 
ENDBRANCH  15  17
ENDBRANCH  10  15
BRANCH  14  26
ATOM     26  O   UNL A   1      32.253  21.902  22.081  1.00  0.00    -0.507 OA
ATOM     27  H   UNL A   1      33.028  21.442  21.821  1.00  0.00     0.293 HD
ENDBRANCH  14  26
ENDBRANCH   6   9
ENDBRANCH   4   5
ENDBRANCH   3   4
ENDBRANCH   2   3
ENDBRANCH   1   2
BRANCH   1  28
ATOM     28  C   UNL A   1      38.756  22.678  26.191  1.00  0.00     0.021 C 
BRANCH  28  29
ATOM     29  C   UNL A   1      39.989  23.071  26.996  1.00  0.00     0.116 C 
BRANCH  29  30
ATOM     30  N   UNL A   1      41.109  23.467  26.160  1.00  0.00    -0.352 N 
ATOM     31  C   UNL A   1      41.821  24.642  26.153  1.00  0.00     0.251 C 
ATOM     32  H   UNL A   1      41.402  22.796  25.502  1.00  0.00     0.163 HD
ATOM     33  O   UNL A   1      42.654  24.843  25.271  1.00  0.00    -0.269 OA
BRANCH  31  34
ATOM     34  C   UNL A   1      41.567  25.678  27.180  1.00  0.00     0.039 A 
ATOM     35  C   UNL A   1      40.508  25.493  28.072  1.00  0.00     0.014 A 
ATOM     36  C   UNL A   1      42.360  26.825  27.267  1.00  0.00     0.014 A 
ATOM     37  C   UNL A   1      40.284  26.425  29.089  1.00  0.00     0.010 A 
ATOM     38  C   UNL A   1      42.182  27.716  28.325  1.00  0.00     0.010 A 
ATOM     39  C   UNL A   1      41.142  27.526  29.248  1.00  0.00    -0.014 A 
BRANCH  39  40
ATOM     40  C   UNL A   1      40.967  28.482  30.374  1.00  0.00     0.031 A 
ATOM     41  C   UNL A   1      41.813  28.357  31.614  1.00  0.00     0.074 A 
ATOM     42  C   UNL A   1      40.012  29.432  30.301  1.00  0.00     0.049 A 
ATOM     43  N   UNL A   1      41.757  29.048  32.723  1.00  0.00    -0.248 NA
ATOM     44  C   UNL A   1      42.840  27.302  31.618  1.00  0.00     0.031 C 
ATOM     45  C   UNL A   1      39.100  29.630  29.170  1.00  0.00     0.029 A 
ATOM     46  N   UNL A   1      39.639  30.404  31.196  1.00  0.00    -0.354 N 
ATOM     47  C   UNL A   1      42.737  28.514  33.554  1.00  0.00     0.074 A 
ATOM     48  C   UNL A   1      43.331  27.402  32.845  1.00  0.00     0.031 C 
ATOM     49  C   UNL A   1      38.289  30.667  29.434  1.00  0.00     0.029 A 
ATOM     50  C   UNL A   1      38.589  31.183  30.765  1.00  0.00     0.049 A 
ATOM     51  H   UNL A   1      40.081  30.531  32.067  1.00  0.00     0.167 HD
ATOM     52  C   UNL A   1      43.123  28.929  34.783  1.00  0.00     0.037 A 
ATOM     53  C   UNL A   1      37.933  32.188  31.378  1.00  0.00     0.037 A 
ATOM     54  C   UNL A   1      42.542  30.049  35.478  1.00  0.00     0.049 A 
ATOM     55  C   UNL A   1      38.368  32.612  32.757  1.00  0.00     0.074 A 
ATOM     56  C   UNL A   1      42.890  30.570  36.713  1.00  0.00     0.029 A 
ATOM     57  N   UNL A   1      41.493  30.822  35.001  1.00  0.00    -0.354 N 
ATOM     58  N   UNL A   1      39.334  32.128  33.503  1.00  0.00    -0.248 NA
ATOM     59  C   UNL A   1      37.632  33.722  33.376  1.00  0.00     0.031 C 
ATOM     60  C   UNL A   1      42.023  31.627  37.002  1.00  0.00     0.029 A 
ATOM     61  C   UNL A   1      41.172  31.804  35.924  1.00  0.00     0.049 A 
ATOM     62  H   UNL A   1      41.044  30.692  34.134  1.00  0.00     0.167 HD
ATOM     63  C   UNL A   1      39.341  32.899  34.661  1.00  0.00     0.074 A 
ATOM     64  C   UNL A   1      38.296  33.888  34.511  1.00  0.00     0.031 C 
ATOM     65  C   UNL A   1      40.140  32.795  35.751  1.00  0.00     0.037 A 
BRANCH  52  66
ATOM     66  C   UNL A   1      44.244  28.185  35.460  1.00  0.00     0.058 A 
ATOM     67  C   UNL A   1      45.585  28.571  35.293  1.00  0.00     0.135 A 
ATOM     68  C   UNL A   1      43.973  27.127  36.341  1.00  0.00     0.135 A 
ATOM     69  F   UNL A   1      45.902  29.564  34.448  1.00  0.00    -0.206 F 
ATOM     70  C   UNL A   1      46.616  27.926  35.967  1.00  0.00     0.059 A 
ATOM     71  C   UNL A   1      44.988  26.487  37.049  1.00  0.00     0.059 A 
ATOM     72  F   UNL A   1      42.711  26.715  36.537  1.00  0.00    -0.206 F 
ATOM     73  C   UNL A   1      46.307  26.889  36.849  1.00  0.00     0.060 A 
BRANCH  73  74
ATOM     74  S   UNL A   1      47.656  26.094  37.745  1.00  0.00     0.124 S 
ATOM     75  O   UNL A   1      46.958  25.000  38.414  1.00  0.00    -0.237 OA
ATOM     76  O   UNL A   1      48.558  25.702  36.665  1.00  0.00    -0.237 OA
ATOM     77  O   UNL A   1      48.154  27.149  38.621  1.00  0.00    -0.744 OA
ENDBRANCH  73  74
ENDBRANCH  52  66
BRANCH  53  78
ATOM     78  C   UNL A   1      36.792  32.867  30.703  1.00  0.00     0.058 A 
ATOM     79  C   UNL A   1      37.008  33.861  29.736  1.00  0.00     0.135 A 
ATOM     80  C   UNL A   1      35.464  32.560  31.036  1.00  0.00     0.135 A 
ATOM     81  F   UNL A   1      38.259  34.194  29.385  1.00  0.00    -0.206 F 
ATOM     82  C   UNL A   1      35.951  34.553  29.152  1.00  0.00     0.059 A 
ATOM     83  C   UNL A   1      34.389  33.216  30.442  1.00  0.00     0.059 A 
ATOM     84  F   UNL A   1      35.199  31.605  31.940  1.00  0.00    -0.206 F 
ATOM     85  C   UNL A   1      34.644  34.225  29.516  1.00  0.00     0.060 A 
BRANCH  85  86
ATOM     86  S   UNL A   1      33.279  35.128  28.753  1.00  0.00     0.124 S 
ATOM     87  O   UNL A   1      32.518  35.554  29.922  1.00  0.00    -0.237 OA
ATOM     88  O   UNL A   1      33.977  36.182  28.025  1.00  0.00    -0.237 OA
ATOM     89  O   UNL A   1      32.637  34.117  27.916  1.00  0.00    -0.744 OA
ENDBRANCH  85  86
ENDBRANCH  53  78
BRANCH  65  90
ATOM     90  C   UNL A   1      39.953  33.808  36.850  1.00  0.00     0.058 A 
ATOM     91  C   UNL A   1      40.572  35.067  36.811  1.00  0.00     0.135 A 
ATOM     92  C   UNL A   1      39.099  33.532  37.930  1.00  0.00     0.135 A 
ATOM     93  F   UNL A   1      41.403  35.380  35.803  1.00  0.00    -0.206 F 
ATOM     94  C   UNL A   1      40.374  36.006  37.818  1.00  0.00     0.059 A 
ATOM     95  C   UNL A   1      38.859  34.467  38.931  1.00  0.00     0.059 A 
ATOM     96  F   UNL A   1      38.472  32.347  38.011  1.00  0.00    -0.206 F 
ATOM     97  C   UNL A   1      39.512  35.697  38.872  1.00  0.00     0.060 A 
BRANCH  97  98
ATOM     98  S   UNL A   1      39.236  36.939  40.153  1.00  0.00     0.124 S 
ATOM     99  O   UNL A   1      40.599  37.207  40.601  1.00  0.00    -0.237 OA
ATOM    100  O   UNL A   1      38.591  38.015  39.409  1.00  0.00    -0.237 OA
ATOM    101  O   UNL A   1      38.383  36.251  41.117  1.00  0.00    -0.744 OA
ENDBRANCH  97  98
ENDBRANCH  65  90
ENDBRANCH  39  40
ENDBRANCH  31  34
ENDBRANCH  29  30
ENDBRANCH  28  29
ENDBRANCH   1  28
TORSDOF 19
ENDMDL
MODEL 2
REMARK VINA RESULT:     -12.1      1.541      2.323
REMARK SMILES C[C@@H]1CCC/C(=C\Nc2ccc(C(=O)NCCCCCCNC(=O)c3ccc(-c4c5nc(c(-c6c(F)cc(S(=O)(=O)[O-])cc6F)c6ccc([nH]6)c(-c6c(F)cc(S(=O)(=O)[O-])cc6F)c6nc(c(-c7c(F)cc(S(=O)(=O)[O-])cc7F)c7ccc4[nH]7)C=C6)C=C5)cc3)c(O)c2)C1=O
REMARK SMILES IDX 19 1 18 2 17 3 16 4 15 5 13 6 14 7 12 9 9 10 10 11 93 12
REMARK SMILES IDX 11 13 91 14 8 15 7 17 1 18 2 19 3 20 94 21 4 22 6 23 95 24
REMARK SMILES IDX 5 25 92 26 20 28 21 29 22 30 23 31 24 33 25 34 26 35 90 36
REMARK SMILES IDX 27 37 89 38 28 39 29 40 30 41 83 42 31 43 88 44 82 45 84 46
REMARK SMILES IDX 32 47 87 48 81 49 80 50 33 52 67 53 46 54 66 55 47 56 50 57
REMARK SMILES IDX 65 58 85 59 48 60 49 61 64 63 86 64 51 65 34 66 35 67 44 68
REMARK SMILES IDX 36 69 37 70 43 71 45 72 38 73 39 74 40 75 41 76 42 77 68 78
REMARK SMILES IDX 69 79 78 80 70 81 71 82 77 83 79 84 72 85 73 86 74 87 75 88
REMARK SMILES IDX 76 89 52 90 53 91 62 92 54 93 55 94 61 95 63 96 56 97 57 98
REMARK SMILES IDX 58 99 59 100 60 101
REMARK H PARENT 15 8 8 16 92 27 22 32 84 51 50 62
REMARK Flexibility Score: inf
ROOT
ATOM      1  C   UNL A   1      36.781  23.410  25.063  1.00  0.00     0.002 C 
ENDROOT
BRANCH   1   2
ATOM      2  C   UNL A   1      36.276  22.518  23.926  1.00  0.00     0.002 C 
BRANCH   2   3
ATOM      3  C   UNL A   1      34.843  22.760  23.439  1.00  0.00     0.021 C 
BRANCH   3   4
ATOM      4  C   UNL A   1      33.770  21.839  24.010  1.00  0.00     0.116 C 
BRANCH   4   5
ATOM      5  N   UNL A   1      33.951  21.503  25.413  1.00  0.00    -0.352 N 
ATOM      6  C   UNL A   1      33.567  22.189  26.541  1.00  0.00     0.255 C 
ATOM      7  O   UNL A   1      33.859  21.735  27.646  1.00  0.00    -0.269 OA
ATOM      8  H   UNL A   1      34.420  20.653  25.580  1.00  0.00     0.163 HD
BRANCH   6   9
ATOM      9  C   UNL A   1      32.850  23.487  26.458  1.00  0.00     0.081 A 
ATOM     10  C   UNL A   1      31.606  26.002  26.067  1.00  0.00     0.042 A 
ATOM     11  C   UNL A   1      32.982  25.849  25.872  1.00  0.00     0.027 A 
ATOM     12  C   UNL A   1      30.879  24.893  26.517  1.00  0.00     0.073 A 
ATOM     13  C   UNL A   1      33.598  24.603  26.059  1.00  0.00     0.020 A 
ATOM     14  C   UNL A   1      31.501  23.670  26.764  1.00  0.00     0.130 A 
BRANCH  10  15
ATOM     15  N   UNL A   1      30.910  27.200  25.846  1.00  0.00    -0.361 N 
ATOM     16  H   UNL A   1      30.274  27.454  26.553  1.00  0.00     0.166 HD
BRANCH  15  17
ATOM     17  C   UNL A   1      30.988  28.065  24.789  1.00  0.00     0.090 C 
ATOM     18  C   UNL A   1      29.093  31.137  23.669  1.00  0.00     0.016 C 
ATOM     19  C   UNL A   1      29.192  30.137  22.518  1.00  0.00     0.058 C 
ATOM     20  C   UNL A   1      27.908  29.318  22.322  1.00  0.00     0.012 C 
ATOM     21  C   UNL A   1      30.383  29.228  22.764  1.00  0.00     0.163 C 
ATOM     22  C   UNL A   1      27.701  28.234  23.386  1.00  0.00     0.006 C 
ATOM     23  C   UNL A   1      30.158  28.125  23.738  1.00  0.00     0.011 C 
ATOM     24  O   UNL A   1      31.487  29.437  22.270  1.00  0.00    -0.294 OA
ATOM     25  C   UNL A   1      28.919  27.318  23.501  1.00  0.00     0.041 C 
ENDBRANCH  15  17
ENDBRANCH  10  15
BRANCH  14  26
ATOM     26  O   UNL A   1      30.712  22.724  27.355  1.00  0.00    -0.507 OA
ATOM     27  H   UNL A   1      30.959  21.820  27.322  1.00  0.00     0.293 HD
ENDBRANCH  14  26
ENDBRANCH   6   9
ENDBRANCH   4   5
ENDBRANCH   3   4
ENDBRANCH   2   3
ENDBRANCH   1   2
BRANCH   1  28
ATOM     28  C   UNL A   1      38.034  22.938  25.803  1.00  0.00     0.021 C 
BRANCH  28  29
ATOM     29  C   UNL A   1      38.885  24.028  26.444  1.00  0.00     0.116 C 
BRANCH  29  30
ATOM     30  N   UNL A   1      40.303  23.874  26.169  1.00  0.00    -0.352 N 
ATOM     31  C   UNL A   1      41.364  24.633  26.601  1.00  0.00     0.251 C 
ATOM     32  H   UNL A   1      40.540  23.116  25.587  1.00  0.00     0.163 HD
ATOM     33  O   UNL A   1      42.487  24.423  26.147  1.00  0.00    -0.269 OA
BRANCH  31  34
ATOM     34  C   UNL A   1      41.156  25.719  27.586  1.00  0.00     0.039 A 
ATOM     35  C   UNL A   1      40.081  25.623  28.473  1.00  0.00     0.014 A 
ATOM     36  C   UNL A   1      42.006  26.827  27.637  1.00  0.00     0.014 A 
ATOM     37  C   UNL A   1      39.897  26.604  29.452  1.00  0.00     0.010 A 
ATOM     38  C   UNL A   1      41.865  27.766  28.659  1.00  0.00     0.010 A 
ATOM     39  C   UNL A   1      40.810  27.665  29.577  1.00  0.00    -0.014 A 
BRANCH  39  40
ATOM     40  C   UNL A   1      40.674  28.671  30.664  1.00  0.00     0.031 A 
ATOM     41  C   UNL A   1      41.531  28.573  31.899  1.00  0.00     0.074 A 
ATOM     42  C   UNL A   1      39.746  29.644  30.561  1.00  0.00     0.049 A 
ATOM     43  N   UNL A   1      41.508  29.311  32.979  1.00  0.00    -0.248 NA
ATOM     44  C   UNL A   1      42.528  27.491  31.936  1.00  0.00     0.031 C 
ATOM     45  C   UNL A   1      38.826  29.821  29.434  1.00  0.00     0.029 A 
ATOM     46  N   UNL A   1      39.411  30.663  31.420  1.00  0.00    -0.354 N 
ATOM     47  C   UNL A   1      42.482  28.785  33.821  1.00  0.00     0.074 A 
ATOM     48  C   UNL A   1      43.036  27.628  33.153  1.00  0.00     0.031 C 
ATOM     49  C   UNL A   1      38.048  30.891  29.662  1.00  0.00     0.029 A 
ATOM     50  C   UNL A   1      38.378  31.453  30.967  1.00  0.00     0.049 A 
ATOM     51  H   UNL A   1      39.867  30.813  32.279  1.00  0.00     0.167 HD
ATOM     52  C   UNL A   1      42.894  29.239  35.028  1.00  0.00     0.037 A 
ATOM     53  C   UNL A   1      37.758  32.501  31.544  1.00  0.00     0.037 A 
ATOM     54  C   UNL A   1      42.352  30.402  35.682  1.00  0.00     0.049 A 
ATOM     55  C   UNL A   1      38.221  32.969  32.900  1.00  0.00     0.074 A 
ATOM     56  C   UNL A   1      42.729  30.964  36.889  1.00  0.00     0.029 A 
ATOM     57  N   UNL A   1      41.321  31.185  35.183  1.00  0.00    -0.354 N 
ATOM     58  N   UNL A   1      39.181  32.489  33.655  1.00  0.00    -0.248 NA
ATOM     59  C   UNL A   1      37.523  34.125  33.480  1.00  0.00     0.031 C 
ATOM     60  C   UNL A   1      41.896  32.057  37.143  1.00  0.00     0.029 A 
ATOM     61  C   UNL A   1      41.038  32.213  36.068  1.00  0.00     0.049 A 
ATOM     62  H   UNL A   1      40.858  31.032  34.328  1.00  0.00     0.167 HD
ATOM     63  C   UNL A   1      39.223  33.307  34.780  1.00  0.00     0.074 A 
ATOM     64  C   UNL A   1      38.205  34.318  34.600  1.00  0.00     0.031 C 
ATOM     65  C   UNL A   1      40.032  33.226  35.865  1.00  0.00     0.037 A 
BRANCH  52  66
ATOM     66  C   UNL A   1      44.001  28.492  35.723  1.00  0.00     0.058 A 
ATOM     67  C   UNL A   1      43.728  27.453  36.628  1.00  0.00     0.135 A 
ATOM     68  C   UNL A   1      45.346  28.764  35.426  1.00  0.00     0.135 A 
ATOM     69  F   UNL A   1      42.461  27.162  36.961  1.00  0.00    -0.206 F 
ATOM     70  C   UNL A   1      44.749  26.719  37.222  1.00  0.00     0.059 A 
ATOM     71  C   UNL A   1      46.383  28.023  35.987  1.00  0.00     0.059 A 
ATOM     72  F   UNL A   1      45.665  29.748  34.571  1.00  0.00    -0.206 F 
ATOM     73  C   UNL A   1      46.074  27.006  36.890  1.00  0.00     0.060 A 
BRANCH  73  74
ATOM     74  S   UNL A   1      47.382  26.015  37.641  1.00  0.00     0.124 S 
ATOM     75  O   UNL A   1      48.006  26.985  38.536  1.00  0.00    -0.237 OA
ATOM     76  O   UNL A   1      46.628  24.947  38.291  1.00  0.00    -0.237 OA
ATOM     77  O   UNL A   1      48.194  25.601  36.501  1.00  0.00    -0.744 OA
ENDBRANCH  73  74
ENDBRANCH  52  66
BRANCH  53  78
ATOM     78  C   UNL A   1      36.628  33.183  30.854  1.00  0.00     0.058 A 
ATOM     79  C   UNL A   1      36.858  34.084  29.803  1.00  0.00     0.135 A 
ATOM     80  C   UNL A   1      35.299  32.975  31.253  1.00  0.00     0.135 A 
ATOM     81  F   UNL A   1      38.111  34.323  29.386  1.00  0.00    -0.206 F 
ATOM     82  C   UNL A   1      35.817  34.784  29.199  1.00  0.00     0.059 A 
ATOM     83  C   UNL A   1      34.238  33.637  30.643  1.00  0.00     0.059 A 
ATOM     84  F   UNL A   1      35.020  32.109  32.240  1.00  0.00    -0.206 F 
ATOM     85  C   UNL A   1      34.509  34.555  29.631  1.00  0.00     0.060 A 
BRANCH  85  86
ATOM     86  S   UNL A   1      33.164  35.465  28.841  1.00  0.00     0.124 S 
ATOM     87  O   UNL A   1      33.898  36.410  28.009  1.00  0.00    -0.237 OA
ATOM     88  O   UNL A   1      32.452  34.407  28.133  1.00  0.00    -0.237 OA
ATOM     89  O   UNL A   1      32.445  36.046  29.972  1.00  0.00    -0.744 OA
ENDBRANCH  85  86
ENDBRANCH  53  78
BRANCH  65  90
ATOM     90  C   UNL A   1      39.887  34.288  36.922  1.00  0.00     0.058 A 
ATOM     91  C   UNL A   1      40.464  35.559  36.780  1.00  0.00     0.135 A 
ATOM     92  C   UNL A   1      39.114  34.045  38.069  1.00  0.00     0.135 A 
ATOM     93  F   UNL A   1      41.217  35.843  35.705  1.00  0.00    -0.206 F 
ATOM     94  C   UNL A   1      40.303  36.543  37.750  1.00  0.00     0.059 A 
ATOM     95  C   UNL A   1      38.911  35.023  39.036  1.00  0.00     0.059 A 
ATOM     96  F   UNL A   1      38.529  32.849  38.250  1.00  0.00    -0.206 F 
ATOM     97  C   UNL A   1      39.521  36.266  38.874  1.00  0.00     0.060 A 
BRANCH  97  98
ATOM     98  S   UNL A   1      39.292  37.564  40.107  1.00  0.00     0.124 S 
ATOM     99  O   UNL A   1      38.146  38.286  39.564  1.00  0.00    -0.237 OA
ATOM    100  O   UNL A   1      39.039  36.797  41.323  1.00  0.00    -0.237 OA
ATOM    101  O   UNL A   1      40.559  38.288  40.081  1.00  0.00    -0.744 OA
ENDBRANCH  97  98
ENDBRANCH  65  90
ENDBRANCH  39  40
ENDBRANCH  31  34
ENDBRANCH  29  30
ENDBRANCH  28  29
ENDBRANCH   1  28
TORSDOF 19
ENDMDL
MODEL 3
REMARK VINA RESULT:     -12.1      0.971      8.227
REMARK SMILES C[C@@H]1CCC/C(=C\Nc2ccc(C(=O)NCCCCCCNC(=O)c3ccc(-c4c5nc(c(-c6c(F)cc(S(=O)(=O)[O-])cc6F)c6ccc([nH]6)c(-c6c(F)cc(S(=O)(=O)[O-])cc6F)c6nc(c(-c7c(F)cc(S(=O)(=O)[O-])cc7F)c7ccc4[nH]7)C=C6)C=C5)cc3)c(O)c2)C1=O
REMARK SMILES IDX 19 1 18 2 17 3 16 4 15 5 13 6 14 7 12 9 9 10 10 11 93 12
REMARK SMILES IDX 11 13 91 14 8 15 7 17 1 18 2 19 3 20 94 21 4 22 6 23 95 24
REMARK SMILES IDX 5 25 92 26 20 28 21 29 22 30 23 31 24 33 25 34 26 35 90 36
REMARK SMILES IDX 27 37 89 38 28 39 29 40 30 41 83 42 31 43 88 44 82 45 84 46
REMARK SMILES IDX 32 47 87 48 81 49 80 50 33 52 67 53 46 54 66 55 47 56 50 57
REMARK SMILES IDX 65 58 85 59 48 60 49 61 64 63 86 64 51 65 34 66 35 67 44 68
REMARK SMILES IDX 36 69 37 70 43 71 45 72 38 73 39 74 40 75 41 76 42 77 68 78
REMARK SMILES IDX 69 79 78 80 70 81 71 82 77 83 79 84 72 85 73 86 74 87 75 88
REMARK SMILES IDX 76 89 52 90 53 91 62 92 54 93 55 94 61 95 63 96 56 97 57 98
REMARK SMILES IDX 58 99 59 100 60 101
REMARK H PARENT 15 8 8 16 92 27 22 32 84 51 50 62
REMARK Flexibility Score: inf
ROOT
ATOM      1  C   UNL A   1      37.333  23.923  26.115  1.00  0.00     0.002 C 
ENDROOT
BRANCH   1   2
ATOM      2  C   UNL A   1      35.928  23.325  26.001  1.00  0.00     0.002 C 
BRANCH   2   3
ATOM      3  C   UNL A   1      35.827  21.797  25.951  1.00  0.00     0.021 C 
BRANCH   3   4
ATOM      4  C   UNL A   1      35.291  21.196  24.657  1.00  0.00     0.116 C 
BRANCH   4   5
ATOM      5  N   UNL A   1      34.261  20.185  24.843  1.00  0.00    -0.352 N 
ATOM      6  C   UNL A   1      32.909  20.332  25.049  1.00  0.00     0.255 C 
ATOM      7  O   UNL A   1      32.219  19.329  25.222  1.00  0.00    -0.269 OA
ATOM      8  H   UNL A   1      34.582  19.255  24.819  1.00  0.00     0.163 HD
BRANCH   6   9
ATOM      9  C   UNL A   1      32.270  21.671  25.110  1.00  0.00     0.081 A 
ATOM     10  C   UNL A   1      30.869  24.133  25.052  1.00  0.00     0.042 A 
ATOM     11  C   UNL A   1      31.188  23.465  23.866  1.00  0.00     0.027 A 
ATOM     12  C   UNL A   1      31.315  23.577  26.259  1.00  0.00     0.073 A 
ATOM     13  C   UNL A   1      31.876  22.243  23.893  1.00  0.00     0.020 A 
ATOM     14  C   UNL A   1      32.053  22.395  26.282  1.00  0.00     0.130 A 
BRANCH  10  15
ATOM     15  N   UNL A   1      30.136  25.327  25.109  1.00  0.00    -0.361 N 
ATOM     16  H   UNL A   1      29.250  25.257  25.534  1.00  0.00     0.166 HD
BRANCH  15  17
ATOM     17  C   UNL A   1      30.474  26.574  24.660  1.00  0.00     0.090 C 
ATOM     18  C   UNL A   1      33.639  28.234  23.431  1.00  0.00     0.016 C 
ATOM     19  C   UNL A   1      32.990  29.090  24.517  1.00  0.00     0.058 C 
ATOM     20  C   UNL A   1      33.654  28.922  25.891  1.00  0.00     0.012 C 
ATOM     21  C   UNL A   1      31.511  28.751  24.584  1.00  0.00     0.163 C 
ATOM     22  C   UNL A   1      33.313  27.597  26.582  1.00  0.00     0.006 C 
ATOM     23  C   UNL A   1      31.172  27.505  25.326  1.00  0.00     0.011 C 
ATOM     24  O   UNL A   1      30.656  29.402  23.992  1.00  0.00    -0.294 OA
ATOM     25  C   UNL A   1      31.802  27.385  26.678  1.00  0.00     0.041 C 
ENDBRANCH  15  17
ENDBRANCH  10  15
BRANCH  14  26
ATOM     26  O   UNL A   1      32.565  22.053  27.503  1.00  0.00    -0.507 OA
ATOM     27  H   UNL A   1      32.140  22.342  28.287  1.00  0.00     0.293 HD
ENDBRANCH  14  26
ENDBRANCH   6   9
ENDBRANCH   4   5
ENDBRANCH   3   4
ENDBRANCH   2   3
ENDBRANCH   1   2
BRANCH   1  28
ATOM     28  C   UNL A   1      38.488  22.936  26.297  1.00  0.00     0.021 C 
BRANCH  28  29
ATOM     29  C   UNL A   1      39.722  23.473  27.013  1.00  0.00     0.116 C 
BRANCH  29  30
ATOM     30  N   UNL A   1      40.722  23.999  26.101  1.00  0.00    -0.352 N 
ATOM     31  C   UNL A   1      41.340  25.226  26.096  1.00  0.00     0.251 C 
ATOM     32  H   UNL A   1      40.999  23.388  25.381  1.00  0.00     0.163 HD
ATOM     33  O   UNL A   1      42.066  25.537  25.154  1.00  0.00    -0.269 OA
BRANCH  31  34
ATOM     34  C   UNL A   1      41.111  26.185  27.201  1.00  0.00     0.039 A 
ATOM     35  C   UNL A   1      40.103  25.911  28.129  1.00  0.00     0.014 A 
ATOM     36  C   UNL A   1      41.876  27.348  27.325  1.00  0.00     0.014 A 
ATOM     37  C   UNL A   1      39.906  26.768  29.215  1.00  0.00     0.010 A 
ATOM     38  C   UNL A   1      41.727  28.162  28.447  1.00  0.00     0.010 A 
ATOM     39  C   UNL A   1      40.741  27.882  29.405  1.00  0.00    -0.014 A 
BRANCH  39  40
ATOM     40  C   UNL A   1      40.597  28.756  30.599  1.00  0.00     0.031 A 
ATOM     41  C   UNL A   1      39.566  29.855  30.614  1.00  0.00     0.074 A 
ATOM     42  C   UNL A   1      41.426  28.594  31.649  1.00  0.00     0.049 A 
ATOM     43  N   UNL A   1      39.339  30.760  31.531  1.00  0.00    -0.248 NA
ATOM     44  C   UNL A   1      38.691  29.966  29.436  1.00  0.00     0.031 C 
ATOM     45  C   UNL A   1      42.493  27.593  31.739  1.00  0.00     0.029 A 
ATOM     46  N   UNL A   1      41.514  29.272  32.841  1.00  0.00    -0.354 N 
ATOM     47  C   UNL A   1      38.301  31.545  31.042  1.00  0.00     0.074 A 
ATOM     48  C   UNL A   1      37.981  31.048  29.722  1.00  0.00     0.031 C 
ATOM     49  C   UNL A   1      43.113  27.711  32.925  1.00  0.00     0.029 A 
ATOM     50  C   UNL A   1      42.520  28.821  33.664  1.00  0.00     0.049 A 
ATOM     51  H   UNL A   1      40.912  30.013  33.082  1.00  0.00     0.167 HD
ATOM     52  C   UNL A   1      37.655  32.569  31.649  1.00  0.00     0.037 A 
ATOM     53  C   UNL A   1      42.931  29.261  34.870  1.00  0.00     0.037 A 
ATOM     54  C   UNL A   1      37.963  33.049  32.971  1.00  0.00     0.049 A 
ATOM     55  C   UNL A   1      42.210  30.419  35.510  1.00  0.00     0.074 A 
ATOM     56  C   UNL A   1      37.341  34.057  33.687  1.00  0.00     0.029 A 
ATOM     57  N   UNL A   1      38.978  32.555  33.779  1.00  0.00    -0.354 N 
ATOM     58  N   UNL A   1      41.193  31.113  35.054  1.00  0.00    -0.248 NA
ATOM     59  C   UNL A   1      42.684  30.851  36.832  1.00  0.00     0.031 C 
ATOM     60  C   UNL A   1      38.008  34.204  34.907  1.00  0.00     0.029 A 
ATOM     61  C   UNL A   1      39.009  33.250  34.977  1.00  0.00     0.049 A 
ATOM     62  H   UNL A   1      39.586  31.820  33.536  1.00  0.00     0.167 HD
ATOM     63  C   UNL A   1      40.887  32.036  36.048  1.00  0.00     0.074 A 
ATOM     64  C   UNL A   1      41.814  31.804  37.134  1.00  0.00     0.031 C 
ATOM     65  C   UNL A   1      39.926  32.993  36.059  1.00  0.00     0.037 A 
BRANCH  52  66
ATOM     66  C   UNL A   1      36.531  33.237  30.902  1.00  0.00     0.058 A 
ATOM     67  C   UNL A   1      35.189  33.044  31.271  1.00  0.00     0.135 A 
ATOM     68  C   UNL A   1      36.798  34.136  29.857  1.00  0.00     0.135 A 
ATOM     69  F   UNL A   1      34.875  32.182  32.251  1.00  0.00    -0.206 F 
ATOM     70  C   UNL A   1      34.154  33.709  30.624  1.00  0.00     0.059 A 
ATOM     71  C   UNL A   1      35.779  34.834  29.215  1.00  0.00     0.059 A 
ATOM     72  F   UNL A   1      38.061  34.356  29.461  1.00  0.00    -0.206 F 
ATOM     73  C   UNL A   1      34.459  34.609  29.601  1.00  0.00     0.060 A 
BRANCH  73  74
ATOM     74  S   UNL A   1      33.104  35.492  28.803  1.00  0.00     0.124 S 
ATOM     75  O   UNL A   1      32.354  35.981  29.957  1.00  0.00    -0.237 OA
ATOM     76  O   UNL A   1      33.809  36.510  28.029  1.00  0.00    -0.237 OA
ATOM     77  O   UNL A   1      32.439  34.459  28.015  1.00  0.00    -0.744 OA
ENDBRANCH  73  74
ENDBRANCH  52  66
BRANCH  53  78
ATOM     78  C   UNL A   1      44.082  28.613  35.558  1.00  0.00     0.058 A 
ATOM     79  C   UNL A   1      43.884  27.585  36.493  1.00  0.00     0.135 A 
ATOM     80  C   UNL A   1      45.400  29.032  35.321  1.00  0.00     0.135 A 
ATOM     81  F   UNL A   1      42.643  27.151  36.759  1.00  0.00    -0.206 F 
ATOM     82  C   UNL A   1      44.946  27.024  37.196  1.00  0.00     0.059 A 
ATOM     83  C   UNL A   1      46.481  28.463  35.988  1.00  0.00     0.059 A 
ATOM     84  F   UNL A   1      45.649  29.998  34.423  1.00  0.00    -0.206 F 
ATOM     85  C   UNL A   1      46.242  27.474  36.938  1.00  0.00     0.060 A 
BRANCH  85  86
ATOM     86  S   UNL A   1      47.614  26.738  37.854  1.00  0.00     0.124 S 
ATOM     87  O   UNL A   1      47.030  26.581  39.180  1.00  0.00    -0.237 OA
ATOM     88  O   UNL A   1      47.853  25.507  37.110  1.00  0.00    -0.237 OA
ATOM     89  O   UNL A   1      48.667  27.745  37.743  1.00  0.00    -0.744 OA
ENDBRANCH  85  86
ENDBRANCH  53  78
BRANCH  65  90
ATOM     90  C   UNL A   1      39.791  33.829  37.303  1.00  0.00     0.058 A 
ATOM     91  C   UNL A   1      40.552  34.991  37.502  1.00  0.00     0.135 A 
ATOM     92  C   UNL A   1      38.846  33.489  38.285  1.00  0.00     0.135 A 
ATOM     93  F   UNL A   1      41.473  35.359  36.597  1.00  0.00    -0.206 F 
ATOM     94  C   UNL A   1      40.401  35.772  38.644  1.00  0.00     0.059 A 
ATOM     95  C   UNL A   1      38.655  34.272  39.419  1.00  0.00     0.059 A 
ATOM     96  F   UNL A   1      38.083  32.393  38.140  1.00  0.00    -0.206 F 
ATOM     97  C   UNL A   1      39.447  35.406  39.595  1.00  0.00     0.060 A 
BRANCH  97  98
ATOM     98  S   UNL A   1      39.238  36.448  41.054  1.00  0.00     0.124 S 
ATOM     99  O   UNL A   1      38.550  37.605  40.491  1.00  0.00    -0.237 OA
ATOM    100  O   UNL A   1      38.438  35.600  41.931  1.00  0.00    -0.237 OA
ATOM    101  O   UNL A   1      40.607  36.688  41.501  1.00  0.00    -0.744 OA
ENDBRANCH  97  98
ENDBRANCH  65  90
ENDBRANCH  39  40
ENDBRANCH  31  34
ENDBRANCH  29  30
ENDBRANCH  28  29
ENDBRANCH   1  28
TORSDOF 19
ENDMDL
