MODEL 1
REMARK VINA RESULT:     -12.0      0.000      0.000
REMARK SMILES CC1=C(C(=O)NCCCCCCNC(=O)c2ccc(-c3c4nc(c(-c5c(F)cc(S(=O)(=O)[O-])cc5F)c5ccc([nH]5)c(-c5c(F)cc(S(=O)(=O)[O-])cc5F)c5nc(c(-c6c(F)cc(S(=O)(=O)[O-])cc6F)c6ccc3[nH]6)C=C5)C=C4)cc2)N2C(=O)[C@H](NC(=O)c3cc(C(F)(F)F)nn3C)[C@@H]2SC1
REMARK SMILES IDX 9 1 8 2 7 3 6 4 4 5 5 6 3 8 1 9 2 10 101 11 82 12 100 13
REMARK SMILES IDX 83 14 99 15 84 16 85 17 86 18 87 19 88 21 89 22 90 23 97 24
REMARK SMILES IDX 91 25 96 26 98 27 92 28 93 29 94 30 95 31 10 32 11 33 12 34
REMARK SMILES IDX 13 35 14 36 15 38 16 39 17 40 81 41 18 42 80 43 19 44 20 45
REMARK SMILES IDX 21 46 74 47 22 48 79 49 73 50 75 51 23 52 78 53 72 54 71 55
REMARK SMILES IDX 24 57 58 58 37 59 57 60 38 61 41 62 56 63 76 64 39 65 40 66
REMARK SMILES IDX 55 68 77 69 42 70 25 71 26 72 35 73 27 74 28 75 34 76 36 77
REMARK SMILES IDX 29 78 30 79 31 80 32 81 33 82 59 83 60 84 69 85 61 86 62 87
REMARK SMILES IDX 68 88 70 89 63 90 64 91 65 92 66 93 67 94 43 95 44 96 53 97
REMARK SMILES IDX 45 98 46 99 52 100 54 101 47 102 48 103 49 104 50 105 51 106
REMARK H PARENT 6 7 86 20 13 37 75 56 41 67
REMARK Flexibility Score: inf
ROOT
ATOM      1  C   UNL A   1      34.116  28.572  24.950  1.00  0.00     0.002 C 
ENDROOT
BRANCH   1   2
ATOM      2  C   UNL A   1      33.469  28.731  23.573  1.00  0.00     0.021 C 
BRANCH   2   3
ATOM      3  C   UNL A   1      34.020  27.781  22.498  1.00  0.00     0.116 C 
BRANCH   3   4
ATOM      4  N   UNL A   1      32.926  27.354  21.652  1.00  0.00    -0.351 N 
ATOM      5  C   UNL A   1      32.023  26.350  21.741  1.00  0.00     0.268 C 
ATOM      6  O   UNL A   1      31.434  26.045  20.696  1.00  0.00    -0.268 OA
ATOM      7  H   UNL A   1      32.816  27.908  20.846  1.00  0.00     0.163 HD
BRANCH   5   8
ATOM      8  C   UNL A   1      31.623  25.627  23.011  1.00  0.00     0.110 C 
ATOM      9  C   UNL A   1      29.749  27.120  23.867  1.00  0.00     0.043 C 
ATOM     10  C   UNL A   1      30.678  25.941  23.934  1.00  0.00    -0.034 C 
ATOM     11  C   UNL A   1      30.440  25.168  25.232  1.00  0.00     0.104 C 
ATOM     12  N   UNL A   1      32.489  24.620  23.321  1.00  0.00    -0.290 N 
ATOM     13  S   UNL A   1      31.409  23.658  25.480  1.00  0.00    -0.129 SA
ATOM     14  C   UNL A   1      33.341  23.793  22.688  1.00  0.00     0.253 C 
ATOM     15  C   UNL A   1      32.885  24.313  24.669  1.00  0.00     0.181 C 
ATOM     16  O   UNL A   1      33.527  23.522  21.521  1.00  0.00    -0.272 OA
ATOM     17  C   UNL A   1      33.884  23.285  24.057  1.00  0.00     0.206 C 
BRANCH  17  18
ATOM     18  N   UNL A   1      33.644  21.857  24.378  1.00  0.00    -0.336 N 
ATOM     19  C   UNL A   1      34.505  20.947  24.933  1.00  0.00     0.270 C 
ATOM     20  H   UNL A   1      32.746  21.517  24.163  1.00  0.00     0.164 HD
ATOM     21  O   UNL A   1      34.130  19.785  25.064  1.00  0.00    -0.268 OA
BRANCH  19  22
ATOM     22  C   UNL A   1      35.830  21.384  25.290  1.00  0.00     0.126 A 
ATOM     23  C   UNL A   1      36.276  22.575  25.837  1.00  0.00     0.069 A 
ATOM     24  N   UNL A   1      36.956  20.609  25.178  1.00  0.00    -0.262 N 
ATOM     25  C   UNL A   1      37.688  22.469  25.927  1.00  0.00     0.167 A 
ATOM     26  N   UNL A   1      38.093  21.252  25.517  1.00  0.00    -0.168 NA
ATOM     27  C   UNL A   1      37.066  19.260  24.671  1.00  0.00     0.174 C 
BRANCH  25  28
ATOM     28  C   UNL A   1      38.647  23.535  26.389  1.00  0.00     0.435 C 
ATOM     29  F   UNL A   1      38.811  24.528  25.476  1.00  0.00    -0.164 F 
ATOM     30  F   UNL A   1      38.251  24.122  27.550  1.00  0.00    -0.164 F 
ATOM     31  F   UNL A   1      39.887  23.023  26.627  1.00  0.00    -0.164 F 
ENDBRANCH  25  28
ENDBRANCH  19  22
ENDBRANCH  17  18
ENDBRANCH   5   8
ENDBRANCH   3   4
ENDBRANCH   2   3
ENDBRANCH   1   2
BRANCH   1  32
ATOM     32  C   UNL A   1      33.120  28.423  26.104  1.00  0.00     0.002 C 
BRANCH  32  33
ATOM     33  C   UNL A   1      33.711  28.599  27.507  1.00  0.00     0.021 C 
BRANCH  33  34
ATOM     34  C   UNL A   1      35.046  29.342  27.561  1.00  0.00     0.116 C 
BRANCH  34  35
ATOM     35  N   UNL A   1      35.098  30.278  28.672  1.00  0.00    -0.352 N 
ATOM     36  C   UNL A   1      36.124  30.538  29.547  1.00  0.00     0.251 C 
ATOM     37  H   UNL A   1      34.277  30.802  28.820  1.00  0.00     0.163 HD
ATOM     38  O   UNL A   1      35.905  31.175  30.573  1.00  0.00    -0.269 OA
BRANCH  36  39
ATOM     39  C   UNL A   1      37.489  30.046  29.258  1.00  0.00     0.039 A 
ATOM     40  C   UNL A   1      37.905  29.937  27.928  1.00  0.00     0.014 A 
ATOM     41  C   UNL A   1      38.346  29.663  30.295  1.00  0.00     0.014 A 
ATOM     42  C   UNL A   1      39.201  29.499  27.640  1.00  0.00     0.010 A 
ATOM     43  C   UNL A   1      39.656  29.283  30.010  1.00  0.00     0.010 A 
ATOM     44  C   UNL A   1      40.096  29.196  28.680  1.00  0.00    -0.014 A 
BRANCH  44  45
ATOM     45  C   UNL A   1      41.499  28.797  28.399  1.00  0.00     0.031 A 
ATOM     46  C   UNL A   1      42.589  29.833  28.369  1.00  0.00     0.074 A 
ATOM     47  C   UNL A   1      41.776  27.513  28.097  1.00  0.00     0.049 A 
ATOM     48  N   UNL A   1      43.851  29.695  28.053  1.00  0.00    -0.248 NA
ATOM     49  C   UNL A   1      42.204  31.211  28.713  1.00  0.00     0.031 C 
ATOM     50  C   UNL A   1      40.797  26.426  28.049  1.00  0.00     0.029 A 
ATOM     51  N   UNL A   1      42.959  26.908  27.758  1.00  0.00    -0.354 N 
ATOM     52  C   UNL A   1      44.408  30.965  28.145  1.00  0.00     0.074 A 
ATOM     53  C   UNL A   1      43.336  31.869  28.503  1.00  0.00     0.031 C 
ATOM     54  C   UNL A   1      41.421  25.285  27.713  1.00  0.00     0.029 A 
ATOM     55  C   UNL A   1      42.836  25.565  27.488  1.00  0.00     0.049 A 
ATOM     56  H   UNL A   1      43.817  27.389  27.711  1.00  0.00     0.167 HD
ATOM     57  C   UNL A   1      45.697  31.340  27.966  1.00  0.00     0.037 A 
ATOM     58  C   UNL A   1      43.755  24.664  27.093  1.00  0.00     0.037 A 
ATOM     59  C   UNL A   1      46.764  30.431  27.638  1.00  0.00     0.049 A 
ATOM     60  C   UNL A   1      45.181  25.102  26.906  1.00  0.00     0.074 A 
ATOM     61  C   UNL A   1      48.114  30.702  27.497  1.00  0.00     0.029 A 
ATOM     62  N   UNL A   1      46.603  29.074  27.397  1.00  0.00    -0.354 N 
ATOM     63  N   UNL A   1      45.700  26.298  27.053  1.00  0.00    -0.248 NA
ATOM     64  C   UNL A   1      46.147  24.071  26.504  1.00  0.00     0.031 C 
ATOM     65  C   UNL A   1      48.763  29.517  27.134  1.00  0.00     0.029 A 
ATOM     66  C   UNL A   1      47.824  28.498  27.089  1.00  0.00     0.049 A 
ATOM     67  H   UNL A   1      45.746  28.591  27.438  1.00  0.00     0.167 HD
ATOM     68  C   UNL A   1      47.056  26.160  26.781  1.00  0.00     0.074 A 
ATOM     69  C   UNL A   1      47.279  24.761  26.474  1.00  0.00     0.031 C 
ATOM     70  C   UNL A   1      48.029  27.104  26.785  1.00  0.00     0.037 A 
BRANCH  57  71
ATOM     71  C   UNL A   1      46.027  32.799  28.128  1.00  0.00     0.058 A 
ATOM     72  C   UNL A   1      46.459  33.323  29.357  1.00  0.00     0.135 A 
ATOM     73  C   UNL A   1      45.943  33.677  27.036  1.00  0.00     0.135 A 
ATOM     74  F   UNL A   1      46.544  32.531  30.438  1.00  0.00    -0.206 F 
ATOM     75  C   UNL A   1      46.766  34.672  29.505  1.00  0.00     0.059 A 
ATOM     76  C   UNL A   1      46.270  35.025  27.154  1.00  0.00     0.059 A 
ATOM     77  F   UNL A   1      45.536  33.228  25.838  1.00  0.00    -0.206 F 
ATOM     78  C   UNL A   1      46.665  35.516  28.398  1.00  0.00     0.060 A 
BRANCH  78  79
ATOM     79  S   UNL A   1      47.066  37.264  28.605  1.00  0.00     0.124 S 
ATOM     80  O   UNL A   1      45.827  37.779  29.181  1.00  0.00    -0.237 OA
ATOM     81  O   UNL A   1      48.212  37.218  29.507  1.00  0.00    -0.237 OA
ATOM     82  O   UNL A   1      47.358  37.710  27.246  1.00  0.00    -0.744 OA
ENDBRANCH  78  79
ENDBRANCH  57  71
BRANCH  58  83
ATOM     83  C   UNL A   1      43.354  23.251  26.864  1.00  0.00     0.058 A 
ATOM     84  C   UNL A   1      43.261  22.731  25.564  1.00  0.00     0.135 A 
ATOM     85  C   UNL A   1      43.077  22.388  27.935  1.00  0.00     0.135 A 
ATOM     86  F   UNL A   1      43.510  23.520  24.508  1.00  0.00    -0.206 F 
ATOM     87  C   UNL A   1      42.896  21.410  25.333  1.00  0.00     0.059 A 
ATOM     88  C   UNL A   1      42.732  21.056  27.730  1.00  0.00     0.059 A 
ATOM     89  F   UNL A   1      43.169  22.833  29.198  1.00  0.00    -0.206 F 
ATOM     90  C   UNL A   1      42.635  20.578  26.424  1.00  0.00     0.060 A 
BRANCH  90  91
ATOM     91  S   UNL A   1      42.219  18.848  26.117  1.00  0.00     0.124 S 
ATOM     92  O   UNL A   1      42.454  18.253  27.427  1.00  0.00    -0.237 OA
ATOM     93  O   UNL A   1      40.824  18.938  25.696  1.00  0.00    -0.237 OA
ATOM     94  O   UNL A   1      43.157  18.460  25.067  1.00  0.00    -0.744 OA
ENDBRANCH  90  91
ENDBRANCH  58  83
BRANCH  70  95
ATOM     95  C   UNL A   1      49.427  26.654  26.468  1.00  0.00     0.058 A 
ATOM     96  C   UNL A   1      50.238  26.042  27.435  1.00  0.00     0.135 A 
ATOM     97  C   UNL A   1      49.943  26.796  25.170  1.00  0.00     0.135 A 
ATOM     98  F   UNL A   1      49.794  25.890  28.693  1.00  0.00    -0.206 F 
ATOM     99  C   UNL A   1      51.524  25.603  27.133  1.00  0.00     0.059 A 
ATOM    100  C   UNL A   1      51.217  26.343  24.839  1.00  0.00     0.059 A 
ATOM    101  F   UNL A   1      49.204  27.366  24.207  1.00  0.00    -0.206 F 
ATOM    102  C   UNL A   1      52.003  25.758  25.830  1.00  0.00     0.060 A 
BRANCH 102 103
ATOM    103  S   UNL A   1      53.661  25.158  25.442  1.00  0.00     0.124 S 
ATOM    104  O   UNL A   1      54.442  25.720  26.537  1.00  0.00    -0.237 OA
ATOM    105  O   UNL A   1      53.484  23.710  25.467  1.00  0.00    -0.237 OA
ATOM    106  O   UNL A   1      53.926  25.727  24.123  1.00  0.00    -0.744 OA
ENDBRANCH 102 103
ENDBRANCH  70  95
ENDBRANCH  44  45
ENDBRANCH  36  39
ENDBRANCH  34  35
ENDBRANCH  33  34
ENDBRANCH  32  33
ENDBRANCH   1  32
TORSDOF 19
ENDMDL
MODEL 2
REMARK VINA RESULT:     -11.7      1.403      2.289
REMARK SMILES CC1=C(C(=O)NCCCCCCNC(=O)c2ccc(-c3c4nc(c(-c5c(F)cc(S(=O)(=O)[O-])cc5F)c5ccc([nH]5)c(-c5c(F)cc(S(=O)(=O)[O-])cc5F)c5nc(c(-c6c(F)cc(S(=O)(=O)[O-])cc6F)c6ccc3[nH]6)C=C5)C=C4)cc2)N2C(=O)[C@H](NC(=O)c3cc(C(F)(F)F)nn3C)[C@@H]2SC1
REMARK SMILES IDX 9 1 8 2 7 3 6 4 4 5 5 6 3 8 1 9 2 10 101 11 82 12 100 13
REMARK SMILES IDX 83 14 99 15 84 16 85 17 86 18 87 19 88 21 89 22 90 23 97 24
REMARK SMILES IDX 91 25 96 26 98 27 92 28 93 29 94 30 95 31 10 32 11 33 12 34
REMARK SMILES IDX 13 35 14 36 15 38 16 39 17 40 81 41 18 42 80 43 19 44 20 45
REMARK SMILES IDX 21 46 74 47 22 48 79 49 73 50 75 51 23 52 78 53 72 54 71 55
REMARK SMILES IDX 24 57 58 58 37 59 57 60 38 61 41 62 56 63 76 64 39 65 40 66
REMARK SMILES IDX 55 68 77 69 42 70 25 71 26 72 35 73 27 74 28 75 34 76 36 77
REMARK SMILES IDX 29 78 30 79 31 80 32 81 33 82 59 83 60 84 69 85 61 86 62 87
REMARK SMILES IDX 68 88 70 89 63 90 64 91 65 92 66 93 67 94 43 95 44 96 53 97
REMARK SMILES IDX 45 98 46 99 52 100 54 101 47 102 48 103 49 104 50 105 51 106
REMARK H PARENT 6 7 86 20 13 37 75 56 41 67
REMARK Flexibility Score: inf
ROOT
ATOM      1  C   UNL A   1      34.754  30.692  27.603  1.00  0.00     0.002 C 
ENDROOT
BRANCH   1   2
ATOM      2  C   UNL A   1      33.459  30.176  26.972  1.00  0.00     0.021 C 
BRANCH   2   3
ATOM      3  C   UNL A   1      33.620  28.883  26.157  1.00  0.00     0.116 C 
BRANCH   3   4
ATOM      4  N   UNL A   1      33.696  29.227  24.754  1.00  0.00    -0.351 N 
ATOM      5  C   UNL A   1      33.094  28.738  23.645  1.00  0.00     0.268 C 
ATOM      6  O   UNL A   1      33.622  29.020  22.561  1.00  0.00    -0.268 OA
ATOM      7  H   UNL A   1      34.313  29.971  24.567  1.00  0.00     0.163 HD
BRANCH   5   8
ATOM      8  C   UNL A   1      31.804  27.943  23.614  1.00  0.00     0.110 C 
ATOM      9  C   UNL A   1      30.072  29.798  23.800  1.00  0.00     0.043 C 
ATOM     10  C   UNL A   1      30.516  28.366  23.695  1.00  0.00    -0.034 C 
ATOM     11  C   UNL A   1      29.299  27.442  23.748  1.00  0.00     0.104 C 
ATOM     12  N   UNL A   1      32.027  26.600  23.698  1.00  0.00    -0.290 N 
ATOM     13  S   UNL A   1      29.606  25.667  23.560  1.00  0.00    -0.129 SA
ATOM     14  C   UNL A   1      33.000  25.721  23.399  1.00  0.00     0.253 C 
ATOM     15  C   UNL A   1      31.181  25.710  24.446  1.00  0.00     0.181 C 
ATOM     16  O   UNL A   1      34.023  25.796  22.754  1.00  0.00    -0.272 OA
ATOM     17  C   UNL A   1      32.215  24.588  24.127  1.00  0.00     0.206 C 
BRANCH  17  18
ATOM     18  N   UNL A   1      31.735  23.466  23.285  1.00  0.00    -0.336 N 
ATOM     19  C   UNL A   1      32.301  22.231  23.097  1.00  0.00     0.270 C 
ATOM     20  H   UNL A   1      30.898  23.629  22.794  1.00  0.00     0.164 HD
ATOM     21  O   UNL A   1      31.775  21.456  22.304  1.00  0.00    -0.268 OA
BRANCH  19  22
ATOM     22  C   UNL A   1      33.518  21.920  23.803  1.00  0.00     0.126 A 
ATOM     23  C   UNL A   1      34.777  22.492  23.735  1.00  0.00     0.069 A 
ATOM     24  N   UNL A   1      33.624  20.954  24.770  1.00  0.00    -0.262 N 
ATOM     25  C   UNL A   1      35.601  21.746  24.619  1.00  0.00     0.167 A 
ATOM     26  N   UNL A   1      34.877  20.802  25.249  1.00  0.00    -0.168 NA
ATOM     27  C   UNL A   1      32.601  20.054  25.252  1.00  0.00     0.174 C 
BRANCH  25  28
ATOM     28  C   UNL A   1      37.079  21.928  24.845  1.00  0.00     0.435 C 
ATOM     29  F   UNL A   1      37.563  23.068  24.286  1.00  0.00    -0.164 F 
ATOM     30  F   UNL A   1      37.402  21.962  26.166  1.00  0.00    -0.164 F 
ATOM     31  F   UNL A   1      37.796  20.901  24.307  1.00  0.00    -0.164 F 
ENDBRANCH  25  28
ENDBRANCH  19  22
ENDBRANCH  17  18
ENDBRANCH   5   8
ENDBRANCH   3   4
ENDBRANCH   2   3
ENDBRANCH   1   2
BRANCH   1  32
ATOM     32  C   UNL A   1      34.679  32.134  28.112  1.00  0.00     0.002 C 
BRANCH  32  33
ATOM     33  C   UNL A   1      35.968  32.950  27.965  1.00  0.00     0.021 C 
BRANCH  33  34
ATOM     34  C   UNL A   1      36.784  33.111  29.247  1.00  0.00     0.116 C 
BRANCH  34  35
ATOM     35  N   UNL A   1      36.269  32.277  30.322  1.00  0.00    -0.352 N 
ATOM     36  C   UNL A   1      36.707  31.053  30.761  1.00  0.00     0.251 C 
ATOM     37  H   UNL A   1      35.494  32.644  30.804  1.00  0.00     0.163 HD
ATOM     38  O   UNL A   1      36.000  30.385  31.510  1.00  0.00    -0.269 OA
BRANCH  36  39
ATOM     39  C   UNL A   1      38.024  30.535  30.328  1.00  0.00     0.039 A 
ATOM     40  C   UNL A   1      38.232  30.252  28.976  1.00  0.00     0.014 A 
ATOM     41  C   UNL A   1      39.040  30.297  31.259  1.00  0.00     0.014 A 
ATOM     42  C   UNL A   1      39.478  29.787  28.548  1.00  0.00     0.010 A 
ATOM     43  C   UNL A   1      40.300  29.889  30.824  1.00  0.00     0.010 A 
ATOM     44  C   UNL A   1      40.531  29.629  29.464  1.00  0.00    -0.014 A 
BRANCH  44  45
ATOM     45  C   UNL A   1      41.883  29.205  29.021  1.00  0.00     0.031 A 
ATOM     46  C   UNL A   1      43.000  30.208  28.929  1.00  0.00     0.074 A 
ATOM     47  C   UNL A   1      42.084  27.930  28.630  1.00  0.00     0.049 A 
ATOM     48  N   UNL A   1      44.218  30.050  28.479  1.00  0.00    -0.248 NA
ATOM     49  C   UNL A   1      42.700  31.577  29.378  1.00  0.00     0.031 C 
ATOM     50  C   UNL A   1      41.068  26.876  28.631  1.00  0.00     0.029 A 
ATOM     51  N   UNL A   1      43.205  27.309  28.142  1.00  0.00    -0.354 N 
ATOM     52  C   UNL A   1      44.825  31.296  28.574  1.00  0.00     0.074 A 
ATOM     53  C   UNL A   1      43.827  32.212  29.084  1.00  0.00     0.031 C 
ATOM     54  C   UNL A   1      41.615  25.737  28.178  1.00  0.00     0.029 A 
ATOM     55  C   UNL A   1      43.009  25.986  27.822  1.00  0.00     0.049 A 
ATOM     56  H   UNL A   1      44.070  27.767  28.030  1.00  0.00     0.167 HD
ATOM     57  C   UNL A   1      46.101  31.642  28.282  1.00  0.00     0.037 A 
ATOM     58  C   UNL A   1      43.852  25.080  27.290  1.00  0.00     0.037 A 
ATOM     59  C   UNL A   1      47.097  30.720  27.801  1.00  0.00     0.049 A 
ATOM     60  C   UNL A   1      45.265  25.485  26.979  1.00  0.00     0.074 A 
ATOM     61  C   UNL A   1      48.435  30.958  27.535  1.00  0.00     0.029 A 
ATOM     62  N   UNL A   1      46.866  29.382  27.512  1.00  0.00    -0.354 N 
ATOM     63  N   UNL A   1      45.837  26.656  27.129  1.00  0.00    -0.248 NA
ATOM     64  C   UNL A   1      46.149  24.449  26.430  1.00  0.00     0.031 C 
ATOM     65  C   UNL A   1      49.002  29.775  27.050  1.00  0.00     0.029 A 
ATOM     66  C   UNL A   1      48.029  28.788  27.053  1.00  0.00     0.049 A 
ATOM     67  H   UNL A   1      46.001  28.924  27.618  1.00  0.00     0.167 HD
ATOM     68  C   UNL A   1      47.153  26.492  26.712  1.00  0.00     0.074 A 
ATOM     69  C   UNL A   1      47.296  25.105  26.316  1.00  0.00     0.031 C 
ATOM     70  C   UNL A   1      48.153  27.405  26.662  1.00  0.00     0.037 A 
BRANCH  57  71
ATOM     71  C   UNL A   1      46.497  33.080  28.479  1.00  0.00     0.058 A 
ATOM     72  C   UNL A   1      47.005  33.541  29.704  1.00  0.00     0.135 A 
ATOM     73  C   UNL A   1      46.397  34.001  27.424  1.00  0.00     0.135 A 
ATOM     74  F   UNL A   1      47.108  32.707  30.751  1.00  0.00    -0.206 F 
ATOM     75  C   UNL A   1      47.372  34.871  29.885  1.00  0.00     0.059 A 
ATOM     76  C   UNL A   1      46.783  35.330  27.574  1.00  0.00     0.059 A 
ATOM     77  F   UNL A   1      45.919  33.612  26.231  1.00  0.00    -0.206 F 
ATOM     78  C   UNL A   1      47.254  35.759  28.814  1.00  0.00     0.060 A 
BRANCH  78  79
ATOM     79  S   UNL A   1      47.734  37.482  29.063  1.00  0.00     0.124 S 
ATOM     80  O   UNL A   1      46.841  38.168  28.133  1.00  0.00    -0.237 OA
ATOM     81  O   UNL A   1      47.448  37.685  30.480  1.00  0.00    -0.237 OA
ATOM     82  O   UNL A   1      49.147  37.497  28.703  1.00  0.00    -0.744 OA
ENDBRANCH  78  79
ENDBRANCH  57  71
BRANCH  58  83
ATOM     83  C   UNL A   1      43.380  23.693  27.036  1.00  0.00     0.058 A 
ATOM     84  C   UNL A   1      43.244  22.775  28.087  1.00  0.00     0.135 A 
ATOM     85  C   UNL A   1      43.037  23.265  25.745  1.00  0.00     0.135 A 
ATOM     86  F   UNL A   1      43.566  23.137  29.339  1.00  0.00    -0.206 F 
ATOM     87  C   UNL A   1      42.796  21.477  27.868  1.00  0.00     0.059 A 
ATOM     88  C   UNL A   1      42.565  21.978  25.503  1.00  0.00     0.059 A 
ATOM     89  F   UNL A   1      43.133  24.111  24.707  1.00  0.00    -0.206 F 
ATOM     90  C   UNL A   1      42.456  21.089  26.571  1.00  0.00     0.060 A 
BRANCH  90  91
ATOM     91  S   UNL A   1      41.820  19.420  26.303  1.00  0.00     0.124 S 
ATOM     92  O   UNL A   1      42.214  18.754  27.539  1.00  0.00    -0.237 OA
ATOM     93  O   UNL A   1      40.390  19.659  26.133  1.00  0.00    -0.237 OA
ATOM     94  O   UNL A   1      42.521  18.985  25.098  1.00  0.00    -0.744 OA
ENDBRANCH  90  91
ENDBRANCH  58  83
BRANCH  70  95
ATOM     95  C   UNL A   1      49.495  26.932  26.181  1.00  0.00     0.058 A 
ATOM     96  C   UNL A   1      49.844  26.972  24.822  1.00  0.00     0.135 A 
ATOM     97  C   UNL A   1      50.459  26.476  27.093  1.00  0.00     0.135 A 
ATOM     98  F   UNL A   1      48.955  27.392  23.908  1.00  0.00    -0.206 F 
ATOM     99  C   UNL A   1      51.096  26.556  24.381  1.00  0.00     0.059 A 
ATOM    100  C   UNL A   1      51.726  26.078  26.678  1.00  0.00     0.059 A 
ATOM    101  F   UNL A   1      50.179  26.427  28.405  1.00  0.00    -0.206 F 
ATOM    102  C   UNL A   1      52.031  26.111  25.318  1.00  0.00     0.060 A 
BRANCH 102 103
ATOM    103  S   UNL A   1      53.663  25.603  24.738  1.00  0.00     0.124 S 
ATOM    104  O   UNL A   1      54.539  26.318  25.659  1.00  0.00    -0.237 OA
ATOM    105  O   UNL A   1      53.618  24.154  24.901  1.00  0.00    -0.237 OA
ATOM    106  O   UNL A   1      53.691  26.070  23.354  1.00  0.00    -0.744 OA
ENDBRANCH 102 103
ENDBRANCH  70  95
ENDBRANCH  44  45
ENDBRANCH  36  39
ENDBRANCH  34  35
ENDBRANCH  33  34
ENDBRANCH  32  33
ENDBRANCH   1  32
TORSDOF 19
ENDMDL
MODEL 3
REMARK VINA RESULT:     -11.7      6.324     11.654
REMARK SMILES CC1=C(C(=O)NCCCCCCNC(=O)c2ccc(-c3c4nc(c(-c5c(F)cc(S(=O)(=O)[O-])cc5F)c5ccc([nH]5)c(-c5c(F)cc(S(=O)(=O)[O-])cc5F)c5nc(c(-c6c(F)cc(S(=O)(=O)[O-])cc6F)c6ccc3[nH]6)C=C5)C=C4)cc2)N2C(=O)[C@H](NC(=O)c3cc(C(F)(F)F)nn3C)[C@@H]2SC1
REMARK SMILES IDX 9 1 8 2 7 3 6 4 4 5 5 6 3 8 1 9 2 10 101 11 82 12 100 13
REMARK SMILES IDX 83 14 99 15 84 16 85 17 86 18 87 19 88 21 89 22 90 23 97 24
REMARK SMILES IDX 91 25 96 26 98 27 92 28 93 29 94 30 95 31 10 32 11 33 12 34
REMARK SMILES IDX 13 35 14 36 15 38 16 39 17 40 81 41 18 42 80 43 19 44 20 45
REMARK SMILES IDX 21 46 74 47 22 48 79 49 73 50 75 51 23 52 78 53 72 54 71 55
REMARK SMILES IDX 24 57 58 58 37 59 57 60 38 61 41 62 56 63 76 64 39 65 40 66
REMARK SMILES IDX 55 68 77 69 42 70 25 71 26 72 35 73 27 74 28 75 34 76 36 77
REMARK SMILES IDX 29 78 30 79 31 80 32 81 33 82 59 83 60 84 69 85 61 86 62 87
REMARK SMILES IDX 68 88 70 89 63 90 64 91 65 92 66 93 67 94 43 95 44 96 53 97
REMARK SMILES IDX 45 98 46 99 52 100 54 101 47 102 48 103 49 104 50 105 51 106
REMARK H PARENT 6 7 86 20 13 37 75 56 41 67
REMARK Flexibility Score: inf
ROOT
ATOM      1  C   UNL A   1      37.107  23.729  26.029  1.00  0.00     0.002 C 
ENDROOT
BRANCH   1   2
ATOM      2  C   UNL A   1      36.876  22.822  24.818  1.00  0.00     0.021 C 
BRANCH   2   3
ATOM      3  C   UNL A   1      36.835  21.321  25.147  1.00  0.00     0.116 C 
BRANCH   3   4
ATOM      4  N   UNL A   1      35.858  21.102  26.190  1.00  0.00    -0.351 N 
ATOM      5  C   UNL A   1      34.509  21.202  26.233  1.00  0.00     0.268 C 
ATOM      6  O   UNL A   1      33.997  21.275  27.358  1.00  0.00    -0.268 OA
ATOM      7  H   UNL A   1      36.256  20.821  27.046  1.00  0.00     0.163 HD
BRANCH   5   8
ATOM      8  C   UNL A   1      33.578  21.160  25.038  1.00  0.00     0.110 C 
ATOM      9  C   UNL A   1      33.494  18.662  24.560  1.00  0.00     0.043 C 
ATOM     10  C   UNL A   1      33.148  20.101  24.303  1.00  0.00    -0.034 C 
ATOM     11  C   UNL A   1      32.277  20.209  23.051  1.00  0.00     0.104 C 
ATOM     12  N   UNL A   1      33.303  22.406  24.558  1.00  0.00    -0.290 N 
ATOM     13  S   UNL A   1      31.681  21.860  22.603  1.00  0.00    -0.129 SA
ATOM     14  C   UNL A   1      33.250  23.671  25.012  1.00  0.00     0.253 C 
ATOM     15  C   UNL A   1      33.184  22.697  23.154  1.00  0.00     0.181 C 
ATOM     16  O   UNL A   1      33.264  24.160  26.122  1.00  0.00    -0.272 OA
ATOM     17  C   UNL A   1      33.063  24.198  23.558  1.00  0.00     0.206 C 
BRANCH  17  18
ATOM     18  N   UNL A   1      31.773  24.863  23.253  1.00  0.00    -0.336 N 
ATOM     19  C   UNL A   1      31.391  26.154  23.513  1.00  0.00     0.270 C 
ATOM     20  H   UNL A   1      31.100  24.303  22.805  1.00  0.00     0.164 HD
ATOM     21  O   UNL A   1      30.246  26.497  23.233  1.00  0.00    -0.268 OA
BRANCH  19  22
ATOM     22  C   UNL A   1      32.337  27.034  24.151  1.00  0.00     0.126 A 
ATOM     23  C   UNL A   1      32.478  27.407  25.476  1.00  0.00     0.069 A 
ATOM     24  N   UNL A   1      33.367  27.664  23.499  1.00  0.00    -0.262 N 
ATOM     25  C   UNL A   1      33.550  28.337  25.517  1.00  0.00     0.167 A 
ATOM     26  N   UNL A   1      34.087  28.486  24.292  1.00  0.00    -0.168 NA
ATOM     27  C   UNL A   1      33.698  27.616  22.093  1.00  0.00     0.174 C 
BRANCH  25  28
ATOM     28  C   UNL A   1      34.045  29.092  26.723  1.00  0.00     0.435 C 
ATOM     29  F   UNL A   1      35.382  28.956  26.918  1.00  0.00    -0.164 F 
ATOM     30  F   UNL A   1      33.786  30.425  26.642  1.00  0.00    -0.164 F 
ATOM     31  F   UNL A   1      33.442  28.658  27.866  1.00  0.00    -0.164 F 
ENDBRANCH  25  28
ENDBRANCH  19  22
ENDBRANCH  17  18
ENDBRANCH   5   8
ENDBRANCH   3   4
ENDBRANCH   2   3
ENDBRANCH   1   2
BRANCH   1  32
ATOM     32  C   UNL A   1      38.576  24.071  26.291  1.00  0.00     0.002 C 
BRANCH  32  33
ATOM     33  C   UNL A   1      39.478  22.878  26.629  1.00  0.00     0.021 C 
BRANCH  33  34
ATOM     34  C   UNL A   1      40.898  23.241  27.061  1.00  0.00     0.116 C 
BRANCH  34  35
ATOM     35  N   UNL A   1      41.610  23.966  26.021  1.00  0.00    -0.352 N 
ATOM     36  C   UNL A   1      41.914  25.302  25.941  1.00  0.00     0.251 C 
ATOM     37  H   UNL A   1      41.918  23.418  25.263  1.00  0.00     0.163 HD
ATOM     38  O   UNL A   1      42.297  25.778  24.877  1.00  0.00    -0.269 OA
BRANCH  36  39
ATOM     39  C   UNL A   1      41.773  26.169  27.132  1.00  0.00     0.039 A 
ATOM     40  C   UNL A   1      42.655  27.241  27.300  1.00  0.00     0.014 A 
ATOM     41  C   UNL A   1      40.796  25.907  28.097  1.00  0.00     0.014 A 
ATOM     42  C   UNL A   1      42.519  28.084  28.406  1.00  0.00     0.010 A 
ATOM     43  C   UNL A   1      40.624  26.781  29.168  1.00  0.00     0.010 A 
ATOM     44  C   UNL A   1      41.484  27.878  29.334  1.00  0.00    -0.014 A 
BRANCH  44  45
ATOM     45  C   UNL A   1      41.277  28.804  30.477  1.00  0.00     0.031 A 
ATOM     46  C   UNL A   1      42.127  28.684  31.712  1.00  0.00     0.074 A 
ATOM     47  C   UNL A   1      40.272  29.701  30.430  1.00  0.00     0.049 A 
ATOM     48  N   UNL A   1      42.038  29.336  32.842  1.00  0.00    -0.248 NA
ATOM     49  C   UNL A   1      43.204  27.681  31.681  1.00  0.00     0.031 C 
ATOM     50  C   UNL A   1      39.352  29.882  29.306  1.00  0.00     0.029 A 
ATOM     51  N   UNL A   1      39.848  30.620  31.357  1.00  0.00    -0.354 N 
ATOM     52  C   UNL A   1      43.032  28.815  33.662  1.00  0.00     0.074 A 
ATOM     53  C   UNL A   1      43.684  27.762  32.914  1.00  0.00     0.031 C 
ATOM     54  C   UNL A   1      38.480  30.859  29.604  1.00  0.00     0.029 A 
ATOM     55  C   UNL A   1      38.756  31.350  30.951  1.00  0.00     0.049 A 
ATOM     56  H   UNL A   1      40.284  30.745  32.231  1.00  0.00     0.167 HD
ATOM     57  C   UNL A   1      43.381  29.192  34.915  1.00  0.00     0.037 A 
ATOM     58  C   UNL A   1      38.049  32.299  31.594  1.00  0.00     0.037 A 
ATOM     59  C   UNL A   1      42.745  30.259  35.643  1.00  0.00     0.049 A 
ATOM     60  C   UNL A   1      38.458  32.705  32.982  1.00  0.00     0.074 A 
ATOM     61  C   UNL A   1      43.066  30.760  36.894  1.00  0.00     0.029 A 
ATOM     62  N   UNL A   1      41.658  30.992  35.188  1.00  0.00    -0.354 N 
ATOM     63  N   UNL A   1      39.438  32.239  33.721  1.00  0.00    -0.248 NA
ATOM     64  C   UNL A   1      37.672  33.766  33.625  1.00  0.00     0.031 C 
ATOM     65  C   UNL A   1      42.150  31.769  37.210  1.00  0.00     0.029 A 
ATOM     66  C   UNL A   1      41.283  31.926  36.140  1.00  0.00     0.049 A 
ATOM     67  H   UNL A   1      41.217  30.865  34.317  1.00  0.00     0.167 HD
ATOM     68  C   UNL A   1      39.397  32.964  34.906  1.00  0.00     0.074 A 
ATOM     69  C   UNL A   1      38.305  33.908  34.781  1.00  0.00     0.031 C 
ATOM     70  C   UNL A   1      40.192  32.858  35.999  1.00  0.00     0.037 A 
BRANCH  57  71
ATOM     71  C   UNL A   1      44.506  28.447  35.579  1.00  0.00     0.058 A 
ATOM     72  C   UNL A   1      44.289  27.235  36.255  1.00  0.00     0.135 A 
ATOM     73  C   UNL A   1      45.822  28.933  35.514  1.00  0.00     0.135 A 
ATOM     74  F   UNL A   1      43.049  26.732  36.360  1.00  0.00    -0.206 F 
ATOM     75  C   UNL A   1      45.332  26.546  36.867  1.00  0.00     0.059 A 
ATOM     76  C   UNL A   1      46.884  28.247  36.097  1.00  0.00     0.059 A 
ATOM     77  F   UNL A   1      46.086  30.087  34.880  1.00  0.00    -0.206 F 
ATOM     78  C   UNL A   1      46.626  27.063  36.785  1.00  0.00     0.060 A 
BRANCH  78  79
ATOM     79  S   UNL A   1      47.969  26.159  37.584  1.00  0.00     0.124 S 
ATOM     80  O   UNL A   1      47.882  24.863  36.917  1.00  0.00    -0.237 OA
ATOM     81  O   UNL A   1      49.136  26.967  37.246  1.00  0.00    -0.237 OA
ATOM     82  O   UNL A   1      47.592  26.165  38.994  1.00  0.00    -0.744 OA
ENDBRANCH  78  79
ENDBRANCH  57  71
BRANCH  58  83
ATOM     83  C   UNL A   1      36.890  32.941  30.921  1.00  0.00     0.058 A 
ATOM     84  C   UNL A   1      35.580  32.511  31.177  1.00  0.00     0.135 A 
ATOM     85  C   UNL A   1      37.065  34.008  30.027  1.00  0.00     0.135 A 
ATOM     86  F   UNL A   1      35.363  31.489  32.020  1.00  0.00    -0.206 F 
ATOM     87  C   UNL A   1      34.484  33.106  30.562  1.00  0.00     0.059 A 
ATOM     88  C   UNL A   1      35.983  34.636  29.417  1.00  0.00     0.059 A 
ATOM     89  F   UNL A   1      38.298  34.469  29.762  1.00  0.00    -0.206 F 
ATOM     90  C   UNL A   1      34.696  34.171  29.685  1.00  0.00     0.060 A 
BRANCH  90  91
ATOM     91  S   UNL A   1      33.264  34.977  28.936  1.00  0.00     0.124 S 
ATOM     92  O   UNL A   1      32.423  35.221  30.101  1.00  0.00    -0.237 OA
ATOM     93  O   UNL A   1      33.862  36.158  28.321  1.00  0.00    -0.237 OA
ATOM     94  O   UNL A   1      32.770  33.974  27.997  1.00  0.00    -0.744 OA
ENDBRANCH  90  91
ENDBRANCH  58  83
BRANCH  70  95
ATOM     95  C   UNL A   1      39.924  33.799  37.140  1.00  0.00     0.058 A 
ATOM     96  C   UNL A   1      40.513  35.072  37.194  1.00  0.00     0.135 A 
ATOM     97  C   UNL A   1      39.034  33.441  38.164  1.00  0.00     0.135 A 
ATOM     98  F   UNL A   1      41.377  35.459  36.243  1.00  0.00    -0.206 F 
ATOM     99  C   UNL A   1      40.244  35.951  38.239  1.00  0.00     0.059 A 
ATOM    100  C   UNL A   1      38.731  34.314  39.205  1.00  0.00     0.059 A 
ATOM    101  F   UNL A   1      38.437  32.240  38.152  1.00  0.00    -0.206 F 
ATOM    102  C   UNL A   1      39.351  35.563  39.239  1.00  0.00     0.060 A 
BRANCH 102 103
ATOM    103  S   UNL A   1      38.986  36.724  40.572  1.00  0.00     0.124 S 
ATOM    104  O   UNL A   1      38.429  37.853  39.835  1.00  0.00    -0.237 OA
ATOM    105  O   UNL A   1      38.040  35.974  41.392  1.00  0.00    -0.237 OA
ATOM    106  O   UNL A   1      40.291  36.956  41.186  1.00  0.00    -0.744 OA
ENDBRANCH 102 103
ENDBRANCH  70  95
ENDBRANCH  44  45
ENDBRANCH  36  39
ENDBRANCH  34  35
ENDBRANCH  33  34
ENDBRANCH  32  33
ENDBRANCH   1  32
TORSDOF 19
ENDMDL
