MODEL 1
REMARK VINA RESULT:     -12.1      0.000      0.000
REMARK SMILES CN1C(=O)C[C@H](C(=O)Nc2ccc(C(=O)NCCCCCCNC(=O)c3ccc(-c4c5nc(c(-c6c(F)cc(S(=O)(=O)[O-])cc6F)c6ccc([nH]6)c(-c6c(F)cc(S(=O)(=O)[O-])cc6F)c6nc(c(-c7c(F)cc(S(=O)(=O)[O-])cc7F)c7ccc4[nH]7)C=C6)C=C5)cc3)cc2)S/C1=[NH+]\c1cccc(C(F)(F)F)c1
REMARK SMILES IDX 19 1 18 2 17 3 16 4 14 5 15 6 13 8 10 9 11 10 93 11 12 12
REMARK SMILES IDX 92 13 9 14 7 15 8 16 6 18 1 19 2 20 3 21 95 22 4 23 5 24
REMARK SMILES IDX 94 25 96 26 97 28 98 29 106 30 99 31 101 32 100 33 102 34
REMARK SMILES IDX 103 35 104 36 105 37 20 38 21 39 22 40 23 41 24 42 25 44
REMARK SMILES IDX 26 45 27 46 91 47 28 48 90 49 29 50 30 51 31 52 84 53 32 54
REMARK SMILES IDX 89 55 83 56 85 57 33 58 88 59 82 60 81 61 34 63 68 64 47 65
REMARK SMILES IDX 67 66 48 67 51 68 66 69 86 70 49 71 50 72 65 74 87 75 52 76
REMARK SMILES IDX 35 77 36 78 45 79 37 80 38 81 44 82 46 83 39 84 40 85 41 86
REMARK SMILES IDX 42 87 43 88 69 89 70 90 79 91 71 92 72 93 78 94 80 95 73 96
REMARK SMILES IDX 74 97 75 98 76 99 77 100 53 101 54 102 63 103 55 104 56 105
REMARK SMILES IDX 62 106 64 107 57 108 58 109 59 110 60 111 61 112
REMARK H PARENT 16 7 9 17 96 27 23 43 85 62 51 73
REMARK Flexibility Score: inf
ROOT
ATOM      1  C   UNL A   1      34.602  33.439  30.344  1.00  0.00     0.002 C 
ENDROOT
BRANCH   1   2
ATOM      2  C   UNL A   1      33.810  33.879  29.112  1.00  0.00     0.021 C 
BRANCH   2   3
ATOM      3  C   UNL A   1      33.634  32.836  27.995  1.00  0.00     0.116 C 
BRANCH   3   4
ATOM      4  N   UNL A   1      34.852  32.067  27.742  1.00  0.00    -0.352 N 
ATOM      5  C   UNL A   1      35.104  30.751  27.428  1.00  0.00     0.251 C 
ATOM      6  O   UNL A   1      36.280  30.387  27.375  1.00  0.00    -0.269 OA
ATOM      7  H   UNL A   1      35.672  32.609  27.810  1.00  0.00     0.163 HD
BRANCH   5   8
ATOM      8  C   UNL A   1      34.050  29.722  27.194  1.00  0.00     0.039 A 
ATOM      9  C   UNL A   1      32.195  27.598  26.857  1.00  0.00     0.041 A 
ATOM     10  C   UNL A   1      33.540  27.439  26.503  1.00  0.00     0.027 A 
ATOM     11  C   UNL A   1      31.767  28.878  27.208  1.00  0.00     0.027 A 
ATOM     12  C   UNL A   1      34.457  28.483  26.681  1.00  0.00     0.016 A 
ATOM     13  C   UNL A   1      32.686  29.933  27.380  1.00  0.00     0.016 A 
BRANCH   9  14
ATOM     14  N   UNL A   1      31.413  26.424  26.857  1.00  0.00    -0.325 N 
ATOM     15  C   UNL A   1      30.512  25.861  25.991  1.00  0.00     0.238 C 
ATOM     16  O   UNL A   1      29.953  24.832  26.391  1.00  0.00    -0.273 OA
ATOM     17  H   UNL A   1      31.545  25.882  27.669  1.00  0.00     0.169 HD
BRANCH  15  18
ATOM     18  C   UNL A   1      30.177  26.450  24.617  1.00  0.00     0.160 C 
ATOM     19  C   UNL A   1      33.575  27.522  21.996  1.00  0.00     0.301 C 
ATOM     20  N   UNL A   1      32.603  27.231  23.032  1.00  0.00    -0.194 N 
ATOM     21  C   UNL A   1      31.764  28.238  23.467  1.00  0.00     0.311 C 
ATOM     22  C   UNL A   1      32.486  25.935  23.454  1.00  0.00     0.319 C 
ATOM     23  O   UNL A   1      31.930  29.415  23.133  1.00  0.00    -0.247 OA
ATOM     24  C   UNL A   1      30.635  27.904  24.441  1.00  0.00     0.153 C 
ATOM     25  S   UNL A   1      30.841  25.401  23.311  1.00  0.00    -0.024 SA
ATOM     26  N   UNL A   1      33.524  25.249  23.814  1.00  0.00    -0.235 N 
ATOM     27  H   UNL A   1      34.418  25.658  23.776  1.00  0.00     0.313 HD
BRANCH  26  28
ATOM     28  C   UNL A   1      33.384  23.928  24.260  1.00  0.00     0.126 A 
ATOM     29  C   UNL A   1      33.374  22.867  23.350  1.00  0.00     0.052 A 
ATOM     30  C   UNL A   1      33.276  23.649  25.617  1.00  0.00     0.064 A 
ATOM     31  C   UNL A   1      33.321  21.542  23.799  1.00  0.00     0.005 A 
ATOM     32  C   UNL A   1      33.303  22.329  26.080  1.00  0.00     0.060 A 
ATOM     33  C   UNL A   1      33.309  21.272  25.166  1.00  0.00     0.013 A 
BRANCH  32  34
ATOM     34  C   UNL A   1      33.504  22.120  27.546  1.00  0.00     0.416 C 
ATOM     35  F   UNL A   1      34.530  22.830  28.084  1.00  0.00    -0.166 F 
ATOM     36  F   UNL A   1      32.386  22.507  28.214  1.00  0.00    -0.166 F 
ATOM     37  F   UNL A   1      33.712  20.821  27.888  1.00  0.00    -0.166 F 
ENDBRANCH  32  34
ENDBRANCH  26  28
ENDBRANCH  15  18
ENDBRANCH   9  14
ENDBRANCH   5   8
ENDBRANCH   3   4
ENDBRANCH   2   3
ENDBRANCH   1   2
BRANCH   1  38
ATOM     38  C   UNL A   1      36.100  33.762  30.329  1.00  0.00     0.002 C 
BRANCH  38  39
ATOM     39  C   UNL A   1      36.746  34.097  31.681  1.00  0.00     0.021 C 
BRANCH  39  40
ATOM     40  C   UNL A   1      37.625  33.008  32.298  1.00  0.00     0.116 C 
BRANCH  40  41
ATOM     41  N   UNL A   1      36.924  31.742  32.444  1.00  0.00    -0.352 N 
ATOM     42  C   UNL A   1      37.176  30.503  31.908  1.00  0.00     0.251 C 
ATOM     43  H   UNL A   1      36.132  31.780  33.027  1.00  0.00     0.163 HD
ATOM     44  O   UNL A   1      36.315  29.629  31.995  1.00  0.00    -0.269 OA
BRANCH  42  45
ATOM     45  C   UNL A   1      38.456  30.196  31.226  1.00  0.00     0.039 A 
ATOM     46  C   UNL A   1      39.515  29.682  31.985  1.00  0.00     0.014 A 
ATOM     47  C   UNL A   1      38.654  30.487  29.874  1.00  0.00     0.014 A 
ATOM     48  C   UNL A   1      40.746  29.409  31.378  1.00  0.00     0.010 A 
ATOM     49  C   UNL A   1      39.865  30.163  29.258  1.00  0.00     0.010 A 
ATOM     50  C   UNL A   1      40.926  29.622  30.004  1.00  0.00    -0.014 A 
BRANCH  50  51
ATOM     51  C   UNL A   1      42.209  29.284  29.329  1.00  0.00     0.031 A 
ATOM     52  C   UNL A   1      42.427  27.912  28.746  1.00  0.00     0.074 A 
ATOM     53  C   UNL A   1      43.205  30.192  29.298  1.00  0.00     0.049 A 
ATOM     54  N   UNL A   1      43.503  27.409  28.194  1.00  0.00    -0.248 NA
ATOM     55  C   UNL A   1      41.294  26.976  28.812  1.00  0.00     0.031 C 
ATOM     56  C   UNL A   1      43.134  31.544  29.856  1.00  0.00     0.029 A 
ATOM     57  N   UNL A   1      44.477  30.113  28.786  1.00  0.00    -0.354 N 
ATOM     58  C   UNL A   1      43.187  26.095  27.869  1.00  0.00     0.074 A 
ATOM     59  C   UNL A   1      41.829  25.868  28.319  1.00  0.00     0.031 C 
ATOM     60  C   UNL A   1      44.301  32.171  29.642  1.00  0.00     0.029 A 
ATOM     61  C   UNL A   1      45.218  31.257  28.965  1.00  0.00     0.049 A 
ATOM     62  H   UNL A   1      44.826  29.312  28.334  1.00  0.00     0.167 HD
ATOM     63  C   UNL A   1      43.950  25.167  27.242  1.00  0.00     0.037 A 
ATOM     64  C   UNL A   1      46.492  31.540  28.631  1.00  0.00     0.037 A 
ATOM     65  C   UNL A   1      45.289  25.409  26.766  1.00  0.00     0.049 A 
ATOM     66  C   UNL A   1      47.319  30.496  27.930  1.00  0.00     0.074 A 
ATOM     67  C   UNL A   1      46.117  24.556  26.057  1.00  0.00     0.029 A 
ATOM     68  N   UNL A   1      45.997  26.588  26.951  1.00  0.00    -0.354 N 
ATOM     69  N   UNL A   1      46.983  29.278  27.580  1.00  0.00    -0.248 NA
ATOM     70  C   UNL A   1      48.697  30.866  27.577  1.00  0.00     0.031 C 
ATOM     71  C   UNL A   1      47.339  25.205  25.847  1.00  0.00     0.029 A 
ATOM     72  C   UNL A   1      47.257  26.477  26.388  1.00  0.00     0.049 A 
ATOM     73  H   UNL A   1      45.653  27.386  27.414  1.00  0.00     0.167 HD
ATOM     74  C   UNL A   1      48.096  28.746  26.938  1.00  0.00     0.074 A 
ATOM     75  C   UNL A   1      49.114  29.776  26.945  1.00  0.00     0.031 C 
ATOM     76  C   UNL A   1      48.259  27.515  26.392  1.00  0.00     0.037 A 
BRANCH  63  77
ATOM     77  C   UNL A   1      43.359  23.800  27.035  1.00  0.00     0.058 A 
ATOM     78  C   UNL A   1      43.336  22.842  28.061  1.00  0.00     0.135 A 
ATOM     79  C   UNL A   1      42.774  23.454  25.805  1.00  0.00     0.135 A 
ATOM     80  F   UNL A   1      43.891  23.114  29.252  1.00  0.00    -0.206 F 
ATOM     81  C   UNL A   1      42.786  21.578  27.865  1.00  0.00     0.059 A 
ATOM     82  C   UNL A   1      42.195  22.206  25.595  1.00  0.00     0.059 A 
ATOM     83  F   UNL A   1      42.765  24.333  24.791  1.00  0.00    -0.206 F 
ATOM     84  C   UNL A   1      42.221  21.269  26.627  1.00  0.00     0.060 A 
BRANCH  84  85
ATOM     85  S   UNL A   1      41.516  19.624  26.386  1.00  0.00     0.124 S 
ATOM     86  O   UNL A   1      42.364  19.098  25.321  1.00  0.00    -0.237 OA
ATOM     87  O   UNL A   1      41.694  19.011  27.698  1.00  0.00    -0.237 OA
ATOM     88  O   UNL A   1      40.133  19.900  26.009  1.00  0.00    -0.744 OA
ENDBRANCH  84  85
ENDBRANCH  63  77
BRANCH  64  89
ATOM     89  C   UNL A   1      47.057  32.882  28.929  1.00  0.00     0.058 A 
ATOM     90  C   UNL A   1      46.965  33.923  27.995  1.00  0.00     0.135 A 
ATOM     91  C   UNL A   1      47.684  33.156  30.155  1.00  0.00     0.135 A 
ATOM     92  F   UNL A   1      46.381  33.707  26.806  1.00  0.00    -0.206 F 
ATOM     93  C   UNL A   1      47.482  35.187  28.258  1.00  0.00     0.059 A 
ATOM     94  C   UNL A   1      48.189  34.418  30.451  1.00  0.00     0.059 A 
ATOM     95  F   UNL A   1      47.784  32.197  31.089  1.00  0.00    -0.206 F 
ATOM     96  C   UNL A   1      48.090  35.426  29.491  1.00  0.00     0.060 A 
BRANCH  96  97
ATOM     97  S   UNL A   1      48.706  37.087  29.846  1.00  0.00     0.124 S 
ATOM     98  O   UNL A   1      47.604  37.917  29.376  1.00  0.00    -0.237 OA
ATOM     99  O   UNL A   1      48.900  37.040  31.292  1.00  0.00    -0.237 OA
ATOM    100  O   UNL A   1      49.935  37.160  29.060  1.00  0.00    -0.744 OA
ENDBRANCH  96  97
ENDBRANCH  64  89
BRANCH  76 101
ATOM    101  C   UNL A   1      49.572  27.224  25.722  1.00  0.00     0.058 A 
ATOM    102  C   UNL A   1      49.764  27.444  24.349  1.00  0.00     0.135 A 
ATOM    103  C   UNL A   1      50.667  26.769  26.473  1.00  0.00     0.135 A 
ATOM    104  F   UNL A   1      48.747  27.872  23.585  1.00  0.00    -0.206 F 
ATOM    105  C   UNL A   1      50.992  27.204  23.741  1.00  0.00     0.059 A 
ATOM    106  C   UNL A   1      51.910  26.545  25.890  1.00  0.00     0.059 A 
ATOM    107  F   UNL A   1      50.538  26.552  27.792  1.00  0.00    -0.206 F 
ATOM    108  C   UNL A   1      52.060  26.756  24.520  1.00  0.00     0.060 A 
BRANCH 108 109
ATOM    109  S   UNL A   1      53.659  26.483  23.727  1.00  0.00     0.124 S 
ATOM    110  O   UNL A   1      54.246  27.817  23.781  1.00  0.00    -0.237 OA
ATOM    111  O   UNL A   1      54.275  25.484  24.597  1.00  0.00    -0.237 OA
ATOM    112  O   UNL A   1      53.300  26.006  22.395  1.00  0.00    -0.744 OA
ENDBRANCH 108 109
ENDBRANCH  76 101
ENDBRANCH  50  51
ENDBRANCH  42  45
ENDBRANCH  40  41
ENDBRANCH  39  40
ENDBRANCH  38  39
ENDBRANCH   1  38
TORSDOF 20
ENDMDL
MODEL 2
REMARK VINA RESULT:     -11.8      1.109      7.747
REMARK SMILES CN1C(=O)C[C@H](C(=O)Nc2ccc(C(=O)NCCCCCCNC(=O)c3ccc(-c4c5nc(c(-c6c(F)cc(S(=O)(=O)[O-])cc6F)c6ccc([nH]6)c(-c6c(F)cc(S(=O)(=O)[O-])cc6F)c6nc(c(-c7c(F)cc(S(=O)(=O)[O-])cc7F)c7ccc4[nH]7)C=C6)C=C5)cc3)cc2)S/C1=[NH+]\c1cccc(C(F)(F)F)c1
REMARK SMILES IDX 19 1 18 2 17 3 16 4 14 5 15 6 13 8 10 9 11 10 93 11 12 12
REMARK SMILES IDX 92 13 9 14 7 15 8 16 6 18 1 19 2 20 3 21 95 22 4 23 5 24
REMARK SMILES IDX 94 25 96 26 97 28 98 29 106 30 99 31 101 32 100 33 102 34
REMARK SMILES IDX 103 35 104 36 105 37 20 38 21 39 22 40 23 41 24 42 25 44
REMARK SMILES IDX 26 45 27 46 91 47 28 48 90 49 29 50 30 51 31 52 84 53 32 54
REMARK SMILES IDX 89 55 83 56 85 57 33 58 88 59 82 60 81 61 34 63 68 64 47 65
REMARK SMILES IDX 67 66 48 67 51 68 66 69 86 70 49 71 50 72 65 74 87 75 52 76
REMARK SMILES IDX 35 77 36 78 45 79 37 80 38 81 44 82 46 83 39 84 40 85 41 86
REMARK SMILES IDX 42 87 43 88 69 89 70 90 79 91 71 92 72 93 78 94 80 95 73 96
REMARK SMILES IDX 74 97 75 98 76 99 77 100 53 101 54 102 63 103 55 104 56 105
REMARK SMILES IDX 62 106 64 107 57 108 58 109 59 110 60 111 61 112
REMARK H PARENT 16 7 9 17 96 27 23 43 85 62 51 73
REMARK Flexibility Score: inf
ROOT
ATOM      1  C   UNL A   1      34.457  34.346  30.343  1.00  0.00     0.002 C 
ENDROOT
BRANCH   1   2
ATOM      2  C   UNL A   1      33.990  34.296  28.888  1.00  0.00     0.021 C 
BRANCH   2   3
ATOM      3  C   UNL A   1      33.633  32.909  28.325  1.00  0.00     0.116 C 
BRANCH   3   4
ATOM      4  N   UNL A   1      34.805  32.168  27.862  1.00  0.00    -0.352 N 
ATOM      5  C   UNL A   1      35.004  30.886  27.400  1.00  0.00     0.251 C 
ATOM      6  O   UNL A   1      36.163  30.529  27.178  1.00  0.00    -0.269 OA
ATOM      7  H   UNL A   1      35.633  32.701  27.885  1.00  0.00     0.163 HD
BRANCH   5   8
ATOM      8  C   UNL A   1      33.920  29.884  27.196  1.00  0.00     0.039 A 
ATOM      9  C   UNL A   1      31.983  27.821  26.953  1.00  0.00     0.041 A 
ATOM     10  C   UNL A   1      33.345  27.549  26.782  1.00  0.00     0.027 A 
ATOM     11  C   UNL A   1      31.600  29.157  27.068  1.00  0.00     0.027 A 
ATOM     12  C   UNL A   1      34.302  28.565  26.914  1.00  0.00     0.016 A 
ATOM     13  C   UNL A   1      32.559  30.183  27.192  1.00  0.00     0.016 A 
BRANCH   9  14
ATOM     14  N   UNL A   1      31.134  26.698  27.030  1.00  0.00    -0.325 N 
ATOM     15  C   UNL A   1      30.300  26.051  26.153  1.00  0.00     0.238 C 
ATOM     16  O   UNL A   1      29.637  25.121  26.629  1.00  0.00    -0.273 OA
ATOM     17  H   UNL A   1      31.141  26.279  27.922  1.00  0.00     0.169 HD
BRANCH  15  18
ATOM     18  C   UNL A   1      30.156  26.442  24.679  1.00  0.00     0.160 C 
ATOM     19  C   UNL A   1      33.884  26.964  22.355  1.00  0.00     0.301 C 
ATOM     20  N   UNL A   1      32.786  26.873  23.299  1.00  0.00    -0.194 N 
ATOM     21  C   UNL A   1      31.965  27.968  23.481  1.00  0.00     0.311 C 
ATOM     22  C   UNL A   1      32.547  25.660  23.886  1.00  0.00     0.319 C 
ATOM     23  O   UNL A   1      32.238  29.074  23.003  1.00  0.00    -0.247 OA
ATOM     24  C   UNL A   1      30.717  27.832  24.352  1.00  0.00     0.153 C 
ATOM     25  S   UNL A   1      30.899  25.181  23.627  1.00  0.00    -0.024 SA
ATOM     26  N   UNL A   1      33.495  24.993  24.463  1.00  0.00    -0.235 N 
ATOM     27  H   UNL A   1      34.411  25.354  24.473  1.00  0.00     0.313 HD
BRANCH  26  28
ATOM     28  C   UNL A   1      33.228  23.762  25.074  1.00  0.00     0.126 A 
ATOM     29  C   UNL A   1      32.858  23.700  26.421  1.00  0.00     0.052 A 
ATOM     30  C   UNL A   1      33.303  22.581  24.346  1.00  0.00     0.064 A 
ATOM     31  C   UNL A   1      32.508  22.480  27.010  1.00  0.00     0.005 A 
ATOM     32  C   UNL A   1      32.879  21.369  24.901  1.00  0.00     0.060 A 
ATOM     33  C   UNL A   1      32.496  21.316  26.244  1.00  0.00     0.013 A 
BRANCH  32  34
ATOM     34  C   UNL A   1      32.689  20.216  23.969  1.00  0.00     0.416 C 
ATOM     35  F   UNL A   1      32.061  20.526  22.805  1.00  0.00    -0.166 F 
ATOM     36  F   UNL A   1      33.902  19.712  23.622  1.00  0.00    -0.166 F 
ATOM     37  F   UNL A   1      31.997  19.181  24.516  1.00  0.00    -0.166 F 
ENDBRANCH  32  34
ENDBRANCH  26  28
ENDBRANCH  15  18
ENDBRANCH   9  14
ENDBRANCH   5   8
ENDBRANCH   3   4
ENDBRANCH   2   3
ENDBRANCH   1   2
BRANCH   1  38
ATOM     38  C   UNL A   1      35.971  34.263  30.564  1.00  0.00     0.002 C 
BRANCH  38  39
ATOM     39  C   UNL A   1      36.441  33.833  31.961  1.00  0.00     0.021 C 
BRANCH  39  40
ATOM     40  C   UNL A   1      37.207  32.511  32.039  1.00  0.00     0.116 C 
BRANCH  40  41
ATOM     41  N   UNL A   1      36.357  31.359  31.778  1.00  0.00    -0.352 N 
ATOM     42  C   UNL A   1      36.575  30.227  31.031  1.00  0.00     0.251 C 
ATOM     43  H   UNL A   1      35.474  31.398  32.209  1.00  0.00     0.163 HD
ATOM     44  O   UNL A   1      35.625  29.491  30.773  1.00  0.00    -0.269 OA
BRANCH  42  45
ATOM     45  C   UNL A   1      37.925  29.874  30.530  1.00  0.00     0.039 A 
ATOM     46  C   UNL A   1      38.846  29.309  31.420  1.00  0.00     0.014 A 
ATOM     47  C   UNL A   1      38.320  30.170  29.223  1.00  0.00     0.014 A 
ATOM     48  C   UNL A   1      40.138  28.991  30.986  1.00  0.00     0.010 A 
ATOM     49  C   UNL A   1      39.592  29.803  28.776  1.00  0.00     0.010 A 
ATOM     50  C   UNL A   1      40.516  29.210  29.653  1.00  0.00    -0.014 A 
BRANCH  50  51
ATOM     51  C   UNL A   1      41.866  28.826  29.158  1.00  0.00     0.031 A 
ATOM     52  C   UNL A   1      42.968  29.849  29.073  1.00  0.00     0.074 A 
ATOM     53  C   UNL A   1      42.084  27.569  28.723  1.00  0.00     0.049 A 
ATOM     54  N   UNL A   1      44.181  29.722  28.595  1.00  0.00    -0.248 NA
ATOM     55  C   UNL A   1      42.661  31.199  29.571  1.00  0.00     0.031 C 
ATOM     56  C   UNL A   1      41.091  26.493  28.721  1.00  0.00     0.029 A 
ATOM     57  N   UNL A   1      43.205  26.985  28.187  1.00  0.00    -0.354 N 
ATOM     58  C   UNL A   1      44.771  30.975  28.711  1.00  0.00     0.074 A 
ATOM     59  C   UNL A   1      43.771  31.858  29.273  1.00  0.00     0.031 C 
ATOM     60  C   UNL A   1      41.651  25.378  28.224  1.00  0.00     0.029 A 
ATOM     61  C   UNL A   1      43.030  25.666  27.840  1.00  0.00     0.049 A 
ATOM     62  H   UNL A   1      44.055  27.465  28.064  1.00  0.00     0.167 HD
ATOM     63  C   UNL A   1      46.034  31.352  28.393  1.00  0.00     0.037 A 
ATOM     64  C   UNL A   1      43.879  24.788  27.270  1.00  0.00     0.037 A 
ATOM     65  C   UNL A   1      47.036  30.461  27.866  1.00  0.00     0.049 A 
ATOM     66  C   UNL A   1      45.277  25.228  26.931  1.00  0.00     0.074 A 
ATOM     67  C   UNL A   1      48.363  30.732  27.579  1.00  0.00     0.029 A 
ATOM     68  N   UNL A   1      46.824  29.128  27.545  1.00  0.00    -0.354 N 
ATOM     69  N   UNL A   1      45.835  26.403  27.101  1.00  0.00    -0.248 NA
ATOM     70  C   UNL A   1      46.162  24.224  26.324  1.00  0.00     0.031 C 
ATOM     71  C   UNL A   1      48.943  29.574  27.049  1.00  0.00     0.029 A 
ATOM     72  C   UNL A   1      47.988  28.569  27.045  1.00  0.00     0.049 A 
ATOM     73  H   UNL A   1      45.971  28.649  27.658  1.00  0.00     0.167 HD
ATOM     74  C   UNL A   1      47.144  26.271  26.652  1.00  0.00     0.074 A 
ATOM     75  C   UNL A   1      47.296  24.902  26.206  1.00  0.00     0.031 C 
ATOM     76  C   UNL A   1      48.130  27.200  26.614  1.00  0.00     0.037 A 
BRANCH  63  77
ATOM     77  C   UNL A   1      46.406  32.794  28.603  1.00  0.00     0.058 A 
ATOM     78  C   UNL A   1      46.236  33.755  27.593  1.00  0.00     0.135 A 
ATOM     79  C   UNL A   1      46.904  33.230  29.842  1.00  0.00     0.135 A 
ATOM     80  F   UNL A   1      45.775  33.393  26.386  1.00  0.00    -0.206 F 
ATOM     81  C   UNL A   1      46.580  35.089  27.792  1.00  0.00     0.059 A 
ATOM     82  C   UNL A   1      47.229  34.564  30.072  1.00  0.00     0.059 A 
ATOM     83  F   UNL A   1      47.082  32.355  30.844  1.00  0.00    -0.206 F 
ATOM     84  C   UNL A   1      47.079  35.483  29.035  1.00  0.00     0.060 A 
BRANCH  84  85
ATOM     85  S   UNL A   1      47.525  37.216  29.277  1.00  0.00     0.124 S 
ATOM     86  O   UNL A   1      46.442  37.675  30.141  1.00  0.00    -0.237 OA
ATOM     87  O   UNL A   1      48.838  37.117  29.907  1.00  0.00    -0.237 OA
ATOM     88  O   UNL A   1      47.522  37.760  27.923  1.00  0.00    -0.744 OA
ENDBRANCH  84  85
ENDBRANCH  63  77
BRANCH  64  89
ATOM     89  C   UNL A   1      43.437  23.393  27.009  1.00  0.00     0.058 A 
ATOM     90  C   UNL A   1      43.178  22.955  25.701  1.00  0.00     0.135 A 
ATOM     91  C   UNL A   1      43.282  22.466  28.051  1.00  0.00     0.135 A 
ATOM     92  F   UNL A   1      43.306  23.806  24.673  1.00  0.00    -0.206 F 
ATOM     93  C   UNL A   1      42.771  21.652  25.436  1.00  0.00     0.059 A 
ATOM     94  C   UNL A   1      42.897  21.151  27.809  1.00  0.00     0.059 A 
ATOM     95  F   UNL A   1      43.533  22.832  29.319  1.00  0.00    -0.206 F 
ATOM     96  C   UNL A   1      42.637  20.756  26.497  1.00  0.00     0.060 A 
BRANCH  96  97
ATOM     97  S   UNL A   1      42.163  19.050  26.136  1.00  0.00     0.124 S 
ATOM     98  O   UNL A   1      42.441  18.392  27.406  1.00  0.00    -0.237 OA
ATOM     99  O   UNL A   1      40.754  19.191  25.783  1.00  0.00    -0.237 OA
ATOM    100  O   UNL A   1      43.043  18.688  25.028  1.00  0.00    -0.744 OA
ENDBRANCH  96  97
ENDBRANCH  64  89
BRANCH  76 101
ATOM    101  C   UNL A   1      49.475  26.762  26.107  1.00  0.00     0.058 A 
ATOM    102  C   UNL A   1      49.864  26.968  24.774  1.00  0.00     0.135 A 
ATOM    103  C   UNL A   1      50.406  26.176  26.979  1.00  0.00     0.135 A 
ATOM    104  F   UNL A   1      49.009  27.518  23.899  1.00  0.00    -0.206 F 
ATOM    105  C   UNL A   1      51.124  26.590  24.320  1.00  0.00     0.059 A 
ATOM    106  C   UNL A   1      51.679  25.812  26.553  1.00  0.00     0.059 A 
ATOM    107  F   UNL A   1      50.086  25.965  28.267  1.00  0.00    -0.206 F 
ATOM    108  C   UNL A   1      52.026  26.014  25.218  1.00  0.00     0.060 A 
BRANCH 108 109
ATOM    109  S   UNL A   1      53.670  25.561  24.626  1.00  0.00     0.124 S 
ATOM    110  O   UNL A   1      53.663  26.121  23.279  1.00  0.00    -0.237 OA
ATOM    111  O   UNL A   1      54.545  26.229  25.586  1.00  0.00    -0.237 OA
ATOM    112  O   UNL A   1      53.668  24.103  24.701  1.00  0.00    -0.744 OA
ENDBRANCH 108 109
ENDBRANCH  76 101
ENDBRANCH  50  51
ENDBRANCH  42  45
ENDBRANCH  40  41
ENDBRANCH  39  40
ENDBRANCH  38  39
ENDBRANCH   1  38
TORSDOF 20
ENDMDL
MODEL 3
REMARK VINA RESULT:     -11.7      5.159     12.752
REMARK SMILES CN1C(=O)C[C@H](C(=O)Nc2ccc(C(=O)NCCCCCCNC(=O)c3ccc(-c4c5nc(c(-c6c(F)cc(S(=O)(=O)[O-])cc6F)c6ccc([nH]6)c(-c6c(F)cc(S(=O)(=O)[O-])cc6F)c6nc(c(-c7c(F)cc(S(=O)(=O)[O-])cc7F)c7ccc4[nH]7)C=C6)C=C5)cc3)cc2)S/C1=[NH+]\c1cccc(C(F)(F)F)c1
REMARK SMILES IDX 19 1 18 2 17 3 16 4 14 5 15 6 13 8 10 9 11 10 93 11 12 12
REMARK SMILES IDX 92 13 9 14 7 15 8 16 6 18 1 19 2 20 3 21 95 22 4 23 5 24
REMARK SMILES IDX 94 25 96 26 97 28 98 29 106 30 99 31 101 32 100 33 102 34
REMARK SMILES IDX 103 35 104 36 105 37 20 38 21 39 22 40 23 41 24 42 25 44
REMARK SMILES IDX 26 45 27 46 91 47 28 48 90 49 29 50 30 51 31 52 84 53 32 54
REMARK SMILES IDX 89 55 83 56 85 57 33 58 88 59 82 60 81 61 34 63 68 64 47 65
REMARK SMILES IDX 67 66 48 67 51 68 66 69 86 70 49 71 50 72 65 74 87 75 52 76
REMARK SMILES IDX 35 77 36 78 45 79 37 80 38 81 44 82 46 83 39 84 40 85 41 86
REMARK SMILES IDX 42 87 43 88 69 89 70 90 79 91 71 92 72 93 78 94 80 95 73 96
REMARK SMILES IDX 74 97 75 98 76 99 77 100 53 101 54 102 63 103 55 104 56 105
REMARK SMILES IDX 62 106 64 107 57 108 58 109 59 110 60 111 61 112
REMARK H PARENT 16 7 9 17 96 27 23 43 85 62 51 73
REMARK Flexibility Score: inf
ROOT
ATOM      1  C   UNL A   1      43.394  22.800  24.830  1.00  0.00     0.002 C 
ENDROOT
BRANCH   1   2
ATOM      2  C   UNL A   1      44.450  23.903  24.916  1.00  0.00     0.021 C 
BRANCH   2   3
ATOM      3  C   UNL A   1      45.848  23.486  25.405  1.00  0.00     0.116 C 
BRANCH   3   4
ATOM      4  N   UNL A   1      46.057  23.763  26.825  1.00  0.00    -0.352 N 
ATOM      5  C   UNL A   1      46.315  24.906  27.547  1.00  0.00     0.251 C 
ATOM      6  O   UNL A   1      46.544  24.784  28.753  1.00  0.00    -0.269 OA
ATOM      7  H   UNL A   1      46.000  22.958  27.388  1.00  0.00     0.163 HD
BRANCH   5   8
ATOM      8  C   UNL A   1      46.384  26.276  26.964  1.00  0.00     0.039 A 
ATOM      9  C   UNL A   1      46.339  28.953  26.016  1.00  0.00     0.041 A 
ATOM     10  C   UNL A   1      45.151  28.240  26.206  1.00  0.00     0.027 A 
ATOM     11  C   UNL A   1      47.539  28.252  26.137  1.00  0.00     0.027 A 
ATOM     12  C   UNL A   1      45.172  26.923  26.685  1.00  0.00     0.016 A 
ATOM     13  C   UNL A   1      47.565  26.925  26.611  1.00  0.00     0.016 A 
BRANCH   9  14
ATOM     14  N   UNL A   1      46.198  30.332  25.757  1.00  0.00    -0.325 N 
ATOM     15  C   UNL A   1      46.335  31.477  26.500  1.00  0.00     0.238 C 
ATOM     16  O   UNL A   1      46.037  32.530  25.924  1.00  0.00    -0.273 OA
ATOM     17  H   UNL A   1      45.940  30.517  24.825  1.00  0.00     0.169 HD
BRANCH  15  18
ATOM     18  C   UNL A   1      46.804  31.487  27.959  1.00  0.00     0.160 C 
ATOM     19  C   UNL A   1      48.798  35.158  29.413  1.00  0.00     0.301 C 
ATOM     20  N   UNL A   1      48.243  34.006  28.729  1.00  0.00    -0.194 N 
ATOM     21  C   UNL A   1      48.969  32.832  28.694  1.00  0.00     0.311 C 
ATOM     22  C   UNL A   1      46.967  34.104  28.244  1.00  0.00     0.319 C 
ATOM     23  O   UNL A   1      50.145  32.781  29.068  1.00  0.00    -0.247 OA
ATOM     24  C   UNL A   1      48.328  31.571  28.116  1.00  0.00     0.153 C 
ATOM     25  S   UNL A   1      45.987  32.813  28.865  1.00  0.00    -0.024 SA
ATOM     26  N   UNL A   1      46.605  35.099  27.499  1.00  0.00    -0.235 N 
ATOM     27  H   UNL A   1      47.252  35.807  27.281  1.00  0.00     0.313 HD
BRANCH  26  28
ATOM     28  C   UNL A   1      45.300  35.173  26.997  1.00  0.00     0.126 A 
ATOM     29  C   UNL A   1      45.014  34.762  25.692  1.00  0.00     0.052 A 
ATOM     30  C   UNL A   1      44.262  35.636  27.796  1.00  0.00     0.064 A 
ATOM     31  C   UNL A   1      43.697  34.756  25.217  1.00  0.00     0.005 A 
ATOM     32  C   UNL A   1      42.934  35.559  27.361  1.00  0.00     0.060 A 
ATOM     33  C   UNL A   1      42.653  35.132  26.060  1.00  0.00     0.013 A 
BRANCH  32  34
ATOM     34  C   UNL A   1      41.863  35.771  28.382  1.00  0.00     0.416 C 
ATOM     35  F   UNL A   1      40.633  35.330  28.013  1.00  0.00    -0.166 F 
ATOM     36  F   UNL A   1      42.183  35.097  29.517  1.00  0.00    -0.166 F 
ATOM     37  F   UNL A   1      41.712  37.071  28.750  1.00  0.00    -0.166 F 
ENDBRANCH  32  34
ENDBRANCH  26  28
ENDBRANCH  15  18
ENDBRANCH   9  14
ENDBRANCH   5   8
ENDBRANCH   3   4
ENDBRANCH   2   3
ENDBRANCH   1   2
BRANCH   1  38
ATOM     38  C   UNL A   1      42.572  22.558  26.101  1.00  0.00     0.002 C 
BRANCH  38  39
ATOM     39  C   UNL A   1      41.679  21.310  26.116  1.00  0.00     0.021 C 
BRANCH  39  40
ATOM     40  C   UNL A   1      40.360  21.432  26.883  1.00  0.00     0.116 C 
BRANCH  40  41
ATOM     41  N   UNL A   1      39.271  21.910  26.044  1.00  0.00    -0.352 N 
ATOM     42  C   UNL A   1      38.604  23.111  26.029  1.00  0.00     0.251 C 
ATOM     43  H   UNL A   1      38.959  21.263  25.373  1.00  0.00     0.163 HD
ATOM     44  O   UNL A   1      37.566  23.208  25.377  1.00  0.00    -0.269 OA
BRANCH  42  45
ATOM     45  C   UNL A   1      39.103  24.287  26.780  1.00  0.00     0.039 A 
ATOM     46  C   UNL A   1      39.959  25.186  26.131  1.00  0.00     0.014 A 
ATOM     47  C   UNL A   1      38.809  24.471  28.133  1.00  0.00     0.014 A 
ATOM     48  C   UNL A   1      40.471  26.291  26.819  1.00  0.00     0.010 A 
ATOM     49  C   UNL A   1      39.277  25.603  28.804  1.00  0.00     0.010 A 
ATOM     50  C   UNL A   1      40.115  26.526  28.155  1.00  0.00    -0.014 A 
BRANCH  50  51
ATOM     51  C   UNL A   1      40.603  27.726  28.887  1.00  0.00     0.031 A 
ATOM     52  C   UNL A   1      41.983  27.745  29.489  1.00  0.00     0.074 A 
ATOM     53  C   UNL A   1      39.779  28.778  29.067  1.00  0.00     0.049 A 
ATOM     54  N   UNL A   1      42.551  28.665  30.228  1.00  0.00    -0.248 NA
ATOM     55  C   UNL A   1      42.828  26.565  29.249  1.00  0.00     0.031 C 
ATOM     56  C   UNL A   1      38.407  28.872  28.564  1.00  0.00     0.029 A 
ATOM     57  N   UNL A   1      39.968  29.964  29.732  1.00  0.00    -0.354 N 
ATOM     58  C   UNL A   1      43.807  28.168  30.559  1.00  0.00     0.074 A 
ATOM     59  C   UNL A   1      43.903  26.849  29.970  1.00  0.00     0.031 C 
ATOM     60  C   UNL A   1      37.886  30.056  28.923  1.00  0.00     0.029 A 
ATOM     61  C   UNL A   1      38.870  30.792  29.712  1.00  0.00     0.049 A 
ATOM     62  H   UNL A   1      40.811  30.201  30.180  1.00  0.00     0.167 HD
ATOM     63  C   UNL A   1      44.794  28.760  31.275  1.00  0.00     0.037 A 
ATOM     64  C   UNL A   1      38.672  32.002  30.270  1.00  0.00     0.037 A 
ATOM     65  C   UNL A   1      44.706  30.087  31.831  1.00  0.00     0.049 A 
ATOM     66  C   UNL A   1      39.784  32.642  31.056  1.00  0.00     0.074 A 
ATOM     67  C   UNL A   1      45.677  30.801  32.510  1.00  0.00     0.029 A 
ATOM     68  N   UNL A   1      43.583  30.899  31.772  1.00  0.00    -0.354 N 
ATOM     69  N   UNL A   1      40.985  32.180  31.309  1.00  0.00    -0.248 NA
ATOM     70  C   UNL A   1      39.515  33.968  31.630  1.00  0.00     0.031 C 
ATOM     71  C   UNL A   1      45.129  32.029  32.897  1.00  0.00     0.029 A 
ATOM     72  C   UNL A   1      43.830  32.098  32.421  1.00  0.00     0.049 A 
ATOM     73  H   UNL A   1      42.734  30.659  31.334  1.00  0.00     0.167 HD
ATOM     74  C   UNL A   1      41.626  33.171  32.045  1.00  0.00     0.074 A 
ATOM     75  C   UNL A   1      40.682  34.258  32.193  1.00  0.00     0.031 C 
ATOM     76  C   UNL A   1      42.884  33.178  32.552  1.00  0.00     0.037 A 
BRANCH  63  77
ATOM     77  C   UNL A   1      46.057  27.977  31.504  1.00  0.00     0.058 A 
ATOM     78  C   UNL A   1      46.261  27.228  32.674  1.00  0.00     0.135 A 
ATOM     79  C   UNL A   1      47.064  27.944  30.524  1.00  0.00     0.135 A 
ATOM     80  F   UNL A   1      45.337  27.231  33.648  1.00  0.00    -0.206 F 
ATOM     81  C   UNL A   1      47.431  26.502  32.880  1.00  0.00     0.059 A 
ATOM     82  C   UNL A   1      48.231  27.205  30.698  1.00  0.00     0.059 A 
ATOM     83  F   UNL A   1      46.920  28.639  29.385  1.00  0.00    -0.206 F 
ATOM     84  C   UNL A   1      48.412  26.501  31.887  1.00  0.00     0.060 A 
BRANCH  84  85
ATOM     85  S   UNL A   1      49.926  25.560  32.171  1.00  0.00     0.124 S 
ATOM     86  O   UNL A   1      49.458  24.528  33.091  1.00  0.00    -0.237 OA
ATOM     87  O   UNL A   1      50.268  25.102  30.828  1.00  0.00    -0.237 OA
ATOM     88  O   UNL A   1      50.837  26.546  32.743  1.00  0.00    -0.744 OA
ENDBRANCH  84  85
ENDBRANCH  63  77
BRANCH  64  89
ATOM     89  C   UNL A   1      37.375  32.702  30.082  1.00  0.00     0.058 A 
ATOM     90  C   UNL A   1      37.188  33.594  29.016  1.00  0.00     0.135 A 
ATOM     91  C   UNL A   1      36.292  32.484  30.949  1.00  0.00     0.135 A 
ATOM     92  F   UNL A   1      38.196  33.840  28.165  1.00  0.00    -0.206 F 
ATOM     93  C   UNL A   1      35.980  34.254  28.819  1.00  0.00     0.059 A 
ATOM     94  C   UNL A   1      35.067  33.115  30.761  1.00  0.00     0.059 A 
ATOM     95  F   UNL A   1      36.415  31.628  31.976  1.00  0.00    -0.206 F 
ATOM     96  C   UNL A   1      34.923  34.005  29.696  1.00  0.00     0.060 A 
BRANCH  96  97
ATOM     97  S   UNL A   1      33.340  34.823  29.399  1.00  0.00     0.124 S 
ATOM     98  O   UNL A   1      32.816  34.951  30.753  1.00  0.00    -0.237 OA
ATOM     99  O   UNL A   1      33.753  36.065  28.752  1.00  0.00    -0.237 OA
ATOM    100  O   UNL A   1      32.636  33.881  28.533  1.00  0.00    -0.744 OA
ENDBRANCH  96  97
ENDBRANCH  64  89
BRANCH  76 101
ATOM    101  C   UNL A   1      43.329  34.414  33.281  1.00  0.00     0.058 A 
ATOM    102  C   UNL A   1      44.024  35.445  32.630  1.00  0.00     0.135 A 
ATOM    103  C   UNL A   1      43.010  34.593  34.637  1.00  0.00     0.135 A 
ATOM    104  F   UNL A   1      44.360  35.320  31.336  1.00  0.00    -0.206 F 
ATOM    105  C   UNL A   1      44.404  36.601  33.303  1.00  0.00     0.059 A 
ATOM    106  C   UNL A   1      43.359  35.751  35.323  1.00  0.00     0.059 A 
ATOM    107  F   UNL A   1      42.337  33.641  35.304  1.00  0.00    -0.206 F 
ATOM    108  C   UNL A   1      44.065  36.747  34.650  1.00  0.00     0.060 A 
BRANCH 108 109
ATOM    109  S   UNL A   1      44.531  38.268  35.504  1.00  0.00     0.124 S 
ATOM    110  O   UNL A   1      44.105  37.981  36.869  1.00  0.00    -0.237 OA
ATOM    111  O   UNL A   1      45.975  38.319  35.288  1.00  0.00    -0.237 OA
ATOM    112  O   UNL A   1      43.765  39.297  34.807  1.00  0.00    -0.744 OA
ENDBRANCH 108 109
ENDBRANCH  76 101
ENDBRANCH  50  51
ENDBRANCH  42  45
ENDBRANCH  40  41
ENDBRANCH  39  40
ENDBRANCH  38  39
ENDBRANCH   1  38
TORSDOF 20
ENDMDL
