MODEL 1
REMARK VINA RESULT:     -11.9      0.000      0.000
REMARK SMILES O=C(NCCCCCCNC(=O)[C@H]1CC[C@H](CN2C(=O)c3cccnc3C2=O)O1)c1ccc(-c2c3nc(c(-c4c(F)cc(S(=O)(=O)[O-])cc4F)c4ccc([nH]4)c(-c4c(F)cc(S(=O)(=O)[O-])cc4F)c4nc(c(-c5c(F)cc(S(=O)(=O)[O-])cc5F)c5ccc2[nH]5)C=C4)C=C3)cc1
REMARK SMILES IDX 6 1 5 2 4 3 3 4 1 5 2 6 30 8 31 9 95 10 32 11 94 12 33 13
REMARK SMILES IDX 34 14 35 15 88 16 36 17 93 18 87 19 89 20 37 21 92 22 86 23
REMARK SMILES IDX 85 24 38 26 72 27 51 28 71 29 52 30 55 31 70 32 90 33 53 34
REMARK SMILES IDX 54 35 69 37 91 38 56 39 39 40 40 41 49 42 41 43 42 44 48 45
REMARK SMILES IDX 50 46 43 47 44 48 45 49 46 50 47 51 73 52 74 53 83 54 75 55
REMARK SMILES IDX 76 56 82 57 84 58 77 59 78 60 79 61 80 62 81 63 57 64 58 65
REMARK SMILES IDX 67 66 59 67 60 68 66 69 68 70 61 71 62 72 63 73 64 74 65 75
REMARK SMILES IDX 7 76 8 77 9 78 10 79 11 80 12 82 13 83 14 84 29 85 15 86
REMARK SMILES IDX 16 87 17 88 18 89 19 90 27 91 20 92 21 93 26 94 28 95 22 96
REMARK SMILES IDX 25 97 23 98 24 99
REMARK H PARENT 3 7 89 25 55 36 10 81
REMARK Flexibility Score: inf
ROOT
ATOM      1  C   UNL A   1      31.944  28.037  25.524  1.00  0.00     0.002 C 
ENDROOT
BRANCH   1   2
ATOM      2  C   UNL A   1      33.469  27.953  25.512  1.00  0.00     0.021 C 
BRANCH   2   3
ATOM      3  C   UNL A   1      34.124  28.281  26.844  1.00  0.00     0.116 C 
BRANCH   3   4
ATOM      4  N   UNL A   1      33.774  29.609  27.324  1.00  0.00    -0.352 N 
ATOM      5  O   UNL A   1      34.024  31.486  28.557  1.00  0.00    -0.269 OA
ATOM      6  C   UNL A   1      34.526  30.470  28.088  1.00  0.00     0.251 C 
ATOM      7  H   UNL A   1      32.879  29.934  27.068  1.00  0.00     0.163 HD
BRANCH   6   8
ATOM      8  C   UNL A   1      35.942  30.138  28.353  1.00  0.00     0.039 A 
ATOM      9  C   UNL A   1      36.894  30.294  27.344  1.00  0.00     0.014 A 
ATOM     10  C   UNL A   1      36.316  29.636  29.602  1.00  0.00     0.014 A 
ATOM     11  C   UNL A   1      38.175  29.799  27.526  1.00  0.00     0.010 A 
ATOM     12  C   UNL A   1      37.641  29.246  29.822  1.00  0.00     0.010 A 
ATOM     13  C   UNL A   1      38.577  29.303  28.778  1.00  0.00    -0.014 A 
BRANCH  13  14
ATOM     14  C   UNL A   1      40.008  28.959  28.977  1.00  0.00     0.031 A 
ATOM     15  C   UNL A   1      40.559  27.608  28.612  1.00  0.00     0.074 A 
ATOM     16  C   UNL A   1      40.822  29.920  29.458  1.00  0.00     0.049 A 
ATOM     17  N   UNL A   1      41.792  27.178  28.696  1.00  0.00    -0.248 NA
ATOM     18  C   UNL A   1      39.612  26.610  28.092  1.00  0.00     0.031 C 
ATOM     19  C   UNL A   1      40.389  31.263  29.864  1.00  0.00     0.029 A 
ATOM     20  N   UNL A   1      42.177  29.938  29.666  1.00  0.00    -0.354 N 
ATOM     21  C   UNL A   1      41.773  25.862  28.250  1.00  0.00     0.074 A 
ATOM     22  C   UNL A   1      40.396  25.552  27.925  1.00  0.00     0.031 C 
ATOM     23  C   UNL A   1      41.459  31.987  30.215  1.00  0.00     0.029 A 
ATOM     24  C   UNL A   1      42.642  31.142  30.142  1.00  0.00     0.049 A 
ATOM     25  H   UNL A   1      42.759  29.165  29.492  1.00  0.00     0.167 HD
ATOM     26  C   UNL A   1      42.811  25.001  28.117  1.00  0.00     0.037 A 
ATOM     27  C   UNL A   1      43.880  31.519  30.510  1.00  0.00     0.037 A 
ATOM     28  C   UNL A   1      44.179  25.328  28.444  1.00  0.00     0.049 A 
ATOM     29  C   UNL A   1      45.001  30.528  30.387  1.00  0.00     0.074 A 
ATOM     30  C   UNL A   1      45.305  24.531  28.325  1.00  0.00     0.029 A 
ATOM     31  N   UNL A   1      44.607  26.544  28.957  1.00  0.00    -0.354 N 
ATOM     32  N   UNL A   1      44.966  29.298  29.930  1.00  0.00    -0.248 NA
ATOM     33  C   UNL A   1      46.327  30.973  30.828  1.00  0.00     0.031 C 
ATOM     34  C   UNL A   1      46.403  25.245  28.816  1.00  0.00     0.029 A 
ATOM     35  C   UNL A   1      45.975  26.511  29.182  1.00  0.00     0.049 A 
ATOM     36  H   UNL A   1      44.026  27.318  29.135  1.00  0.00     0.167 HD
ATOM     37  C   UNL A   1      46.271  28.829  30.015  1.00  0.00     0.074 A 
ATOM     38  C   UNL A   1      47.072  29.919  30.535  1.00  0.00     0.031 C 
ATOM     39  C   UNL A   1      46.760  27.604  29.701  1.00  0.00     0.037 A 
BRANCH  26  40
ATOM     40  C   UNL A   1      42.526  23.615  27.600  1.00  0.00     0.058 A 
ATOM     41  C   UNL A   1      42.498  23.332  26.225  1.00  0.00     0.135 A 
ATOM     42  C   UNL A   1      42.367  22.539  28.490  1.00  0.00     0.135 A 
ATOM     43  F   UNL A   1      42.628  24.322  25.327  1.00  0.00    -0.206 F 
ATOM     44  C   UNL A   1      42.315  22.035  25.751  1.00  0.00     0.059 A 
ATOM     45  C   UNL A   1      42.210  21.230  28.039  1.00  0.00     0.059 A 
ATOM     46  F   UNL A   1      42.384  22.751  29.815  1.00  0.00    -0.206 F 
ATOM     47  C   UNL A   1      42.180  20.990  26.667  1.00  0.00     0.060 A 
BRANCH  47  48
ATOM     48  S   UNL A   1      41.984  19.311  26.031  1.00  0.00     0.124 S 
ATOM     49  O   UNL A   1      42.856  19.338  24.861  1.00  0.00    -0.237 OA
ATOM     50  O   UNL A   1      42.452  18.499  27.150  1.00  0.00    -0.237 OA
ATOM     51  O   UNL A   1      40.556  19.218  25.744  1.00  0.00    -0.744 OA
ENDBRANCH  47  48
ENDBRANCH  26  40
BRANCH  27  52
ATOM     52  C   UNL A   1      44.112  32.881  31.061  1.00  0.00     0.058 A 
ATOM     53  C   UNL A   1      43.978  33.145  32.431  1.00  0.00     0.135 A 
ATOM     54  C   UNL A   1      44.466  33.949  30.220  1.00  0.00     0.135 A 
ATOM     55  F   UNL A   1      43.644  32.159  33.276  1.00  0.00    -0.206 F 
ATOM     56  C   UNL A   1      44.147  34.428  32.944  1.00  0.00     0.059 A 
ATOM     57  C   UNL A   1      44.679  35.231  30.714  1.00  0.00     0.059 A 
ATOM     58  F   UNL A   1      44.629  33.746  28.904  1.00  0.00    -0.206 F 
ATOM     59  C   UNL A   1      44.496  35.464  32.075  1.00  0.00     0.060 A 
BRANCH  59  60
ATOM     60  S   UNL A   1      44.719  37.122  32.750  1.00  0.00     0.124 S 
ATOM     61  O   UNL A   1      44.025  37.936  31.760  1.00  0.00    -0.237 OA
ATOM     62  O   UNL A   1      44.072  37.011  34.054  1.00  0.00    -0.237 OA
ATOM     63  O   UNL A   1      46.171  37.275  32.789  1.00  0.00    -0.744 OA
ENDBRANCH  59  60
ENDBRANCH  27  52
BRANCH  39  64
ATOM     64  C   UNL A   1      48.238  27.395  29.884  1.00  0.00     0.058 A 
ATOM     65  C   UNL A   1      49.163  27.730  28.881  1.00  0.00     0.135 A 
ATOM     66  C   UNL A   1      48.738  26.861  31.084  1.00  0.00     0.135 A 
ATOM     67  F   UNL A   1      48.738  28.236  27.712  1.00  0.00    -0.206 F 
ATOM     68  C   UNL A   1      50.526  27.503  29.044  1.00  0.00     0.059 A 
ATOM     69  C   UNL A   1      50.099  26.659  31.281  1.00  0.00     0.059 A 
ATOM     70  F   UNL A   1      47.900  26.532  32.079  1.00  0.00    -0.206 F 
ATOM     71  C   UNL A   1      50.984  26.966  30.248  1.00  0.00     0.060 A 
BRANCH  71  72
ATOM     72  S   UNL A   1      52.755  26.685  30.449  1.00  0.00     0.124 S 
ATOM     73  O   UNL A   1      53.154  26.342  29.087  1.00  0.00    -0.237 OA
ATOM     74  O   UNL A   1      53.221  27.977  30.940  1.00  0.00    -0.237 OA
ATOM     75  O   UNL A   1      52.819  25.593  31.414  1.00  0.00    -0.744 OA
ENDBRANCH  71  72
ENDBRANCH  39  64
ENDBRANCH  13  14
ENDBRANCH   6   8
ENDBRANCH   3   4
ENDBRANCH   2   3
ENDBRANCH   1   2
BRANCH   1  76
ATOM     76  C   UNL A   1      31.356  29.188  24.701  1.00  0.00     0.002 C 
BRANCH  76  77
ATOM     77  C   UNL A   1      31.439  29.011  23.180  1.00  0.00     0.021 C 
BRANCH  77  78
ATOM     78  C   UNL A   1      31.015  27.634  22.685  1.00  0.00     0.116 C 
BRANCH  78  79
ATOM     79  N   UNL A   1      32.048  27.023  21.870  1.00  0.00    -0.354 N 
ATOM     80  C   UNL A   1      32.801  25.914  22.134  1.00  0.00     0.249 C 
ATOM     81  H   UNL A   1      32.230  27.468  21.011  1.00  0.00     0.163 HD
ATOM     82  O   UNL A   1      33.653  25.579  21.311  1.00  0.00    -0.272 OA
BRANCH  80  83
ATOM     83  C   UNL A   1      32.525  25.133  23.434  1.00  0.00     0.207 C 
ATOM     84  C   UNL A   1      31.667  23.909  23.149  1.00  0.00     0.045 C 
ATOM     85  O   UNL A   1      33.724  24.638  24.044  1.00  0.00    -0.363 OA
ATOM     86  C   UNL A   1      32.711  22.873  22.821  1.00  0.00     0.037 C 
ATOM     87  C   UNL A   1      33.841  23.225  23.780  1.00  0.00     0.139 C 
BRANCH  87  88
ATOM     88  C   UNL A   1      33.769  22.485  25.126  1.00  0.00     0.161 C 
BRANCH  88  89
ATOM     89  N   UNL A   1      33.709  21.044  24.978  1.00  0.00    -0.270 N 
ATOM     90  C   UNL A   1      34.800  20.248  24.761  1.00  0.00     0.263 C 
ATOM     91  C   UNL A   1      32.557  20.309  25.100  1.00  0.00     0.280 C 
ATOM     92  O   UNL A   1      35.966  20.559  24.627  1.00  0.00    -0.269 OA
ATOM     93  C   UNL A   1      34.319  18.874  24.754  1.00  0.00     0.071 A 
ATOM     94  C   UNL A   1      32.961  18.904  24.965  1.00  0.00     0.141 A 
ATOM     95  O   UNL A   1      31.429  20.717  25.307  1.00  0.00    -0.267 OA
ATOM     96  C   UNL A   1      34.971  17.669  24.621  1.00  0.00     0.018 A 
ATOM     97  N   UNL A   1      32.158  17.831  25.071  1.00  0.00    -0.250 NA
ATOM     98  C   UNL A   1      34.184  16.519  24.721  1.00  0.00     0.021 A 
ATOM     99  C   UNL A   1      32.805  16.647  24.946  1.00  0.00     0.112 A 
ENDBRANCH  88  89
ENDBRANCH  87  88
ENDBRANCH  80  83
ENDBRANCH  78  79
ENDBRANCH  77  78
ENDBRANCH  76  77
ENDBRANCH   1  76
TORSDOF 18
ENDMDL
MODEL 2
REMARK VINA RESULT:     -11.7      5.060     10.478
REMARK SMILES O=C(NCCCCCCNC(=O)[C@H]1CC[C@H](CN2C(=O)c3cccnc3C2=O)O1)c1ccc(-c2c3nc(c(-c4c(F)cc(S(=O)(=O)[O-])cc4F)c4ccc([nH]4)c(-c4c(F)cc(S(=O)(=O)[O-])cc4F)c4nc(c(-c5c(F)cc(S(=O)(=O)[O-])cc5F)c5ccc2[nH]5)C=C4)C=C3)cc1
REMARK SMILES IDX 6 1 5 2 4 3 3 4 1 5 2 6 30 8 31 9 95 10 32 11 94 12 33 13
REMARK SMILES IDX 34 14 35 15 88 16 36 17 93 18 87 19 89 20 37 21 92 22 86 23
REMARK SMILES IDX 85 24 38 26 72 27 51 28 71 29 52 30 55 31 70 32 90 33 53 34
REMARK SMILES IDX 54 35 69 37 91 38 56 39 39 40 40 41 49 42 41 43 42 44 48 45
REMARK SMILES IDX 50 46 43 47 44 48 45 49 46 50 47 51 73 52 74 53 83 54 75 55
REMARK SMILES IDX 76 56 82 57 84 58 77 59 78 60 79 61 80 62 81 63 57 64 58 65
REMARK SMILES IDX 67 66 59 67 60 68 66 69 68 70 61 71 62 72 63 73 64 74 65 75
REMARK SMILES IDX 7 76 8 77 9 78 10 79 11 80 12 82 13 83 14 84 29 85 15 86
REMARK SMILES IDX 16 87 17 88 18 89 19 90 27 91 20 92 21 93 26 94 28 95 22 96
REMARK SMILES IDX 25 97 23 98 24 99
REMARK H PARENT 3 7 89 25 55 36 10 81
REMARK Flexibility Score: inf
ROOT
ATOM      1  C   UNL A   1      37.499  22.168  25.503  1.00  0.00     0.002 C 
ENDROOT
BRANCH   1   2
ATOM      2  C   UNL A   1      37.369  23.683  25.646  1.00  0.00     0.021 C 
BRANCH   2   3
ATOM      3  C   UNL A   1      38.409  24.316  26.556  1.00  0.00     0.116 C 
BRANCH   3   4
ATOM      4  N   UNL A   1      39.768  24.103  26.082  1.00  0.00    -0.352 N 
ATOM      5  O   UNL A   1      41.962  24.582  25.835  1.00  0.00    -0.269 OA
ATOM      6  C   UNL A   1      40.917  24.761  26.452  1.00  0.00     0.251 C 
ATOM      7  H   UNL A   1      39.879  23.393  25.408  1.00  0.00     0.163 HD
BRANCH   6   8
ATOM      8  C   UNL A   1      40.866  25.703  27.590  1.00  0.00     0.039 A 
ATOM      9  C   UNL A   1      39.876  25.565  28.564  1.00  0.00     0.014 A 
ATOM     10  C   UNL A   1      41.788  26.750  27.666  1.00  0.00     0.014 A 
ATOM     11  C   UNL A   1      39.705  26.558  29.515  1.00  0.00     0.010 A 
ATOM     12  C   UNL A   1      41.685  27.688  28.699  1.00  0.00     0.010 A 
ATOM     13  C   UNL A   1      40.629  27.612  29.619  1.00  0.00    -0.014 A 
BRANCH  13  14
ATOM     14  C   UNL A   1      40.511  28.546  30.769  1.00  0.00     0.031 A 
ATOM     15  C   UNL A   1      41.409  28.443  31.971  1.00  0.00     0.074 A 
ATOM     16  C   UNL A   1      39.595  29.531  30.684  1.00  0.00     0.049 A 
ATOM     17  N   UNL A   1      41.445  29.207  33.032  1.00  0.00    -0.248 NA
ATOM     18  C   UNL A   1      42.385  27.343  31.994  1.00  0.00     0.031 C 
ATOM     19  C   UNL A   1      38.656  29.713  29.570  1.00  0.00     0.029 A 
ATOM     20  N   UNL A   1      39.311  30.577  31.524  1.00  0.00    -0.354 N 
ATOM     21  C   UNL A   1      42.437  28.683  33.852  1.00  0.00     0.074 A 
ATOM     22  C   UNL A   1      42.959  27.512  33.179  1.00  0.00     0.031 C 
ATOM     23  C   UNL A   1      37.946  30.831  29.767  1.00  0.00     0.029 A 
ATOM     24  C   UNL A   1      38.313  31.400  31.056  1.00  0.00     0.049 A 
ATOM     25  H   UNL A   1      39.776  30.724  32.378  1.00  0.00     0.167 HD
ATOM     26  C   UNL A   1      42.875  29.145  35.049  1.00  0.00     0.037 A 
ATOM     27  C   UNL A   1      37.732  32.477  31.613  1.00  0.00     0.037 A 
ATOM     28  C   UNL A   1      42.344  30.317  35.705  1.00  0.00     0.049 A 
ATOM     29  C   UNL A   1      38.214  32.940  32.957  1.00  0.00     0.074 A 
ATOM     30  C   UNL A   1      42.734  30.878  36.910  1.00  0.00     0.029 A 
ATOM     31  N   UNL A   1      41.310  31.104  35.218  1.00  0.00    -0.354 N 
ATOM     32  N   UNL A   1      39.178  32.449  33.700  1.00  0.00    -0.248 NA
ATOM     33  C   UNL A   1      37.531  34.100  33.540  1.00  0.00     0.031 C 
ATOM     34  C   UNL A   1      41.901  31.970  37.176  1.00  0.00     0.029 A 
ATOM     35  C   UNL A   1      41.033  32.130  36.109  1.00  0.00     0.049 A 
ATOM     36  H   UNL A   1      40.842  30.957  34.365  1.00  0.00     0.167 HD
ATOM     37  C   UNL A   1      39.226  33.252  34.832  1.00  0.00     0.074 A 
ATOM     38  C   UNL A   1      38.218  34.279  34.658  1.00  0.00     0.031 C 
ATOM     39  C   UNL A   1      40.026  33.146  35.922  1.00  0.00     0.037 A 
BRANCH  26  40
ATOM     40  C   UNL A   1      43.979  28.393  35.743  1.00  0.00     0.058 A 
ATOM     41  C   UNL A   1      43.710  27.333  36.623  1.00  0.00     0.135 A 
ATOM     42  C   UNL A   1      45.326  28.675  35.456  1.00  0.00     0.135 A 
ATOM     43  F   UNL A   1      42.444  27.028  36.947  1.00  0.00    -0.206 F 
ATOM     44  C   UNL A   1      44.734  26.586  37.199  1.00  0.00     0.059 A 
ATOM     45  C   UNL A   1      46.366  27.923  35.999  1.00  0.00     0.059 A 
ATOM     46  F   UNL A   1      45.643  29.678  34.622  1.00  0.00    -0.206 F 
ATOM     47  C   UNL A   1      46.059  26.883  36.875  1.00  0.00     0.060 A 
BRANCH  47  48
ATOM     48  S   UNL A   1      47.370  25.876  37.602  1.00  0.00     0.124 S 
ATOM     49  O   UNL A   1      46.604  24.974  38.456  1.00  0.00    -0.237 OA
ATOM     50  O   UNL A   1      47.981  25.266  36.426  1.00  0.00    -0.237 OA
ATOM     51  O   UNL A   1      48.199  26.849  38.305  1.00  0.00    -0.744 OA
ENDBRANCH  47  48
ENDBRANCH  26  40
BRANCH  27  52
ATOM     52  C   UNL A   1      36.612  33.165  30.917  1.00  0.00     0.058 A 
ATOM     53  C   UNL A   1      36.838  33.971  29.792  1.00  0.00     0.135 A 
ATOM     54  C   UNL A   1      35.290  33.035  31.373  1.00  0.00     0.135 A 
ATOM     55  F   UNL A   1      38.082  34.125  29.315  1.00  0.00    -0.206 F 
ATOM     56  C   UNL A   1      35.799  34.654  29.167  1.00  0.00     0.059 A 
ATOM     57  C   UNL A   1      34.230  33.676  30.742  1.00  0.00     0.059 A 
ATOM     58  F   UNL A   1      35.015  32.258  32.433  1.00  0.00    -0.206 F 
ATOM     59  C   UNL A   1      34.499  34.501  29.653  1.00  0.00     0.060 A 
BRANCH  59  60
ATOM     60  S   UNL A   1      33.158  35.387  28.832  1.00  0.00     0.124 S 
ATOM     61  O   UNL A   1      32.446  35.957  29.969  1.00  0.00    -0.237 OA
ATOM     62  O   UNL A   1      33.885  36.333  27.992  1.00  0.00    -0.237 OA
ATOM     63  O   UNL A   1      32.452  34.332  28.110  1.00  0.00    -0.744 OA
ENDBRANCH  59  60
ENDBRANCH  27  52
BRANCH  39  64
ATOM     64  C   UNL A   1      39.858  34.188  36.994  1.00  0.00     0.058 A 
ATOM     65  C   UNL A   1      39.143  33.927  38.174  1.00  0.00     0.135 A 
ATOM     66  C   UNL A   1      40.429  35.463  36.842  1.00  0.00     0.135 A 
ATOM     67  F   UNL A   1      38.570  32.728  38.366  1.00  0.00    -0.206 F 
ATOM     68  C   UNL A   1      38.962  34.905  39.146  1.00  0.00     0.059 A 
ATOM     69  C   UNL A   1      40.291  36.444  37.817  1.00  0.00     0.059 A 
ATOM     70  F   UNL A   1      41.131  35.763  35.738  1.00  0.00    -0.206 F 
ATOM     71  C   UNL A   1      39.540  36.162  38.957  1.00  0.00     0.060 A 
BRANCH  71  72
ATOM     72  S   UNL A   1      39.305  37.420  40.230  1.00  0.00     0.124 S 
ATOM     73  O   UNL A   1      38.617  36.661  41.269  1.00  0.00    -0.237 OA
ATOM     74  O   UNL A   1      40.677  37.814  40.534  1.00  0.00    -0.237 OA
ATOM     75  O   UNL A   1      38.501  38.436  39.559  1.00  0.00    -0.744 OA
ENDBRANCH  71  72
ENDBRANCH  39  64
ENDBRANCH  13  14
ENDBRANCH   6   8
ENDBRANCH   3   4
ENDBRANCH   2   3
ENDBRANCH   1   2
BRANCH   1  76
ATOM     76  C   UNL A   1      36.170  21.414  25.396  1.00  0.00     0.002 C 
BRANCH  76  77
ATOM     77  C   UNL A   1      35.032  21.971  26.261  1.00  0.00     0.021 C 
BRANCH  77  78
ATOM     78  C   UNL A   1      33.643  21.786  25.664  1.00  0.00     0.116 C 
BRANCH  78  79
ATOM     79  N   UNL A   1      32.616  22.325  26.536  1.00  0.00    -0.354 N 
ATOM     80  C   UNL A   1      31.882  23.467  26.387  1.00  0.00     0.249 C 
ATOM     81  H   UNL A   1      32.423  21.796  27.343  1.00  0.00     0.163 HD
ATOM     82  O   UNL A   1      31.074  23.759  27.268  1.00  0.00    -0.272 OA
BRANCH  80  83
ATOM     83  C   UNL A   1      32.090  24.312  25.114  1.00  0.00     0.207 C 
ATOM     84  C   UNL A   1      30.754  24.801  24.574  1.00  0.00     0.045 C 
ATOM     85  O   UNL A   1      32.870  25.490  25.356  1.00  0.00    -0.363 OA
ATOM     86  C   UNL A   1      30.575  26.093  25.327  1.00  0.00     0.037 C 
ATOM     87  C   UNL A   1      31.996  26.635  25.401  1.00  0.00     0.139 C 
BRANCH  87  88
ATOM     88  C   UNL A   1      32.371  27.562  24.232  1.00  0.00     0.161 C 
BRANCH  88  89
ATOM     89  N   UNL A   1      31.278  28.420  23.817  1.00  0.00    -0.270 N 
ATOM     90  C   UNL A   1      30.900  29.556  24.477  1.00  0.00     0.263 C 
ATOM     91  C   UNL A   1      30.540  28.222  22.677  1.00  0.00     0.280 C 
ATOM     92  O   UNL A   1      31.347  30.039  25.497  1.00  0.00    -0.269 OA
ATOM     93  C   UNL A   1      29.830  30.158  23.694  1.00  0.00     0.071 A 
ATOM     94  C   UNL A   1      29.611  29.357  22.598  1.00  0.00     0.141 A 
ATOM     95  O   UNL A   1      30.639  27.316  21.871  1.00  0.00    -0.267 OA
ATOM     96  C   UNL A   1      29.108  31.318  23.856  1.00  0.00     0.018 A 
ATOM     97  N   UNL A   1      28.732  29.598  21.610  1.00  0.00    -0.250 NA
ATOM     98  C   UNL A   1      28.177  31.618  22.859  1.00  0.00     0.021 A 
ATOM     99  C   UNL A   1      28.029  30.745  21.771  1.00  0.00     0.112 A 
ENDBRANCH  88  89
ENDBRANCH  87  88
ENDBRANCH  80  83
ENDBRANCH  78  79
ENDBRANCH  77  78
ENDBRANCH  76  77
ENDBRANCH   1  76
TORSDOF 18
ENDMDL
MODEL 3
REMARK VINA RESULT:     -11.6      4.657      9.544
REMARK SMILES O=C(NCCCCCCNC(=O)[C@H]1CC[C@H](CN2C(=O)c3cccnc3C2=O)O1)c1ccc(-c2c3nc(c(-c4c(F)cc(S(=O)(=O)[O-])cc4F)c4ccc([nH]4)c(-c4c(F)cc(S(=O)(=O)[O-])cc4F)c4nc(c(-c5c(F)cc(S(=O)(=O)[O-])cc5F)c5ccc2[nH]5)C=C4)C=C3)cc1
REMARK SMILES IDX 6 1 5 2 4 3 3 4 1 5 2 6 30 8 31 9 95 10 32 11 94 12 33 13
REMARK SMILES IDX 34 14 35 15 88 16 36 17 93 18 87 19 89 20 37 21 92 22 86 23
REMARK SMILES IDX 85 24 38 26 72 27 51 28 71 29 52 30 55 31 70 32 90 33 53 34
REMARK SMILES IDX 54 35 69 37 91 38 56 39 39 40 40 41 49 42 41 43 42 44 48 45
REMARK SMILES IDX 50 46 43 47 44 48 45 49 46 50 47 51 73 52 74 53 83 54 75 55
REMARK SMILES IDX 76 56 82 57 84 58 77 59 78 60 79 61 80 62 81 63 57 64 58 65
REMARK SMILES IDX 67 66 59 67 60 68 66 69 68 70 61 71 62 72 63 73 64 74 65 75
REMARK SMILES IDX 7 76 8 77 9 78 10 79 11 80 12 82 13 83 14 84 29 85 15 86
REMARK SMILES IDX 16 87 17 88 18 89 19 90 27 91 20 92 21 93 26 94 28 95 22 96
REMARK SMILES IDX 25 97 23 98 24 99
REMARK H PARENT 3 7 89 25 55 36 10 81
REMARK Flexibility Score: inf
ROOT
ATOM      1  C   UNL A   1      31.776  30.516  26.077  1.00  0.00     0.002 C 
ENDROOT
BRANCH   1   2
ATOM      2  C   UNL A   1      31.527  31.894  26.687  1.00  0.00     0.021 C 
BRANCH   2   3
ATOM      3  C   UNL A   1      32.776  32.578  27.218  1.00  0.00     0.116 C 
BRANCH   3   4
ATOM      4  N   UNL A   1      32.529  33.956  27.617  1.00  0.00    -0.352 N 
ATOM      5  O   UNL A   1      32.694  35.776  28.945  1.00  0.00    -0.269 OA
ATOM      6  C   UNL A   1      33.133  34.678  28.620  1.00  0.00     0.251 C 
ATOM      7  H   UNL A   1      31.840  34.433  27.100  1.00  0.00     0.163 HD
BRANCH   6   8
ATOM      8  C   UNL A   1      34.303  34.099  29.313  1.00  0.00     0.039 A 
ATOM      9  C   UNL A   1      34.117  33.301  30.443  1.00  0.00     0.014 A 
ATOM     10  C   UNL A   1      35.592  34.382  28.855  1.00  0.00     0.014 A 
ATOM     11  C   UNL A   1      35.212  32.925  31.206  1.00  0.00     0.010 A 
ATOM     12  C   UNL A   1      36.699  33.901  29.562  1.00  0.00     0.010 A 
ATOM     13  C   UNL A   1      36.517  33.187  30.757  1.00  0.00    -0.014 A 
BRANCH  13  14
ATOM     14  C   UNL A   1      37.655  32.602  31.511  1.00  0.00     0.031 A 
ATOM     15  C   UNL A   1      38.090  33.147  32.843  1.00  0.00     0.074 A 
ATOM     16  C   UNL A   1      38.268  31.523  30.983  1.00  0.00     0.049 A 
ATOM     17  N   UNL A   1      39.041  32.717  33.631  1.00  0.00    -0.248 NA
ATOM     18  C   UNL A   1      37.375  34.325  33.358  1.00  0.00     0.031 C 
ATOM     19  C   UNL A   1      37.941  30.921  29.684  1.00  0.00     0.029 A 
ATOM     20  N   UNL A   1      39.270  30.724  31.469  1.00  0.00    -0.354 N 
ATOM     21  C   UNL A   1      39.048  33.570  34.729  1.00  0.00     0.074 A 
ATOM     22  C   UNL A   1      38.024  34.565  34.490  1.00  0.00     0.031 C 
ATOM     23  C   UNL A   1      38.682  29.821  29.506  1.00  0.00     0.029 A 
ATOM     24  C   UNL A   1      39.596  29.683  30.630  1.00  0.00     0.049 A 
ATOM     25  H   UNL A   1      39.713  30.879  32.333  1.00  0.00     0.167 HD
ATOM     26  C   UNL A   1      39.831  33.517  35.835  1.00  0.00     0.037 A 
ATOM     27  C   UNL A   1      40.547  28.738  30.736  1.00  0.00     0.037 A 
ATOM     28  C   UNL A   1      40.847  32.516  36.057  1.00  0.00     0.049 A 
ATOM     29  C   UNL A   1      41.423  28.731  31.954  1.00  0.00     0.074 A 
ATOM     30  C   UNL A   1      41.680  32.365  37.154  1.00  0.00     0.029 A 
ATOM     31  N   UNL A   1      41.174  31.500  35.170  1.00  0.00    -0.354 N 
ATOM     32  N   UNL A   1      41.390  29.527  32.997  1.00  0.00    -0.248 NA
ATOM     33  C   UNL A   1      42.466  27.701  32.012  1.00  0.00     0.031 C 
ATOM     34  C   UNL A   1      42.543  31.293  36.906  1.00  0.00     0.029 A 
ATOM     35  C   UNL A   1      42.210  30.734  35.683  1.00  0.00     0.049 A 
ATOM     36  H   UNL A   1      40.734  31.344  34.303  1.00  0.00     0.167 HD
ATOM     37  C   UNL A   1      42.397  29.082  33.843  1.00  0.00     0.074 A 
ATOM     38  C   UNL A   1      42.997  27.928  33.204  1.00  0.00     0.031 C 
ATOM     39  C   UNL A   1      42.797  29.587  35.036  1.00  0.00     0.037 A 
BRANCH  26  40
ATOM     40  C   UNL A   1      39.636  34.567  36.897  1.00  0.00     0.058 A 
ATOM     41  C   UNL A   1      38.840  34.333  38.028  1.00  0.00     0.135 A 
ATOM     42  C   UNL A   1      40.325  35.790  36.827  1.00  0.00     0.135 A 
ATOM     43  F   UNL A   1      38.145  33.190  38.142  1.00  0.00    -0.206 F 
ATOM     44  C   UNL A   1      38.727  35.274  39.048  1.00  0.00     0.059 A 
ATOM     45  C   UNL A   1      40.249  36.735  37.848  1.00  0.00     0.059 A 
ATOM     46  F   UNL A   1      41.101  36.069  35.768  1.00  0.00    -0.206 F 
ATOM     47  C   UNL A   1      39.442  36.469  38.952  1.00  0.00     0.060 A 
BRANCH  47  48
ATOM     48  S   UNL A   1      39.313  37.659  40.305  1.00  0.00     0.124 S 
ATOM     49  O   UNL A   1      40.690  38.129  40.413  1.00  0.00    -0.237 OA
ATOM     50  O   UNL A   1      38.355  38.625  39.778  1.00  0.00    -0.237 OA
ATOM     51  O   UNL A   1      38.837  36.854  41.425  1.00  0.00    -0.744 OA
ENDBRANCH  47  48
ENDBRANCH  26  40
BRANCH  27  52
ATOM     52  C   UNL A   1      40.739  27.747  29.643  1.00  0.00     0.058 A 
ATOM     53  C   UNL A   1      41.793  27.870  28.726  1.00  0.00     0.135 A 
ATOM     54  C   UNL A   1      39.862  26.660  29.490  1.00  0.00     0.135 A 
ATOM     55  F   UNL A   1      42.659  28.889  28.829  1.00  0.00    -0.206 F 
ATOM     56  C   UNL A   1      41.948  26.973  27.673  1.00  0.00     0.059 A 
ATOM     57  C   UNL A   1      40.020  25.729  28.471  1.00  0.00     0.059 A 
ATOM     58  F   UNL A   1      38.850  26.484  30.354  1.00  0.00    -0.206 F 
ATOM     59  C   UNL A   1      41.053  25.907  27.554  1.00  0.00     0.060 A 
BRANCH  59  60
ATOM     60  S   UNL A   1      41.266  24.746  26.190  1.00  0.00     0.124 S 
ATOM     61  O   UNL A   1      40.033  23.972  26.270  1.00  0.00    -0.237 OA
ATOM     62  O   UNL A   1      41.388  25.640  25.042  1.00  0.00    -0.237 OA
ATOM     63  O   UNL A   1      42.487  24.028  26.548  1.00  0.00    -0.744 OA
ENDBRANCH  59  60
ENDBRANCH  27  52
BRANCH  39  64
ATOM     64  C   UNL A   1      43.918  28.870  35.737  1.00  0.00     0.058 A 
ATOM     65  C   UNL A   1      45.262  29.231  35.545  1.00  0.00     0.135 A 
ATOM     66  C   UNL A   1      43.644  27.812  36.620  1.00  0.00     0.135 A 
ATOM     67  F   UNL A   1      45.580  30.230  34.705  1.00  0.00    -0.206 F 
ATOM     68  C   UNL A   1      46.296  28.543  36.170  1.00  0.00     0.059 A 
ATOM     69  C   UNL A   1      44.661  27.134  37.282  1.00  0.00     0.059 A 
ATOM     70  F   UNL A   1      42.377  27.432  36.847  1.00  0.00    -0.206 F 
ATOM     71  C   UNL A   1      45.985  27.494  37.036  1.00  0.00     0.060 A 
BRANCH  71  72
ATOM     72  S   UNL A   1      47.336  26.614  37.848  1.00  0.00     0.124 S 
ATOM     73  O   UNL A   1      46.664  26.062  39.020  1.00  0.00    -0.237 OA
ATOM     74  O   UNL A   1      47.733  25.647  36.829  1.00  0.00    -0.237 OA
ATOM     75  O   UNL A   1      48.311  27.665  38.121  1.00  0.00    -0.744 OA
ENDBRANCH  71  72
ENDBRANCH  39  64
ENDBRANCH  13  14
ENDBRANCH   6   8
ENDBRANCH   3   4
ENDBRANCH   2   3
ENDBRANCH   1   2
BRANCH   1  76
ATOM     76  C   UNL A   1      30.924  30.192  24.847  1.00  0.00     0.002 C 
BRANCH  76  77
ATOM     77  C   UNL A   1      31.366  28.957  24.053  1.00  0.00     0.021 C 
BRANCH  77  78
ATOM     78  C   UNL A   1      32.860  28.903  23.758  1.00  0.00     0.116 C 
BRANCH  78  79
ATOM     79  N   UNL A   1      33.149  28.018  22.646  1.00  0.00    -0.354 N 
ATOM     80  C   UNL A   1      33.445  26.684  22.670  1.00  0.00     0.249 C 
ATOM     81  H   UNL A   1      33.129  28.434  21.755  1.00  0.00     0.163 HD
ATOM     82  O   UNL A   1      33.690  26.123  21.602  1.00  0.00    -0.272 OA
BRANCH  80  83
ATOM     83  C   UNL A   1      33.432  25.955  24.028  1.00  0.00     0.207 C 
ATOM     84  C   UNL A   1      32.048  25.392  24.318  1.00  0.00     0.045 C 
ATOM     85  O   UNL A   1      34.326  24.834  24.059  1.00  0.00    -0.363 OA
ATOM     86  C   UNL A   1      32.125  24.038  23.661  1.00  0.00     0.037 C 
ATOM     87  C   UNL A   1      33.563  23.617  23.934  1.00  0.00     0.139 C 
BRANCH  87  88
ATOM     88  C   UNL A   1      33.740  22.812  25.233  1.00  0.00     0.161 C 
BRANCH  88  89
ATOM     89  N   UNL A   1      33.687  21.379  25.022  1.00  0.00    -0.270 N 
ATOM     90  C   UNL A   1      34.781  20.599  24.762  1.00  0.00     0.263 C 
ATOM     91  C   UNL A   1      32.541  20.632  25.123  1.00  0.00     0.280 C 
ATOM     92  O   UNL A   1      35.944  20.923  24.631  1.00  0.00    -0.269 OA
ATOM     93  C   UNL A   1      34.308  19.224  24.700  1.00  0.00     0.071 A 
ATOM     94  C   UNL A   1      32.952  19.236  24.923  1.00  0.00     0.141 A 
ATOM     95  O   UNL A   1      31.413  21.024  25.357  1.00  0.00    -0.267 OA
ATOM     96  C   UNL A   1      34.966  18.030  24.508  1.00  0.00     0.018 A 
ATOM     97  N   UNL A   1      32.156  18.155  24.990  1.00  0.00    -0.250 NA
ATOM     98  C   UNL A   1      34.186  16.872  24.565  1.00  0.00     0.021 A 
ATOM     99  C   UNL A   1      32.809  16.982  24.808  1.00  0.00     0.112 A 
ENDBRANCH  88  89
ENDBRANCH  87  88
ENDBRANCH  80  83
ENDBRANCH  78  79
ENDBRANCH  77  78
ENDBRANCH  76  77
ENDBRANCH   1  76
TORSDOF 18
ENDMDL
