MODEL 1
REMARK VINA RESULT:      -9.1      0.000      0.000
REMARK SMILES O=C(NCCCCCCNC(=O)c1ccc(N2C(=O)[C@@H]3N=NC(c4ccccc4)=C3[C@H]2c2cccc(Br)c2)cc1)c1ccc(-c2c3nc(c(-c4c(F)cc(S(=O)(=O)[O-])cc4F)c4ccc([nH]4)c(-c4c(F)cc(S(=O)(=O)[O-])cc4F)c4nc(c(-c5c(F)cc(S(=O)(=O)[O-])cc5F)c5ccc2[nH]5)C=C4)C=C3)cc1
REMARK SMILES IDX 6 1 5 2 4 3 3 4 1 5 2 6 41 8 42 9 106 10 43 11 105 12 44 13
REMARK SMILES IDX 45 14 46 15 99 16 47 17 104 18 98 19 100 20 48 21 103 22
REMARK SMILES IDX 97 23 96 24 49 26 83 27 62 28 82 29 63 30 66 31 81 32 101 33
REMARK SMILES IDX 64 34 65 35 80 37 102 38 67 39 50 40 51 41 60 42 52 43 53 44
REMARK SMILES IDX 59 45 61 46 54 47 55 48 56 49 57 50 58 51 84 52 85 53 94 54
REMARK SMILES IDX 86 55 87 56 93 57 95 58 88 59 89 60 90 61 91 62 92 63 68 64
REMARK SMILES IDX 69 65 78 66 70 67 71 68 77 69 79 70 72 71 73 72 74 73 75 74
REMARK SMILES IDX 76 75 7 76 8 77 9 78 10 79 11 80 12 82 13 83 14 84 40 85
REMARK SMILES IDX 15 86 39 87 16 88 17 89 18 90 31 91 20 92 19 93 30 94 21 95
REMARK SMILES IDX 23 96 22 97 32 98 33 99 38 100 34 101 36 102 35 103 37 104
REMARK SMILES IDX 24 105 25 106 29 107 26 108 28 109 27 110
REMARK H PARENT 3 7 100 25 66 36 10 81
REMARK Flexibility Score: inf
ROOT
ATOM      1  C   UNL A   1      45.992  24.797  24.860  1.00  0.00     0.002 C 
ENDROOT
BRANCH   1   2
ATOM      2  C   UNL A   1      46.168  23.274  24.849  1.00  0.00     0.021 C 
BRANCH   2   3
ATOM      3  C   UNL A   1      45.262  22.520  23.877  1.00  0.00     0.116 C 
BRANCH   3   4
ATOM      4  N   UNL A   1      44.233  21.718  24.503  1.00  0.00    -0.352 N 
ATOM      5  O   UNL A   1      42.456  21.041  25.633  1.00  0.00    -0.269 OA
ATOM      6  C   UNL A   1      43.219  21.978  25.384  1.00  0.00     0.251 C 
ATOM      7  H   UNL A   1      44.270  20.772  24.235  1.00  0.00     0.163 HD
BRANCH   6   8
ATOM      8  C   UNL A   1      43.015  23.274  26.088  1.00  0.00     0.039 A 
ATOM      9  C   UNL A   1      42.407  24.406  25.544  1.00  0.00     0.014 A 
ATOM     10  C   UNL A   1      43.465  23.327  27.421  1.00  0.00     0.014 A 
ATOM     11  C   UNL A   1      42.317  25.585  26.281  1.00  0.00     0.010 A 
ATOM     12  C   UNL A   1      43.356  24.495  28.170  1.00  0.00     0.010 A 
ATOM     13  C   UNL A   1      42.803  25.634  27.589  1.00  0.00    -0.014 A 
BRANCH  13  14
ATOM     14  C   UNL A   1      42.598  26.862  28.358  1.00  0.00     0.031 A 
ATOM     15  C   UNL A   1      43.690  27.880  28.273  1.00  0.00     0.074 A 
ATOM     16  C   UNL A   1      41.433  27.170  28.962  1.00  0.00     0.049 A 
ATOM     17  N   UNL A   1      44.381  28.413  29.230  1.00  0.00    -0.248 NA
ATOM     18  C   UNL A   1      44.103  28.313  26.929  1.00  0.00     0.031 C 
ATOM     19  C   UNL A   1      40.159  26.454  28.868  1.00  0.00     0.029 A 
ATOM     20  N   UNL A   1      41.116  28.275  29.697  1.00  0.00    -0.354 N 
ATOM     21  C   UNL A   1      45.195  29.378  28.632  1.00  0.00     0.074 A 
ATOM     22  C   UNL A   1      45.069  29.189  27.209  1.00  0.00     0.031 C 
ATOM     23  C   UNL A   1      39.169  27.255  29.324  1.00  0.00     0.029 A 
ATOM     24  C   UNL A   1      39.751  28.478  29.851  1.00  0.00     0.049 A 
ATOM     25  H   UNL A   1      41.794  28.877  30.083  1.00  0.00     0.167 HD
ATOM     26  C   UNL A   1      45.787  30.383  29.336  1.00  0.00     0.037 A 
ATOM     27  C   UNL A   1      39.143  29.606  30.296  1.00  0.00     0.037 A 
ATOM     28  C   UNL A   1      45.799  30.119  30.748  1.00  0.00     0.049 A 
ATOM     29  C   UNL A   1      40.150  30.401  31.043  1.00  0.00     0.074 A 
ATOM     30  C   UNL A   1      46.342  29.138  31.554  1.00  0.00     0.029 A 
ATOM     31  N   UNL A   1      44.906  30.797  31.540  1.00  0.00    -0.354 N 
ATOM     32  N   UNL A   1      40.674  30.047  32.183  1.00  0.00    -0.248 NA
ATOM     33  C   UNL A   1      40.873  31.439  30.323  1.00  0.00     0.031 C 
ATOM     34  C   UNL A   1      45.406  28.970  32.616  1.00  0.00     0.029 A 
ATOM     35  C   UNL A   1      44.368  29.879  32.403  1.00  0.00     0.049 A 
ATOM     36  H   UNL A   1      44.694  31.757  31.496  1.00  0.00     0.167 HD
ATOM     37  C   UNL A   1      41.984  30.500  32.130  1.00  0.00     0.074 A 
ATOM     38  C   UNL A   1      42.014  31.441  31.015  1.00  0.00     0.031 C 
ATOM     39  C   UNL A   1      42.983  29.871  32.817  1.00  0.00     0.037 A 
BRANCH  26  40
ATOM     40  C   UNL A   1      46.095  31.756  28.784  1.00  0.00     0.058 A 
ATOM     41  C   UNL A   1      45.051  32.558  28.276  1.00  0.00     0.135 A 
ATOM     42  C   UNL A   1      47.402  32.187  28.473  1.00  0.00     0.135 A 
ATOM     43  F   UNL A   1      43.768  32.236  28.504  1.00  0.00    -0.206 F 
ATOM     44  C   UNL A   1      45.288  33.663  27.456  1.00  0.00     0.059 A 
ATOM     45  C   UNL A   1      47.662  33.316  27.703  1.00  0.00     0.059 A 
ATOM     46  F   UNL A   1      48.483  31.475  28.817  1.00  0.00    -0.206 F 
ATOM     47  C   UNL A   1      46.600  34.020  27.159  1.00  0.00     0.060 A 
BRANCH  47  48
ATOM     48  S   UNL A   1      46.909  35.359  25.991  1.00  0.00     0.124 S 
ATOM     49  O   UNL A   1      45.555  35.676  25.551  1.00  0.00    -0.237 OA
ATOM     50  O   UNL A   1      47.557  36.357  26.834  1.00  0.00    -0.237 OA
ATOM     51  O   UNL A   1      47.771  34.737  24.990  1.00  0.00    -0.744 OA
ENDBRANCH  47  48
ENDBRANCH  26  40
BRANCH  27  52
ATOM     52  C   UNL A   1      37.847  30.178  29.844  1.00  0.00     0.058 A 
ATOM     53  C   UNL A   1      36.935  30.731  30.760  1.00  0.00     0.135 A 
ATOM     54  C   UNL A   1      37.595  30.442  28.482  1.00  0.00     0.135 A 
ATOM     55  F   UNL A   1      37.112  30.555  32.079  1.00  0.00    -0.206 F 
ATOM     56  C   UNL A   1      35.862  31.531  30.353  1.00  0.00     0.059 A 
ATOM     57  C   UNL A   1      36.524  31.221  28.052  1.00  0.00     0.059 A 
ATOM     58  F   UNL A   1      38.441  30.027  27.527  1.00  0.00    -0.206 F 
ATOM     59  C   UNL A   1      35.676  31.786  28.994  1.00  0.00     0.060 A 
BRANCH  59  60
ATOM     60  S   UNL A   1      34.403  32.958  28.473  1.00  0.00     0.124 S 
ATOM     61  O   UNL A   1      33.462  32.091  27.774  1.00  0.00    -0.237 OA
ATOM     62  O   UNL A   1      33.944  33.502  29.747  1.00  0.00    -0.237 OA
ATOM     63  O   UNL A   1      35.133  33.898  27.626  1.00  0.00    -0.744 OA
ENDBRANCH  59  60
ENDBRANCH  27  52
BRANCH  39  64
ATOM     64  C   UNL A   1      42.606  28.889  33.893  1.00  0.00     0.058 A 
ATOM     65  C   UNL A   1      42.386  27.519  33.668  1.00  0.00     0.135 A 
ATOM     66  C   UNL A   1      42.630  29.325  35.227  1.00  0.00     0.135 A 
ATOM     67  F   UNL A   1      42.455  27.002  32.434  1.00  0.00    -0.206 F 
ATOM     68  C   UNL A   1      42.164  26.630  34.720  1.00  0.00     0.059 A 
ATOM     69  C   UNL A   1      42.444  28.449  36.293  1.00  0.00     0.059 A 
ATOM     70  F   UNL A   1      42.899  30.610  35.510  1.00  0.00    -0.206 F 
ATOM     71  C   UNL A   1      42.200  27.103  36.032  1.00  0.00     0.060 A 
BRANCH  71  72
ATOM     72  S   UNL A   1      42.018  25.930  37.392  1.00  0.00     0.124 S 
ATOM     73  O   UNL A   1      40.588  26.006  37.674  1.00  0.00    -0.237 OA
ATOM     74  O   UNL A   1      42.481  24.679  36.799  1.00  0.00    -0.237 OA
ATOM     75  O   UNL A   1      42.889  26.475  38.431  1.00  0.00    -0.744 OA
ENDBRANCH  71  72
ENDBRANCH  39  64
ENDBRANCH  13  14
ENDBRANCH   6   8
ENDBRANCH   3   4
ENDBRANCH   2   3
ENDBRANCH   1   2
BRANCH   1  76
ATOM     76  C   UNL A   1      46.314  25.506  26.181  1.00  0.00     0.002 C 
BRANCH  76  77
ATOM     77  C   UNL A   1      47.703  25.237  26.773  1.00  0.00     0.021 C 
BRANCH  77  78
ATOM     78  C   UNL A   1      48.699  26.396  26.692  1.00  0.00     0.116 C 
BRANCH  78  79
ATOM     79  N   UNL A   1      50.050  25.942  26.419  1.00  0.00    -0.352 N 
ATOM     80  C   UNL A   1      51.105  25.777  27.281  1.00  0.00     0.251 C 
ATOM     81  H   UNL A   1      50.237  25.718  25.479  1.00  0.00     0.163 HD
ATOM     82  O   UNL A   1      52.227  25.534  26.842  1.00  0.00    -0.269 OA
BRANCH  80  83
ATOM     83  C   UNL A   1      50.926  25.943  28.743  1.00  0.00     0.039 A 
ATOM     84  C   UNL A   1      51.504  27.064  29.334  1.00  0.00     0.016 A 
ATOM     85  C   UNL A   1      50.247  25.009  29.538  1.00  0.00     0.016 A 
ATOM     86  C   UNL A   1      51.339  27.287  30.701  1.00  0.00     0.027 A 
ATOM     87  C   UNL A   1      50.096  25.227  30.923  1.00  0.00     0.027 A 
ATOM     88  C   UNL A   1      50.617  26.383  31.506  1.00  0.00     0.045 A 
BRANCH  88  89
ATOM     89  N   UNL A   1      50.356  26.723  32.873  1.00  0.00    -0.299 N 
ATOM     90  C   UNL A   1      50.949  25.845  33.843  1.00  0.00     0.259 C 
ATOM     91  C   UNL A   1      48.989  27.118  33.291  1.00  0.00     0.152 C 
ATOM     92  C   UNL A   1      49.919  25.560  34.899  1.00  0.00     0.248 C 
ATOM     93  O   UNL A   1      52.064  25.353  33.794  1.00  0.00    -0.271 OA
ATOM     94  C   UNL A   1      48.716  25.927  34.123  1.00  0.00     0.021 C 
ATOM     95  N   UNL A   1      49.666  24.141  35.190  1.00  0.00    -0.170 NA
ATOM     96  C   UNL A   1      47.865  24.913  34.234  1.00  0.00     0.097 C 
ATOM     97  N   UNL A   1      48.455  23.869  34.919  1.00  0.00    -0.154 NA
BRANCH  91  98
ATOM     98  C   UNL A   1      48.918  28.401  34.145  1.00  0.00    -0.020 A 
ATOM     99  C   UNL A   1      50.029  29.279  34.251  1.00  0.00     0.006 A 
ATOM    100  C   UNL A   1      47.779  28.726  34.898  1.00  0.00     0.022 A 
ATOM    101  C   UNL A   1      49.993  30.444  35.019  1.00  0.00     0.002 A 
ATOM    102  C   UNL A   1      47.759  29.884  35.693  1.00  0.00     0.018 A 
ATOM    103  C   UNL A   1      48.853  30.747  35.747  1.00  0.00     0.016 A 
ATOM    104  Br  UNL A   1      46.236  30.288  36.738  1.00  0.00    -0.051 Br
ENDBRANCH  91  98
BRANCH  96 105
ATOM    105  C   UNL A   1      46.555  24.724  33.616  1.00  0.00     0.002 A 
ATOM    106  C   UNL A   1      45.689  23.728  34.090  1.00  0.00     0.010 A 
ATOM    107  C   UNL A   1      46.232  25.406  32.437  1.00  0.00     0.010 A 
ATOM    108  C   UNL A   1      44.556  23.373  33.353  1.00  0.00     0.001 A 
ATOM    109  C   UNL A   1      45.094  25.054  31.706  1.00  0.00     0.001 A 
ATOM    110  C   UNL A   1      44.270  24.022  32.153  1.00  0.00     0.000 A 
ENDBRANCH  96 105
ENDBRANCH  88  89
ENDBRANCH  80  83
ENDBRANCH  78  79
ENDBRANCH  77  78
ENDBRANCH  76  77
ENDBRANCH   1  76
TORSDOF 19
ENDMDL
MODEL 2
REMARK VINA RESULT:      -8.9      4.340     11.440
REMARK SMILES O=C(NCCCCCCNC(=O)c1ccc(N2C(=O)[C@@H]3N=NC(c4ccccc4)=C3[C@H]2c2cccc(Br)c2)cc1)c1ccc(-c2c3nc(c(-c4c(F)cc(S(=O)(=O)[O-])cc4F)c4ccc([nH]4)c(-c4c(F)cc(S(=O)(=O)[O-])cc4F)c4nc(c(-c5c(F)cc(S(=O)(=O)[O-])cc5F)c5ccc2[nH]5)C=C4)C=C3)cc1
REMARK SMILES IDX 6 1 5 2 4 3 3 4 1 5 2 6 41 8 42 9 106 10 43 11 105 12 44 13
REMARK SMILES IDX 45 14 46 15 99 16 47 17 104 18 98 19 100 20 48 21 103 22
REMARK SMILES IDX 97 23 96 24 49 26 83 27 62 28 82 29 63 30 66 31 81 32 101 33
REMARK SMILES IDX 64 34 65 35 80 37 102 38 67 39 50 40 51 41 60 42 52 43 53 44
REMARK SMILES IDX 59 45 61 46 54 47 55 48 56 49 57 50 58 51 84 52 85 53 94 54
REMARK SMILES IDX 86 55 87 56 93 57 95 58 88 59 89 60 90 61 91 62 92 63 68 64
REMARK SMILES IDX 69 65 78 66 70 67 71 68 77 69 79 70 72 71 73 72 74 73 75 74
REMARK SMILES IDX 76 75 7 76 8 77 9 78 10 79 11 80 12 82 13 83 14 84 40 85
REMARK SMILES IDX 15 86 39 87 16 88 17 89 18 90 31 91 20 92 19 93 30 94 21 95
REMARK SMILES IDX 23 96 22 97 32 98 33 99 38 100 34 101 36 102 35 103 37 104
REMARK SMILES IDX 24 105 25 106 29 107 26 108 28 109 27 110
REMARK H PARENT 3 7 100 25 66 36 10 81
REMARK Flexibility Score: inf
ROOT
ATOM      1  C   UNL A   1      44.796  33.836  30.187  1.00  0.00     0.002 C 
ENDROOT
BRANCH   1   2
ATOM      2  C   UNL A   1      44.068  35.116  29.757  1.00  0.00     0.021 C 
BRANCH   2   3
ATOM      3  C   UNL A   1      42.901  34.909  28.793  1.00  0.00     0.116 C 
BRANCH   3   4
ATOM      4  N   UNL A   1      43.208  35.172  27.403  1.00  0.00    -0.352 N 
ATOM      5  O   UNL A   1      43.868  34.995  25.299  1.00  0.00    -0.269 OA
ATOM      6  C   UNL A   1      43.889  34.496  26.427  1.00  0.00     0.251 C 
ATOM      7  H   UNL A   1      42.844  36.031  27.087  1.00  0.00     0.163 HD
BRANCH   6   8
ATOM      8  C   UNL A   1      44.684  33.257  26.648  1.00  0.00     0.039 A 
ATOM      9  C   UNL A   1      46.078  33.183  26.677  1.00  0.00     0.014 A 
ATOM     10  C   UNL A   1      43.943  32.081  26.864  1.00  0.00     0.014 A 
ATOM     11  C   UNL A   1      46.718  31.956  26.841  1.00  0.00     0.010 A 
ATOM     12  C   UNL A   1      44.577  30.856  27.053  1.00  0.00     0.010 A 
ATOM     13  C   UNL A   1      45.969  30.791  27.016  1.00  0.00    -0.014 A 
BRANCH  13  14
ATOM     14  C   UNL A   1      46.683  29.542  27.282  1.00  0.00     0.031 A 
ATOM     15  C   UNL A   1      47.216  29.374  28.669  1.00  0.00     0.074 A 
ATOM     16  C   UNL A   1      46.716  28.510  26.416  1.00  0.00     0.049 A 
ATOM     17  N   UNL A   1      48.434  29.152  29.051  1.00  0.00    -0.248 NA
ATOM     18  C   UNL A   1      46.265  29.537  29.780  1.00  0.00     0.031 C 
ATOM     19  C   UNL A   1      45.974  28.370  25.161  1.00  0.00     0.029 A 
ATOM     20  N   UNL A   1      47.337  27.302  26.548  1.00  0.00    -0.354 N 
ATOM     21  C   UNL A   1      48.381  28.970  30.435  1.00  0.00     0.074 A 
ATOM     22  C   UNL A   1      47.048  29.335  30.841  1.00  0.00     0.031 C 
ATOM     23  C   UNL A   1      46.008  27.076  24.772  1.00  0.00     0.029 A 
ATOM     24  C   UNL A   1      46.868  26.330  25.674  1.00  0.00     0.049 A 
ATOM     25  H   UNL A   1      48.051  27.134  27.204  1.00  0.00     0.167 HD
ATOM     26  C   UNL A   1      49.380  28.368  31.139  1.00  0.00     0.037 A 
ATOM     27  C   UNL A   1      47.102  24.995  25.744  1.00  0.00     0.037 A 
ATOM     28  C   UNL A   1      50.604  28.300  30.390  1.00  0.00     0.049 A 
ATOM     29  C   UNL A   1      48.307  24.788  26.587  1.00  0.00     0.074 A 
ATOM     30  C   UNL A   1      51.460  29.229  29.832  1.00  0.00     0.029 A 
ATOM     31  N   UNL A   1      50.966  27.091  29.850  1.00  0.00    -0.354 N 
ATOM     32  N   UNL A   1      49.516  25.140  26.248  1.00  0.00    -0.248 NA
ATOM     33  C   UNL A   1      48.112  24.521  28.004  1.00  0.00     0.031 C 
ATOM     34  C   UNL A   1      51.951  28.614  28.644  1.00  0.00     0.029 A 
ATOM     35  C   UNL A   1      51.384  27.341  28.569  1.00  0.00     0.049 A 
ATOM     36  H   UNL A   1      50.931  26.215  30.297  1.00  0.00     0.167 HD
ATOM     37  C   UNL A   1      50.117  25.539  27.433  1.00  0.00     0.074 A 
ATOM     38  C   UNL A   1      49.246  25.032  28.488  1.00  0.00     0.031 C 
ATOM     39  C   UNL A   1      51.114  26.472  27.446  1.00  0.00     0.037 A 
BRANCH  26  40
ATOM     40  C   UNL A   1      49.179  27.563  32.402  1.00  0.00     0.058 A 
ATOM     41  C   UNL A   1      48.311  26.450  32.394  1.00  0.00     0.135 A 
ATOM     42  C   UNL A   1      49.577  28.016  33.678  1.00  0.00     0.135 A 
ATOM     43  F   UNL A   1      47.863  25.941  31.236  1.00  0.00    -0.206 F 
ATOM     44  C   UNL A   1      47.817  25.878  33.568  1.00  0.00     0.059 A 
ATOM     45  C   UNL A   1      49.140  27.427  34.860  1.00  0.00     0.059 A 
ATOM     46  F   UNL A   1      50.328  29.114  33.836  1.00  0.00    -0.206 F 
ATOM     47  C   UNL A   1      48.223  26.390  34.797  1.00  0.00     0.060 A 
BRANCH  47  48
ATOM     48  S   UNL A   1      47.483  25.748  36.311  1.00  0.00     0.124 S 
ATOM     49  O   UNL A   1      48.536  24.862  36.793  1.00  0.00    -0.237 OA
ATOM     50  O   UNL A   1      47.266  26.965  37.086  1.00  0.00    -0.237 OA
ATOM     51  O   UNL A   1      46.270  25.089  35.836  1.00  0.00    -0.744 OA
ENDBRANCH  47  48
ENDBRANCH  26  40
BRANCH  27  52
ATOM     52  C   UNL A   1      46.170  23.890  25.395  1.00  0.00     0.058 A 
ATOM     53  C   UNL A   1      46.434  23.027  24.316  1.00  0.00     0.135 A 
ATOM     54  C   UNL A   1      45.145  23.488  26.275  1.00  0.00     0.135 A 
ATOM     55  F   UNL A   1      47.412  23.316  23.443  1.00  0.00    -0.206 F 
ATOM     56  C   UNL A   1      45.751  21.819  24.144  1.00  0.00     0.059 A 
ATOM     57  C   UNL A   1      44.440  22.298  26.115  1.00  0.00     0.059 A 
ATOM     58  F   UNL A   1      44.860  24.195  27.379  1.00  0.00    -0.206 F 
ATOM     59  C   UNL A   1      44.765  21.453  25.062  1.00  0.00     0.060 A 
BRANCH  59  60
ATOM     60  S   UNL A   1      44.004  19.819  24.949  1.00  0.00     0.124 S 
ATOM     61  O   UNL A   1      44.168  19.507  23.533  1.00  0.00    -0.237 OA
ATOM     62  O   UNL A   1      44.817  19.035  25.872  1.00  0.00    -0.237 OA
ATOM     63  O   UNL A   1      42.629  20.054  25.381  1.00  0.00    -0.744 OA
ENDBRANCH  59  60
ENDBRANCH  27  52
BRANCH  39  64
ATOM     64  C   UNL A   1      51.787  26.821  26.146  1.00  0.00     0.058 A 
ATOM     65  C   UNL A   1      52.897  26.136  25.623  1.00  0.00     0.135 A 
ATOM     66  C   UNL A   1      51.180  27.783  25.322  1.00  0.00     0.135 A 
ATOM     67  F   UNL A   1      53.468  25.129  26.299  1.00  0.00    -0.206 F 
ATOM     68  C   UNL A   1      53.403  26.420  24.354  1.00  0.00     0.059 A 
ATOM     69  C   UNL A   1      51.649  28.059  24.041  1.00  0.00     0.059 A 
ATOM     70  F   UNL A   1      50.077  28.426  25.740  1.00  0.00    -0.206 F 
ATOM     71  C   UNL A   1      52.769  27.380  23.566  1.00  0.00     0.060 A 
BRANCH  71  72
ATOM     72  S   UNL A   1      53.363  27.667  21.886  1.00  0.00     0.124 S 
ATOM     73  O   UNL A   1      52.464  28.717  21.417  1.00  0.00    -0.237 OA
ATOM     74  O   UNL A   1      54.750  28.070  22.102  1.00  0.00    -0.237 OA
ATOM     75  O   UNL A   1      53.197  26.367  21.239  1.00  0.00    -0.744 OA
ENDBRANCH  71  72
ENDBRANCH  39  64
ENDBRANCH  13  14
ENDBRANCH   6   8
ENDBRANCH   3   4
ENDBRANCH   2   3
ENDBRANCH   1   2
BRANCH   1  76
ATOM     76  C   UNL A   1      43.925  32.743  30.816  1.00  0.00     0.002 C 
BRANCH  76  77
ATOM     77  C   UNL A   1      44.551  31.967  31.982  1.00  0.00     0.021 C 
BRANCH  77  78
ATOM     78  C   UNL A   1      43.596  31.074  32.778  1.00  0.00     0.116 C 
BRANCH  78  79
ATOM     79  N   UNL A   1      44.304  30.103  33.593  1.00  0.00    -0.352 N 
ATOM     80  C   UNL A   1      44.400  28.743  33.443  1.00  0.00     0.251 C 
ATOM     81  H   UNL A   1      44.787  30.475  34.366  1.00  0.00     0.163 HD
ATOM     82  O   UNL A   1      44.913  28.059  34.327  1.00  0.00    -0.269 OA
BRANCH  80  83
ATOM     83  C   UNL A   1      43.839  28.068  32.248  1.00  0.00     0.039 A 
ATOM     84  C   UNL A   1      42.633  28.553  31.748  1.00  0.00     0.016 A 
ATOM     85  C   UNL A   1      44.445  26.957  31.646  1.00  0.00     0.016 A 
ATOM     86  C   UNL A   1      42.077  27.977  30.606  1.00  0.00     0.027 A 
ATOM     87  C   UNL A   1      43.872  26.364  30.502  1.00  0.00     0.027 A 
ATOM     88  C   UNL A   1      42.699  26.891  29.959  1.00  0.00     0.045 A 
BRANCH  88  89
ATOM     89  N   UNL A   1      42.166  26.423  28.715  1.00  0.00    -0.299 N 
ATOM     90  C   UNL A   1      42.661  27.099  27.547  1.00  0.00     0.259 C 
ATOM     91  C   UNL A   1      40.714  26.148  28.586  1.00  0.00     0.152 C 
ATOM     92  C   UNL A   1      41.491  27.376  26.646  1.00  0.00     0.248 C 
ATOM     93  O   UNL A   1      43.809  27.454  27.344  1.00  0.00    -0.271 OA
ATOM     94  C   UNL A   1      40.415  27.254  27.651  1.00  0.00     0.021 C 
ATOM     95  N   UNL A   1      41.331  28.770  26.204  1.00  0.00    -0.170 NA
ATOM     96  C   UNL A   1      39.663  28.343  27.541  1.00  0.00     0.097 C 
ATOM     97  N   UNL A   1      40.221  29.217  26.629  1.00  0.00    -0.154 NA
BRANCH  91  98
ATOM     98  C   UNL A   1      40.367  24.789  27.943  1.00  0.00    -0.020 A 
ATOM     99  C   UNL A   1      41.260  23.688  28.016  1.00  0.00     0.006 A 
ATOM    100  C   UNL A   1      39.184  24.600  27.212  1.00  0.00     0.022 A 
ATOM    101  C   UNL A   1      40.972  22.450  27.441  1.00  0.00     0.002 A 
ATOM    102  C   UNL A   1      38.913  23.359  26.609  1.00  0.00     0.018 A 
ATOM    103  C   UNL A   1      39.793  22.285  26.730  1.00  0.00     0.016 A 
ATOM    104  Br  UNL A   1      37.338  23.128  25.588  1.00  0.00    -0.051 Br
ENDBRANCH  91  98
BRANCH  96 105
ATOM    105  C   UNL A   1      38.509  28.762  28.332  1.00  0.00     0.002 A 
ATOM    106  C   UNL A   1      37.611  29.710  27.822  1.00  0.00     0.010 A 
ATOM    107  C   UNL A   1      38.395  28.363  29.670  1.00  0.00     0.010 A 
ATOM    108  C   UNL A   1      36.660  30.301  28.659  1.00  0.00     0.001 A 
ATOM    109  C   UNL A   1      37.439  28.951  30.503  1.00  0.00     0.001 A 
ATOM    110  C   UNL A   1      36.589  29.935  30.003  1.00  0.00     0.000 A 
ENDBRANCH  96 105
ENDBRANCH  88  89
ENDBRANCH  80  83
ENDBRANCH  78  79
ENDBRANCH  77  78
ENDBRANCH  76  77
ENDBRANCH   1  76
TORSDOF 19
ENDMDL
MODEL 3
REMARK VINA RESULT:      -8.8      5.512     12.314
REMARK SMILES O=C(NCCCCCCNC(=O)c1ccc(N2C(=O)[C@@H]3N=NC(c4ccccc4)=C3[C@H]2c2cccc(Br)c2)cc1)c1ccc(-c2c3nc(c(-c4c(F)cc(S(=O)(=O)[O-])cc4F)c4ccc([nH]4)c(-c4c(F)cc(S(=O)(=O)[O-])cc4F)c4nc(c(-c5c(F)cc(S(=O)(=O)[O-])cc5F)c5ccc2[nH]5)C=C4)C=C3)cc1
REMARK SMILES IDX 6 1 5 2 4 3 3 4 1 5 2 6 41 8 42 9 106 10 43 11 105 12 44 13
REMARK SMILES IDX 45 14 46 15 99 16 47 17 104 18 98 19 100 20 48 21 103 22
REMARK SMILES IDX 97 23 96 24 49 26 83 27 62 28 82 29 63 30 66 31 81 32 101 33
REMARK SMILES IDX 64 34 65 35 80 37 102 38 67 39 50 40 51 41 60 42 52 43 53 44
REMARK SMILES IDX 59 45 61 46 54 47 55 48 56 49 57 50 58 51 84 52 85 53 94 54
REMARK SMILES IDX 86 55 87 56 93 57 95 58 88 59 89 60 90 61 91 62 92 63 68 64
REMARK SMILES IDX 69 65 78 66 70 67 71 68 77 69 79 70 72 71 73 72 74 73 75 74
REMARK SMILES IDX 76 75 7 76 8 77 9 78 10 79 11 80 12 82 13 83 14 84 40 85
REMARK SMILES IDX 15 86 39 87 16 88 17 89 18 90 31 91 20 92 19 93 30 94 21 95
REMARK SMILES IDX 23 96 22 97 32 98 33 99 38 100 34 101 36 102 35 103 37 104
REMARK SMILES IDX 24 105 25 106 29 107 26 108 28 109 27 110
REMARK H PARENT 3 7 100 25 66 36 10 81
REMARK Flexibility Score: inf
ROOT
ATOM      1  C   UNL A   1      47.551  34.789  30.233  1.00  0.00     0.002 C 
ENDROOT
BRANCH   1   2
ATOM      2  C   UNL A   1      47.958  36.239  30.523  1.00  0.00     0.021 C 
BRANCH   2   3
ATOM      3  C   UNL A   1      47.279  37.294  29.650  1.00  0.00     0.116 C 
BRANCH   3   4
ATOM      4  N   UNL A   1      46.700  38.403  30.377  1.00  0.00    -0.352 N 
ATOM      5  O   UNL A   1      45.560  39.648  31.806  1.00  0.00    -0.269 OA
ATOM      6  C   UNL A   1      45.731  38.520  31.335  1.00  0.00     0.251 C 
ATOM      7  H   UNL A   1      47.093  39.271  30.126  1.00  0.00     0.163 HD
BRANCH   6   8
ATOM      8  C   UNL A   1      44.850  37.411  31.793  1.00  0.00     0.039 A 
ATOM      9  C   UNL A   1      44.897  36.804  33.049  1.00  0.00     0.014 A 
ATOM     10  C   UNL A   1      43.884  36.970  30.869  1.00  0.00     0.014 A 
ATOM     11  C   UNL A   1      44.055  35.736  33.352  1.00  0.00     0.010 A 
ATOM     12  C   UNL A   1      43.024  35.919  31.174  1.00  0.00     0.010 A 
ATOM     13  C   UNL A   1      43.128  35.284  32.410  1.00  0.00    -0.014 A 
BRANCH  13  14
ATOM     14  C   UNL A   1      42.199  34.226  32.807  1.00  0.00     0.031 A 
ATOM     15  C   UNL A   1      42.571  32.837  32.396  1.00  0.00     0.074 A 
ATOM     16  C   UNL A   1      41.164  34.427  33.646  1.00  0.00     0.049 A 
ATOM     17  N   UNL A   1      41.894  31.988  31.690  1.00  0.00    -0.248 NA
ATOM     18  C   UNL A   1      43.910  32.359  32.776  1.00  0.00     0.031 C 
ATOM     19  C   UNL A   1      40.850  35.639  34.406  1.00  0.00     0.029 A 
ATOM     20  N   UNL A   1      40.238  33.530  34.093  1.00  0.00    -0.354 N 
ATOM     21  C   UNL A   1      42.637  30.806  31.684  1.00  0.00     0.074 A 
ATOM     22  C   UNL A   1      43.916  31.128  32.263  1.00  0.00     0.031 C 
ATOM     23  C   UNL A   1      39.960  35.332  35.376  1.00  0.00     0.029 A 
ATOM     24  C   UNL A   1      39.553  33.945  35.227  1.00  0.00     0.049 A 
ATOM     25  H   UNL A   1      40.071  32.665  33.653  1.00  0.00     0.167 HD
ATOM     26  C   UNL A   1      42.098  29.596  31.362  1.00  0.00     0.037 A 
ATOM     27  C   UNL A   1      38.779  33.177  36.035  1.00  0.00     0.037 A 
ATOM     28  C   UNL A   1      40.839  29.730  30.683  1.00  0.00     0.049 A 
ATOM     29  C   UNL A   1      38.383  31.968  35.270  1.00  0.00     0.074 A 
ATOM     30  C   UNL A   1      40.423  30.310  29.500  1.00  0.00     0.029 A 
ATOM     31  N   UNL A   1      39.692  29.467  31.389  1.00  0.00    -0.354 N 
ATOM     32  N   UNL A   1      37.579  31.973  34.242  1.00  0.00    -0.248 NA
ATOM     33  C   UNL A   1      39.195  30.769  35.416  1.00  0.00     0.031 C 
ATOM     34  C   UNL A   1      39.114  30.802  29.769  1.00  0.00     0.029 A 
ATOM     35  C   UNL A   1      38.805  30.467  31.088  1.00  0.00     0.049 A 
ATOM     36  H   UNL A   1      39.537  28.707  31.995  1.00  0.00     0.167 HD
ATOM     37  C   UNL A   1      38.073  30.990  33.398  1.00  0.00     0.074 A 
ATOM     38  C   UNL A   1      38.995  30.213  34.220  1.00  0.00     0.031 C 
ATOM     39  C   UNL A   1      37.899  31.061  32.045  1.00  0.00     0.037 A 
BRANCH  26  40
ATOM     40  C   UNL A   1      42.558  28.272  31.925  1.00  0.00     0.058 A 
ATOM     41  C   UNL A   1      42.393  27.998  33.299  1.00  0.00     0.135 A 
ATOM     42  C   UNL A   1      43.410  27.390  31.225  1.00  0.00     0.135 A 
ATOM     43  F   UNL A   1      41.611  28.777  34.063  1.00  0.00    -0.206 F 
ATOM     44  C   UNL A   1      43.083  26.970  33.946  1.00  0.00     0.059 A 
ATOM     45  C   UNL A   1      44.065  26.327  31.838  1.00  0.00     0.059 A 
ATOM     46  F   UNL A   1      43.724  27.583  29.938  1.00  0.00    -0.206 F 
ATOM     47  C   UNL A   1      43.934  26.153  33.207  1.00  0.00     0.060 A 
BRANCH  47  48
ATOM     48  S   UNL A   1      44.931  24.916  34.059  1.00  0.00     0.124 S 
ATOM     49  O   UNL A   1      44.799  25.344  35.446  1.00  0.00    -0.237 OA
ATOM     50  O   UNL A   1      44.249  23.676  33.704  1.00  0.00    -0.237 OA
ATOM     51  O   UNL A   1      46.254  25.088  33.466  1.00  0.00    -0.744 OA
ENDBRANCH  47  48
ENDBRANCH  26  40
BRANCH  27  52
ATOM     52  C   UNL A   1      38.631  33.273  37.511  1.00  0.00     0.058 A 
ATOM     53  C   UNL A   1      37.362  33.284  38.118  1.00  0.00     0.135 A 
ATOM     54  C   UNL A   1      39.729  33.080  38.374  1.00  0.00     0.135 A 
ATOM     55  F   UNL A   1      36.257  33.433  37.371  1.00  0.00    -0.206 F 
ATOM     56  C   UNL A   1      37.191  33.076  39.490  1.00  0.00     0.059 A 
ATOM     57  C   UNL A   1      39.585  32.888  39.745  1.00  0.00     0.059 A 
ATOM     58  F   UNL A   1      40.978  32.977  37.895  1.00  0.00    -0.206 F 
ATOM     59  C   UNL A   1      38.311  32.860  40.295  1.00  0.00     0.060 A 
BRANCH  59  60
ATOM     60  S   UNL A   1      38.088  32.415  42.032  1.00  0.00     0.124 S 
ATOM     61  O   UNL A   1      37.614  31.039  41.933  1.00  0.00    -0.237 OA
ATOM     62  O   UNL A   1      39.432  32.589  42.571  1.00  0.00    -0.237 OA
ATOM     63  O   UNL A   1      37.101  33.382  42.506  1.00  0.00    -0.744 OA
ENDBRANCH  59  60
ENDBRANCH  27  52
BRANCH  39  64
ATOM     64  C   UNL A   1      36.886  32.032  31.502  1.00  0.00     0.058 A 
ATOM     65  C   UNL A   1      37.106  33.414  31.376  1.00  0.00     0.135 A 
ATOM     66  C   UNL A   1      35.709  31.515  30.935  1.00  0.00     0.135 A 
ATOM     67  F   UNL A   1      38.252  33.971  31.792  1.00  0.00    -0.206 F 
ATOM     68  C   UNL A   1      36.182  34.250  30.749  1.00  0.00     0.059 A 
ATOM     69  C   UNL A   1      34.790  32.326  30.276  1.00  0.00     0.059 A 
ATOM     70  F   UNL A   1      35.472  30.193  30.966  1.00  0.00    -0.206 F 
ATOM     71  C   UNL A   1      35.028  33.697  30.196  1.00  0.00     0.060 A 
BRANCH  71  72
ATOM     72  S   UNL A   1      33.888  34.767  29.292  1.00  0.00     0.124 S 
ATOM     73  O   UNL A   1      33.290  35.555  30.366  1.00  0.00    -0.237 OA
ATOM     74  O   UNL A   1      34.779  35.494  28.393  1.00  0.00    -0.237 OA
ATOM     75  O   UNL A   1      32.986  33.825  28.632  1.00  0.00    -0.744 OA
ENDBRANCH  71  72
ENDBRANCH  39  64
ENDBRANCH  13  14
ENDBRANCH   6   8
ENDBRANCH   3   4
ENDBRANCH   2   3
ENDBRANCH   1   2
BRANCH   1  76
ATOM     76  C   UNL A   1      46.106  34.573  29.769  1.00  0.00     0.002 C 
BRANCH  76  77
ATOM     77  C   UNL A   1      45.714  33.130  29.427  1.00  0.00     0.021 C 
BRANCH  77  78
ATOM     78  C   UNL A   1      44.290  32.932  28.903  1.00  0.00     0.116 C 
BRANCH  78  79
ATOM     79  N   UNL A   1      44.252  32.786  27.459  1.00  0.00    -0.352 N 
ATOM     80  C   UNL A   1      43.885  33.696  26.501  1.00  0.00     0.251 C 
ATOM     81  H   UNL A   1      44.531  31.907  27.118  1.00  0.00     0.163 HD
ATOM     82  O   UNL A   1      43.761  33.343  25.330  1.00  0.00    -0.269 OA
BRANCH  80  83
ATOM     83  C   UNL A   1      43.576  35.100  26.864  1.00  0.00     0.039 A 
ATOM     84  C   UNL A   1      44.645  35.990  26.942  1.00  0.00     0.016 A 
ATOM     85  C   UNL A   1      42.280  35.541  27.168  1.00  0.00     0.016 A 
ATOM     86  C   UNL A   1      44.407  37.330  27.248  1.00  0.00     0.027 A 
ATOM     87  C   UNL A   1      42.044  36.892  27.494  1.00  0.00     0.027 A 
ATOM     88  C   UNL A   1      43.104  37.800  27.507  1.00  0.00     0.045 A 
BRANCH  88  89
ATOM     89  N   UNL A   1      42.892  39.206  27.680  1.00  0.00    -0.299 N 
ATOM     90  C   UNL A   1      42.384  39.892  26.524  1.00  0.00     0.259 C 
ATOM     91  C   UNL A   1      43.912  40.030  28.373  1.00  0.00     0.152 C 
ATOM     92  C   UNL A   1      43.152  41.175  26.376  1.00  0.00     0.248 C 
ATOM     93  O   UNL A   1      41.533  39.485  25.752  1.00  0.00    -0.271 OA
ATOM     94  C   UNL A   1      44.330  40.811  27.189  1.00  0.00     0.021 C 
ATOM     95  N   UNL A   1      43.760  41.416  25.058  1.00  0.00    -0.170 NA
ATOM     96  C   UNL A   1      45.402  41.084  26.453  1.00  0.00     0.097 C 
ATOM     97  N   UNL A   1      45.021  41.486  25.188  1.00  0.00    -0.154 NA
BRANCH  91  98
ATOM     98  C   UNL A   1      43.355  40.965  29.466  1.00  0.00    -0.020 A 
ATOM     99  C   UNL A   1      42.060  40.771  30.015  1.00  0.00     0.006 A 
ATOM    100  C   UNL A   1      44.078  42.078  29.925  1.00  0.00     0.022 A 
ATOM    101  C   UNL A   1      41.531  41.603  31.002  1.00  0.00     0.002 A 
ATOM    102  C   UNL A   1      43.528  42.930  30.898  1.00  0.00     0.018 A 
ATOM    103  C   UNL A   1      42.268  42.691  31.444  1.00  0.00     0.016 A 
ATOM    104  Br  UNL A   1      44.491  44.452  31.475  1.00  0.00    -0.051 Br
ENDBRANCH  91  98
BRANCH  96 105
ATOM    105  C   UNL A   1      46.816  40.858  26.746  1.00  0.00     0.002 A 
ATOM    106  C   UNL A   1      47.418  39.637  26.412  1.00  0.00     0.010 A 
ATOM    107  C   UNL A   1      47.525  41.781  27.523  1.00  0.00     0.010 A 
ATOM    108  C   UNL A   1      48.684  39.318  26.911  1.00  0.00     0.001 A 
ATOM    109  C   UNL A   1      48.794  41.462  28.015  1.00  0.00     0.001 A 
ATOM    110  C   UNL A   1      49.362  40.222  27.728  1.00  0.00     0.000 A 
ENDBRANCH  96 105
ENDBRANCH  88  89
ENDBRANCH  80  83
ENDBRANCH  78  79
ENDBRANCH  77  78
ENDBRANCH  76  77
ENDBRANCH   1  76
TORSDOF 19
ENDMDL
