MODEL 1
REMARK VINA RESULT:     -10.8      0.000      0.000
REMARK SMILES Cc1ccc(CNC(=O)NC[C@@H](CC(C)C)C(=O)NCCCCCCNC(=O)c2ccc(-c3c4nc(c(-c5c(F)cc(S(=O)(=O)[O-])cc5F)c5ccc([nH]5)c(-c5c(F)cc(S(=O)(=O)[O-])cc5F)c5nc(c(-c6c(F)cc(S(=O)(=O)[O-])cc6F)c6ccc3[nH]6)C=C5)C=C4)cc2)s1
REMARK SMILES IDX 22 1 21 2 20 3 19 4 17 5 18 6 12 8 11 9 10 10 7 11 8 12 9 14
REMARK SMILES IDX 6 16 5 17 1 18 2 19 3 20 95 21 4 22 13 23 14 24 15 25 16 26
REMARK SMILES IDX 23 27 24 28 25 29 26 30 27 31 28 33 29 34 30 35 94 36 31 37
REMARK SMILES IDX 93 38 32 39 33 40 34 41 87 42 35 43 92 44 86 45 88 46 36 47
REMARK SMILES IDX 91 48 85 49 84 50 37 52 71 53 50 54 70 55 51 56 54 57 69 58
REMARK SMILES IDX 89 59 52 60 53 61 68 63 90 64 55 65 38 66 39 67 48 68 40 69
REMARK SMILES IDX 41 70 47 71 49 72 42 73 43 74 44 75 45 76 46 77 72 78 73 79
REMARK SMILES IDX 82 80 74 81 75 82 81 83 83 84 76 85 77 86 78 87 79 88 80 89
REMARK SMILES IDX 56 90 57 91 66 92 58 93 59 94 65 95 67 96 60 97 61 98 62 99
REMARK SMILES IDX 63 100 64 101
REMARK H PARENT 19 7 7 13 10 15 26 32 88 51 54 62
REMARK Flexibility Score: inf
ROOT
ATOM      1  C   UNL A   1      32.788  30.140  26.880  1.00  0.00     0.002 C 
ENDROOT
BRANCH   1   2
ATOM      2  C   UNL A   1      32.512  28.730  27.409  1.00  0.00     0.021 C 
BRANCH   2   3
ATOM      3  C   UNL A   1      32.601  27.635  26.358  1.00  0.00     0.116 C 
BRANCH   3   4
ATOM      4  N   UNL A   1      31.339  26.959  26.135  1.00  0.00    -0.356 N 
ATOM      5  C   UNL A   1      30.586  26.830  25.012  1.00  0.00     0.224 C 
ATOM      6  O   UNL A   1      29.636  26.041  25.065  1.00  0.00    -0.275 OA
ATOM      7  H   UNL A   1      30.964  26.519  26.931  1.00  0.00     0.163 HD
BRANCH   5   8
ATOM      8  C   UNL A   1      30.870  27.584  23.715  1.00  0.00     0.098 C 
BRANCH   8   9
ATOM      9  C   UNL A   1      30.678  26.742  22.447  1.00  0.00     0.131 C 
BRANCH   9  10
ATOM     10  N   UNL A   1      31.889  26.642  21.648  1.00  0.00    -0.337 N 
ATOM     11  N   UNL A   1      32.472  24.355  21.710  1.00  0.00    -0.333 N 
ATOM     12  C   UNL A   1      32.555  25.579  21.175  1.00  0.00     0.315 C 
ATOM     13  H   UNL A   1      32.748  23.638  21.096  1.00  0.00     0.165 HD
ATOM     14  O   UNL A   1      33.282  25.740  20.194  1.00  0.00    -0.249 OA
ATOM     15  H   UNL A   1      32.291  27.510  21.413  1.00  0.00     0.165 HD
BRANCH  11  16
ATOM     16  C   UNL A   1      32.058  23.874  23.011  1.00  0.00     0.164 C 
BRANCH  16  17
ATOM     17  C   UNL A   1      33.209  23.890  23.976  1.00  0.00     0.024 A 
ATOM     18  C   UNL A   1      36.912  23.680  25.284  1.00  0.00     0.056 C 
ATOM     19  C   UNL A   1      35.445  23.795  25.045  1.00  0.00     0.002 A 
ATOM     20  C   UNL A   1      34.453  24.121  25.943  1.00  0.00     0.015 A 
ATOM     21  S   UNL A   1      34.808  23.499  23.485  1.00  0.00    -0.144 S 
ATOM     22  C   UNL A   1      33.167  24.174  25.329  1.00  0.00     0.017 A 
ENDBRANCH  16  17
ENDBRANCH  11  16
ENDBRANCH   9  10
ENDBRANCH   8   9
BRANCH   8  23
ATOM     23  C   UNL A   1      30.248  29.004  23.641  1.00  0.00     0.018 C 
BRANCH  23  24
ATOM     24  C   UNL A   1      29.149  29.258  22.588  1.00  0.00    -0.017 C 
ATOM     25  C   UNL A   1      27.753  28.912  23.122  1.00  0.00     0.007 C 
ATOM     26  C   UNL A   1      29.135  30.722  22.136  1.00  0.00     0.007 C 
ENDBRANCH  23  24
ENDBRANCH   8  23
ENDBRANCH   5   8
ENDBRANCH   3   4
ENDBRANCH   2   3
ENDBRANCH   1   2
BRANCH   1  27
ATOM     27  C   UNL A   1      31.559  30.956  26.462  1.00  0.00     0.002 C 
BRANCH  27  28
ATOM     28  C   UNL A   1      31.566  32.436  26.855  1.00  0.00     0.021 C 
BRANCH  28  29
ATOM     29  C   UNL A   1      32.875  32.947  27.440  1.00  0.00     0.116 C 
BRANCH  29  30
ATOM     30  N   UNL A   1      32.796  34.333  27.859  1.00  0.00    -0.352 N 
ATOM     31  C   UNL A   1      33.491  34.978  28.852  1.00  0.00     0.251 C 
ATOM     32  H   UNL A   1      32.153  34.890  27.363  1.00  0.00     0.163 HD
ATOM     33  O   UNL A   1      33.187  36.122  29.166  1.00  0.00    -0.269 OA
BRANCH  31  34
ATOM     34  C   UNL A   1      34.589  34.275  29.552  1.00  0.00     0.039 A 
ATOM     35  C   UNL A   1      35.894  34.430  29.081  1.00  0.00     0.014 A 
ATOM     36  C   UNL A   1      34.334  33.462  30.661  1.00  0.00     0.014 A 
ATOM     37  C   UNL A   1      36.948  33.799  29.744  1.00  0.00     0.010 A 
ATOM     38  C   UNL A   1      35.392  32.905  31.370  1.00  0.00     0.010 A 
ATOM     39  C   UNL A   1      36.709  33.049  30.906  1.00  0.00    -0.014 A 
BRANCH  39  40
ATOM     40  C   UNL A   1      37.817  32.368  31.625  1.00  0.00     0.031 A 
ATOM     41  C   UNL A   1      38.255  32.875  32.973  1.00  0.00     0.074 A 
ATOM     42  C   UNL A   1      38.454  31.330  31.050  1.00  0.00     0.049 A 
ATOM     43  N   UNL A   1      39.232  32.457  33.737  1.00  0.00    -0.248 NA
ATOM     44  C   UNL A   1      37.517  34.023  33.525  1.00  0.00     0.031 C 
ATOM     45  C   UNL A   1      38.144  30.773  29.731  1.00  0.00     0.029 A 
ATOM     46  N   UNL A   1      39.495  30.558  31.498  1.00  0.00    -0.354 N 
ATOM     47  C   UNL A   1      39.229  33.293  34.847  1.00  0.00     0.074 A 
ATOM     48  C   UNL A   1      38.201  34.285  34.627  1.00  0.00     0.031 C 
ATOM     49  C   UNL A   1      38.957  29.731  29.492  1.00  0.00     0.029 A 
ATOM     50  C   UNL A   1      39.871  29.570  30.620  1.00  0.00     0.049 A 
ATOM     51  H   UNL A   1      39.933  30.699  32.369  1.00  0.00     0.167 HD
ATOM     52  C   UNL A   1      39.993  33.222  35.964  1.00  0.00     0.037 A 
ATOM     53  C   UNL A   1      40.843  28.642  30.711  1.00  0.00     0.037 A 
ATOM     54  C   UNL A   1      41.001  32.220  36.183  1.00  0.00     0.049 A 
ATOM     55  C   UNL A   1      41.693  28.595  31.953  1.00  0.00     0.074 A 
ATOM     56  C   UNL A   1      41.804  32.035  37.295  1.00  0.00     0.029 A 
ATOM     57  N   UNL A   1      41.345  31.231  35.273  1.00  0.00    -0.354 N 
ATOM     58  N   UNL A   1      41.643  29.362  33.017  1.00  0.00    -0.248 NA
ATOM     59  C   UNL A   1      42.724  27.550  32.013  1.00  0.00     0.031 C 
ATOM     60  C   UNL A   1      42.668  30.966  37.036  1.00  0.00     0.029 A 
ATOM     61  C   UNL A   1      42.362  30.445  35.789  1.00  0.00     0.049 A 
ATOM     62  H   UNL A   1      40.930  31.107  34.389  1.00  0.00     0.167 HD
ATOM     63  C   UNL A   1      42.608  28.867  33.888  1.00  0.00     0.074 A 
ATOM     64  C   UNL A   1      43.221  27.732  33.228  1.00  0.00     0.031 C 
ATOM     65  C   UNL A   1      42.952  29.307  35.124  1.00  0.00     0.037 A 
BRANCH  52  66
ATOM     66  C   UNL A   1      39.761  34.260  37.032  1.00  0.00     0.058 A 
ATOM     67  C   UNL A   1      40.362  35.528  36.972  1.00  0.00     0.135 A 
ATOM     68  C   UNL A   1      38.916  33.990  38.121  1.00  0.00     0.135 A 
ATOM     69  F   UNL A   1      41.192  35.838  35.964  1.00  0.00    -0.206 F 
ATOM     70  C   UNL A   1      40.166  36.477  37.972  1.00  0.00     0.059 A 
ATOM     71  C   UNL A   1      38.678  34.936  39.114  1.00  0.00     0.059 A 
ATOM     72  F   UNL A   1      38.314  32.795  38.232  1.00  0.00    -0.206 F 
ATOM     73  C   UNL A   1      39.322  36.170  39.040  1.00  0.00     0.060 A 
BRANCH  73  74
ATOM     74  S   UNL A   1      39.085  37.409  40.331  1.00  0.00     0.124 S 
ATOM     75  O   UNL A   1      38.157  38.330  39.683  1.00  0.00    -0.237 OA
ATOM     76  O   UNL A   1      38.532  36.618  41.425  1.00  0.00    -0.237 OA
ATOM     77  O   UNL A   1      40.430  37.929  40.555  1.00  0.00    -0.744 OA
ENDBRANCH  73  74
ENDBRANCH  52  66
BRANCH  53  78
ATOM     78  C   UNL A   1      41.043  27.660  29.611  1.00  0.00     0.058 A 
ATOM     79  C   UNL A   1      42.167  27.732  28.774  1.00  0.00     0.135 A 
ATOM     80  C   UNL A   1      40.124  26.624  29.379  1.00  0.00     0.135 A 
ATOM     81  F   UNL A   1      43.072  28.706  28.951  1.00  0.00    -0.206 F 
ATOM     82  C   UNL A   1      42.363  26.829  27.735  1.00  0.00     0.059 A 
ATOM     83  C   UNL A   1      40.313  25.691  28.365  1.00  0.00     0.059 A 
ATOM     84  F   UNL A   1      39.040  26.498  30.162  1.00  0.00    -0.206 F 
ATOM     85  C   UNL A   1      41.431  25.809  27.539  1.00  0.00     0.060 A 
BRANCH  85  86
ATOM     86  S   UNL A   1      41.719  24.616  26.215  1.00  0.00     0.124 S 
ATOM     87  O   UNL A   1      43.109  24.244  26.453  1.00  0.00    -0.237 OA
ATOM     88  O   UNL A   1      40.723  23.590  26.506  1.00  0.00    -0.237 OA
ATOM     89  O   UNL A   1      41.473  25.394  25.004  1.00  0.00    -0.744 OA
ENDBRANCH  85  86
ENDBRANCH  53  78
BRANCH  65  90
ATOM     90  C   UNL A   1      43.999  28.529  35.875  1.00  0.00     0.058 A 
ATOM     91  C   UNL A   1      43.669  27.456  36.717  1.00  0.00     0.135 A 
ATOM     92  C   UNL A   1      45.360  28.835  35.707  1.00  0.00     0.135 A 
ATOM     93  F   UNL A   1      42.383  27.125  36.919  1.00  0.00    -0.206 F 
ATOM     94  C   UNL A   1      44.649  26.731  37.387  1.00  0.00     0.059 A 
ATOM     95  C   UNL A   1      46.358  28.102  36.340  1.00  0.00     0.059 A 
ATOM     96  F   UNL A   1      45.732  29.845  34.904  1.00  0.00    -0.206 F 
ATOM     97  C   UNL A   1      45.992  27.061  37.189  1.00  0.00     0.060 A 
BRANCH  97  98
ATOM     98  S   UNL A   1      47.254  26.091  38.040  1.00  0.00     0.124 S 
ATOM     99  O   UNL A   1      46.974  24.746  37.547  1.00  0.00    -0.237 OA
ATOM    100  O   UNL A   1      48.491  26.698  37.560  1.00  0.00    -0.237 OA
ATOM    101  O   UNL A   1      46.961  26.315  39.452  1.00  0.00    -0.744 OA
ENDBRANCH  97  98
ENDBRANCH  65  90
ENDBRANCH  39  40
ENDBRANCH  31  34
ENDBRANCH  29  30
ENDBRANCH  28  29
ENDBRANCH  27  28
ENDBRANCH   1  27
TORSDOF 22
ENDMDL
MODEL 2
REMARK VINA RESULT:     -10.7      6.193      8.702
REMARK SMILES Cc1ccc(CNC(=O)NC[C@@H](CC(C)C)C(=O)NCCCCCCNC(=O)c2ccc(-c3c4nc(c(-c5c(F)cc(S(=O)(=O)[O-])cc5F)c5ccc([nH]5)c(-c5c(F)cc(S(=O)(=O)[O-])cc5F)c5nc(c(-c6c(F)cc(S(=O)(=O)[O-])cc6F)c6ccc3[nH]6)C=C5)C=C4)cc2)s1
REMARK SMILES IDX 22 1 21 2 20 3 19 4 17 5 18 6 12 8 11 9 10 10 7 11 8 12 9 14
REMARK SMILES IDX 6 16 5 17 1 18 2 19 3 20 95 21 4 22 13 23 14 24 15 25 16 26
REMARK SMILES IDX 23 27 24 28 25 29 26 30 27 31 28 33 29 34 30 35 94 36 31 37
REMARK SMILES IDX 93 38 32 39 33 40 34 41 87 42 35 43 92 44 86 45 88 46 36 47
REMARK SMILES IDX 91 48 85 49 84 50 37 52 71 53 50 54 70 55 51 56 54 57 69 58
REMARK SMILES IDX 89 59 52 60 53 61 68 63 90 64 55 65 38 66 39 67 48 68 40 69
REMARK SMILES IDX 41 70 47 71 49 72 42 73 43 74 44 75 45 76 46 77 72 78 73 79
REMARK SMILES IDX 82 80 74 81 75 82 81 83 83 84 76 85 77 86 78 87 79 88 80 89
REMARK SMILES IDX 56 90 57 91 66 92 58 93 59 94 65 95 67 96 60 97 61 98 62 99
REMARK SMILES IDX 63 100 64 101
REMARK H PARENT 19 7 7 13 10 15 26 32 88 51 54 62
REMARK Flexibility Score: inf
ROOT
ATOM      1  C   UNL A   1      32.505  28.271  26.773  1.00  0.00     0.002 C 
ENDROOT
BRANCH   1   2
ATOM      2  C   UNL A   1      31.484  28.110  25.644  1.00  0.00     0.021 C 
BRANCH   2   3
ATOM      3  C   UNL A   1      32.094  28.004  24.255  1.00  0.00     0.116 C 
BRANCH   3   4
ATOM      4  N   UNL A   1      31.798  26.748  23.599  1.00  0.00    -0.356 N 
ATOM      5  C   UNL A   1      32.359  25.518  23.739  1.00  0.00     0.224 C 
ATOM      6  O   UNL A   1      31.785  24.577  23.179  1.00  0.00    -0.275 OA
ATOM      7  H   UNL A   1      31.068  26.791  22.941  1.00  0.00     0.163 HD
BRANCH   5   8
ATOM      8  C   UNL A   1      33.623  25.256  24.554  1.00  0.00     0.098 C 
BRANCH   8   9
ATOM      9  C   UNL A   1      33.356  24.732  25.971  1.00  0.00     0.131 C 
BRANCH   9  10
ATOM     10  N   UNL A   1      31.976  24.311  26.165  1.00  0.00    -0.337 N 
ATOM     11  N   UNL A   1      32.125  22.176  27.160  1.00  0.00    -0.333 N 
ATOM     12  C   UNL A   1      31.449  23.288  26.853  1.00  0.00     0.315 C 
ATOM     13  H   UNL A   1      31.734  21.671  27.909  1.00  0.00     0.165 HD
ATOM     14  O   UNL A   1      30.277  23.381  27.221  1.00  0.00    -0.249 OA
ATOM     15  H   UNL A   1      31.313  24.879  25.711  1.00  0.00     0.165 HD
BRANCH  11  16
ATOM     16  C   UNL A   1      33.317  21.563  26.612  1.00  0.00     0.164 C 
BRANCH  16  17
ATOM     17  C   UNL A   1      33.001  20.826  25.342  1.00  0.00     0.024 A 
ATOM     18  C   UNL A   1      32.222  17.812  22.938  1.00  0.00     0.056 C 
ATOM     19  C   UNL A   1      32.503  19.103  23.628  1.00  0.00     0.002 A 
ATOM     20  C   UNL A   1      32.463  20.379  23.111  1.00  0.00     0.015 A 
ATOM     21  S   UNL A   1      32.945  19.110  25.281  1.00  0.00    -0.144 S 
ATOM     22  C   UNL A   1      32.752  21.369  24.095  1.00  0.00     0.017 A 
ENDBRANCH  16  17
ENDBRANCH  11  16
ENDBRANCH   9  10
ENDBRANCH   8   9
BRANCH   8  23
ATOM     23  C   UNL A   1      34.742  24.498  23.791  1.00  0.00     0.018 C 
BRANCH  23  24
ATOM     24  C   UNL A   1      35.556  23.440  24.566  1.00  0.00    -0.017 C 
ATOM     25  C   UNL A   1      36.498  22.654  23.645  1.00  0.00     0.007 C 
ATOM     26  C   UNL A   1      36.401  24.085  25.670  1.00  0.00     0.007 C 
ENDBRANCH  23  24
ENDBRANCH   8  23
ENDBRANCH   5   8
ENDBRANCH   3   4
ENDBRANCH   2   3
ENDBRANCH   1   2
BRANCH   1  27
ATOM     27  C   UNL A   1      33.851  28.893  26.382  1.00  0.00     0.002 C 
BRANCH  27  28
ATOM     28  C   UNL A   1      34.382  29.991  27.308  1.00  0.00     0.021 C 
BRANCH  28  29
ATOM     29  C   UNL A   1      35.457  29.550  28.291  1.00  0.00     0.116 C 
BRANCH  29  30
ATOM     30  N   UNL A   1      35.510  30.387  29.474  1.00  0.00    -0.352 N 
ATOM     31  C   UNL A   1      36.591  30.716  30.254  1.00  0.00     0.251 C 
ATOM     32  H   UNL A   1      34.650  30.775  29.757  1.00  0.00     0.163 HD
ATOM     33  O   UNL A   1      36.423  31.320  31.306  1.00  0.00    -0.269 OA
BRANCH  31  34
ATOM     34  C   UNL A   1      37.950  30.315  29.828  1.00  0.00     0.039 A 
ATOM     35  C   UNL A   1      38.887  29.977  30.807  1.00  0.00     0.014 A 
ATOM     36  C   UNL A   1      38.303  30.279  28.476  1.00  0.00     0.014 A 
ATOM     37  C   UNL A   1      40.167  29.569  30.427  1.00  0.00     0.010 A 
ATOM     38  C   UNL A   1      39.548  29.791  28.096  1.00  0.00     0.010 A 
ATOM     39  C   UNL A   1      40.501  29.452  29.068  1.00  0.00    -0.014 A 
BRANCH  39  40
ATOM     40  C   UNL A   1      41.858  29.020  28.645  1.00  0.00     0.031 A 
ATOM     41  C   UNL A   1      42.978  30.025  28.586  1.00  0.00     0.074 A 
ATOM     42  C   UNL A   1      42.073  27.743  28.275  1.00  0.00     0.049 A 
ATOM     43  N   UNL A   1      44.215  29.864  28.195  1.00  0.00    -0.248 NA
ATOM     44  C   UNL A   1      42.656  31.403  28.994  1.00  0.00     0.031 C 
ATOM     45  C   UNL A   1      41.059  26.687  28.254  1.00  0.00     0.029 A 
ATOM     46  N   UNL A   1      43.213  27.115  27.842  1.00  0.00    -0.354 N 
ATOM     47  C   UNL A   1      44.812  31.115  28.300  1.00  0.00     0.074 A 
ATOM     48  C   UNL A   1      43.786  32.039  28.725  1.00  0.00     0.031 C 
ATOM     49  C   UNL A   1      41.630  25.536  27.860  1.00  0.00     0.029 A 
ATOM     50  C   UNL A   1      43.039  25.781  27.561  1.00  0.00     0.049 A 
ATOM     51  H   UNL A   1      44.077  27.577  27.742  1.00  0.00     0.167 HD
ATOM     52  C   UNL A   1      46.107  31.458  28.093  1.00  0.00     0.037 A 
ATOM     53  C   UNL A   1      43.913  24.860  27.112  1.00  0.00     0.037 A 
ATOM     54  C   UNL A   1      47.127  30.527  27.689  1.00  0.00     0.049 A 
ATOM     55  C   UNL A   1      45.342  25.267  26.870  1.00  0.00     0.074 A 
ATOM     56  C   UNL A   1      48.476  30.762  27.488  1.00  0.00     0.029 A 
ATOM     57  N   UNL A   1      46.911  29.182  27.424  1.00  0.00    -0.354 N 
ATOM     58  N   UNL A   1      45.902  26.445  27.024  1.00  0.00    -0.248 NA
ATOM     59  C   UNL A   1      46.261  24.221  26.402  1.00  0.00     0.031 C 
ATOM     60  C   UNL A   1      49.066  29.571  27.052  1.00  0.00     0.029 A 
ATOM     61  C   UNL A   1      48.098  28.578  27.042  1.00  0.00     0.049 A 
ATOM     62  H   UNL A   1      46.043  28.724  27.494  1.00  0.00     0.167 HD
ATOM     63  C   UNL A   1      47.246  26.270  26.710  1.00  0.00     0.074 A 
ATOM     64  C   UNL A   1      47.414  24.873  26.364  1.00  0.00     0.031 C 
ATOM     65  C   UNL A   1      48.252  27.181  26.715  1.00  0.00     0.037 A 
BRANCH  52  66
ATOM     66  C   UNL A   1      46.487  32.900  28.303  1.00  0.00     0.058 A 
ATOM     67  C   UNL A   1      46.933  33.373  29.548  1.00  0.00     0.135 A 
ATOM     68  C   UNL A   1      46.422  33.819  27.242  1.00  0.00     0.135 A 
ATOM     69  F   UNL A   1      47.002  32.545  30.602  1.00  0.00    -0.206 F 
ATOM     70  C   UNL A   1      47.262  34.711  29.745  1.00  0.00     0.059 A 
ATOM     71  C   UNL A   1      46.779  35.155  27.408  1.00  0.00     0.059 A 
ATOM     72  F   UNL A   1      46.003  33.425  26.029  1.00  0.00    -0.206 F 
ATOM     73  C   UNL A   1      47.180  35.595  28.669  1.00  0.00     0.060 A 
BRANCH  73  74
ATOM     74  S   UNL A   1      47.603  37.327  28.945  1.00  0.00     0.124 S 
ATOM     75  O   UNL A   1      48.612  37.217  29.992  1.00  0.00    -0.237 OA
ATOM     76  O   UNL A   1      48.093  37.741  27.634  1.00  0.00    -0.237 OA
ATOM     77  O   UNL A   1      46.337  37.925  29.356  1.00  0.00    -0.744 OA
ENDBRANCH  73  74
ENDBRANCH  52  66
BRANCH  53  78
ATOM     78  C   UNL A   1      43.473  23.455  26.897  1.00  0.00     0.058 A 
ATOM     79  C   UNL A   1      43.296  22.944  25.602  1.00  0.00     0.135 A 
ATOM     80  C   UNL A   1      43.230  22.591  27.977  1.00  0.00     0.135 A 
ATOM     81  F   UNL A   1      43.510  23.731  24.537  1.00  0.00    -0.206 F 
ATOM     82  C   UNL A   1      42.874  21.636  25.384  1.00  0.00     0.059 A 
ATOM     83  C   UNL A   1      42.836  21.271  27.784  1.00  0.00     0.059 A 
ATOM     84  F   UNL A   1      43.402  23.023  29.237  1.00  0.00    -0.206 F 
ATOM     85  C   UNL A   1      42.649  20.805  26.483  1.00  0.00     0.060 A 
BRANCH  85  86
ATOM     86  S   UNL A   1      42.145  19.098  26.186  1.00  0.00     0.124 S 
ATOM     87  O   UNL A   1      42.309  18.508  27.509  1.00  0.00    -0.237 OA
ATOM     88  O   UNL A   1      40.770  19.261  25.724  1.00  0.00    -0.237 OA
ATOM     89  O   UNL A   1      43.089  18.642  25.170  1.00  0.00    -0.744 OA
ENDBRANCH  85  86
ENDBRANCH  53  78
BRANCH  65  90
ATOM     90  C   UNL A   1      49.637  26.691  26.392  1.00  0.00     0.058 A 
ATOM     91  C   UNL A   1      50.440  26.045  27.345  1.00  0.00     0.135 A 
ATOM     92  C   UNL A   1      50.149  26.827  25.091  1.00  0.00     0.135 A 
ATOM     93  F   UNL A   1      50.004  25.893  28.606  1.00  0.00    -0.206 F 
ATOM     94  C   UNL A   1      51.710  25.576  27.026  1.00  0.00     0.059 A 
ATOM     95  C   UNL A   1      51.402  26.337  24.741  1.00  0.00     0.059 A 
ATOM     96  F   UNL A   1      49.418  27.428  24.137  1.00  0.00    -0.206 F 
ATOM     97  C   UNL A   1      52.182  25.725  25.720  1.00  0.00     0.060 A 
BRANCH  97  98
ATOM     98  S   UNL A   1      53.819  25.084  25.313  1.00  0.00     0.124 S 
ATOM     99  O   UNL A   1      53.589  23.643  25.351  1.00  0.00    -0.237 OA
ATOM    100  O   UNL A   1      54.058  25.654  23.991  1.00  0.00    -0.237 OA
ATOM    101  O   UNL A   1      54.665  25.612  26.378  1.00  0.00    -0.744 OA
ENDBRANCH  97  98
ENDBRANCH  65  90
ENDBRANCH  39  40
ENDBRANCH  31  34
ENDBRANCH  29  30
ENDBRANCH  28  29
ENDBRANCH  27  28
ENDBRANCH   1  27
TORSDOF 22
ENDMDL
MODEL 3
REMARK VINA RESULT:     -10.6      2.512      8.707
REMARK SMILES Cc1ccc(CNC(=O)NC[C@@H](CC(C)C)C(=O)NCCCCCCNC(=O)c2ccc(-c3c4nc(c(-c5c(F)cc(S(=O)(=O)[O-])cc5F)c5ccc([nH]5)c(-c5c(F)cc(S(=O)(=O)[O-])cc5F)c5nc(c(-c6c(F)cc(S(=O)(=O)[O-])cc6F)c6ccc3[nH]6)C=C5)C=C4)cc2)s1
REMARK SMILES IDX 22 1 21 2 20 3 19 4 17 5 18 6 12 8 11 9 10 10 7 11 8 12 9 14
REMARK SMILES IDX 6 16 5 17 1 18 2 19 3 20 95 21 4 22 13 23 14 24 15 25 16 26
REMARK SMILES IDX 23 27 24 28 25 29 26 30 27 31 28 33 29 34 30 35 94 36 31 37
REMARK SMILES IDX 93 38 32 39 33 40 34 41 87 42 35 43 92 44 86 45 88 46 36 47
REMARK SMILES IDX 91 48 85 49 84 50 37 52 71 53 50 54 70 55 51 56 54 57 69 58
REMARK SMILES IDX 89 59 52 60 53 61 68 63 90 64 55 65 38 66 39 67 48 68 40 69
REMARK SMILES IDX 41 70 47 71 49 72 42 73 43 74 44 75 45 76 46 77 72 78 73 79
REMARK SMILES IDX 82 80 74 81 75 82 81 83 83 84 76 85 77 86 78 87 79 88 80 89
REMARK SMILES IDX 56 90 57 91 66 92 58 93 59 94 65 95 67 96 60 97 61 98 62 99
REMARK SMILES IDX 63 100 64 101
REMARK H PARENT 19 7 7 13 10 15 26 32 88 51 54 62
REMARK Flexibility Score: inf
ROOT
ATOM      1  C   UNL A   1      36.768  22.587  23.995  1.00  0.00     0.002 C 
ENDROOT
BRANCH   1   2
ATOM      2  C   UNL A   1      35.653  22.985  23.024  1.00  0.00     0.021 C 
BRANCH   2   3
ATOM      3  C   UNL A   1      34.709  24.052  23.553  1.00  0.00     0.116 C 
BRANCH   3   4
ATOM      4  N   UNL A   1      33.316  23.761  23.285  1.00  0.00    -0.356 N 
ATOM      5  C   UNL A   1      32.418  23.003  23.968  1.00  0.00     0.224 C 
ATOM      6  O   UNL A   1      31.239  23.075  23.607  1.00  0.00    -0.275 OA
ATOM      7  H   UNL A   1      32.958  24.182  22.471  1.00  0.00     0.163 HD
BRANCH   5   8
ATOM      8  C   UNL A   1      32.796  22.107  25.146  1.00  0.00     0.098 C 
BRANCH   8   9
ATOM      9  C   UNL A   1      32.684  22.792  26.514  1.00  0.00     0.131 C 
BRANCH   9  10
ATOM     10  N   UNL A   1      31.392  22.580  27.147  1.00  0.00    -0.337 N 
ATOM     11  N   UNL A   1      30.018  24.314  26.323  1.00  0.00    -0.333 N 
ATOM     12  C   UNL A   1      30.190  23.127  26.916  1.00  0.00     0.315 C 
ATOM     13  H   UNL A   1      29.118  24.439  25.946  1.00  0.00     0.165 HD
ATOM     14  O   UNL A   1      29.190  22.500  27.270  1.00  0.00    -0.249 OA
ATOM     15  H   UNL A   1      31.402  21.917  27.875  1.00  0.00     0.165 HD
BRANCH  11  16
ATOM     16  C   UNL A   1      30.890  25.453  26.126  1.00  0.00     0.164 C 
BRANCH  16  17
ATOM     17  C   UNL A   1      30.345  26.363  25.062  1.00  0.00     0.024 A 
ATOM     18  C   UNL A   1      30.226  29.284  22.432  1.00  0.00     0.056 C 
ATOM     19  C   UNL A   1      30.018  28.134  23.357  1.00  0.00     0.002 A 
ATOM     20  C   UNL A   1      28.931  27.294  23.450  1.00  0.00     0.015 A 
ATOM     21  S   UNL A   1      31.228  27.723  24.495  1.00  0.00    -0.144 S 
ATOM     22  C   UNL A   1      29.118  26.277  24.432  1.00  0.00     0.017 A 
ENDBRANCH  16  17
ENDBRANCH  11  16
ENDBRANCH   9  10
ENDBRANCH   8   9
BRANCH   8  23
ATOM     23  C   UNL A   1      32.191  20.678  25.093  1.00  0.00     0.018 C 
BRANCH  23  24
ATOM     24  C   UNL A   1      33.054  19.551  24.489  1.00  0.00    -0.017 C 
ATOM     25  C   UNL A   1      34.544  19.736  24.807  1.00  0.00     0.007 C 
ATOM     26  C   UNL A   1      32.624  18.176  25.013  1.00  0.00     0.007 C 
ENDBRANCH  23  24
ENDBRANCH   8  23
ENDBRANCH   5   8
ENDBRANCH   3   4
ENDBRANCH   2   3
ENDBRANCH   1   2
BRANCH   1  27
ATOM     27  C   UNL A   1      36.724  23.248  25.378  1.00  0.00     0.002 C 
BRANCH  27  28
ATOM     28  C   UNL A   1      37.986  23.105  26.234  1.00  0.00     0.021 C 
BRANCH  28  29
ATOM     29  C   UNL A   1      38.712  24.405  26.548  1.00  0.00     0.116 C 
BRANCH  29  30
ATOM     30  N   UNL A   1      40.048  24.448  25.986  1.00  0.00    -0.352 N 
ATOM     31  C   UNL A   1      41.106  25.252  26.332  1.00  0.00     0.251 C 
ATOM     32  H   UNL A   1      40.222  23.812  25.255  1.00  0.00     0.163 HD
ATOM     33  O   UNL A   1      42.122  25.252  25.648  1.00  0.00    -0.269 OA
BRANCH  31  34
ATOM     34  C   UNL A   1      41.001  26.132  27.517  1.00  0.00     0.039 A 
ATOM     35  C   UNL A   1      41.843  27.244  27.603  1.00  0.00     0.014 A 
ATOM     36  C   UNL A   1      40.088  25.861  28.540  1.00  0.00     0.014 A 
ATOM     37  C   UNL A   1      41.741  28.103  28.698  1.00  0.00     0.010 A 
ATOM     38  C   UNL A   1      39.929  26.764  29.585  1.00  0.00     0.010 A 
ATOM     39  C   UNL A   1      40.769  27.883  29.688  1.00  0.00    -0.014 A 
BRANCH  39  40
ATOM     40  C   UNL A   1      40.647  28.786  30.861  1.00  0.00     0.031 A 
ATOM     41  C   UNL A   1      39.616  29.883  30.855  1.00  0.00     0.074 A 
ATOM     42  C   UNL A   1      41.485  28.648  31.906  1.00  0.00     0.049 A 
ATOM     43  N   UNL A   1      39.384  30.806  31.753  1.00  0.00    -0.248 NA
ATOM     44  C   UNL A   1      38.748  29.974  29.669  1.00  0.00     0.031 C 
ATOM     45  C   UNL A   1      42.549  27.646  32.011  1.00  0.00     0.029 A 
ATOM     46  N   UNL A   1      41.578  29.352  33.079  1.00  0.00    -0.354 N 
ATOM     47  C   UNL A   1      38.357  31.587  31.237  1.00  0.00     0.074 A 
ATOM     48  C   UNL A   1      38.057  31.076  29.919  1.00  0.00     0.031 C 
ATOM     49  C   UNL A   1      43.166  27.782  33.196  1.00  0.00     0.029 A 
ATOM     50  C   UNL A   1      42.570  28.903  33.918  1.00  0.00     0.049 A 
ATOM     51  H   UNL A   1      40.989  30.109  33.300  1.00  0.00     0.167 HD
ATOM     52  C   UNL A   1      37.700  32.619  31.821  1.00  0.00     0.037 A 
ATOM     53  C   UNL A   1      42.958  29.346  35.130  1.00  0.00     0.037 A 
ATOM     54  C   UNL A   1      37.993  33.110  33.142  1.00  0.00     0.049 A 
ATOM     55  C   UNL A   1      42.227  30.506  35.751  1.00  0.00     0.074 A 
ATOM     56  C   UNL A   1      37.363  34.124  33.842  1.00  0.00     0.029 A 
ATOM     57  N   UNL A   1      38.999  32.622  33.963  1.00  0.00    -0.354 N 
ATOM     58  N   UNL A   1      41.223  31.202  35.270  1.00  0.00    -0.248 NA
ATOM     59  C   UNL A   1      42.674  30.937  37.083  1.00  0.00     0.031 C 
ATOM     60  C   UNL A   1      38.022  34.283  35.066  1.00  0.00     0.029 A 
ATOM     61  C   UNL A   1      39.022  33.327  35.155  1.00  0.00     0.049 A 
ATOM     62  H   UNL A   1      39.610  31.885  33.731  1.00  0.00     0.167 HD
ATOM     63  C   UNL A   1      40.893  32.126  36.257  1.00  0.00     0.074 A 
ATOM     64  C   UNL A   1      41.802  31.894  37.363  1.00  0.00     0.031 C 
ATOM     65  C   UNL A   1      39.923  33.074  36.253  1.00  0.00     0.037 A 
BRANCH  52  66
ATOM     66  C   UNL A   1      36.602  33.281  31.031  1.00  0.00     0.058 A 
ATOM     67  C   UNL A   1      36.880  34.143  29.958  1.00  0.00     0.135 A 
ATOM     68  C   UNL A   1      35.252  33.038  31.338  1.00  0.00     0.135 A 
ATOM     69  F   UNL A   1      38.150  34.426  29.628  1.00  0.00    -0.206 F 
ATOM     70  C   UNL A   1      35.864  34.772  29.244  1.00  0.00     0.059 A 
ATOM     71  C   UNL A   1      34.220  33.629  30.616  1.00  0.00     0.059 A 
ATOM     72  F   UNL A   1      34.926  32.222  32.353  1.00  0.00    -0.206 F 
ATOM     73  C   UNL A   1      34.536  34.510  29.583  1.00  0.00     0.060 A 
BRANCH  73  74
ATOM     74  S   UNL A   1      33.232  35.339  28.652  1.00  0.00     0.124 S 
ATOM     75  O   UNL A   1      32.569  34.210  28.009  1.00  0.00    -0.237 OA
ATOM     76  O   UNL A   1      32.471  36.003  29.705  1.00  0.00    -0.237 OA
ATOM     77  O   UNL A   1      33.965  36.228  27.757  1.00  0.00    -0.744 OA
ENDBRANCH  73  74
ENDBRANCH  52  66
BRANCH  53  78
ATOM     78  C   UNL A   1      44.070  28.669  35.852  1.00  0.00     0.058 A 
ATOM     79  C   UNL A   1      43.814  27.625  36.754  1.00  0.00     0.135 A 
ATOM     80  C   UNL A   1      45.408  29.042  35.648  1.00  0.00     0.135 A 
ATOM     81  F   UNL A   1      42.552  27.236  36.987  1.00  0.00    -0.206 F 
ATOM     82  C   UNL A   1      44.841  26.990  37.445  1.00  0.00     0.059 A 
ATOM     83  C   UNL A   1      46.454  28.401  36.305  1.00  0.00     0.059 A 
ATOM     84  F   UNL A   1      45.710  30.022  34.781  1.00  0.00    -0.206 F 
ATOM     85  C   UNL A   1      46.159  27.383  37.211  1.00  0.00     0.060 A 
BRANCH  85  86
ATOM     86  S   UNL A   1      47.485  26.520  38.080  1.00  0.00     0.124 S 
ATOM     87  O   UNL A   1      47.580  27.293  39.313  1.00  0.00    -0.237 OA
ATOM     88  O   UNL A   1      46.939  25.173  38.210  1.00  0.00    -0.237 OA
ATOM     89  O   UNL A   1      48.619  26.644  37.169  1.00  0.00    -0.744 OA
ENDBRANCH  85  86
ENDBRANCH  53  78
BRANCH  65  90
ATOM     90  C   UNL A   1      39.749  33.898  37.500  1.00  0.00     0.058 A 
ATOM     91  C   UNL A   1      38.828  33.550  38.500  1.00  0.00     0.135 A 
ATOM     92  C   UNL A   1      40.554  35.028  37.717  1.00  0.00     0.135 A 
ATOM     93  F   UNL A   1      38.029  32.482  38.343  1.00  0.00    -0.206 F 
ATOM     94  C   UNL A   1      38.694  34.308  39.659  1.00  0.00     0.059 A 
ATOM     95  C   UNL A   1      40.460  35.782  38.881  1.00  0.00     0.059 A 
ATOM     96  F   UNL A   1      41.459  35.401  36.796  1.00  0.00    -0.206 F 
ATOM     97  C   UNL A   1      39.517  35.422  39.841  1.00  0.00     0.060 A 
BRANCH  97  98
ATOM     98  S   UNL A   1      39.354  36.378  41.363  1.00  0.00     0.124 S 
ATOM     99  O   UNL A   1      40.732  36.409  41.841  1.00  0.00    -0.237 OA
ATOM    100  O   UNL A   1      38.821  37.647  40.879  1.00  0.00    -0.237 OA
ATOM    101  O   UNL A   1      38.430  35.583  42.167  1.00  0.00    -0.744 OA
ENDBRANCH  97  98
ENDBRANCH  65  90
ENDBRANCH  39  40
ENDBRANCH  31  34
ENDBRANCH  29  30
ENDBRANCH  28  29
ENDBRANCH  27  28
ENDBRANCH   1  27
TORSDOF 22
ENDMDL
