MODEL 1
REMARK VINA RESULT:      -9.6      0.000      0.000
REMARK SMILES C=C(C)C(=O)OCC[C@@H](C(C)=O)C(=O)NCCCCCCNC(=O)c1ccc(-c2c3nc(c(-c4c(F)cc(S(=O)(=O)[O-])cc4F)c4ccc([nH]4)c(-c4c(F)cc(S(=O)(=O)[O-])cc4F)c4nc(c(-c5c(F)cc(S(=O)(=O)[O-])cc5F)c5ccc2[nH]5)C=C4)C=C3)cc1
REMARK SMILES IDX 17 1 16 2 15 3 13 4 14 5 9 7 8 8 7 9 6 10 4 11 5 12 2 13
REMARK SMILES IDX 1 14 3 15 10 16 11 17 12 18 18 19 19 20 20 21 21 22 22 23
REMARK SMILES IDX 23 24 24 26 25 27 26 28 90 29 27 30 89 31 28 32 29 33 30 34
REMARK SMILES IDX 83 35 31 36 88 37 82 38 84 39 32 40 87 41 81 42 80 43 33 45
REMARK SMILES IDX 67 46 46 47 66 48 47 49 50 50 65 51 85 52 48 53 49 54 64 56
REMARK SMILES IDX 86 57 51 58 34 59 35 60 44 61 36 62 37 63 43 64 45 65 38 66
REMARK SMILES IDX 39 67 40 68 41 69 42 70 68 71 69 72 78 73 70 74 71 75 77 76
REMARK SMILES IDX 79 77 72 78 73 79 74 80 75 81 76 82 52 83 53 84 62 85 54 86
REMARK SMILES IDX 55 87 61 88 63 89 56 90 57 91 58 92 59 93 60 94
REMARK H PARENT 15 6 22 25 84 44 50 55
REMARK Flexibility Score: inf
ROOT
ATOM      1  C   UNL A   1      31.849  25.907  25.223  1.00  0.00     0.021 C 
ENDROOT
BRANCH   1   2
ATOM      2  C   UNL A   1      31.040  24.935  24.378  1.00  0.00     0.116 C 
BRANCH   2   3
ATOM      3  N   UNL A   1      30.344  23.973  25.216  1.00  0.00    -0.355 N 
ATOM      4  C   UNL A   1      30.787  22.804  25.750  1.00  0.00     0.230 C 
ATOM      5  O   UNL A   1      30.004  22.140  26.432  1.00  0.00    -0.274 OA
ATOM      6  H   UNL A   1      29.410  24.202  25.428  1.00  0.00     0.163 HD
BRANCH   4   7
ATOM      7  C   UNL A   1      32.205  22.327  25.501  1.00  0.00     0.148 C 
BRANCH   7   8
ATOM      8  C   UNL A   1      32.956  22.250  26.846  1.00  0.00     0.063 C 
BRANCH   8   9
ATOM      9  C   UNL A   1      34.480  22.232  26.745  1.00  0.00     0.234 C 
BRANCH   9  10
ATOM     10  O   UNL A   1      34.945  23.264  25.866  1.00  0.00    -0.462 OA
BRANCH  10  11
ATOM     11  C   UNL A   1      36.279  23.298  25.636  1.00  0.00     0.333 C 
ATOM     12  O   UNL A   1      37.125  23.843  26.328  1.00  0.00    -0.247 OA
BRANCH  11  13
ATOM     13  C   UNL A   1      36.581  22.479  24.437  1.00  0.00     0.027 C 
ATOM     14  C   UNL A   1      36.201  22.967  23.245  1.00  0.00     0.020 C 
ATOM     15  C   UNL A   1      37.259  21.163  24.631  1.00  0.00     0.051 C 
ENDBRANCH  11  13
ENDBRANCH  10  11
ENDBRANCH   9  10
ENDBRANCH   8   9
ENDBRANCH   7   8
BRANCH   7  16
ATOM     16  C   UNL A   1      32.238  21.040  24.685  1.00  0.00     0.142 C 
ATOM     17  C   UNL A   1      32.499  21.143  23.200  1.00  0.00     0.088 C 
ATOM     18  O   UNL A   1      32.072  19.933  25.205  1.00  0.00    -0.299 OA
ENDBRANCH   7  16
ENDBRANCH   4   7
ENDBRANCH   2   3
ENDBRANCH   1   2
BRANCH   1  19
ATOM     19  C   UNL A   1      30.991  26.759  26.163  1.00  0.00     0.002 C 
BRANCH  19  20
ATOM     20  C   UNL A   1      31.718  27.959  26.780  1.00  0.00     0.002 C 
BRANCH  20  21
ATOM     21  C   UNL A   1      33.232  27.788  26.923  1.00  0.00     0.021 C 
BRANCH  21  22
ATOM     22  C   UNL A   1      34.054  28.755  26.079  1.00  0.00     0.116 C 
BRANCH  22  23
ATOM     23  N   UNL A   1      33.838  30.137  26.475  1.00  0.00    -0.352 N 
ATOM     24  C   UNL A   1      34.497  30.869  27.432  1.00  0.00     0.251 C 
ATOM     25  H   UNL A   1      33.123  30.612  25.994  1.00  0.00     0.163 HD
ATOM     26  O   UNL A   1      34.059  31.956  27.793  1.00  0.00    -0.269 OA
BRANCH  24  27
ATOM     27  C   UNL A   1      35.728  30.317  28.032  1.00  0.00     0.039 A 
ATOM     28  C   UNL A   1      36.939  30.467  27.355  1.00  0.00     0.014 A 
ATOM     29  C   UNL A   1      35.682  29.689  29.280  1.00  0.00     0.014 A 
ATOM     30  C   UNL A   1      38.121  30.040  27.964  1.00  0.00     0.010 A 
ATOM     31  C   UNL A   1      36.866  29.333  29.914  1.00  0.00     0.010 A 
ATOM     32  C   UNL A   1      38.097  29.506  29.264  1.00  0.00    -0.014 A 
BRANCH  32  33
ATOM     33  C   UNL A   1      39.347  29.132  29.969  1.00  0.00     0.031 A 
ATOM     34  C   UNL A   1      39.774  29.889  31.195  1.00  0.00     0.074 A 
ATOM     35  C   UNL A   1      40.131  28.159  29.462  1.00  0.00     0.049 A 
ATOM     36  N   UNL A   1      40.871  29.771  31.898  1.00  0.00    -0.248 NA
ATOM     37  C   UNL A   1      38.859  30.935  31.680  1.00  0.00     0.031 C 
ATOM     38  C   UNL A   1      39.837  27.378  28.258  1.00  0.00     0.029 A 
ATOM     39  N   UNL A   1      41.339  27.669  29.888  1.00  0.00    -0.354 N 
ATOM     40  C   UNL A   1      40.780  30.728  32.902  1.00  0.00     0.074 A 
ATOM     41  C   UNL A   1      39.551  31.458  32.680  1.00  0.00     0.031 C 
ATOM     42  C   UNL A   1      40.824  26.489  28.059  1.00  0.00     0.029 A 
ATOM     43  C   UNL A   1      41.842  26.668  29.090  1.00  0.00     0.049 A 
ATOM     44  H   UNL A   1      41.804  28.003  30.690  1.00  0.00     0.167 HD
ATOM     45  C   UNL A   1      41.632  30.959  33.930  1.00  0.00     0.037 A 
ATOM     46  C   UNL A   1      42.998  25.981  29.174  1.00  0.00     0.037 A 
ATOM     47  C   UNL A   1      42.848  30.220  34.147  1.00  0.00     0.049 A 
ATOM     48  C   UNL A   1      43.952  26.290  30.294  1.00  0.00     0.074 A 
ATOM     49  C   UNL A   1      43.759  30.346  35.180  1.00  0.00     0.029 A 
ATOM     50  N   UNL A   1      43.330  29.224  33.308  1.00  0.00    -0.354 N 
ATOM     51  N   UNL A   1      43.825  27.158  31.270  1.00  0.00    -0.248 NA
ATOM     52  C   UNL A   1      45.211  25.532  30.324  1.00  0.00     0.031 C 
ATOM     53  C   UNL A   1      44.816  29.461  34.942  1.00  0.00     0.029 A 
ATOM     54  C   UNL A   1      44.540  28.746  33.787  1.00  0.00     0.049 A 
ATOM     55  H   UNL A   1      42.879  28.903  32.495  1.00  0.00     0.167 HD
ATOM     56  C   UNL A   1      44.973  27.032  32.044  1.00  0.00     0.074 A 
ATOM     57  C   UNL A   1      45.779  25.997  31.429  1.00  0.00     0.031 C 
ATOM     58  C   UNL A   1      45.328  27.711  33.163  1.00  0.00     0.037 A 
BRANCH  45  59
ATOM     59  C   UNL A   1      41.272  32.058  34.894  1.00  0.00     0.058 A 
ATOM     60  C   UNL A   1      40.427  31.825  35.992  1.00  0.00     0.135 A 
ATOM     61  C   UNL A   1      41.783  33.354  34.725  1.00  0.00     0.135 A 
ATOM     62  F   UNL A   1      39.899  30.608  36.194  1.00  0.00    -0.206 F 
ATOM     63  C   UNL A   1      40.066  32.849  36.862  1.00  0.00     0.059 A 
ATOM     64  C   UNL A   1      41.461  34.386  35.603  1.00  0.00     0.059 A 
ATOM     65  F   UNL A   1      42.596  33.633  33.695  1.00  0.00    -0.206 F 
ATOM     66  C   UNL A   1      40.585  34.128  36.656  1.00  0.00     0.060 A 
BRANCH  66  67
ATOM     67  S   UNL A   1      40.090  35.449  37.782  1.00  0.00     0.124 S 
ATOM     68  O   UNL A   1      39.914  36.565  36.859  1.00  0.00    -0.237 OA
ATOM     69  O   UNL A   1      38.865  34.915  38.370  1.00  0.00    -0.237 OA
ATOM     70  O   UNL A   1      41.223  35.562  38.694  1.00  0.00    -0.744 OA
ENDBRANCH  66  67
ENDBRANCH  45  59
BRANCH  46  71
ATOM     71  C   UNL A   1      43.304  24.918  28.179  1.00  0.00     0.058 A 
ATOM     72  C   UNL A   1      42.921  23.589  28.410  1.00  0.00     0.135 A 
ATOM     73  C   UNL A   1      43.964  25.207  26.974  1.00  0.00     0.135 A 
ATOM     74  F   UNL A   1      42.293  23.262  29.551  1.00  0.00    -0.206 F 
ATOM     75  C   UNL A   1      43.190  22.582  27.491  1.00  0.00     0.059 A 
ATOM     76  C   UNL A   1      44.222  24.222  26.026  1.00  0.00     0.059 A 
ATOM     77  F   UNL A   1      44.340  26.465  26.697  1.00  0.00    -0.206 F 
ATOM     78  C   UNL A   1      43.837  22.909  26.298  1.00  0.00     0.060 A 
BRANCH  78  79
ATOM     79  S   UNL A   1      44.131  21.600  25.089  1.00  0.00     0.124 S 
ATOM     80  O   UNL A   1      45.479  21.170  25.444  1.00  0.00    -0.237 OA
ATOM     81  O   UNL A   1      43.059  20.658  25.392  1.00  0.00    -0.237 OA
ATOM     82  O   UNL A   1      44.006  22.292  23.809  1.00  0.00    -0.744 OA
ENDBRANCH  78  79
ENDBRANCH  46  71
BRANCH  58  83
ATOM     83  C   UNL A   1      46.635  27.346  33.813  1.00  0.00     0.058 A 
ATOM     84  C   UNL A   1      46.707  26.377  34.825  1.00  0.00     0.135 A 
ATOM     85  C   UNL A   1      47.836  27.919  33.366  1.00  0.00     0.135 A 
ATOM     86  F   UNL A   1      45.586  25.805  35.295  1.00  0.00    -0.206 F 
ATOM     87  C   UNL A   1      47.924  25.996  35.380  1.00  0.00     0.059 A 
ATOM     88  C   UNL A   1      49.067  27.533  33.887  1.00  0.00     0.059 A 
ATOM     89  F   UNL A   1      47.824  28.847  32.396  1.00  0.00    -0.206 F 
ATOM     90  C   UNL A   1      49.100  26.574  34.898  1.00  0.00     0.060 A 
BRANCH  90  91
ATOM     91  S   UNL A   1      50.677  26.024  35.584  1.00  0.00     0.124 S 
ATOM     92  O   UNL A   1      51.412  27.281  35.679  1.00  0.00    -0.237 OA
ATOM     93  O   UNL A   1      50.272  25.431  36.854  1.00  0.00    -0.237 OA
ATOM     94  O   UNL A   1      51.172  25.080  34.588  1.00  0.00    -0.744 OA
ENDBRANCH  90  91
ENDBRANCH  58  83
ENDBRANCH  32  33
ENDBRANCH  24  27
ENDBRANCH  22  23
ENDBRANCH  21  22
ENDBRANCH  20  21
ENDBRANCH  19  20
ENDBRANCH   1  19
TORSDOF 22
ENDMDL
MODEL 2
REMARK VINA RESULT:      -9.4      5.105      6.874
REMARK SMILES C=C(C)C(=O)OCC[C@@H](C(C)=O)C(=O)NCCCCCCNC(=O)c1ccc(-c2c3nc(c(-c4c(F)cc(S(=O)(=O)[O-])cc4F)c4ccc([nH]4)c(-c4c(F)cc(S(=O)(=O)[O-])cc4F)c4nc(c(-c5c(F)cc(S(=O)(=O)[O-])cc5F)c5ccc2[nH]5)C=C4)C=C3)cc1
REMARK SMILES IDX 17 1 16 2 15 3 13 4 14 5 9 7 8 8 7 9 6 10 4 11 5 12 2 13
REMARK SMILES IDX 1 14 3 15 10 16 11 17 12 18 18 19 19 20 20 21 21 22 22 23
REMARK SMILES IDX 23 24 24 26 25 27 26 28 90 29 27 30 89 31 28 32 29 33 30 34
REMARK SMILES IDX 83 35 31 36 88 37 82 38 84 39 32 40 87 41 81 42 80 43 33 45
REMARK SMILES IDX 67 46 46 47 66 48 47 49 50 50 65 51 85 52 48 53 49 54 64 56
REMARK SMILES IDX 86 57 51 58 34 59 35 60 44 61 36 62 37 63 43 64 45 65 38 66
REMARK SMILES IDX 39 67 40 68 41 69 42 70 68 71 69 72 78 73 70 74 71 75 77 76
REMARK SMILES IDX 79 77 72 78 73 79 74 80 75 81 76 82 52 83 53 84 62 85 54 86
REMARK SMILES IDX 55 87 61 88 63 89 56 90 57 91 58 92 59 93 60 94
REMARK H PARENT 15 6 22 25 84 44 50 55
REMARK Flexibility Score: inf
ROOT
ATOM      1  C   UNL A   1      32.904  29.223  26.726  1.00  0.00     0.021 C 
ENDROOT
BRANCH   1   2
ATOM      2  C   UNL A   1      33.788  28.553  25.684  1.00  0.00     0.116 C 
BRANCH   2   3
ATOM      3  N   UNL A   1      33.451  29.009  24.347  1.00  0.00    -0.355 N 
ATOM      4  C   UNL A   1      32.871  28.335  23.319  1.00  0.00     0.230 C 
ATOM      5  O   UNL A   1      32.687  28.934  22.258  1.00  0.00    -0.274 OA
ATOM      6  H   UNL A   1      33.678  29.948  24.156  1.00  0.00     0.163 HD
BRANCH   4   7
ATOM      7  C   UNL A   1      32.473  26.880  23.473  1.00  0.00     0.148 C 
BRANCH   7   8
ATOM      8  C   UNL A   1      30.975  26.727  23.135  1.00  0.00     0.063 C 
BRANCH   8   9
ATOM      9  C   UNL A   1      30.073  26.365  24.314  1.00  0.00     0.234 C 
BRANCH   9  10
ATOM     10  O   UNL A   1      30.244  24.992  24.685  1.00  0.00    -0.462 OA
BRANCH  10  11
ATOM     11  C   UNL A   1      30.796  24.765  25.901  1.00  0.00     0.333 C 
ATOM     12  O   UNL A   1      31.213  25.605  26.682  1.00  0.00    -0.247 OA
BRANCH  11  13
ATOM     13  C   UNL A   1      30.735  23.311  26.191  1.00  0.00     0.027 C 
ATOM     14  C   UNL A   1      29.796  22.895  27.055  1.00  0.00     0.020 C 
ATOM     15  C   UNL A   1      31.728  22.414  25.530  1.00  0.00     0.051 C 
ENDBRANCH  11  13
ENDBRANCH  10  11
ENDBRANCH   9  10
ENDBRANCH   8   9
ENDBRANCH   7   8
BRANCH   7  16
ATOM     16  C   UNL A   1      33.394  25.951  22.691  1.00  0.00     0.142 C 
ATOM     17  C   UNL A   1      33.910  24.711  23.384  1.00  0.00     0.088 C 
ATOM     18  O   UNL A   1      33.711  26.179  21.521  1.00  0.00    -0.299 OA
ENDBRANCH   7  16
ENDBRANCH   4   7
ENDBRANCH   2   3
ENDBRANCH   1   2
BRANCH   1  19
ATOM     19  C   UNL A   1      33.327  30.658  27.053  1.00  0.00     0.002 C 
BRANCH  19  20
ATOM     20  C   UNL A   1      34.737  30.792  27.638  1.00  0.00     0.002 C 
BRANCH  20  21
ATOM     21  C   UNL A   1      35.132  32.215  28.042  1.00  0.00     0.021 C 
BRANCH  21  22
ATOM     22  C   UNL A   1      36.192  32.284  29.134  1.00  0.00     0.116 C 
BRANCH  22  23
ATOM     23  N   UNL A   1      35.864  31.426  30.261  1.00  0.00    -0.352 N 
ATOM     24  C   UNL A   1      36.583  30.377  30.778  1.00  0.00     0.251 C 
ATOM     25  H   UNL A   1      35.013  31.622  30.714  1.00  0.00     0.163 HD
ATOM     26  O   UNL A   1      36.075  29.619  31.597  1.00  0.00    -0.269 OA
BRANCH  24  27
ATOM     27  C   UNL A   1      37.969  30.162  30.316  1.00  0.00     0.039 A 
ATOM     28  C   UNL A   1      38.978  29.972  31.261  1.00  0.00     0.014 A 
ATOM     29  C   UNL A   1      38.255  30.113  28.949  1.00  0.00     0.014 A 
ATOM     30  C   UNL A   1      40.271  29.665  30.831  1.00  0.00     0.010 A 
ATOM     31  C   UNL A   1      39.525  29.736  28.525  1.00  0.00     0.010 A 
ATOM     32  C   UNL A   1      40.544  29.507  29.462  1.00  0.00    -0.014 A 
BRANCH  32  33
ATOM     33  C   UNL A   1      41.886  29.092  28.985  1.00  0.00     0.031 A 
ATOM     34  C   UNL A   1      42.995  30.102  28.889  1.00  0.00     0.074 A 
ATOM     35  C   UNL A   1      42.081  27.824  28.571  1.00  0.00     0.049 A 
ATOM     36  N   UNL A   1      44.206  29.955  28.417  1.00  0.00    -0.248 NA
ATOM     37  C   UNL A   1      42.694  31.463  29.362  1.00  0.00     0.031 C 
ATOM     38  C   UNL A   1      41.071  26.764  28.586  1.00  0.00     0.029 A 
ATOM     39  N   UNL A   1      43.194  27.214  28.049  1.00  0.00    -0.354 N 
ATOM     40  C   UNL A   1      44.808  31.202  28.531  1.00  0.00     0.074 A 
ATOM     41  C   UNL A   1      43.810  32.107  29.059  1.00  0.00     0.031 C 
ATOM     42  C   UNL A   1      41.617  25.629  28.121  1.00  0.00     0.029 A 
ATOM     43  C   UNL A   1      42.999  25.890  27.731  1.00  0.00     0.049 A 
ATOM     44  H   UNL A   1      44.051  27.680  27.914  1.00  0.00     0.167 HD
ATOM     45  C   UNL A   1      46.085  31.555  28.247  1.00  0.00     0.037 A 
ATOM     46  C   UNL A   1      43.838  24.992  27.177  1.00  0.00     0.037 A 
ATOM     47  C   UNL A   1      47.073  30.644  27.730  1.00  0.00     0.049 A 
ATOM     48  C   UNL A   1      45.235  25.419  26.822  1.00  0.00     0.074 A 
ATOM     49  C   UNL A   1      48.405  30.889  27.449  1.00  0.00     0.029 A 
ATOM     50  N   UNL A   1      46.834  29.315  27.408  1.00  0.00    -0.354 N 
ATOM     51  N   UNL A   1      45.808  26.587  26.990  1.00  0.00    -0.248 NA
ATOM     52  C   UNL A   1      46.100  24.410  26.195  1.00  0.00     0.031 C 
ATOM     53  C   UNL A   1      48.960  29.722  26.910  1.00  0.00     0.029 A 
ATOM     54  C   UNL A   1      47.987  28.734  26.903  1.00  0.00     0.049 A 
ATOM     55  H   UNL A   1      45.973  28.852  27.521  1.00  0.00     0.167 HD
ATOM     56  C   UNL A   1      47.107  26.446  26.515  1.00  0.00     0.074 A 
ATOM     57  C   UNL A   1      47.239  25.076  26.062  1.00  0.00     0.031 C 
ATOM     58  C   UNL A   1      48.101  27.366  26.459  1.00  0.00     0.037 A 
BRANCH  45  59
ATOM     59  C   UNL A   1      46.479  32.987  28.488  1.00  0.00     0.058 A 
ATOM     60  C   UNL A   1      46.967  33.416  29.734  1.00  0.00     0.135 A 
ATOM     61  C   UNL A   1      46.376  33.941  27.463  1.00  0.00     0.135 A 
ATOM     62  F   UNL A   1      47.074  32.550  30.754  1.00  0.00    -0.206 F 
ATOM     63  C   UNL A   1      47.297  34.747  29.967  1.00  0.00     0.059 A 
ATOM     64  C   UNL A   1      46.732  35.272  27.665  1.00  0.00     0.059 A 
ATOM     65  F   UNL A   1      45.917  33.588  26.253  1.00  0.00    -0.206 F 
ATOM     66  C   UNL A   1      47.171  35.669  28.927  1.00  0.00     0.060 A 
BRANCH  66  67
ATOM     67  S   UNL A   1      47.584  37.396  29.253  1.00  0.00     0.124 S 
ATOM     68  O   UNL A   1      48.902  37.267  29.867  1.00  0.00    -0.237 OA
ATOM     69  O   UNL A   1      47.563  37.979  27.915  1.00  0.00    -0.237 OA
ATOM     70  O   UNL A   1      46.518  37.839  30.145  1.00  0.00    -0.744 OA
ENDBRANCH  66  67
ENDBRANCH  45  59
BRANCH  46  71
ATOM     71  C   UNL A   1      43.383  23.594  26.948  1.00  0.00     0.058 A 
ATOM     72  C   UNL A   1      42.937  23.185  25.682  1.00  0.00     0.135 A 
ATOM     73  C   UNL A   1      43.400  22.637  27.974  1.00  0.00     0.135 A 
ATOM     74  F   UNL A   1      42.895  24.066  24.670  1.00  0.00    -0.206 F 
ATOM     75  C   UNL A   1      42.515  21.883  25.443  1.00  0.00     0.059 A 
ATOM     76  C   UNL A   1      43.008  21.321  27.754  1.00  0.00     0.059 A 
ATOM     77  F   UNL A   1      43.831  22.973  29.200  1.00  0.00    -0.206 F 
ATOM     78  C   UNL A   1      42.558  20.955  26.485  1.00  0.00     0.060 A 
BRANCH  78  79
ATOM     79  S   UNL A   1      42.058  19.253  26.147  1.00  0.00     0.124 S 
ATOM     80  O   UNL A   1      40.650  19.423  25.805  1.00  0.00    -0.237 OA
ATOM     81  O   UNL A   1      42.944  18.888  25.047  1.00  0.00    -0.237 OA
ATOM     82  O   UNL A   1      42.323  18.568  27.410  1.00  0.00    -0.744 OA
ENDBRANCH  78  79
ENDBRANCH  46  71
BRANCH  58  83
ATOM     83  C   UNL A   1      49.430  26.923  25.910  1.00  0.00     0.058 A 
ATOM     84  C   UNL A   1      49.785  27.152  24.572  1.00  0.00     0.135 A 
ATOM     85  C   UNL A   1      50.386  26.331  26.751  1.00  0.00     0.135 A 
ATOM     86  F   UNL A   1      48.904  27.707  23.724  1.00  0.00    -0.206 F 
ATOM     87  C   UNL A   1      51.038  26.798  24.083  1.00  0.00     0.059 A 
ATOM     88  C   UNL A   1      51.655  25.994  26.291  1.00  0.00     0.059 A 
ATOM     89  F   UNL A   1      50.099  26.096  28.041  1.00  0.00    -0.206 F 
ATOM     90  C   UNL A   1      51.970  26.228  24.953  1.00  0.00     0.060 A 
BRANCH  90  91
ATOM     91  S   UNL A   1      53.614  25.831  24.319  1.00  0.00     0.124 S 
ATOM     92  O   UNL A   1      53.837  24.506  24.888  1.00  0.00    -0.237 OA
ATOM     93  O   UNL A   1      53.407  25.874  22.875  1.00  0.00    -0.237 OA
ATOM     94  O   UNL A   1      54.453  26.896  24.858  1.00  0.00    -0.744 OA
ENDBRANCH  90  91
ENDBRANCH  58  83
ENDBRANCH  32  33
ENDBRANCH  24  27
ENDBRANCH  22  23
ENDBRANCH  21  22
ENDBRANCH  20  21
ENDBRANCH  19  20
ENDBRANCH   1  19
TORSDOF 22
ENDMDL
MODEL 3
REMARK VINA RESULT:      -9.2      2.465      3.479
REMARK SMILES C=C(C)C(=O)OCC[C@@H](C(C)=O)C(=O)NCCCCCCNC(=O)c1ccc(-c2c3nc(c(-c4c(F)cc(S(=O)(=O)[O-])cc4F)c4ccc([nH]4)c(-c4c(F)cc(S(=O)(=O)[O-])cc4F)c4nc(c(-c5c(F)cc(S(=O)(=O)[O-])cc5F)c5ccc2[nH]5)C=C4)C=C3)cc1
REMARK SMILES IDX 17 1 16 2 15 3 13 4 14 5 9 7 8 8 7 9 6 10 4 11 5 12 2 13
REMARK SMILES IDX 1 14 3 15 10 16 11 17 12 18 18 19 19 20 20 21 21 22 22 23
REMARK SMILES IDX 23 24 24 26 25 27 26 28 90 29 27 30 89 31 28 32 29 33 30 34
REMARK SMILES IDX 83 35 31 36 88 37 82 38 84 39 32 40 87 41 81 42 80 43 33 45
REMARK SMILES IDX 67 46 46 47 66 48 47 49 50 50 65 51 85 52 48 53 49 54 64 56
REMARK SMILES IDX 86 57 51 58 34 59 35 60 44 61 36 62 37 63 43 64 45 65 38 66
REMARK SMILES IDX 39 67 40 68 41 69 42 70 68 71 69 72 78 73 70 74 71 75 77 76
REMARK SMILES IDX 79 77 72 78 73 79 74 80 75 81 76 82 52 83 53 84 62 85 54 86
REMARK SMILES IDX 55 87 61 88 63 89 56 90 57 91 58 92 59 93 60 94
REMARK H PARENT 15 6 22 25 84 44 50 55
REMARK Flexibility Score: inf
ROOT
ATOM      1  C   UNL A   1      31.266  24.753  26.131  1.00  0.00     0.021 C 
ENDROOT
BRANCH   1   2
ATOM      2  C   UNL A   1      31.491  23.252  26.018  1.00  0.00     0.116 C 
BRANCH   2   3
ATOM      3  N   UNL A   1      31.625  22.850  24.629  1.00  0.00    -0.355 N 
ATOM      4  C   UNL A   1      32.609  22.134  24.023  1.00  0.00     0.230 C 
ATOM      5  O   UNL A   1      32.512  21.918  22.813  1.00  0.00    -0.274 OA
ATOM      6  H   UNL A   1      30.894  23.140  24.037  1.00  0.00     0.163 HD
BRANCH   4   7
ATOM      7  C   UNL A   1      33.798  21.626  24.815  1.00  0.00     0.148 C 
BRANCH   7   8
ATOM      8  C   UNL A   1      33.940  20.106  24.595  1.00  0.00     0.063 C 
BRANCH   8   9
ATOM      9  C   UNL A   1      32.987  19.235  25.413  1.00  0.00     0.234 C 
BRANCH   9  10
ATOM     10  O   UNL A   1      32.144  18.456  24.555  1.00  0.00    -0.462 OA
BRANCH  10  11
ATOM     11  C   UNL A   1      32.757  17.497  23.822  1.00  0.00     0.333 C 
ATOM     12  O   UNL A   1      32.855  17.458  22.606  1.00  0.00    -0.247 OA
BRANCH  11  13
ATOM     13  C   UNL A   1      33.390  16.520  24.743  1.00  0.00     0.027 C 
ATOM     14  C   UNL A   1      34.729  16.433  24.724  1.00  0.00     0.020 C 
ATOM     15  C   UNL A   1      32.504  15.685  25.607  1.00  0.00     0.051 C 
ENDBRANCH  11  13
ENDBRANCH  10  11
ENDBRANCH   9  10
ENDBRANCH   8   9
ENDBRANCH   7   8
BRANCH   7  16
ATOM     16  C   UNL A   1      35.062  22.426  24.521  1.00  0.00     0.142 C 
ATOM     17  C   UNL A   1      35.092  23.883  24.922  1.00  0.00     0.088 C 
ATOM     18  O   UNL A   1      36.048  21.916  23.984  1.00  0.00    -0.299 OA
ENDBRANCH   7  16
ENDBRANCH   4   7
ENDBRANCH   2   3
ENDBRANCH   1   2
BRANCH   1  19
ATOM     19  C   UNL A   1      32.556  25.572  26.036  1.00  0.00     0.002 C 
BRANCH  19  20
ATOM     20  C   UNL A   1      32.363  27.086  26.173  1.00  0.00     0.002 C 
BRANCH  20  21
ATOM     21  C   UNL A   1      33.459  27.804  26.965  1.00  0.00     0.021 C 
BRANCH  21  22
ATOM     22  C   UNL A   1      34.110  28.965  26.222  1.00  0.00     0.116 C 
BRANCH  22  23
ATOM     23  N   UNL A   1      33.907  30.229  26.911  1.00  0.00    -0.352 N 
ATOM     24  C   UNL A   1      34.668  30.798  27.901  1.00  0.00     0.251 C 
ATOM     25  H   UNL A   1      33.118  30.746  26.630  1.00  0.00     0.163 HD
ATOM     26  O   UNL A   1      34.250  31.768  28.526  1.00  0.00    -0.269 OA
BRANCH  24  27
ATOM     27  C   UNL A   1      35.986  30.213  28.216  1.00  0.00     0.039 A 
ATOM     28  C   UNL A   1      37.007  30.290  27.268  1.00  0.00     0.014 A 
ATOM     29  C   UNL A   1      36.215  29.625  29.463  1.00  0.00     0.014 A 
ATOM     30  C   UNL A   1      38.285  29.832  27.598  1.00  0.00     0.010 A 
ATOM     31  C   UNL A   1      37.503  29.237  29.815  1.00  0.00     0.010 A 
ATOM     32  C   UNL A   1      38.550  29.339  28.887  1.00  0.00    -0.014 A 
BRANCH  32  33
ATOM     33  C   UNL A   1      39.918  28.933  29.292  1.00  0.00     0.031 A 
ATOM     34  C   UNL A   1      40.796  29.894  30.044  1.00  0.00     0.074 A 
ATOM     35  C   UNL A   1      40.391  27.727  28.920  1.00  0.00     0.049 A 
ATOM     36  N   UNL A   1      42.045  29.759  30.409  1.00  0.00    -0.248 NA
ATOM     37  C   UNL A   1      40.198  31.188  30.410  1.00  0.00     0.031 C 
ATOM     38  C   UNL A   1      39.644  26.723  28.159  1.00  0.00     0.029 A 
ATOM     39  N   UNL A   1      41.617  27.145  29.121  1.00  0.00    -0.354 N 
ATOM     40  C   UNL A   1      42.383  30.949  31.042  1.00  0.00     0.074 A 
ATOM     41  C   UNL A   1      41.228  31.817  30.956  1.00  0.00     0.031 C 
ATOM     42  C   UNL A   1      40.417  25.640  27.982  1.00  0.00     0.029 A 
ATOM     43  C   UNL A   1      41.729  25.888  28.572  1.00  0.00     0.049 A 
ATOM     44  H   UNL A   1      42.349  27.585  29.611  1.00  0.00     0.167 HD
ATOM     45  C   UNL A   1      43.543  31.279  31.661  1.00  0.00     0.037 A 
ATOM     46  C   UNL A   1      42.774  25.038  28.541  1.00  0.00     0.037 A 
ATOM     47  C   UNL A   1      44.682  30.404  31.748  1.00  0.00     0.049 A 
ATOM     48  C   UNL A   1      44.068  25.446  29.190  1.00  0.00     0.074 A 
ATOM     49  C   UNL A   1      45.889  30.624  32.389  1.00  0.00     0.029 A 
ATOM     50  N   UNL A   1      44.762  29.145  31.168  1.00  0.00    -0.354 N 
ATOM     51  N   UNL A   1      44.354  26.552  29.835  1.00  0.00    -0.248 NA
ATOM     52  C   UNL A   1      45.185  24.495  29.102  1.00  0.00     0.031 C 
ATOM     53  C   UNL A   1      46.715  29.520  32.155  1.00  0.00     0.029 A 
ATOM     54  C   UNL A   1      46.007  28.588  31.412  1.00  0.00     0.049 A 
ATOM     55  H   UNL A   1      44.040  28.711  30.659  1.00  0.00     0.167 HD
ATOM     56  C   UNL A   1      45.674  26.419  30.253  1.00  0.00     0.074 A 
ATOM     57  C   UNL A   1      46.126  25.120  29.796  1.00  0.00     0.031 C 
ATOM     58  C   UNL A   1      46.441  27.291  30.952  1.00  0.00     0.037 A 
BRANCH  45  59
ATOM     59  C   UNL A   1      43.629  32.644  32.288  1.00  0.00     0.058 A 
ATOM     60  C   UNL A   1      43.237  32.869  33.618  1.00  0.00     0.135 A 
ATOM     61  C   UNL A   1      44.117  33.739  31.557  1.00  0.00     0.135 A 
ATOM     62  F   UNL A   1      42.750  31.862  34.359  1.00  0.00    -0.206 F 
ATOM     63  C   UNL A   1      43.284  34.138  34.186  1.00  0.00     0.059 A 
ATOM     64  C   UNL A   1      44.204  35.011  32.116  1.00  0.00     0.059 A 
ATOM     65  F   UNL A   1      44.508  33.582  30.282  1.00  0.00    -0.206 F 
ATOM     66  C   UNL A   1      43.764  35.204  33.425  1.00  0.00     0.060 A 
BRANCH  66  67
ATOM     67  S   UNL A   1      43.799  36.847  34.171  1.00  0.00     0.124 S 
ATOM     68  O   UNL A   1      43.869  36.519  35.591  1.00  0.00    -0.237 OA
ATOM     69  O   UNL A   1      45.008  37.426  33.594  1.00  0.00    -0.237 OA
ATOM     70  O   UNL A   1      42.546  37.449  33.728  1.00  0.00    -0.744 OA
ENDBRANCH  66  67
ENDBRANCH  45  59
BRANCH  46  71
ATOM     71  C   UNL A   1      42.630  23.709  27.889  1.00  0.00     0.058 A 
ATOM     72  C   UNL A   1      42.741  23.578  26.497  1.00  0.00     0.135 A 
ATOM     73  C   UNL A   1      42.400  22.544  28.638  1.00  0.00     0.135 A 
ATOM     74  F   UNL A   1      42.953  24.663  25.737  1.00  0.00    -0.206 F 
ATOM     75  C   UNL A   1      42.617  22.344  25.868  1.00  0.00     0.059 A 
ATOM     76  C   UNL A   1      42.299  21.294  28.035  1.00  0.00     0.059 A 
ATOM     77  F   UNL A   1      42.301  22.612  29.975  1.00  0.00    -0.206 F 
ATOM     78  C   UNL A   1      42.401  21.206  26.647  1.00  0.00     0.060 A 
BRANCH  78  79
ATOM     79  S   UNL A   1      42.297  19.602  25.822  1.00  0.00     0.124 S 
ATOM     80  O   UNL A   1      42.725  18.698  26.883  1.00  0.00    -0.237 OA
ATOM     81  O   UNL A   1      40.886  19.539  25.457  1.00  0.00    -0.237 OA
ATOM     82  O   UNL A   1      43.221  19.742  24.700  1.00  0.00    -0.744 OA
ENDBRANCH  78  79
ENDBRANCH  46  71
BRANCH  58  83
ATOM     83  C   UNL A   1      47.844  26.868  31.289  1.00  0.00     0.058 A 
ATOM     84  C   UNL A   1      48.117  26.028  32.379  1.00  0.00     0.135 A 
ATOM     85  C   UNL A   1      48.918  27.248  30.467  1.00  0.00     0.135 A 
ATOM     86  F   UNL A   1      47.128  25.644  33.201  1.00  0.00    -0.206 F 
ATOM     87  C   UNL A   1      49.408  25.588  32.650  1.00  0.00     0.059 A 
ATOM     88  C   UNL A   1      50.213  26.797  30.703  1.00  0.00     0.059 A 
ATOM     89  F   UNL A   1      48.710  28.046  29.407  1.00  0.00    -0.206 F 
ATOM     90  C   UNL A   1      50.449  25.971  31.801  1.00  0.00     0.060 A 
BRANCH  90  91
ATOM     91  S   UNL A   1      52.109  25.341  32.130  1.00  0.00     0.124 S 
ATOM     92  O   UNL A   1      51.849  23.920  32.339  1.00  0.00    -0.237 OA
ATOM     93  O   UNL A   1      52.818  25.681  30.900  1.00  0.00    -0.237 OA
ATOM     94  O   UNL A   1      52.527  26.084  33.314  1.00  0.00    -0.744 OA
ENDBRANCH  90  91
ENDBRANCH  58  83
ENDBRANCH  32  33
ENDBRANCH  24  27
ENDBRANCH  22  23
ENDBRANCH  21  22
ENDBRANCH  20  21
ENDBRANCH  19  20
ENDBRANCH   1  19
TORSDOF 22
ENDMDL
