MODEL 1
REMARK VINA RESULT:     -11.5      0.000      0.000
REMARK SMILES CCOC(=O)c1cc(CC)sc1NC(=O)[C@H]1[C@@H]2CC[C@@H](C2)[C@@H]1C(=O)NCCCCCCNC(=O)c1ccc(-c2c3nc(c(-c4c(F)cc(S(=O)(=O)[O-])cc4F)c4ccc([nH]4)c(-c4c(F)cc(S(=O)(=O)[O-])cc4F)c4nc(c(-c5c(F)cc(S(=O)(=O)[O-])cc5F)c5ccc2[nH]5)C=C4)C=C3)cc1
REMARK SMILES IDX 27 1 26 2 25 3 23 4 24 5 22 7 16 8 17 9 18 10 21 11 20 12
REMARK SMILES IDX 19 13 14 14 13 15 15 17 12 18 6 19 7 20 8 21 11 22 4 23 5 24
REMARK SMILES IDX 3 25 2 26 1 27 9 28 10 29 28 30 29 31 30 32 31 33 32 34
REMARK SMILES IDX 33 35 34 37 35 38 36 39 100 40 37 41 99 42 38 43 39 44 40 45
REMARK SMILES IDX 93 46 41 47 98 48 92 49 94 50 42 51 97 52 91 53 90 54 43 56
REMARK SMILES IDX 77 57 56 58 76 59 57 60 60 61 75 62 95 63 58 64 59 65 74 67
REMARK SMILES IDX 96 68 61 69 44 70 45 71 54 72 46 73 47 74 53 75 55 76 48 77
REMARK SMILES IDX 49 78 50 79 51 80 52 81 78 82 79 83 88 84 80 85 81 86 87 87
REMARK SMILES IDX 89 88 82 89 83 90 84 91 85 92 86 93 62 94 63 95 72 96 64 97
REMARK SMILES IDX 65 98 71 99 73 100 66 101 67 102 68 103 69 104 70 105
REMARK H PARENT 25 6 13 16 32 36 94 55 60 66
REMARK Flexibility Score: inf
ROOT
ATOM      1  C   UNL A   1      32.356  29.700  27.064  1.00  0.00     0.021 C 
ENDROOT
BRANCH   1   2
ATOM      2  C   UNL A   1      33.023  28.395  27.510  1.00  0.00     0.116 C 
BRANCH   2   3
ATOM      3  N   UNL A   1      33.721  27.735  26.418  1.00  0.00    -0.356 N 
ATOM      4  C   UNL A   1      33.417  26.605  25.719  1.00  0.00     0.224 C 
ATOM      5  O   UNL A   1      34.238  26.209  24.891  1.00  0.00    -0.275 OA
ATOM      6  H   UNL A   1      34.554  28.179  26.137  1.00  0.00     0.163 HD
BRANCH   4   7
ATOM      7  C   UNL A   1      32.077  25.915  25.934  1.00  0.00     0.094 C 
ATOM      8  C   UNL A   1      31.970  24.468  25.378  1.00  0.00     0.094 C 
ATOM      9  C   UNL A   1      30.666  24.543  24.524  1.00  0.00     0.002 C 
ATOM     10  C   UNL A   1      31.002  25.254  23.205  1.00  0.00     0.005 C 
ATOM     11  C   UNL A   1      29.829  25.608  25.240  1.00  0.00     0.009 C 
ATOM     12  C   UNL A   1      30.938  26.655  25.175  1.00  0.00     0.002 C 
ATOM     13  C   UNL A   1      31.175  26.712  23.647  1.00  0.00     0.005 C 
BRANCH   8  14
ATOM     14  C   UNL A   1      31.822  23.433  26.497  1.00  0.00     0.229 C 
ATOM     15  N   UNL A   1      32.757  22.485  26.787  1.00  0.00    -0.317 N 
ATOM     16  H   UNL A   1      32.564  21.994  27.618  1.00  0.00     0.170 HD
ATOM     17  O   UNL A   1      30.847  23.479  27.260  1.00  0.00    -0.274 OA
BRANCH  15  18
ATOM     18  C   UNL A   1      33.917  22.066  26.167  1.00  0.00     0.110 A 
ATOM     19  C   UNL A   1      34.072  20.907  25.420  1.00  0.00     0.095 A 
ATOM     20  C   UNL A   1      35.451  20.725  25.045  1.00  0.00     0.033 A 
ATOM     21  C   UNL A   1      36.266  21.745  25.494  1.00  0.00     0.007 A 
ATOM     22  S   UNL A   1      35.327  22.990  26.175  1.00  0.00    -0.122 S 
BRANCH  19  23
ATOM     23  C   UNL A   1      32.973  19.975  25.180  1.00  0.00     0.341 C 
ATOM     24  O   UNL A   1      31.802  20.312  25.227  1.00  0.00    -0.246 OA
BRANCH  23  25
ATOM     25  O   UNL A   1      33.414  18.698  24.979  1.00  0.00    -0.462 OA
BRANCH  25  26
ATOM     26  C   UNL A   1      33.013  18.087  23.742  1.00  0.00     0.230 C 
ATOM     27  C   UNL A   1      33.980  16.992  23.316  1.00  0.00     0.049 C 
ENDBRANCH  25  26
ENDBRANCH  23  25
ENDBRANCH  19  23
BRANCH  21  28
ATOM     28  C   UNL A   1      37.768  21.805  25.487  1.00  0.00     0.043 C 
ATOM     29  C   UNL A   1      38.367  23.101  26.011  1.00  0.00     0.010 C 
ENDBRANCH  21  28
ENDBRANCH  15  18
ENDBRANCH   8  14
ENDBRANCH   4   7
ENDBRANCH   2   3
ENDBRANCH   1   2
BRANCH   1  30
ATOM     30  C   UNL A   1      33.329  30.857  26.794  1.00  0.00     0.002 C 
BRANCH  30  31
ATOM     31  C   UNL A   1      33.877  31.572  28.032  1.00  0.00     0.002 C 
BRANCH  31  32
ATOM     32  C   UNL A   1      35.300  32.124  27.903  1.00  0.00     0.021 C 
BRANCH  32  33
ATOM     33  C   UNL A   1      35.981  32.516  29.214  1.00  0.00     0.116 C 
BRANCH  33  34
ATOM     34  N   UNL A   1      35.645  31.628  30.317  1.00  0.00    -0.352 N 
ATOM     35  C   UNL A   1      36.389  30.600  30.852  1.00  0.00     0.251 C 
ATOM     36  H   UNL A   1      34.769  31.782  30.736  1.00  0.00     0.163 HD
ATOM     37  O   UNL A   1      35.902  29.866  31.705  1.00  0.00    -0.269 OA
BRANCH  35  38
ATOM     38  C   UNL A   1      37.770  30.369  30.372  1.00  0.00     0.039 A 
ATOM     39  C   UNL A   1      38.828  30.487  31.278  1.00  0.00     0.014 A 
ATOM     40  C   UNL A   1      38.015  30.022  29.041  1.00  0.00     0.014 A 
ATOM     41  C   UNL A   1      40.128  30.183  30.865  1.00  0.00     0.010 A 
ATOM     42  C   UNL A   1      39.307  29.685  28.640  1.00  0.00     0.010 A 
ATOM     43  C   UNL A   1      40.372  29.748  29.552  1.00  0.00    -0.014 A 
BRANCH  43  44
ATOM     44  C   UNL A   1      41.727  29.320  29.125  1.00  0.00     0.031 A 
ATOM     45  C   UNL A   1      42.853  30.312  29.060  1.00  0.00     0.074 A 
ATOM     46  C   UNL A   1      41.924  28.049  28.722  1.00  0.00     0.049 A 
ATOM     47  N   UNL A   1      44.074  30.143  28.622  1.00  0.00    -0.248 NA
ATOM     48  C   UNL A   1      42.560  31.675  29.525  1.00  0.00     0.031 C 
ATOM     49  C   UNL A   1      40.901  27.002  28.693  1.00  0.00     0.029 A 
ATOM     50  N   UNL A   1      43.050  27.429  28.243  1.00  0.00    -0.354 N 
ATOM     51  C   UNL A   1      44.690  31.383  28.735  1.00  0.00     0.074 A 
ATOM     52  C   UNL A   1      43.702  32.299  29.266  1.00  0.00     0.031 C 
ATOM     53  C   UNL A   1      41.449  25.866  28.229  1.00  0.00     0.029 A 
ATOM     54  C   UNL A   1      42.852  26.110  27.908  1.00  0.00     0.049 A 
ATOM     55  H   UNL A   1      43.917  27.884  28.147  1.00  0.00     0.167 HD
ATOM     56  C   UNL A   1      45.966  31.725  28.432  1.00  0.00     0.037 A 
ATOM     57  C   UNL A   1      43.704  25.201  27.397  1.00  0.00     0.037 A 
ATOM     58  C   UNL A   1      46.961  30.811  27.939  1.00  0.00     0.049 A 
ATOM     59  C   UNL A   1      45.127  25.590  27.121  1.00  0.00     0.074 A 
ATOM     60  C   UNL A   1      48.293  31.057  27.650  1.00  0.00     0.029 A 
ATOM     61  N   UNL A   1      46.736  29.470  27.668  1.00  0.00    -0.354 N 
ATOM     62  N   UNL A   1      45.701  26.759  27.267  1.00  0.00    -0.248 NA
ATOM     63  C   UNL A   1      46.019  24.537  26.614  1.00  0.00     0.031 C 
ATOM     64  C   UNL A   1      48.871  29.867  27.194  1.00  0.00     0.029 A 
ATOM     65  C   UNL A   1      47.903  28.876  27.215  1.00  0.00     0.049 A 
ATOM     66  H   UNL A   1      45.875  29.008  27.781  1.00  0.00     0.167 HD
ATOM     67  C   UNL A   1      47.026  26.580  26.887  1.00  0.00     0.074 A 
ATOM     68  C   UNL A   1      47.169  25.188  26.508  1.00  0.00     0.031 C 
ATOM     69  C   UNL A   1      48.031  27.488  26.852  1.00  0.00     0.037 A 
BRANCH  56  70
ATOM     70  C   UNL A   1      46.351  33.161  28.630  1.00  0.00     0.058 A 
ATOM     71  C   UNL A   1      46.791  33.634  29.876  1.00  0.00     0.135 A 
ATOM     72  C   UNL A   1      46.283  34.072  27.564  1.00  0.00     0.135 A 
ATOM     73  F   UNL A   1      46.856  32.804  30.928  1.00  0.00    -0.206 F 
ATOM     74  C   UNL A   1      47.122  34.971  30.067  1.00  0.00     0.059 A 
ATOM     75  C   UNL A   1      46.625  35.411  27.729  1.00  0.00     0.059 A 
ATOM     76  F   UNL A   1      45.865  33.667  26.354  1.00  0.00    -0.206 F 
ATOM     77  C   UNL A   1      47.025  35.854  28.990  1.00  0.00     0.060 A 
BRANCH  77  78
ATOM     78  S   UNL A   1      47.431  37.594  29.246  1.00  0.00     0.124 S 
ATOM     79  O   UNL A   1      46.123  38.148  29.582  1.00  0.00    -0.237 OA
ATOM     80  O   UNL A   1      48.396  37.541  30.340  1.00  0.00    -0.237 OA
ATOM     81  O   UNL A   1      47.977  38.005  27.956  1.00  0.00    -0.744 OA
ENDBRANCH  77  78
ENDBRANCH  56  70
BRANCH  57  82
ATOM     82  C   UNL A   1      43.232  23.819  27.139  1.00  0.00     0.058 A 
ATOM     83  C   UNL A   1      42.935  23.397  25.836  1.00  0.00     0.135 A 
ATOM     84  C   UNL A   1      43.098  22.890  28.181  1.00  0.00     0.135 A 
ATOM     85  F   UNL A   1      43.047  24.256  24.812  1.00  0.00    -0.206 F 
ATOM     86  C   UNL A   1      42.518  22.097  25.571  1.00  0.00     0.059 A 
ATOM     87  C   UNL A   1      42.695  21.581  27.939  1.00  0.00     0.059 A 
ATOM     88  F   UNL A   1      43.386  23.247  29.442  1.00  0.00    -0.206 F 
ATOM     89  C   UNL A   1      42.401  21.196  26.631  1.00  0.00     0.060 A 
BRANCH  89  90
ATOM     90  S   UNL A   1      41.930  19.488  26.279  1.00  0.00     0.124 S 
ATOM     91  O   UNL A   1      42.714  19.209  25.082  1.00  0.00    -0.237 OA
ATOM     92  O   UNL A   1      42.347  18.791  27.493  1.00  0.00    -0.237 OA
ATOM     93  O   UNL A   1      40.486  19.579  26.087  1.00  0.00    -0.744 OA
ENDBRANCH  89  90
ENDBRANCH  57  82
BRANCH  69  94
ATOM     94  C   UNL A   1      49.378  27.001  26.411  1.00  0.00     0.058 A 
ATOM     95  C   UNL A   1      49.798  27.127  25.078  1.00  0.00     0.135 A 
ATOM     96  C   UNL A   1      50.272  26.441  27.336  1.00  0.00     0.135 A 
ATOM     97  F   UNL A   1      48.974  27.649  24.157  1.00  0.00    -0.206 F 
ATOM     98  C   UNL A   1      51.060  26.702  24.674  1.00  0.00     0.059 A 
ATOM     99  C   UNL A   1      51.542  26.022  26.956  1.00  0.00     0.059 A 
ATOM    100  F   UNL A   1      49.914  26.304  28.623  1.00  0.00    -0.206 F 
ATOM    101  C   UNL A   1      51.924  26.148  25.620  1.00  0.00     0.060 A 
BRANCH 101 102
ATOM    102  S   UNL A   1      53.575  25.630  25.102  1.00  0.00     0.124 S 
ATOM    103  O   UNL A   1      54.257  26.914  24.974  1.00  0.00    -0.237 OA
ATOM    104  O   UNL A   1      54.010  24.791  26.215  1.00  0.00    -0.237 OA
ATOM    105  O   UNL A   1      53.325  24.920  23.852  1.00  0.00    -0.744 OA
ENDBRANCH 101 102
ENDBRANCH  69  94
ENDBRANCH  43  44
ENDBRANCH  35  38
ENDBRANCH  33  34
ENDBRANCH  32  33
ENDBRANCH  31  32
ENDBRANCH  30  31
ENDBRANCH   1  30
TORSDOF 22
ENDMDL
MODEL 2
REMARK VINA RESULT:     -10.5      5.774     10.071
REMARK SMILES CCOC(=O)c1cc(CC)sc1NC(=O)[C@H]1[C@@H]2CC[C@@H](C2)[C@@H]1C(=O)NCCCCCCNC(=O)c1ccc(-c2c3nc(c(-c4c(F)cc(S(=O)(=O)[O-])cc4F)c4ccc([nH]4)c(-c4c(F)cc(S(=O)(=O)[O-])cc4F)c4nc(c(-c5c(F)cc(S(=O)(=O)[O-])cc5F)c5ccc2[nH]5)C=C4)C=C3)cc1
REMARK SMILES IDX 27 1 26 2 25 3 23 4 24 5 22 7 16 8 17 9 18 10 21 11 20 12
REMARK SMILES IDX 19 13 14 14 13 15 15 17 12 18 6 19 7 20 8 21 11 22 4 23 5 24
REMARK SMILES IDX 3 25 2 26 1 27 9 28 10 29 28 30 29 31 30 32 31 33 32 34
REMARK SMILES IDX 33 35 34 37 35 38 36 39 100 40 37 41 99 42 38 43 39 44 40 45
REMARK SMILES IDX 93 46 41 47 98 48 92 49 94 50 42 51 97 52 91 53 90 54 43 56
REMARK SMILES IDX 77 57 56 58 76 59 57 60 60 61 75 62 95 63 58 64 59 65 74 67
REMARK SMILES IDX 96 68 61 69 44 70 45 71 54 72 46 73 47 74 53 75 55 76 48 77
REMARK SMILES IDX 49 78 50 79 51 80 52 81 78 82 79 83 88 84 80 85 81 86 87 87
REMARK SMILES IDX 89 88 82 89 83 90 84 91 85 92 86 93 62 94 63 95 72 96 64 97
REMARK SMILES IDX 65 98 71 99 73 100 66 101 67 102 68 103 69 104 70 105
REMARK H PARENT 25 6 13 16 32 36 94 55 60 66
REMARK Flexibility Score: inf
ROOT
ATOM      1  C   UNL A   1      32.245  28.420  27.269  1.00  0.00     0.021 C 
ENDROOT
BRANCH   1   2
ATOM      2  C   UNL A   1      33.415  27.633  26.670  1.00  0.00     0.116 C 
BRANCH   2   3
ATOM      3  N   UNL A   1      33.629  27.950  25.267  1.00  0.00    -0.356 N 
ATOM      4  C   UNL A   1      33.216  27.312  24.135  1.00  0.00     0.224 C 
ATOM      5  O   UNL A   1      33.617  27.749  23.056  1.00  0.00    -0.275 OA
ATOM      6  H   UNL A   1      34.162  28.763  25.107  1.00  0.00     0.163 HD
BRANCH   4   7
ATOM      7  C   UNL A   1      32.246  26.143  24.233  1.00  0.00     0.094 C 
ATOM      8  C   UNL A   1      32.898  24.739  24.371  1.00  0.00     0.094 C 
ATOM      9  C   UNL A   1      32.191  23.938  23.234  1.00  0.00     0.002 C 
ATOM     10  C   UNL A   1      32.832  24.341  21.898  1.00  0.00     0.005 C 
ATOM     11  C   UNL A   1      30.816  24.606  23.126  1.00  0.00     0.009 C 
ATOM     12  C   UNL A   1      31.407  26.000  22.930  1.00  0.00     0.002 C 
ATOM     13  C   UNL A   1      32.282  25.756  21.678  1.00  0.00     0.005 C 
BRANCH   8  14
ATOM     14  C   UNL A   1      32.612  24.105  25.735  1.00  0.00     0.229 C 
ATOM     15  N   UNL A   1      33.337  23.080  26.266  1.00  0.00    -0.317 N 
ATOM     16  H   UNL A   1      33.103  22.887  27.203  1.00  0.00     0.170 HD
ATOM     17  O   UNL A   1      31.730  24.577  26.466  1.00  0.00    -0.274 OA
BRANCH  15  18
ATOM     18  C   UNL A   1      34.327  22.254  25.773  1.00  0.00     0.110 A 
ATOM     19  C   UNL A   1      34.155  20.959  25.306  1.00  0.00     0.095 A 
ATOM     20  C   UNL A   1      35.428  20.355  25.002  1.00  0.00     0.033 A 
ATOM     21  C   UNL A   1      36.490  21.208  25.226  1.00  0.00     0.007 A 
ATOM     22  S   UNL A   1      35.924  22.769  25.598  1.00  0.00    -0.122 S 
BRANCH  19  23
ATOM     23  C   UNL A   1      32.849  20.309  25.261  1.00  0.00     0.341 C 
ATOM     24  O   UNL A   1      31.802  20.924  25.376  1.00  0.00    -0.246 OA
BRANCH  23  25
ATOM     25  O   UNL A   1      32.952  18.951  25.155  1.00  0.00    -0.462 OA
BRANCH  25  26
ATOM     26  C   UNL A   1      32.727  18.408  23.844  1.00  0.00     0.230 C 
ATOM     27  C   UNL A   1      33.448  17.082  23.653  1.00  0.00     0.049 C 
ENDBRANCH  25  26
ENDBRANCH  23  25
ENDBRANCH  19  23
BRANCH  21  28
ATOM     28  C   UNL A   1      37.957  20.881  25.231  1.00  0.00     0.043 C 
ATOM     29  C   UNL A   1      38.823  21.797  26.083  1.00  0.00     0.010 C 
ENDBRANCH  21  28
ENDBRANCH  15  18
ENDBRANCH   8  14
ENDBRANCH   4   7
ENDBRANCH   2   3
ENDBRANCH   1   2
BRANCH   1  30
ATOM     30  C   UNL A   1      31.537  29.362  26.283  1.00  0.00     0.002 C 
BRANCH  30  31
ATOM     31  C   UNL A   1      31.821  30.855  26.466  1.00  0.00     0.002 C 
BRANCH  31  32
ATOM     32  C   UNL A   1      32.840  31.207  27.554  1.00  0.00     0.021 C 
BRANCH  32  33
ATOM     33  C   UNL A   1      33.672  32.465  27.304  1.00  0.00     0.116 C 
BRANCH  33  34
ATOM     34  N   UNL A   1      33.055  33.669  27.841  1.00  0.00    -0.352 N 
ATOM     35  C   UNL A   1      33.357  34.348  29.000  1.00  0.00     0.251 C 
ATOM     36  H   UNL A   1      32.324  34.049  27.304  1.00  0.00     0.163 HD
ATOM     37  O   UNL A   1      32.652  35.282  29.369  1.00  0.00    -0.269 OA
BRANCH  35  38
ATOM     38  C   UNL A   1      34.520  33.927  29.813  1.00  0.00     0.039 A 
ATOM     39  C   UNL A   1      34.312  33.068  30.896  1.00  0.00     0.014 A 
ATOM     40  C   UNL A   1      35.808  34.368  29.499  1.00  0.00     0.014 A 
ATOM     41  C   UNL A   1      35.408  32.589  31.619  1.00  0.00     0.010 A 
ATOM     42  C   UNL A   1      36.903  33.861  30.198  1.00  0.00     0.010 A 
ATOM     43  C   UNL A   1      36.713  32.957  31.254  1.00  0.00    -0.014 A 
BRANCH  43  44
ATOM     44  C   UNL A   1      37.894  32.376  31.941  1.00  0.00     0.031 A 
ATOM     45  C   UNL A   1      38.695  31.287  31.289  1.00  0.00     0.074 A 
ATOM     46  C   UNL A   1      38.198  32.781  33.190  1.00  0.00     0.049 A 
ATOM     47  N   UNL A   1      39.695  30.597  31.774  1.00  0.00    -0.248 NA
ATOM     48  C   UNL A   1      38.305  30.908  29.923  1.00  0.00     0.031 C 
ATOM     49  C   UNL A   1      37.469  33.797  33.952  1.00  0.00     0.029 A 
ATOM     50  N   UNL A   1      39.190  32.372  34.045  1.00  0.00    -0.354 N 
ATOM     51  C   UNL A   1      40.040  29.686  30.784  1.00  0.00     0.074 A 
ATOM     52  C   UNL A   1      39.130  29.898  29.678  1.00  0.00     0.031 C 
ATOM     53  C   UNL A   1      38.045  33.938  35.158  1.00  0.00     0.029 A 
ATOM     54  C   UNL A   1      39.167  33.009  35.262  1.00  0.00     0.049 A 
ATOM     55  H   UNL A   1      39.856  31.686  33.809  1.00  0.00     0.167 HD
ATOM     56  C   UNL A   1      41.030  28.761  30.793  1.00  0.00     0.037 A 
ATOM     57  C   UNL A   1      39.957  32.860  36.342  1.00  0.00     0.037 A 
ATOM     58  C   UNL A   1      41.960  28.571  31.874  1.00  0.00     0.049 A 
ATOM     59  C   UNL A   1      41.082  31.867  36.307  1.00  0.00     0.074 A 
ATOM     60  C   UNL A   1      43.026  27.691  31.952  1.00  0.00     0.029 A 
ATOM     61  N   UNL A   1      41.938  29.277  33.068  1.00  0.00    -0.354 N 
ATOM     62  N   UNL A   1      41.416  31.038  35.348  1.00  0.00    -0.248 NA
ATOM     63  C   UNL A   1      41.941  31.792  37.498  1.00  0.00     0.031 C 
ATOM     64  C   UNL A   1      43.644  27.858  33.197  1.00  0.00     0.029 A 
ATOM     65  C   UNL A   1      42.972  28.854  33.887  1.00  0.00     0.049 A 
ATOM     66  H   UNL A   1      41.286  29.976  33.298  1.00  0.00     0.167 HD
ATOM     67  C   UNL A   1      42.532  30.353  35.812  1.00  0.00     0.074 A 
ATOM     68  C   UNL A   1      42.822  30.869  37.135  1.00  0.00     0.031 C 
ATOM     69  C   UNL A   1      43.251  29.383  35.196  1.00  0.00     0.037 A 
BRANCH  56  70
ATOM     70  C   UNL A   1      41.153  27.882  29.583  1.00  0.00     0.058 A 
ATOM     71  C   UNL A   1      40.251  26.833  29.348  1.00  0.00     0.135 A 
ATOM     72  C   UNL A   1      42.181  28.093  28.651  1.00  0.00     0.135 A 
ATOM     73  F   UNL A   1      39.264  26.584  30.220  1.00  0.00    -0.206 F 
ATOM     74  C   UNL A   1      40.382  26.002  28.240  1.00  0.00     0.059 A 
ATOM     75  C   UNL A   1      42.320  27.283  27.528  1.00  0.00     0.059 A 
ATOM     76  F   UNL A   1      43.069  29.082  28.835  1.00  0.00    -0.206 F 
ATOM     77  C   UNL A   1      41.426  26.228  27.342  1.00  0.00     0.060 A 
BRANCH  77  78
ATOM     78  S   UNL A   1      41.608  25.132  25.919  1.00  0.00     0.124 S 
ATOM     79  O   UNL A   1      42.368  24.029  26.501  1.00  0.00    -0.237 OA
ATOM     80  O   UNL A   1      40.224  24.830  25.568  1.00  0.00    -0.237 OA
ATOM     81  O   UNL A   1      42.330  25.954  24.953  1.00  0.00    -0.744 OA
ENDBRANCH  77  78
ENDBRANCH  56  70
BRANCH  57  82
ATOM     82  C   UNL A   1      39.723  33.699  37.542  1.00  0.00     0.058 A 
ATOM     83  C   UNL A   1      40.365  34.937  37.686  1.00  0.00     0.135 A 
ATOM     84  C   UNL A   1      38.834  33.297  38.549  1.00  0.00     0.135 A 
ATOM     85  F   UNL A   1      41.227  35.357  36.746  1.00  0.00    -0.206 F 
ATOM     86  C   UNL A   1      40.138  35.750  38.790  1.00  0.00     0.059 A 
ATOM     87  C   UNL A   1      38.580  34.098  39.657  1.00  0.00     0.059 A 
ATOM     88  F   UNL A   1      38.186  32.126  38.445  1.00  0.00    -0.206 F 
ATOM     89  C   UNL A   1      39.243  35.321  39.771  1.00  0.00     0.060 A 
BRANCH  89  90
ATOM     90  S   UNL A   1      38.890  36.408  41.171  1.00  0.00     0.124 S 
ATOM     91  O   UNL A   1      37.781  35.710  41.810  1.00  0.00    -0.237 OA
ATOM     92  O   UNL A   1      40.155  36.401  41.900  1.00  0.00    -0.237 OA
ATOM     93  O   UNL A   1      38.558  37.675  40.526  1.00  0.00    -0.744 OA
ENDBRANCH  89  90
ENDBRANCH  57  82
BRANCH  69  94
ATOM     94  C   UNL A   1      44.431  28.832  35.938  1.00  0.00     0.058 A 
ATOM     95  C   UNL A   1      44.305  27.723  36.788  1.00  0.00     0.135 A 
ATOM     96  C   UNL A   1      45.706  29.392  35.766  1.00  0.00     0.135 A 
ATOM     97  F   UNL A   1      43.104  27.159  36.988  1.00  0.00    -0.206 F 
ATOM     98  C   UNL A   1      45.406  27.191  37.453  1.00  0.00     0.059 A 
ATOM     99  C   UNL A   1      46.822  28.869  36.412  1.00  0.00     0.059 A 
ATOM    100  F   UNL A   1      45.875  30.453  34.961  1.00  0.00    -0.206 F 
ATOM    101  C   UNL A   1      46.660  27.774  37.261  1.00  0.00     0.060 A 
BRANCH 101 102
ATOM    102  S   UNL A   1      48.094  27.062  38.096  1.00  0.00     0.124 S 
ATOM    103  O   UNL A   1      48.987  26.800  36.972  1.00  0.00    -0.237 OA
ATOM    104  O   UNL A   1      48.507  28.136  38.994  1.00  0.00    -0.237 OA
ATOM    105  O   UNL A   1      47.545  25.881  38.754  1.00  0.00    -0.744 OA
ENDBRANCH 101 102
ENDBRANCH  69  94
ENDBRANCH  43  44
ENDBRANCH  35  38
ENDBRANCH  33  34
ENDBRANCH  32  33
ENDBRANCH  31  32
ENDBRANCH  30  31
ENDBRANCH   1  30
TORSDOF 22
ENDMDL
MODEL 3
REMARK VINA RESULT:     -10.4      1.207      8.090
REMARK SMILES CCOC(=O)c1cc(CC)sc1NC(=O)[C@H]1[C@@H]2CC[C@@H](C2)[C@@H]1C(=O)NCCCCCCNC(=O)c1ccc(-c2c3nc(c(-c4c(F)cc(S(=O)(=O)[O-])cc4F)c4ccc([nH]4)c(-c4c(F)cc(S(=O)(=O)[O-])cc4F)c4nc(c(-c5c(F)cc(S(=O)(=O)[O-])cc5F)c5ccc2[nH]5)C=C4)C=C3)cc1
REMARK SMILES IDX 27 1 26 2 25 3 23 4 24 5 22 7 16 8 17 9 18 10 21 11 20 12
REMARK SMILES IDX 19 13 14 14 13 15 15 17 12 18 6 19 7 20 8 21 11 22 4 23 5 24
REMARK SMILES IDX 3 25 2 26 1 27 9 28 10 29 28 30 29 31 30 32 31 33 32 34
REMARK SMILES IDX 33 35 34 37 35 38 36 39 100 40 37 41 99 42 38 43 39 44 40 45
REMARK SMILES IDX 93 46 41 47 98 48 92 49 94 50 42 51 97 52 91 53 90 54 43 56
REMARK SMILES IDX 77 57 56 58 76 59 57 60 60 61 75 62 95 63 58 64 59 65 74 67
REMARK SMILES IDX 96 68 61 69 44 70 45 71 54 72 46 73 47 74 53 75 55 76 48 77
REMARK SMILES IDX 49 78 50 79 51 80 52 81 78 82 79 83 88 84 80 85 81 86 87 87
REMARK SMILES IDX 89 88 82 89 83 90 84 91 85 92 86 93 62 94 63 95 72 96 64 97
REMARK SMILES IDX 65 98 71 99 73 100 66 101 67 102 68 103 69 104 70 105
REMARK H PARENT 25 6 13 16 32 36 94 55 60 66
REMARK Flexibility Score: inf
ROOT
ATOM      1  C   UNL A   1      33.736  28.786  27.561  1.00  0.00     0.021 C 
ENDROOT
BRANCH   1   2
ATOM      2  C   UNL A   1      34.014  27.895  26.347  1.00  0.00     0.116 C 
BRANCH   2   3
ATOM      3  N   UNL A   1      33.688  28.557  25.094  1.00  0.00    -0.356 N 
ATOM      4  C   UNL A   1      32.670  28.345  24.211  1.00  0.00     0.224 C 
ATOM      5  O   UNL A   1      32.678  28.996  23.167  1.00  0.00    -0.275 OA
ATOM      6  H   UNL A   1      34.307  29.279  24.840  1.00  0.00     0.163 HD
BRANCH   4   7
ATOM      7  C   UNL A   1      31.550  27.376  24.562  1.00  0.00     0.094 C 
ATOM      8  C   UNL A   1      31.967  25.883  24.684  1.00  0.00     0.094 C 
ATOM      9  C   UNL A   1      30.935  25.180  23.749  1.00  0.00     0.002 C 
ATOM     10  C   UNL A   1      31.376  25.407  22.295  1.00  0.00     0.005 C 
ATOM     11  C   UNL A   1      29.698  26.081  23.836  1.00  0.00     0.009 C 
ATOM     12  C   UNL A   1      30.472  27.336  23.440  1.00  0.00     0.002 C 
ATOM     13  C   UNL A   1      31.045  26.888  22.074  1.00  0.00     0.005 C 
BRANCH   8  14
ATOM     14  C   UNL A   1      31.834  25.366  26.119  1.00  0.00     0.229 C 
ATOM     15  N   UNL A   1      32.224  24.123  26.520  1.00  0.00    -0.317 N 
ATOM     16  H   UNL A   1      32.193  24.006  27.497  1.00  0.00     0.170 HD
ATOM     17  O   UNL A   1      31.430  26.119  27.015  1.00  0.00    -0.274 OA
BRANCH  15  18
ATOM     18  C   UNL A   1      32.653  22.994  25.851  1.00  0.00     0.110 A 
ATOM     19  C   UNL A   1      33.927  22.776  25.346  1.00  0.00     0.095 A 
ATOM     20  C   UNL A   1      33.971  21.551  24.590  1.00  0.00     0.033 A 
ATOM     21  C   UNL A   1      32.759  20.891  24.570  1.00  0.00     0.007 A 
ATOM     22  S   UNL A   1      31.659  21.651  25.624  1.00  0.00    -0.122 S 
BRANCH  19  23
ATOM     23  C   UNL A   1      35.006  23.749  25.495  1.00  0.00     0.341 C 
ATOM     24  O   UNL A   1      34.987  24.842  24.954  1.00  0.00    -0.246 OA
BRANCH  23  25
ATOM     25  O   UNL A   1      36.046  23.258  26.232  1.00  0.00    -0.462 OA
BRANCH  25  26
ATOM     26  C   UNL A   1      37.298  23.135  25.540  1.00  0.00     0.230 C 
ATOM     27  C   UNL A   1      37.253  22.039  24.486  1.00  0.00     0.049 C 
ENDBRANCH  25  26
ENDBRANCH  23  25
ENDBRANCH  19  23
BRANCH  21  28
ATOM     28  C   UNL A   1      32.356  19.714  23.727  1.00  0.00     0.043 C 
ATOM     29  C   UNL A   1      33.395  18.607  23.622  1.00  0.00     0.010 C 
ENDBRANCH  21  28
ENDBRANCH  15  18
ENDBRANCH   8  14
ENDBRANCH   4   7
ENDBRANCH   2   3
ENDBRANCH   1   2
BRANCH   1  30
ATOM     30  C   UNL A   1      33.154  30.167  27.222  1.00  0.00     0.002 C 
BRANCH  30  31
ATOM     31  C   UNL A   1      34.005  31.370  27.636  1.00  0.00     0.002 C 
BRANCH  31  32
ATOM     32  C   UNL A   1      35.472  31.065  27.957  1.00  0.00     0.021 C 
BRANCH  32  33
ATOM     33  C   UNL A   1      36.057  31.807  29.159  1.00  0.00     0.116 C 
BRANCH  33  34
ATOM     34  N   UNL A   1      35.891  31.081  30.410  1.00  0.00    -0.352 N 
ATOM     35  C   UNL A   1      36.780  30.245  31.045  1.00  0.00     0.251 C 
ATOM     36  H   UNL A   1      35.026  31.204  30.861  1.00  0.00     0.163 HD
ATOM     37  O   UNL A   1      36.432  29.612  32.037  1.00  0.00    -0.269 OA
BRANCH  35  38
ATOM     38  C   UNL A   1      38.152  30.092  30.510  1.00  0.00     0.039 A 
ATOM     39  C   UNL A   1      39.170  29.671  31.370  1.00  0.00     0.014 A 
ATOM     40  C   UNL A   1      38.426  30.349  29.163  1.00  0.00     0.014 A 
ATOM     41  C   UNL A   1      40.450  29.433  30.863  1.00  0.00     0.010 A 
ATOM     42  C   UNL A   1      39.695  30.077  28.652  1.00  0.00     0.010 A 
ATOM     43  C   UNL A   1      40.713  29.603  29.493  1.00  0.00    -0.014 A 
BRANCH  43  44
ATOM     44  C   UNL A   1      42.035  29.256  28.917  1.00  0.00     0.031 A 
ATOM     45  C   UNL A   1      42.303  27.869  28.410  1.00  0.00     0.074 A 
ATOM     46  C   UNL A   1      43.022  30.174  28.923  1.00  0.00     0.049 A 
ATOM     47  N   UNL A   1      43.421  27.357  27.963  1.00  0.00    -0.248 NA
ATOM     48  C   UNL A   1      41.174  26.928  28.430  1.00  0.00     0.031 C 
ATOM     49  C   UNL A   1      42.903  31.542  29.432  1.00  0.00     0.029 A 
ATOM     50  N   UNL A   1      44.325  30.087  28.502  1.00  0.00    -0.354 N 
ATOM     51  C   UNL A   1      43.139  26.029  27.670  1.00  0.00     0.074 A 
ATOM     52  C   UNL A   1      41.748  25.809  28.008  1.00  0.00     0.031 C 
ATOM     53  C   UNL A   1      44.083  32.169  29.285  1.00  0.00     0.029 A 
ATOM     54  C   UNL A   1      45.045  31.243  28.694  1.00  0.00     0.049 A 
ATOM     55  H   UNL A   1      44.709  29.274  28.101  1.00  0.00     0.167 HD
ATOM     56  C   UNL A   1      43.962  25.081  27.159  1.00  0.00     0.037 A 
ATOM     57  C   UNL A   1      46.334  31.524  28.427  1.00  0.00     0.037 A 
ATOM     58  C   UNL A   1      45.333  25.304  26.788  1.00  0.00     0.049 A 
ATOM     59  C   UNL A   1      47.210  30.473  27.810  1.00  0.00     0.074 A 
ATOM     60  C   UNL A   1      46.229  24.416  26.217  1.00  0.00     0.029 A 
ATOM     61  N   UNL A   1      46.008  26.506  26.944  1.00  0.00    -0.354 N 
ATOM     62  N   UNL A   1      46.916  29.232  27.507  1.00  0.00    -0.248 NA
ATOM     63  C   UNL A   1      48.593  30.861  27.494  1.00  0.00     0.031 C 
ATOM     64  C   UNL A   1      47.449  25.078  26.037  1.00  0.00     0.029 A 
ATOM     65  C   UNL A   1      47.308  26.382  26.481  1.00  0.00     0.049 A 
ATOM     66  H   UNL A   1      45.620  27.325  27.327  1.00  0.00     0.167 HD
ATOM     67  C   UNL A   1      48.070  28.695  26.951  1.00  0.00     0.074 A 
ATOM     68  C   UNL A   1      49.067  29.747  26.953  1.00  0.00     0.031 C 
ATOM     69  C   UNL A   1      48.283  27.441  26.482  1.00  0.00     0.037 A 
BRANCH  56  70
ATOM     70  C   UNL A   1      43.386  23.708  26.973  1.00  0.00     0.058 A 
ATOM     71  C   UNL A   1      43.275  22.811  28.047  1.00  0.00     0.135 A 
ATOM     72  C   UNL A   1      42.940  23.287  25.711  1.00  0.00     0.135 A 
ATOM     73  F   UNL A   1      43.704  23.164  29.268  1.00  0.00    -0.206 F 
ATOM     74  C   UNL A   1      42.767  21.529  27.869  1.00  0.00     0.059 A 
ATOM     75  C   UNL A   1      42.414  22.013  25.514  1.00  0.00     0.059 A 
ATOM     76  F   UNL A   1      43.029  24.108  24.653  1.00  0.00    -0.206 F 
ATOM     77  C   UNL A   1      42.349  21.135  26.596  1.00  0.00     0.060 A 
BRANCH  77  78
ATOM     78  S   UNL A   1      41.714  19.462  26.363  1.00  0.00     0.124 S 
ATOM     79  O   UNL A   1      42.517  19.004  25.233  1.00  0.00    -0.237 OA
ATOM     80  O   UNL A   1      42.004  18.827  27.645  1.00  0.00    -0.237 OA
ATOM     81  O   UNL A   1      40.297  19.678  26.083  1.00  0.00    -0.744 OA
ENDBRANCH  77  78
ENDBRANCH  56  70
BRANCH  57  82
ATOM     82  C   UNL A   1      46.864  32.877  28.721  1.00  0.00     0.058 A 
ATOM     83  C   UNL A   1      46.811  33.891  27.754  1.00  0.00     0.135 A 
ATOM     84  C   UNL A   1      47.403  33.191  29.976  1.00  0.00     0.135 A 
ATOM     85  F   UNL A   1      46.306  33.631  26.538  1.00  0.00    -0.206 F 
ATOM     86  C   UNL A   1      47.278  35.173  28.020  1.00  0.00     0.059 A 
ATOM     87  C   UNL A   1      47.865  34.469  30.271  1.00  0.00     0.059 A 
ATOM     88  F   UNL A   1      47.459  32.255  30.937  1.00  0.00    -0.206 F 
ATOM     89  C   UNL A   1      47.803  35.453  29.282  1.00  0.00     0.060 A 
BRANCH  89  90
ATOM     90  S   UNL A   1      48.343  37.136  29.653  1.00  0.00     0.124 S 
ATOM     91  O   UNL A   1      49.754  37.077  29.291  1.00  0.00    -0.237 OA
ATOM     92  O   UNL A   1      47.492  37.938  28.779  1.00  0.00    -0.237 OA
ATOM     93  O   UNL A   1      48.057  37.266  31.078  1.00  0.00    -0.744 OA
ENDBRANCH  89  90
ENDBRANCH  57  82
BRANCH  69  94
ATOM     94  C   UNL A   1      49.638  27.145  25.914  1.00  0.00     0.058 A 
ATOM     95  C   UNL A   1      50.700  26.738  26.736  1.00  0.00     0.135 A 
ATOM     96  C   UNL A   1      49.866  27.230  24.532  1.00  0.00     0.135 A 
ATOM     97  F   UNL A   1      50.531  26.651  28.064  1.00  0.00    -0.206 F 
ATOM     98  C   UNL A   1      51.951  26.434  26.205  1.00  0.00     0.059 A 
ATOM     99  C   UNL A   1      51.104  26.918  23.980  1.00  0.00     0.059 A 
ATOM    100  F   UNL A   1      48.878  27.612  23.707  1.00  0.00    -0.206 F 
ATOM    101  C   UNL A   1      52.143  26.531  24.826  1.00  0.00     0.060 A 
BRANCH 101 102
ATOM    102  S   UNL A   1      53.755  26.101  24.133  1.00  0.00     0.124 S 
ATOM    103  O   UNL A   1      53.484  26.164  22.701  1.00  0.00    -0.237 OA
ATOM    104  O   UNL A   1      54.620  27.152  24.661  1.00  0.00    -0.237 OA
ATOM    105  O   UNL A   1      54.004  24.767  24.671  1.00  0.00    -0.744 OA
ENDBRANCH 101 102
ENDBRANCH  69  94
ENDBRANCH  43  44
ENDBRANCH  35  38
ENDBRANCH  33  34
ENDBRANCH  32  33
ENDBRANCH  31  32
ENDBRANCH  30  31
ENDBRANCH   1  30
TORSDOF 22
ENDMDL
