MODEL 1
REMARK VINA RESULT:     -11.6      0.000      0.000
REMARK SMILES O=C(NCCCCCCNC(=O)c1cc(Br)ccc1NC(=O)c1ccc(Br)s1)c1ccc(-c2c3nc(c(-c4c(F)cc(S(=O)(=O)[O-])cc4F)c4ccc([nH]4)c(-c4c(F)cc(S(=O)(=O)[O-])cc4F)c4nc(c(-c5c(F)cc(S(=O)(=O)[O-])cc5F)c5ccc2[nH]5)C=C4)C=C3)cc1
REMARK SMILES IDX 6 1 5 2 4 3 3 4 1 5 2 6 29 8 30 9 94 10 31 11 93 12 32 13
REMARK SMILES IDX 33 14 34 15 87 16 35 17 92 18 86 19 88 20 36 21 91 22 85 23
REMARK SMILES IDX 84 24 37 26 71 27 50 28 70 29 51 30 54 31 69 32 89 33 52 34
REMARK SMILES IDX 53 35 68 37 90 38 55 39 38 40 39 41 48 42 40 43 41 44 47 45
REMARK SMILES IDX 49 46 42 47 43 48 44 49 45 50 46 51 72 52 73 53 82 54 74 55
REMARK SMILES IDX 75 56 81 57 83 58 76 59 77 60 78 61 79 62 80 63 56 64 57 65
REMARK SMILES IDX 66 66 58 67 59 68 65 69 67 70 60 71 61 72 62 73 63 74 64 75
REMARK SMILES IDX 7 76 8 77 9 78 10 79 11 80 12 82 13 83 14 84 19 85 15 86
REMARK SMILES IDX 18 87 16 88 17 89 20 90 21 91 22 93 23 94 24 95 28 96 25 97
REMARK SMILES IDX 26 98 27 99
REMARK H PARENT 3 7 88 25 54 36 10 81 20 92
REMARK Flexibility Score: inf
ROOT
ATOM      1  C   UNL A   1      37.747  23.743  25.956  1.00  0.00     0.002 C 
ENDROOT
BRANCH   1   2
ATOM      2  C   UNL A   1      38.797  22.780  26.511  1.00  0.00     0.021 C 
BRANCH   2   3
ATOM      3  C   UNL A   1      40.055  23.433  27.069  1.00  0.00     0.116 C 
BRANCH   3   4
ATOM      4  N   UNL A   1      40.841  24.116  26.056  1.00  0.00    -0.352 N 
ATOM      5  O   UNL A   1      41.810  25.870  25.019  1.00  0.00    -0.269 OA
ATOM      6  C   UNL A   1      41.260  25.426  26.024  1.00  0.00     0.251 C 
ATOM      7  H   UNL A   1      41.110  23.566  25.285  1.00  0.00     0.163 HD
BRANCH   6   8
ATOM      8  C   UNL A   1      41.023  26.307  27.192  1.00  0.00     0.039 A 
ATOM      9  C   UNL A   1      41.819  27.433  27.410  1.00  0.00     0.014 A 
ATOM     10  C   UNL A   1      39.989  26.000  28.082  1.00  0.00     0.014 A 
ATOM     11  C   UNL A   1      41.678  28.161  28.586  1.00  0.00     0.010 A 
ATOM     12  C   UNL A   1      39.793  26.788  29.224  1.00  0.00     0.010 A 
ATOM     13  C   UNL A   1      40.656  27.856  29.502  1.00  0.00    -0.014 A 
BRANCH  13  14
ATOM     14  C   UNL A   1      40.488  28.721  30.700  1.00  0.00     0.031 A 
ATOM     15  C   UNL A   1      41.388  28.591  31.898  1.00  0.00     0.074 A 
ATOM     16  C   UNL A   1      39.543  29.682  30.665  1.00  0.00     0.049 A 
ATOM     17  N   UNL A   1      41.421  29.325  32.982  1.00  0.00    -0.248 NA
ATOM     18  C   UNL A   1      42.373  27.499  31.886  1.00  0.00     0.031 C 
ATOM     19  C   UNL A   1      38.588  29.882  29.569  1.00  0.00     0.029 A 
ATOM     20  N   UNL A   1      39.245  30.685  31.550  1.00  0.00    -0.354 N 
ATOM     21  C   UNL A   1      42.419  28.783  33.785  1.00  0.00     0.074 A 
ATOM     22  C   UNL A   1      42.949  27.639  33.075  1.00  0.00     0.031 C 
ATOM     23  C   UNL A   1      37.851  30.973  29.821  1.00  0.00     0.029 A 
ATOM     24  C   UNL A   1      38.243  31.520  31.115  1.00  0.00     0.049 A 
ATOM     25  H   UNL A   1      39.703  30.797  32.414  1.00  0.00     0.167 HD
ATOM     26  C   UNL A   1      42.858  29.208  34.994  1.00  0.00     0.037 A 
ATOM     27  C   UNL A   1      37.695  32.607  31.690  1.00  0.00     0.037 A 
ATOM     28  C   UNL A   1      42.330  30.353  35.694  1.00  0.00     0.049 A 
ATOM     29  C   UNL A   1      38.217  33.068  33.019  1.00  0.00     0.074 A 
ATOM     30  C   UNL A   1      42.709  30.864  36.924  1.00  0.00     0.029 A 
ATOM     31  N   UNL A   1      41.312  31.170  35.223  1.00  0.00    -0.354 N 
ATOM     32  N   UNL A   1      39.172  32.549  33.752  1.00  0.00    -0.248 NA
ATOM     33  C   UNL A   1      37.591  34.262  33.599  1.00  0.00     0.031 C 
ATOM     34  C   UNL A   1      41.904  31.973  37.209  1.00  0.00     0.029 A 
ATOM     35  C   UNL A   1      41.047  32.177  36.139  1.00  0.00     0.049 A 
ATOM     36  H   UNL A   1      40.845  31.052  34.365  1.00  0.00     0.167 HD
ATOM     37  C   UNL A   1      39.259  33.350  34.882  1.00  0.00     0.074 A 
ATOM     38  C   UNL A   1      38.284  34.410  34.719  1.00  0.00     0.031 C 
ATOM     39  C   UNL A   1      40.064  33.215  35.964  1.00  0.00     0.037 A 
BRANCH  26  40
ATOM     40  C   UNL A   1      43.971  28.434  35.646  1.00  0.00     0.058 A 
ATOM     41  C   UNL A   1      45.316  28.792  35.464  1.00  0.00     0.135 A 
ATOM     42  C   UNL A   1      43.690  27.360  36.506  1.00  0.00     0.135 A 
ATOM     43  F   UNL A   1      45.642  29.800  34.642  1.00  0.00    -0.206 F 
ATOM     44  C   UNL A   1      46.345  28.102  36.100  1.00  0.00     0.059 A 
ATOM     45  C   UNL A   1      44.702  26.669  37.168  1.00  0.00     0.059 A 
ATOM     46  F   UNL A   1      42.421  26.976  36.716  1.00  0.00    -0.206 F 
ATOM     47  C   UNL A   1      46.028  27.041  36.950  1.00  0.00     0.060 A 
BRANCH  47  48
ATOM     48  S   UNL A   1      47.374  26.165  37.776  1.00  0.00     0.124 S 
ATOM     49  O   UNL A   1      48.543  26.835  37.217  1.00  0.00    -0.237 OA
ATOM     50  O   UNL A   1      47.104  26.434  39.185  1.00  0.00    -0.237 OA
ATOM     51  O   UNL A   1      47.184  24.779  37.360  1.00  0.00    -0.744 OA
ENDBRANCH  47  48
ENDBRANCH  26  40
BRANCH  27  52
ATOM     52  C   UNL A   1      36.586  33.320  31.007  1.00  0.00     0.058 A 
ATOM     53  C   UNL A   1      36.824  34.136  29.892  1.00  0.00     0.135 A 
ATOM     54  C   UNL A   1      35.261  33.173  31.442  1.00  0.00     0.135 A 
ATOM     55  F   UNL A   1      38.076  34.307  29.441  1.00  0.00    -0.206 F 
ATOM     56  C   UNL A   1      35.787  34.794  29.239  1.00  0.00     0.059 A 
ATOM     57  C   UNL A   1      34.205  33.799  30.791  1.00  0.00     0.059 A 
ATOM     58  F   UNL A   1      34.981  32.386  32.493  1.00  0.00    -0.206 F 
ATOM     59  C   UNL A   1      34.480  34.619  29.696  1.00  0.00     0.060 A 
BRANCH  59  60
ATOM     60  S   UNL A   1      33.129  35.429  28.816  1.00  0.00     0.124 S 
ATOM     61  O   UNL A   1      33.850  36.408  28.012  1.00  0.00    -0.237 OA
ATOM     62  O   UNL A   1      32.525  34.321  28.082  1.00  0.00    -0.237 OA
ATOM     63  O   UNL A   1      32.310  35.974  29.894  1.00  0.00    -0.744 OA
ENDBRANCH  59  60
ENDBRANCH  27  52
BRANCH  39  64
ATOM     64  C   UNL A   1      39.917  34.245  37.048  1.00  0.00     0.058 A 
ATOM     65  C   UNL A   1      39.125  34.004  38.180  1.00  0.00     0.135 A 
ATOM     66  C   UNL A   1      40.577  35.480  36.955  1.00  0.00     0.135 A 
ATOM     67  F   UNL A   1      38.469  32.841  38.311  1.00  0.00    -0.206 F 
ATOM     68  C   UNL A   1      38.961  34.969  39.169  1.00  0.00     0.059 A 
ATOM     69  C   UNL A   1      40.445  36.451  37.943  1.00  0.00     0.059 A 
ATOM     70  F   UNL A   1      41.353  35.754  35.894  1.00  0.00    -0.206 F 
ATOM     71  C   UNL A   1      39.619  36.192  39.037  1.00  0.00     0.060 A 
BRANCH  71  72
ATOM     72  S   UNL A   1      39.401  37.440  40.323  1.00  0.00     0.124 S 
ATOM     73  O   UNL A   1      38.581  38.430  39.632  1.00  0.00    -0.237 OA
ATOM     74  O   UNL A   1      38.732  36.689  41.381  1.00  0.00    -0.237 OA
ATOM     75  O   UNL A   1      40.768  37.855  40.626  1.00  0.00    -0.744 OA
ENDBRANCH  71  72
ENDBRANCH  39  64
ENDBRANCH  13  14
ENDBRANCH   6   8
ENDBRANCH   3   4
ENDBRANCH   2   3
ENDBRANCH   1   2
BRANCH   1  76
ATOM     76  C   UNL A   1      36.357  23.150  25.706  1.00  0.00     0.002 C 
BRANCH  76  77
ATOM     77  C   UNL A   1      35.562  23.766  24.551  1.00  0.00     0.021 C 
BRANCH  77  78
ATOM     78  C   UNL A   1      34.678  24.954  24.922  1.00  0.00     0.116 C 
BRANCH  78  79
ATOM     79  N   UNL A   1      34.174  25.663  23.754  1.00  0.00    -0.352 N 
ATOM     80  C   UNL A   1      33.364  26.771  23.710  1.00  0.00     0.253 C 
ATOM     81  H   UNL A   1      34.452  25.301  22.882  1.00  0.00     0.163 HD
ATOM     82  O   UNL A   1      32.882  27.162  22.652  1.00  0.00    -0.269 OA
BRANCH  80  83
ATOM     83  C   UNL A   1      33.012  27.452  24.974  1.00  0.00     0.064 A 
ATOM     84  C   UNL A   1      34.013  28.191  25.623  1.00  0.00     0.031 A 
ATOM     85  C   UNL A   1      31.723  27.314  25.529  1.00  0.00     0.054 A 
ATOM     86  C   UNL A   1      33.775  28.691  26.895  1.00  0.00     0.018 A 
ATOM     87  C   UNL A   1      31.549  27.749  26.845  1.00  0.00     0.028 A 
ATOM     88  Br  UNL A   1      35.122  29.655  27.798  1.00  0.00    -0.051 Br
ATOM     89  C   UNL A   1      32.560  28.441  27.523  1.00  0.00     0.018 A 
BRANCH  85  90
ATOM     90  N   UNL A   1      30.696  26.721  24.755  1.00  0.00    -0.321 N 
ATOM     91  C   UNL A   1      30.381  25.414  24.436  1.00  0.00     0.265 C 
ATOM     92  H   UNL A   1      30.077  27.378  24.361  1.00  0.00     0.170 HD
ATOM     93  O   UNL A   1      29.512  25.233  23.579  1.00  0.00    -0.268 OA
BRANCH  91  94
ATOM     94  C   UNL A   1      31.008  24.317  25.142  1.00  0.00     0.093 A 
ATOM     95  C   UNL A   1      31.205  24.145  26.502  1.00  0.00     0.027 A 
ATOM     96  S   UNL A   1      31.595  22.978  24.248  1.00  0.00    -0.123 S 
ATOM     97  C   UNL A   1      31.955  22.964  26.790  1.00  0.00     0.028 A 
ATOM     98  C   UNL A   1      32.236  22.265  25.644  1.00  0.00     0.071 A 
ATOM     99  Br  UNL A   1      33.232  20.679  25.616  1.00  0.00    -0.039 Br
ENDBRANCH  91  94
ENDBRANCH  85  90
ENDBRANCH  80  83
ENDBRANCH  78  79
ENDBRANCH  77  78
ENDBRANCH  76  77
ENDBRANCH   1  76
TORSDOF 18
ENDMDL
MODEL 2
REMARK VINA RESULT:     -11.4      1.776      3.391
REMARK SMILES O=C(NCCCCCCNC(=O)c1cc(Br)ccc1NC(=O)c1ccc(Br)s1)c1ccc(-c2c3nc(c(-c4c(F)cc(S(=O)(=O)[O-])cc4F)c4ccc([nH]4)c(-c4c(F)cc(S(=O)(=O)[O-])cc4F)c4nc(c(-c5c(F)cc(S(=O)(=O)[O-])cc5F)c5ccc2[nH]5)C=C4)C=C3)cc1
REMARK SMILES IDX 6 1 5 2 4 3 3 4 1 5 2 6 29 8 30 9 94 10 31 11 93 12 32 13
REMARK SMILES IDX 33 14 34 15 87 16 35 17 92 18 86 19 88 20 36 21 91 22 85 23
REMARK SMILES IDX 84 24 37 26 71 27 50 28 70 29 51 30 54 31 69 32 89 33 52 34
REMARK SMILES IDX 53 35 68 37 90 38 55 39 38 40 39 41 48 42 40 43 41 44 47 45
REMARK SMILES IDX 49 46 42 47 43 48 44 49 45 50 46 51 72 52 73 53 82 54 74 55
REMARK SMILES IDX 75 56 81 57 83 58 76 59 77 60 78 61 79 62 80 63 56 64 57 65
REMARK SMILES IDX 66 66 58 67 59 68 65 69 67 70 60 71 61 72 62 73 63 74 64 75
REMARK SMILES IDX 7 76 8 77 9 78 10 79 11 80 12 82 13 83 14 84 19 85 15 86
REMARK SMILES IDX 18 87 16 88 17 89 20 90 21 91 22 93 23 94 24 95 28 96 25 97
REMARK SMILES IDX 26 98 27 99
REMARK H PARENT 3 7 88 25 54 36 10 81 20 92
REMARK Flexibility Score: inf
ROOT
ATOM      1  C   UNL A   1      39.015  22.228  26.125  1.00  0.00     0.002 C 
ENDROOT
BRANCH   1   2
ATOM      2  C   UNL A   1      40.182  21.917  27.063  1.00  0.00     0.021 C 
BRANCH   2   3
ATOM      3  C   UNL A   1      41.115  23.084  27.359  1.00  0.00     0.116 C 
BRANCH   3   4
ATOM      4  N   UNL A   1      41.375  23.916  26.197  1.00  0.00    -0.352 N 
ATOM      5  O   UNL A   1      41.498  25.824  25.000  1.00  0.00    -0.269 OA
ATOM      6  C   UNL A   1      41.386  25.288  26.100  1.00  0.00     0.251 C 
ATOM      7  H   UNL A   1      41.570  23.431  25.363  1.00  0.00     0.163 HD
BRANCH   6   8
ATOM      8  C   UNL A   1      41.234  26.117  27.319  1.00  0.00     0.039 A 
ATOM      9  C   UNL A   1      40.163  25.915  28.191  1.00  0.00     0.014 A 
ATOM     10  C   UNL A   1      42.178  27.112  27.593  1.00  0.00     0.014 A 
ATOM     11  C   UNL A   1      39.955  26.795  29.246  1.00  0.00     0.010 A 
ATOM     12  C   UNL A   1      42.014  27.944  28.707  1.00  0.00     0.010 A 
ATOM     13  C   UNL A   1      40.883  27.814  29.526  1.00  0.00    -0.014 A 
BRANCH  13  14
ATOM     14  C   UNL A   1      40.664  28.671  30.720  1.00  0.00     0.031 A 
ATOM     15  C   UNL A   1      41.543  28.568  31.936  1.00  0.00     0.074 A 
ATOM     16  C   UNL A   1      39.691  29.603  30.666  1.00  0.00     0.049 A 
ATOM     17  N   UNL A   1      41.531  29.301  33.022  1.00  0.00    -0.248 NA
ATOM     18  C   UNL A   1      42.560  27.506  31.944  1.00  0.00     0.031 C 
ATOM     19  C   UNL A   1      38.753  29.775  29.552  1.00  0.00     0.029 A 
ATOM     20  N   UNL A   1      39.345  30.596  31.546  1.00  0.00    -0.354 N 
ATOM     21  C   UNL A   1      42.529  28.789  33.844  1.00  0.00     0.074 A 
ATOM     22  C   UNL A   1      43.108  27.662  33.144  1.00  0.00     0.031 C 
ATOM     23  C   UNL A   1      37.979  30.843  29.788  1.00  0.00     0.029 A 
ATOM     24  C   UNL A   1      38.327  31.401  31.090  1.00  0.00     0.049 A 
ATOM     25  H   UNL A   1      39.782  30.721  32.419  1.00  0.00     0.167 HD
ATOM     26  C   UNL A   1      42.930  29.226  35.062  1.00  0.00     0.037 A 
ATOM     27  C   UNL A   1      37.735  32.470  31.655  1.00  0.00     0.037 A 
ATOM     28  C   UNL A   1      42.353  30.354  35.751  1.00  0.00     0.049 A 
ATOM     29  C   UNL A   1      38.216  32.946  32.994  1.00  0.00     0.074 A 
ATOM     30  C   UNL A   1      42.692  30.874  36.989  1.00  0.00     0.029 A 
ATOM     31  N   UNL A   1      41.321  31.140  35.260  1.00  0.00    -0.354 N 
ATOM     32  N   UNL A   1      39.171  32.454  33.746  1.00  0.00    -0.248 NA
ATOM     33  C   UNL A   1      37.541  34.119  33.561  1.00  0.00     0.031 C 
ATOM     34  C   UNL A   1      41.848  31.958  37.258  1.00  0.00     0.029 A 
ATOM     35  C   UNL A   1      41.007  32.137  36.171  1.00  0.00     0.049 A 
ATOM     36  H   UNL A   1      40.876  31.009  34.392  1.00  0.00     0.167 HD
ATOM     37  C   UNL A   1      39.210  33.257  34.878  1.00  0.00     0.074 A 
ATOM     38  C   UNL A   1      38.207  34.287  34.695  1.00  0.00     0.031 C 
ATOM     39  C   UNL A   1      39.997  33.146  35.976  1.00  0.00     0.037 A 
BRANCH  26  40
ATOM     40  C   UNL A   1      44.053  28.485  35.736  1.00  0.00     0.058 A 
ATOM     41  C   UNL A   1      45.394  28.847  35.535  1.00  0.00     0.135 A 
ATOM     42  C   UNL A   1      43.784  27.441  36.637  1.00  0.00     0.135 A 
ATOM     43  F   UNL A   1      45.707  29.827  34.674  1.00  0.00    -0.206 F 
ATOM     44  C   UNL A   1      46.431  28.189  36.190  1.00  0.00     0.059 A 
ATOM     45  C   UNL A   1      44.806  26.783  37.318  1.00  0.00     0.059 A 
ATOM     46  F   UNL A   1      42.520  27.055  36.867  1.00  0.00    -0.206 F 
ATOM     47  C   UNL A   1      46.127  27.157  37.080  1.00  0.00     0.060 A 
BRANCH  47  48
ATOM     48  S   UNL A   1      47.484  26.324  37.931  1.00  0.00     0.124 S 
ATOM     49  O   UNL A   1      47.782  25.235  37.006  1.00  0.00    -0.237 OA
ATOM     50  O   UNL A   1      48.493  27.375  38.018  1.00  0.00    -0.237 OA
ATOM     51  O   UNL A   1      46.892  25.922  39.203  1.00  0.00    -0.744 OA
ENDBRANCH  47  48
ENDBRANCH  26  40
BRANCH  27  52
ATOM     52  C   UNL A   1      36.619  33.150  30.949  1.00  0.00     0.058 A 
ATOM     53  C   UNL A   1      35.296  33.033  31.397  1.00  0.00     0.135 A 
ATOM     54  C   UNL A   1      36.863  33.955  29.826  1.00  0.00     0.135 A 
ATOM     55  F   UNL A   1      35.015  32.273  32.467  1.00  0.00    -0.206 F 
ATOM     56  C   UNL A   1      34.250  33.680  30.749  1.00  0.00     0.059 A 
ATOM     57  C   UNL A   1      35.839  34.632  29.176  1.00  0.00     0.059 A 
ATOM     58  F   UNL A   1      38.116  34.113  29.372  1.00  0.00    -0.206 F 
ATOM     59  C   UNL A   1      34.532  34.478  29.639  1.00  0.00     0.060 A 
BRANCH  59  60
ATOM     60  S   UNL A   1      33.181  35.361  28.830  1.00  0.00     0.124 S 
ATOM     61  O   UNL A   1      33.908  36.351  28.046  1.00  0.00    -0.237 OA
ATOM     62  O   UNL A   1      32.525  34.300  28.072  1.00  0.00    -0.237 OA
ATOM     63  O   UNL A   1      32.408  35.885  29.953  1.00  0.00    -0.744 OA
ENDBRANCH  59  60
ENDBRANCH  27  52
BRANCH  39  64
ATOM     64  C   UNL A   1      39.797  34.169  37.057  1.00  0.00     0.058 A 
ATOM     65  C   UNL A   1      40.414  35.428  36.994  1.00  0.00     0.135 A 
ATOM     66  C   UNL A   1      38.978  33.891  38.162  1.00  0.00     0.135 A 
ATOM     67  F   UNL A   1      41.211  35.738  35.959  1.00  0.00    -0.206 F 
ATOM     68  C   UNL A   1      40.257  36.365  38.009  1.00  0.00     0.059 A 
ATOM     69  C   UNL A   1      38.789  34.822  39.179  1.00  0.00     0.059 A 
ATOM     70  F   UNL A   1      38.359  32.704  38.265  1.00  0.00    -0.206 F 
ATOM     71  C   UNL A   1      39.448  36.049  39.102  1.00  0.00     0.060 A 
BRANCH  71  72
ATOM     72  S   UNL A   1      39.250  37.269  40.418  1.00  0.00     0.124 S 
ATOM     73  O   UNL A   1      40.624  37.720  40.607  1.00  0.00    -0.237 OA
ATOM     74  O   UNL A   1      38.340  38.239  39.815  1.00  0.00    -0.237 OA
ATOM     75  O   UNL A   1      38.685  36.491  41.517  1.00  0.00    -0.744 OA
ENDBRANCH  71  72
ENDBRANCH  39  64
ENDBRANCH  13  14
ENDBRANCH   6   8
ENDBRANCH   3   4
ENDBRANCH   2   3
ENDBRANCH   1   2
BRANCH   1  76
ATOM     76  C   UNL A   1      38.187  21.027  25.661  1.00  0.00     0.002 C 
BRANCH  76  77
ATOM     77  C   UNL A   1      37.083  21.325  24.642  1.00  0.00     0.021 C 
BRANCH  77  78
ATOM     78  C   UNL A   1      36.041  22.349  25.082  1.00  0.00     0.116 C 
BRANCH  78  79
ATOM     79  N   UNL A   1      35.563  22.115  26.436  1.00  0.00    -0.352 N 
ATOM     80  C   UNL A   1      34.427  21.457  26.841  1.00  0.00     0.253 C 
ATOM     81  H   UNL A   1      36.129  22.474  27.158  1.00  0.00     0.163 HD
ATOM     82  O   UNL A   1      34.064  21.481  28.012  1.00  0.00    -0.269 OA
BRANCH  80  83
ATOM     83  C   UNL A   1      33.594  20.776  25.827  1.00  0.00     0.064 A 
ATOM     84  C   UNL A   1      34.055  19.554  25.312  1.00  0.00     0.031 A 
ATOM     85  C   UNL A   1      32.404  21.369  25.360  1.00  0.00     0.054 A 
ATOM     86  C   UNL A   1      33.398  18.977  24.235  1.00  0.00     0.018 A 
ATOM     87  C   UNL A   1      31.822  20.811  24.218  1.00  0.00     0.028 A 
ATOM     88  Br  UNL A   1      34.024  17.354  23.507  1.00  0.00    -0.051 Br
ATOM     89  C   UNL A   1      32.306  19.620  23.663  1.00  0.00     0.018 A 
BRANCH  85  90
ATOM     90  N   UNL A   1      31.883  22.499  26.034  1.00  0.00    -0.321 N 
ATOM     91  C   UNL A   1      31.987  23.861  25.826  1.00  0.00     0.265 C 
ATOM     92  H   UNL A   1      31.331  22.266  26.815  1.00  0.00     0.170 HD
ATOM     93  O   UNL A   1      31.554  24.605  26.710  1.00  0.00    -0.268 OA
BRANCH  91  94
ATOM     94  C   UNL A   1      32.523  24.373  24.582  1.00  0.00     0.093 A 
ATOM     95  C   UNL A   1      33.768  24.920  24.321  1.00  0.00     0.027 A 
ATOM     96  S   UNL A   1      31.557  24.303  23.168  1.00  0.00    -0.123 S 
ATOM     97  C   UNL A   1      33.874  25.396  22.979  1.00  0.00     0.028 A 
ATOM     98  C   UNL A   1      32.729  25.132  22.269  1.00  0.00     0.071 A 
ATOM     99  Br  UNL A   1      32.479  25.637  20.483  1.00  0.00    -0.039 Br
ENDBRANCH  91  94
ENDBRANCH  85  90
ENDBRANCH  80  83
ENDBRANCH  78  79
ENDBRANCH  77  78
ENDBRANCH  76  77
ENDBRANCH   1  76
TORSDOF 18
ENDMDL
MODEL 3
REMARK VINA RESULT:     -11.2      6.596     11.835
REMARK SMILES O=C(NCCCCCCNC(=O)c1cc(Br)ccc1NC(=O)c1ccc(Br)s1)c1ccc(-c2c3nc(c(-c4c(F)cc(S(=O)(=O)[O-])cc4F)c4ccc([nH]4)c(-c4c(F)cc(S(=O)(=O)[O-])cc4F)c4nc(c(-c5c(F)cc(S(=O)(=O)[O-])cc5F)c5ccc2[nH]5)C=C4)C=C3)cc1
REMARK SMILES IDX 6 1 5 2 4 3 3 4 1 5 2 6 29 8 30 9 94 10 31 11 93 12 32 13
REMARK SMILES IDX 33 14 34 15 87 16 35 17 92 18 86 19 88 20 36 21 91 22 85 23
REMARK SMILES IDX 84 24 37 26 71 27 50 28 70 29 51 30 54 31 69 32 89 33 52 34
REMARK SMILES IDX 53 35 68 37 90 38 55 39 38 40 39 41 48 42 40 43 41 44 47 45
REMARK SMILES IDX 49 46 42 47 43 48 44 49 45 50 46 51 72 52 73 53 82 54 74 55
REMARK SMILES IDX 75 56 81 57 83 58 76 59 77 60 78 61 79 62 80 63 56 64 57 65
REMARK SMILES IDX 66 66 58 67 59 68 65 69 67 70 60 71 61 72 62 73 63 74 64 75
REMARK SMILES IDX 7 76 8 77 9 78 10 79 11 80 12 82 13 83 14 84 19 85 15 86
REMARK SMILES IDX 18 87 16 88 17 89 20 90 21 91 22 93 23 94 24 95 28 96 25 97
REMARK SMILES IDX 26 98 27 99
REMARK H PARENT 3 7 88 25 54 36 10 81 20 92
REMARK Flexibility Score: inf
ROOT
ATOM      1  C   UNL A   1      33.317  29.315  27.460  1.00  0.00     0.002 C 
ENDROOT
BRANCH   1   2
ATOM      2  C   UNL A   1      34.124  30.613  27.426  1.00  0.00     0.021 C 
BRANCH   2   3
ATOM      3  C   UNL A   1      35.489  30.554  28.100  1.00  0.00     0.116 C 
BRANCH   3   4
ATOM      4  N   UNL A   1      35.408  30.527  29.550  1.00  0.00    -0.352 N 
ATOM      5  O   UNL A   1      36.091  30.092  31.656  1.00  0.00    -0.269 OA
ATOM      6  C   UNL A   1      36.377  30.183  30.465  1.00  0.00     0.251 C 
ATOM      7  H   UNL A   1      34.540  30.791  29.932  1.00  0.00     0.163 HD
BRANCH   6   8
ATOM      8  C   UNL A   1      37.757  29.896  30.007  1.00  0.00     0.039 A 
ATOM      9  C   UNL A   1      38.184  30.287  28.737  1.00  0.00     0.014 A 
ATOM     10  C   UNL A   1      38.637  29.225  30.863  1.00  0.00     0.014 A 
ATOM     11  C   UNL A   1      39.428  29.880  28.270  1.00  0.00     0.010 A 
ATOM     12  C   UNL A   1      39.924  28.892  30.421  1.00  0.00     0.010 A 
ATOM     13  C   UNL A   1      40.319  29.188  29.109  1.00  0.00    -0.014 A 
BRANCH  13  14
ATOM     14  C   UNL A   1      41.674  28.856  28.595  1.00  0.00     0.031 A 
ATOM     15  C   UNL A   1      42.781  29.874  28.574  1.00  0.00     0.074 A 
ATOM     16  C   UNL A   1      41.913  27.588  28.203  1.00  0.00     0.049 A 
ATOM     17  N   UNL A   1      44.035  29.715  28.233  1.00  0.00    -0.248 NA
ATOM     18  C   UNL A   1      42.442  31.246  28.979  1.00  0.00     0.031 C 
ATOM     19  C   UNL A   1      40.908  26.522  28.147  1.00  0.00     0.029 A 
ATOM     20  N   UNL A   1      43.072  26.971  27.807  1.00  0.00    -0.354 N 
ATOM     21  C   UNL A   1      44.635  30.962  28.374  1.00  0.00     0.074 A 
ATOM     22  C   UNL A   1      43.598  31.876  28.804  1.00  0.00     0.031 C 
ATOM     23  C   UNL A   1      41.503  25.373  27.797  1.00  0.00     0.029 A 
ATOM     24  C   UNL A   1      42.919  25.628  27.554  1.00  0.00     0.049 A 
ATOM     25  H   UNL A   1      43.931  27.443  27.713  1.00  0.00     0.167 HD
ATOM     26  C   UNL A   1      45.930  31.307  28.175  1.00  0.00     0.037 A 
ATOM     27  C   UNL A   1      43.814  24.701  27.167  1.00  0.00     0.037 A 
ATOM     28  C   UNL A   1      46.959  30.390  27.753  1.00  0.00     0.049 A 
ATOM     29  C   UNL A   1      45.246  25.107  26.977  1.00  0.00     0.074 A 
ATOM     30  C   UNL A   1      48.301  30.644  27.524  1.00  0.00     0.029 A 
ATOM     31  N   UNL A   1      46.764  29.039  27.501  1.00  0.00    -0.354 N 
ATOM     32  N   UNL A   1      45.793  26.289  27.131  1.00  0.00    -0.248 NA
ATOM     33  C   UNL A   1      46.183  24.056  26.562  1.00  0.00     0.031 C 
ATOM     34  C   UNL A   1      48.911  29.454  27.109  1.00  0.00     0.029 A 
ATOM     35  C   UNL A   1      47.958  28.449  27.115  1.00  0.00     0.049 A 
ATOM     36  H   UNL A   1      45.903  28.569  27.584  1.00  0.00     0.167 HD
ATOM     37  C   UNL A   1      47.138  26.125  26.827  1.00  0.00     0.074 A 
ATOM     38  C   UNL A   1      47.328  24.723  26.517  1.00  0.00     0.031 C 
ATOM     39  C   UNL A   1      48.125  27.054  26.798  1.00  0.00     0.037 A 
BRANCH  26  40
ATOM     40  C   UNL A   1      46.316  32.741  28.412  1.00  0.00     0.058 A 
ATOM     41  C   UNL A   1      46.774  33.179  29.665  1.00  0.00     0.135 A 
ATOM     42  C   UNL A   1      46.283  33.676  27.364  1.00  0.00     0.135 A 
ATOM     43  F   UNL A   1      46.812  32.331  30.704  1.00  0.00    -0.206 F 
ATOM     44  C   UNL A   1      47.171  34.496  29.875  1.00  0.00     0.059 A 
ATOM     45  C   UNL A   1      46.695  34.994  27.547  1.00  0.00     0.059 A 
ATOM     46  F   UNL A   1      45.853  33.311  26.146  1.00  0.00    -0.206 F 
ATOM     47  C   UNL A   1      47.127  35.398  28.810  1.00  0.00     0.060 A 
BRANCH  47  48
ATOM     48  S   UNL A   1      47.658  37.099  29.097  1.00  0.00     0.124 S 
ATOM     49  O   UNL A   1      49.089  37.007  28.827  1.00  0.00    -0.237 OA
ATOM     50  O   UNL A   1      46.875  37.842  28.113  1.00  0.00    -0.237 OA
ATOM     51  O   UNL A   1      47.295  37.338  30.490  1.00  0.00    -0.744 OA
ENDBRANCH  47  48
ENDBRANCH  26  40
BRANCH  27  52
ATOM     52  C   UNL A   1      43.370  23.304  26.931  1.00  0.00     0.058 A 
ATOM     53  C   UNL A   1      43.204  22.803  25.632  1.00  0.00     0.135 A 
ATOM     54  C   UNL A   1      43.132  22.434  28.005  1.00  0.00     0.135 A 
ATOM     55  F   UNL A   1      43.419  23.599  24.574  1.00  0.00    -0.206 F 
ATOM     56  C   UNL A   1      42.803  21.491  25.406  1.00  0.00     0.059 A 
ATOM     57  C   UNL A   1      42.756  21.112  27.805  1.00  0.00     0.059 A 
ATOM     58  F   UNL A   1      43.298  22.862  29.267  1.00  0.00    -0.206 F 
ATOM     59  C   UNL A   1      42.581  20.652  26.499  1.00  0.00     0.060 A 
BRANCH  59  60
ATOM     60  S   UNL A   1      42.113  18.934  26.204  1.00  0.00     0.124 S 
ATOM     61  O   UNL A   1      40.727  19.079  25.778  1.00  0.00    -0.237 OA
ATOM     62  O   UNL A   1      43.061  18.526  25.171  1.00  0.00    -0.237 OA
ATOM     63  O   UNL A   1      42.314  18.307  27.507  1.00  0.00    -0.744 OA
ENDBRANCH  59  60
ENDBRANCH  27  52
BRANCH  39  64
ATOM     64  C   UNL A   1      49.495  26.571  26.416  1.00  0.00     0.058 A 
ATOM     65  C   UNL A   1      50.330  25.936  27.348  1.00  0.00     0.135 A 
ATOM     66  C   UNL A   1      49.974  26.740  25.108  1.00  0.00     0.135 A 
ATOM     67  F   UNL A   1      49.919  25.758  28.613  1.00  0.00    -0.206 F 
ATOM     68  C   UNL A   1      51.612  25.518  27.005  1.00  0.00     0.059 A 
ATOM     69  C   UNL A   1      51.244  26.309  24.738  1.00  0.00     0.059 A 
ATOM     70  F   UNL A   1      49.208  27.334  24.178  1.00  0.00    -0.206 F 
ATOM     71  C   UNL A   1      52.062  25.716  25.699  1.00  0.00     0.060 A 
BRANCH  71  72
ATOM     72  S   UNL A   1      53.727  25.172  25.262  1.00  0.00     0.124 S 
ATOM     73  O   UNL A   1      54.528  25.831  26.288  1.00  0.00    -0.237 OA
ATOM     74  O   UNL A   1      53.625  23.720  25.372  1.00  0.00    -0.237 OA
ATOM     75  O   UNL A   1      53.902  25.680  23.904  1.00  0.00    -0.744 OA
ENDBRANCH  71  72
ENDBRANCH  39  64
ENDBRANCH  13  14
ENDBRANCH   6   8
ENDBRANCH   3   4
ENDBRANCH   2   3
ENDBRANCH   1   2
BRANCH   1  76
ATOM     76  C   UNL A   1      33.933  28.121  26.725  1.00  0.00     0.002 C 
BRANCH  76  77
ATOM     77  C   UNL A   1      33.539  27.963  25.253  1.00  0.00     0.021 C 
BRANCH  77  78
ATOM     78  C   UNL A   1      33.461  26.526  24.744  1.00  0.00     0.116 C 
BRANCH  78  79
ATOM     79  N   UNL A   1      32.859  25.621  25.712  1.00  0.00    -0.352 N 
ATOM     80  C   UNL A   1      33.189  24.315  25.984  1.00  0.00     0.253 C 
ATOM     81  H   UNL A   1      32.118  25.994  26.243  1.00  0.00     0.163 HD
ATOM     82  O   UNL A   1      32.485  23.622  26.710  1.00  0.00    -0.269 OA
BRANCH  80  83
ATOM     83  C   UNL A   1      34.373  23.724  25.326  1.00  0.00     0.064 A 
ATOM     84  C   UNL A   1      35.592  23.747  26.022  1.00  0.00     0.031 A 
ATOM     85  C   UNL A   1      34.283  23.204  24.018  1.00  0.00     0.054 A 
ATOM     86  C   UNL A   1      36.756  23.369  25.370  1.00  0.00     0.018 A 
ATOM     87  C   UNL A   1      35.485  22.920  23.364  1.00  0.00     0.028 A 
ATOM     88  Br  UNL A   1      38.409  23.428  26.279  1.00  0.00    -0.051 Br
ATOM     89  C   UNL A   1      36.712  22.991  24.033  1.00  0.00     0.018 A 
BRANCH  85  90
ATOM     90  N   UNL A   1      33.007  23.031  23.429  1.00  0.00    -0.321 N 
ATOM     91  C   UNL A   1      32.182  21.937  23.254  1.00  0.00     0.265 C 
ATOM     92  H   UNL A   1      32.629  23.865  23.068  1.00  0.00     0.170 HD
ATOM     93  O   UNL A   1      31.193  22.081  22.532  1.00  0.00    -0.268 OA
BRANCH  91  94
ATOM     94  C   UNL A   1      32.449  20.699  23.958  1.00  0.00     0.093 A 
ATOM     95  C   UNL A   1      32.585  20.473  25.317  1.00  0.00     0.027 A 
ATOM     96  S   UNL A   1      32.603  19.248  23.060  1.00  0.00    -0.123 S 
ATOM     97  C   UNL A   1      32.943  19.120  25.603  1.00  0.00     0.028 A 
ATOM     98  C   UNL A   1      32.999  18.371  24.454  1.00  0.00     0.071 A 
ATOM     99  Br  UNL A   1      33.468  16.558  24.423  1.00  0.00    -0.039 Br
ENDBRANCH  91  94
ENDBRANCH  85  90
ENDBRANCH  80  83
ENDBRANCH  78  79
ENDBRANCH  77  78
ENDBRANCH  76  77
ENDBRANCH   1  76
TORSDOF 18
ENDMDL
