MODEL 1
REMARK VINA RESULT:     -12.3      0.000      0.000
REMARK SMILES N#Cc1cccnc1N1CC[NH+]([C@@H](C(=O)NCCCCCCNC(=O)c2ccc(-c3c4nc(c(-c5c(F)cc(S(=O)(=O)[O-])cc5F)c5ccc([nH]5)c(-c5c(F)cc(S(=O)(=O)[O-])cc5F)c5nc(c(-c6c(F)cc(S(=O)(=O)[O-])cc6F)c6ccc3[nH]6)C=C5)C=C4)cc2)c2c[nH]c3cc(CO)ccc23)CC1
REMARK SMILES IDX 19 1 18 2 17 3 16 4 14 5 15 6 13 8 12 9 9 10 10 11 104 12
REMARK SMILES IDX 11 13 103 14 8 16 3 17 4 18 5 19 7 20 6 21 2 22 1 23 92 24
REMARK SMILES IDX 93 25 102 26 94 27 95 28 101 29 96 31 100 32 97 33 98 34
REMARK SMILES IDX 99 35 20 37 21 38 22 39 23 40 24 41 25 43 26 44 27 45 91 46
REMARK SMILES IDX 28 47 90 48 29 49 30 50 31 51 84 52 32 53 89 54 83 55 85 56
REMARK SMILES IDX 33 57 88 58 82 59 81 60 34 62 68 63 47 64 67 65 48 66 51 67
REMARK SMILES IDX 66 68 86 69 49 70 50 71 65 73 87 74 52 75 35 76 36 77 45 78
REMARK SMILES IDX 37 79 38 80 44 81 46 82 39 83 40 84 41 85 42 86 43 87 69 88
REMARK SMILES IDX 70 89 79 90 71 91 72 92 78 93 80 94 73 95 74 96 75 97 76 98
REMARK SMILES IDX 77 99 53 100 54 101 63 102 55 103 56 104 62 105 64 106
REMARK SMILES IDX 57 107 58 108 59 109 60 110 61 111
REMARK H PARENT 16 7 12 15 94 30 99 36 23 42 85 61 51 72
REMARK Flexibility Score: inf
ROOT
ATOM      1  C   UNL A   1      35.445  23.428  26.061  1.00  0.00     0.002 C 
ENDROOT
BRANCH   1   2
ATOM      2  C   UNL A   1      34.589  22.499  26.945  1.00  0.00     0.021 C 
BRANCH   2   3
ATOM      3  C   UNL A   1      33.288  23.095  27.553  1.00  0.00     0.116 C 
BRANCH   3   4
ATOM      4  N   UNL A   1      32.040  22.581  27.000  1.00  0.00    -0.351 N 
ATOM      5  C   UNL A   1      31.477  22.447  25.757  1.00  0.00     0.283 C 
ATOM      6  O   UNL A   1      30.404  21.835  25.788  1.00  0.00    -0.268 OA
ATOM      7  H   UNL A   1      31.444  22.240  27.705  1.00  0.00     0.163 HD
BRANCH   5   8
ATOM      8  C   UNL A   1      32.139  22.947  24.439  1.00  0.00     0.307 C 
BRANCH   8   9
ATOM      9  N   UNL A   1      31.407  24.014  23.640  1.00  0.00    -0.318 N 
ATOM     10  N   UNL A   1      31.667  26.778  24.690  1.00  0.00    -0.344 N 
ATOM     11  C   UNL A   1      30.788  25.795  25.335  1.00  0.00     0.179 C 
ATOM     12  C   UNL A   1      32.732  26.187  23.860  1.00  0.00     0.179 C 
ATOM     13  C   UNL A   1      30.319  24.784  24.279  1.00  0.00     0.284 C 
ATOM     14  C   UNL A   1      32.223  25.024  22.963  1.00  0.00     0.284 C 
ATOM     15  H   UNL A   1      31.009  23.341  22.985  1.00  0.00     0.349 HD
BRANCH  10  16
ATOM     16  C   UNL A   1      32.110  27.812  25.524  1.00  0.00     0.146 A 
ATOM     17  C   UNL A   1      31.713  29.138  25.313  1.00  0.00     0.095 A 
ATOM     18  C   UNL A   1      32.256  30.152  26.110  1.00  0.00     0.025 A 
ATOM     19  C   UNL A   1      33.175  29.827  27.100  1.00  0.00     0.022 A 
ATOM     20  N   UNL A   1      32.977  27.497  26.520  1.00  0.00    -0.238 NA
ATOM     21  C   UNL A   1      33.495  28.495  27.270  1.00  0.00     0.113 A 
BRANCH  17  22
ATOM     22  C   UNL A   1      30.749  29.481  24.305  1.00  0.00     0.103 C 
ATOM     23  N   UNL A   1      30.009  29.768  23.469  1.00  0.00    -0.192 NA
ENDBRANCH  17  22
ENDBRANCH  10  16
ENDBRANCH   8   9
BRANCH   8  24
ATOM     24  C   UNL A   1      32.573  21.835  23.441  1.00  0.00     0.044 A 
ATOM     25  C   UNL A   1      32.038  21.696  22.164  1.00  0.00     0.094 A 
ATOM     26  C   UNL A   1      33.198  20.554  23.700  1.00  0.00     0.009 A 
ATOM     27  N   UNL A   1      31.772  20.351  22.018  1.00  0.00    -0.361 N 
ATOM     28  C   UNL A   1      32.377  19.640  23.031  1.00  0.00     0.046 A 
ATOM     29  C   UNL A   1      34.124  20.031  24.621  1.00  0.00     0.011 A 
ATOM     30  H   UNL A   1      31.230  19.956  21.296  1.00  0.00     0.166 HD
ATOM     31  C   UNL A   1      32.167  18.336  23.514  1.00  0.00     0.032 A 
ATOM     32  C   UNL A   1      34.013  18.701  25.035  1.00  0.00     0.007 A 
ATOM     33  C   UNL A   1      32.940  17.913  24.611  1.00  0.00    -0.021 A 
BRANCH  33  34
ATOM     34  C   UNL A   1      32.602  16.647  25.361  1.00  0.00     0.191 C 
BRANCH  34  35
ATOM     35  O   UNL A   1      32.914  15.481  24.598  1.00  0.00    -0.392 OA
ATOM     36  H   UNL A   1      33.259  14.792  25.187  1.00  0.00     0.211 HD
ENDBRANCH  34  35
ENDBRANCH  33  34
ENDBRANCH   8  24
ENDBRANCH   5   8
ENDBRANCH   3   4
ENDBRANCH   2   3
ENDBRANCH   1   2
BRANCH   1  37
ATOM     37  C   UNL A   1      36.899  22.984  25.879  1.00  0.00     0.002 C 
BRANCH  37  38
ATOM     38  C   UNL A   1      37.963  24.054  26.142  1.00  0.00     0.021 C 
BRANCH  38  39
ATOM     39  C   UNL A   1      39.175  23.590  26.952  1.00  0.00     0.116 C 
BRANCH  39  40
ATOM     40  N   UNL A   1      40.431  23.834  26.253  1.00  0.00    -0.352 N 
ATOM     41  C   UNL A   1      41.264  24.927  26.324  1.00  0.00     0.251 C 
ATOM     42  H   UNL A   1      40.724  23.116  25.647  1.00  0.00     0.163 HD
ATOM     43  O   UNL A   1      42.173  25.061  25.511  1.00  0.00    -0.269 OA
BRANCH  41  44
ATOM     44  C   UNL A   1      41.050  25.948  27.373  1.00  0.00     0.039 A 
ATOM     45  C   UNL A   1      40.123  25.703  28.390  1.00  0.00     0.014 A 
ATOM     46  C   UNL A   1      41.764  27.150  27.347  1.00  0.00     0.014 A 
ATOM     47  C   UNL A   1      39.960  26.638  29.418  1.00  0.00     0.010 A 
ATOM     48  C   UNL A   1      41.643  28.051  28.404  1.00  0.00     0.010 A 
ATOM     49  C   UNL A   1      40.739  27.806  29.450  1.00  0.00    -0.014 A 
BRANCH  49  50
ATOM     50  C   UNL A   1      40.618  28.786  30.562  1.00  0.00     0.031 A 
ATOM     51  C   UNL A   1      41.476  28.645  31.791  1.00  0.00     0.074 A 
ATOM     52  C   UNL A   1      39.695  29.767  30.494  1.00  0.00     0.049 A 
ATOM     53  N   UNL A   1      41.465  29.350  32.893  1.00  0.00    -0.248 NA
ATOM     54  C   UNL A   1      42.463  27.551  31.788  1.00  0.00     0.031 C 
ATOM     55  C   UNL A   1      38.768  29.981  29.381  1.00  0.00     0.029 A 
ATOM     56  N   UNL A   1      39.373  30.759  31.387  1.00  0.00    -0.354 N 
ATOM     57  C   UNL A   1      42.434  28.785  33.715  1.00  0.00     0.074 A 
ATOM     58  C   UNL A   1      42.974  27.644  33.006  1.00  0.00     0.031 C 
ATOM     59  C   UNL A   1      37.987  31.039  29.655  1.00  0.00     0.029 A 
ATOM     60  C   UNL A   1      38.334  31.561  30.973  1.00  0.00     0.049 A 
ATOM     61  H   UNL A   1      39.841  30.885  32.244  1.00  0.00     0.167 HD
ATOM     62  C   UNL A   1      42.857  29.194  34.935  1.00  0.00     0.037 A 
ATOM     63  C   UNL A   1      37.722  32.591  31.591  1.00  0.00     0.037 A 
ATOM     64  C   UNL A   1      42.327  30.338  35.631  1.00  0.00     0.049 A 
ATOM     65  C   UNL A   1      38.208  33.029  32.946  1.00  0.00     0.074 A 
ATOM     66  C   UNL A   1      42.710  30.854  36.857  1.00  0.00     0.029 A 
ATOM     67  N   UNL A   1      41.304  31.147  35.161  1.00  0.00    -0.354 N 
ATOM     68  N   UNL A   1      39.162  32.515  33.685  1.00  0.00    -0.248 NA
ATOM     69  C   UNL A   1      37.544  34.193  33.549  1.00  0.00     0.031 C 
ATOM     70  C   UNL A   1      41.895  31.954  37.144  1.00  0.00     0.029 A 
ATOM     71  C   UNL A   1      41.035  32.152  36.075  1.00  0.00     0.049 A 
ATOM     72  H   UNL A   1      40.835  31.025  34.303  1.00  0.00     0.167 HD
ATOM     73  C   UNL A   1      39.229  33.306  34.827  1.00  0.00     0.074 A 
ATOM     74  C   UNL A   1      38.230  34.343  34.675  1.00  0.00     0.031 C 
ATOM     75  C   UNL A   1      40.043  33.185  35.904  1.00  0.00     0.037 A 
BRANCH  62  76
ATOM     76  C   UNL A   1      43.962  28.409  35.588  1.00  0.00     0.058 A 
ATOM     77  C   UNL A   1      45.312  28.737  35.381  1.00  0.00     0.135 A 
ATOM     78  C   UNL A   1      43.673  27.344  36.456  1.00  0.00     0.135 A 
ATOM     79  F   UNL A   1      45.645  29.736  34.548  1.00  0.00    -0.206 F 
ATOM     80  C   UNL A   1      46.337  28.021  35.989  1.00  0.00     0.059 A 
ATOM     81  C   UNL A   1      44.683  26.631  37.099  1.00  0.00     0.059 A 
ATOM     82  F   UNL A   1      42.401  26.988  36.693  1.00  0.00    -0.206 F 
ATOM     83  C   UNL A   1      46.013  26.969  36.848  1.00  0.00     0.060 A 
BRANCH  83  84
ATOM     84  S   UNL A   1      47.356  26.058  37.637  1.00  0.00     0.124 S 
ATOM     85  O   UNL A   1      47.432  26.719  38.937  1.00  0.00    -0.237 OA
ATOM     86  O   UNL A   1      46.842  24.692  37.652  1.00  0.00    -0.237 OA
ATOM     87  O   UNL A   1      48.492  26.287  36.750  1.00  0.00    -0.744 OA
ENDBRANCH  83  84
ENDBRANCH  62  76
BRANCH  63  88
ATOM     88  C   UNL A   1      36.586  33.287  30.928  1.00  0.00     0.058 A 
ATOM     89  C   UNL A   1      36.792  34.119  29.816  1.00  0.00     0.135 A 
ATOM     90  C   UNL A   1      35.270  33.134  31.393  1.00  0.00     0.135 A 
ATOM     91  F   UNL A   1      38.032  34.303  29.338  1.00  0.00    -0.206 F 
ATOM     92  C   UNL A   1      35.739  34.791  29.202  1.00  0.00     0.059 A 
ATOM     93  C   UNL A   1      34.198  33.774  30.779  1.00  0.00     0.059 A 
ATOM     94  F   UNL A   1      35.016  32.335  32.441  1.00  0.00    -0.206 F 
ATOM     95  C   UNL A   1      34.444  34.612  29.693  1.00  0.00     0.060 A 
BRANCH  95  96
ATOM     96  S   UNL A   1      33.078  35.455  28.865  1.00  0.00     0.124 S 
ATOM     97  O   UNL A   1      32.499  34.373  28.077  1.00  0.00    -0.237 OA
ATOM     98  O   UNL A   1      32.278  35.924  29.993  1.00  0.00    -0.237 OA
ATOM     99  O   UNL A   1      33.747  36.505  28.102  1.00  0.00    -0.744 OA
ENDBRANCH  95  96
ENDBRANCH  63  88
BRANCH  75 100
ATOM    100  C   UNL A   1      39.914  34.215  36.991  1.00  0.00     0.058 A 
ATOM    101  C   UNL A   1      40.556  35.461  36.908  1.00  0.00     0.135 A 
ATOM    102  C   UNL A   1      39.094  33.973  38.105  1.00  0.00     0.135 A 
ATOM    103  F   UNL A   1      41.355  35.740  35.867  1.00  0.00    -0.206 F 
ATOM    104  C   UNL A   1      40.407  36.422  37.903  1.00  0.00     0.059 A 
ATOM    105  C   UNL A   1      38.909  34.929  39.098  1.00  0.00     0.059 A 
ATOM    106  F   UNL A   1      38.449  32.801  38.228  1.00  0.00    -0.206 F 
ATOM    107  C   UNL A   1      39.579  36.148  38.994  1.00  0.00     0.060 A 
BRANCH 107 108
ATOM    108  S   UNL A   1      39.366  37.416  40.260  1.00  0.00     0.124 S 
ATOM    109  O   UNL A   1      38.733  36.657  41.333  1.00  0.00    -0.237 OA
ATOM    110  O   UNL A   1      40.740  37.842  40.510  1.00  0.00    -0.237 OA
ATOM    111  O   UNL A   1      38.518  38.409  39.608  1.00  0.00    -0.744 OA
ENDBRANCH 107 108
ENDBRANCH  75 100
ENDBRANCH  49  50
ENDBRANCH  41  44
ENDBRANCH  39  40
ENDBRANCH  38  39
ENDBRANCH  37  38
ENDBRANCH   1  37
TORSDOF 22
ENDMDL
MODEL 2
REMARK VINA RESULT:     -12.3      6.121     11.885
REMARK SMILES N#Cc1cccnc1N1CC[NH+]([C@@H](C(=O)NCCCCCCNC(=O)c2ccc(-c3c4nc(c(-c5c(F)cc(S(=O)(=O)[O-])cc5F)c5ccc([nH]5)c(-c5c(F)cc(S(=O)(=O)[O-])cc5F)c5nc(c(-c6c(F)cc(S(=O)(=O)[O-])cc6F)c6ccc3[nH]6)C=C5)C=C4)cc2)c2c[nH]c3cc(CO)ccc23)CC1
REMARK SMILES IDX 19 1 18 2 17 3 16 4 14 5 15 6 13 8 12 9 9 10 10 11 104 12
REMARK SMILES IDX 11 13 103 14 8 16 3 17 4 18 5 19 7 20 6 21 2 22 1 23 92 24
REMARK SMILES IDX 93 25 102 26 94 27 95 28 101 29 96 31 100 32 97 33 98 34
REMARK SMILES IDX 99 35 20 37 21 38 22 39 23 40 24 41 25 43 26 44 27 45 91 46
REMARK SMILES IDX 28 47 90 48 29 49 30 50 31 51 84 52 32 53 89 54 83 55 85 56
REMARK SMILES IDX 33 57 88 58 82 59 81 60 34 62 68 63 47 64 67 65 48 66 51 67
REMARK SMILES IDX 66 68 86 69 49 70 50 71 65 73 87 74 52 75 35 76 36 77 45 78
REMARK SMILES IDX 37 79 38 80 44 81 46 82 39 83 40 84 41 85 42 86 43 87 69 88
REMARK SMILES IDX 70 89 79 90 71 91 72 92 78 93 80 94 73 95 74 96 75 97 76 98
REMARK SMILES IDX 77 99 53 100 54 101 63 102 55 103 56 104 62 105 64 106
REMARK SMILES IDX 57 107 58 108 59 109 60 110 61 111
REMARK H PARENT 16 7 12 15 94 30 99 36 23 42 85 61 51 72
REMARK Flexibility Score: inf
ROOT
ATOM      1  C   UNL A   1      33.213  30.072  26.439  1.00  0.00     0.002 C 
ENDROOT
BRANCH   1   2
ATOM      2  C   UNL A   1      31.968  29.662  27.251  1.00  0.00     0.021 C 
BRANCH   2   3
ATOM      3  C   UNL A   1      31.725  28.141  27.464  1.00  0.00     0.116 C 
BRANCH   3   4
ATOM      4  N   UNL A   1      32.516  27.252  26.621  1.00  0.00    -0.351 N 
ATOM      5  C   UNL A   1      32.284  26.389  25.581  1.00  0.00     0.283 C 
ATOM      6  O   UNL A   1      33.328  25.922  25.111  1.00  0.00    -0.268 OA
ATOM      7  H   UNL A   1      33.470  27.278  26.862  1.00  0.00     0.163 HD
BRANCH   5   8
ATOM      8  C   UNL A   1      30.872  26.075  25.005  1.00  0.00     0.307 C 
BRANCH   8   9
ATOM      9  N   UNL A   1      30.391  24.634  25.054  1.00  0.00    -0.318 N 
ATOM     10  N   UNL A   1      32.534  22.583  24.941  1.00  0.00    -0.344 N 
ATOM     11  C   UNL A   1      32.117  23.319  23.742  1.00  0.00     0.179 C 
ATOM     12  C   UNL A   1      32.204  23.254  26.211  1.00  0.00     0.179 C 
ATOM     13  C   UNL A   1      30.649  23.740  23.905  1.00  0.00     0.284 C 
ATOM     14  C   UNL A   1      30.764  23.841  26.228  1.00  0.00     0.284 C 
ATOM     15  H   UNL A   1      29.405  24.896  25.067  1.00  0.00     0.349 HD
BRANCH  10  16
ATOM     16  C   UNL A   1      33.836  22.069  24.898  1.00  0.00     0.146 A 
ATOM     17  C   UNL A   1      34.077  20.691  24.953  1.00  0.00     0.095 A 
ATOM     18  C   UNL A   1      35.395  20.226  25.004  1.00  0.00     0.025 A 
ATOM     19  C   UNL A   1      36.443  21.137  24.993  1.00  0.00     0.022 A 
ATOM     20  N   UNL A   1      34.866  22.952  24.845  1.00  0.00    -0.238 NA
ATOM     21  C   UNL A   1      36.130  22.479  24.906  1.00  0.00     0.113 A 
BRANCH  17  22
ATOM     22  C   UNL A   1      33.000  19.740  24.946  1.00  0.00     0.103 C 
ATOM     23  N   UNL A   1      32.153  18.959  24.975  1.00  0.00    -0.192 NA
ENDBRANCH  17  22
ENDBRANCH  10  16
ENDBRANCH   8   9
BRANCH   8  24
ATOM     24  C   UNL A   1      30.599  26.607  23.567  1.00  0.00     0.044 A 
ATOM     25  C   UNL A   1      31.571  26.674  22.575  1.00  0.00     0.094 A 
ATOM     26  C   UNL A   1      29.552  27.487  23.092  1.00  0.00     0.009 A 
ATOM     27  N   UNL A   1      31.429  27.920  22.001  1.00  0.00    -0.361 N 
ATOM     28  C   UNL A   1      30.244  28.492  22.409  1.00  0.00     0.046 A 
ATOM     29  C   UNL A   1      28.198  27.730  23.394  1.00  0.00     0.011 A 
ATOM     30  H   UNL A   1      32.078  28.339  21.390  1.00  0.00     0.166 HD
ATOM     31  C   UNL A   1      29.786  29.821  22.376  1.00  0.00     0.032 A 
ATOM     32  C   UNL A   1      27.681  29.022  23.262  1.00  0.00     0.007 A 
ATOM     33  C   UNL A   1      28.516  30.089  22.918  1.00  0.00    -0.021 A 
BRANCH  33  34
ATOM     34  C   UNL A   1      28.059  31.505  23.172  1.00  0.00     0.191 C 
BRANCH  34  35
ATOM     35  O   UNL A   1      29.141  32.344  23.578  1.00  0.00    -0.392 OA
ATOM     36  H   UNL A   1      28.847  33.268  23.588  1.00  0.00     0.211 HD
ENDBRANCH  34  35
ENDBRANCH  33  34
ENDBRANCH   8  24
ENDBRANCH   5   8
ENDBRANCH   3   4
ENDBRANCH   2   3
ENDBRANCH   1   2
BRANCH   1  37
ATOM     37  C   UNL A   1      34.465  30.351  27.276  1.00  0.00     0.002 C 
BRANCH  37  38
ATOM     38  C   UNL A   1      34.557  31.746  27.899  1.00  0.00     0.021 C 
BRANCH  38  39
ATOM     39  C   UNL A   1      35.764  31.982  28.808  1.00  0.00     0.116 C 
BRANCH  39  40
ATOM     40  N   UNL A   1      35.559  31.444  30.147  1.00  0.00    -0.352 N 
ATOM     41  C   UNL A   1      36.365  30.600  30.876  1.00  0.00     0.251 C 
ATOM     42  H   UNL A   1      34.727  31.726  30.594  1.00  0.00     0.163 HD
ATOM     43  O   UNL A   1      35.942  30.079  31.902  1.00  0.00    -0.269 OA
BRANCH  41  44
ATOM     44  C   UNL A   1      37.738  30.309  30.408  1.00  0.00     0.039 A 
ATOM     45  C   UNL A   1      38.770  30.187  31.342  1.00  0.00     0.014 A 
ATOM     46  C   UNL A   1      38.005  30.162  29.043  1.00  0.00     0.014 A 
ATOM     47  C   UNL A   1      40.058  29.854  30.912  1.00  0.00     0.010 A 
ATOM     48  C   UNL A   1      39.275  29.771  28.624  1.00  0.00     0.010 A 
ATOM     49  C   UNL A   1      40.316  29.613  29.553  1.00  0.00    -0.014 A 
BRANCH  49  50
ATOM     50  C   UNL A   1      41.667  29.205  29.081  1.00  0.00     0.031 A 
ATOM     51  C   UNL A   1      42.768  30.226  28.969  1.00  0.00     0.074 A 
ATOM     52  C   UNL A   1      41.887  27.932  28.696  1.00  0.00     0.049 A 
ATOM     53  N   UNL A   1      43.984  30.083  28.509  1.00  0.00    -0.248 NA
ATOM     54  C   UNL A   1      42.450  31.594  29.413  1.00  0.00     0.031 C 
ATOM     55  C   UNL A   1      40.889  26.860  28.708  1.00  0.00     0.029 A 
ATOM     56  N   UNL A   1      43.017  27.326  28.204  1.00  0.00    -0.354 N 
ATOM     57  C   UNL A   1      44.575  31.338  28.603  1.00  0.00     0.074 A 
ATOM     58  C   UNL A   1      43.565  32.243  29.110  1.00  0.00     0.031 C 
ATOM     59  C   UNL A   1      41.452  25.729  28.250  1.00  0.00     0.029 A 
ATOM     60  C   UNL A   1      42.839  25.999  27.884  1.00  0.00     0.049 A 
ATOM     61  H   UNL A   1      43.874  27.797  28.090  1.00  0.00     0.167 HD
ATOM     62  C   UNL A   1      45.849  31.700  28.320  1.00  0.00     0.037 A 
ATOM     63  C   UNL A   1      43.693  25.106  27.345  1.00  0.00     0.037 A 
ATOM     64  C   UNL A   1      46.856  30.795  27.830  1.00  0.00     0.049 A 
ATOM     65  C   UNL A   1      45.104  25.530  27.039  1.00  0.00     0.074 A 
ATOM     66  C   UNL A   1      48.185  31.057  27.543  1.00  0.00     0.029 A 
ATOM     67  N   UNL A   1      46.647  29.451  27.556  1.00  0.00    -0.354 N 
ATOM     68  N   UNL A   1      45.660  26.709  27.184  1.00  0.00    -0.248 NA
ATOM     69  C   UNL A   1      46.009  24.502  26.507  1.00  0.00     0.031 C 
ATOM     70  C   UNL A   1      48.771  29.881  27.064  1.00  0.00     0.029 A 
ATOM     71  C   UNL A   1      47.819  28.873  27.096  1.00  0.00     0.049 A 
ATOM     72  H   UNL A   1      45.792  28.978  27.672  1.00  0.00     0.167 HD
ATOM     73  C   UNL A   1      46.983  26.559  26.784  1.00  0.00     0.074 A 
ATOM     74  C   UNL A   1      47.150  25.171  26.406  1.00  0.00     0.031 C 
ATOM     75  C   UNL A   1      47.972  27.486  26.734  1.00  0.00     0.037 A 
BRANCH  62  76
ATOM     76  C   UNL A   1      46.233  33.136  28.554  1.00  0.00     0.058 A 
ATOM     77  C   UNL A   1      46.792  33.554  29.773  1.00  0.00     0.135 A 
ATOM     78  C   UNL A   1      46.077  34.098  27.543  1.00  0.00     0.135 A 
ATOM     79  F   UNL A   1      46.949  32.680  30.779  1.00  0.00    -0.206 F 
ATOM     80  C   UNL A   1      47.157  34.878  29.991  1.00  0.00     0.059 A 
ATOM     81  C   UNL A   1      46.462  35.424  27.730  1.00  0.00     0.059 A 
ATOM     82  F   UNL A   1      45.550  33.754  26.357  1.00  0.00    -0.206 F 
ATOM     83  C   UNL A   1      46.988  35.806  28.963  1.00  0.00     0.060 A 
BRANCH  83  84
ATOM     84  S   UNL A   1      47.478  37.518  29.260  1.00  0.00     0.124 S 
ATOM     85  O   UNL A   1      46.683  38.227  28.262  1.00  0.00    -0.237 OA
ATOM     86  O   UNL A   1      47.077  37.722  30.649  1.00  0.00    -0.237 OA
ATOM     87  O   UNL A   1      48.918  37.507  29.023  1.00  0.00    -0.744 OA
ENDBRANCH  83  84
ENDBRANCH  62  76
BRANCH  63  88
ATOM     88  C   UNL A   1      43.238  23.717  27.069  1.00  0.00     0.058 A 
ATOM     89  C   UNL A   1      43.099  22.778  28.103  1.00  0.00     0.135 A 
ATOM     90  C   UNL A   1      42.933  23.299  25.763  1.00  0.00     0.135 A 
ATOM     91  F   UNL A   1      43.385  23.126  29.367  1.00  0.00    -0.206 F 
ATOM     92  C   UNL A   1      42.695  21.470  27.852  1.00  0.00     0.059 A 
ATOM     93  C   UNL A   1      42.502  22.004  25.492  1.00  0.00     0.059 A 
ATOM     94  F   UNL A   1      43.031  24.162  24.741  1.00  0.00    -0.206 F 
ATOM     95  C   UNL A   1      42.399  21.093  26.541  1.00  0.00     0.060 A 
BRANCH  95  96
ATOM     96  S   UNL A   1      41.836  19.405  26.229  1.00  0.00     0.124 S 
ATOM     97  O   UNL A   1      42.279  18.720  27.437  1.00  0.00    -0.237 OA
ATOM     98  O   UNL A   1      40.394  19.582  26.087  1.00  0.00    -0.237 OA
ATOM     99  O   UNL A   1      42.538  19.040  25.001  1.00  0.00    -0.744 OA
ENDBRANCH  95  96
ENDBRANCH  63  88
BRANCH  75 100
ATOM    100  C   UNL A   1      49.331  27.027  26.285  1.00  0.00     0.058 A 
ATOM    101  C   UNL A   1      50.232  26.413  27.168  1.00  0.00     0.135 A 
ATOM    102  C   UNL A   1      49.716  27.157  24.941  1.00  0.00     0.135 A 
ATOM    103  F   UNL A   1      49.915  26.270  28.465  1.00  0.00    -0.206 F 
ATOM    104  C   UNL A   1      51.476  25.963  26.739  1.00  0.00     0.059 A 
ATOM    105  C   UNL A   1      50.944  26.690  24.484  1.00  0.00     0.059 A 
ATOM    106  F   UNL A   1      48.886  27.729  24.052  1.00  0.00    -0.206 F 
ATOM    107  C   UNL A   1      51.823  26.104  25.394  1.00  0.00     0.060 A 
BRANCH 107 108
ATOM    108  S   UNL A   1      53.426  25.484  24.842  1.00  0.00     0.124 S 
ATOM    109  O   UNL A   1      54.343  26.375  25.544  1.00  0.00    -0.237 OA
ATOM    110  O   UNL A   1      53.403  24.101  25.309  1.00  0.00    -0.237 OA
ATOM    111  O   UNL A   1      53.374  25.650  23.393  1.00  0.00    -0.744 OA
ENDBRANCH 107 108
ENDBRANCH  75 100
ENDBRANCH  49  50
ENDBRANCH  41  44
ENDBRANCH  39  40
ENDBRANCH  38  39
ENDBRANCH  37  38
ENDBRANCH   1  37
TORSDOF 22
ENDMDL
MODEL 3
REMARK VINA RESULT:     -11.9      1.183      2.209
REMARK SMILES N#Cc1cccnc1N1CC[NH+]([C@@H](C(=O)NCCCCCCNC(=O)c2ccc(-c3c4nc(c(-c5c(F)cc(S(=O)(=O)[O-])cc5F)c5ccc([nH]5)c(-c5c(F)cc(S(=O)(=O)[O-])cc5F)c5nc(c(-c6c(F)cc(S(=O)(=O)[O-])cc6F)c6ccc3[nH]6)C=C5)C=C4)cc2)c2c[nH]c3cc(CO)ccc23)CC1
REMARK SMILES IDX 19 1 18 2 17 3 16 4 14 5 15 6 13 8 12 9 9 10 10 11 104 12
REMARK SMILES IDX 11 13 103 14 8 16 3 17 4 18 5 19 7 20 6 21 2 22 1 23 92 24
REMARK SMILES IDX 93 25 102 26 94 27 95 28 101 29 96 31 100 32 97 33 98 34
REMARK SMILES IDX 99 35 20 37 21 38 22 39 23 40 24 41 25 43 26 44 27 45 91 46
REMARK SMILES IDX 28 47 90 48 29 49 30 50 31 51 84 52 32 53 89 54 83 55 85 56
REMARK SMILES IDX 33 57 88 58 82 59 81 60 34 62 68 63 47 64 67 65 48 66 51 67
REMARK SMILES IDX 66 68 86 69 49 70 50 71 65 73 87 74 52 75 35 76 36 77 45 78
REMARK SMILES IDX 37 79 38 80 44 81 46 82 39 83 40 84 41 85 42 86 43 87 69 88
REMARK SMILES IDX 70 89 79 90 71 91 72 92 78 93 80 94 73 95 74 96 75 97 76 98
REMARK SMILES IDX 77 99 53 100 54 101 63 102 55 103 56 104 62 105 64 106
REMARK SMILES IDX 57 107 58 108 59 109 60 110 61 111
REMARK H PARENT 16 7 12 15 94 30 99 36 23 42 85 61 51 72
REMARK Flexibility Score: inf
ROOT
ATOM      1  C   UNL A   1      37.360  23.862  26.351  1.00  0.00     0.002 C 
ENDROOT
BRANCH   1   2
ATOM      2  C   UNL A   1      36.073  23.045  26.122  1.00  0.00     0.021 C 
BRANCH   2   3
ATOM      3  C   UNL A   1      36.048  22.081  24.903  1.00  0.00     0.116 C 
BRANCH   3   4
ATOM      4  N   UNL A   1      35.444  22.615  23.688  1.00  0.00    -0.351 N 
ATOM      5  C   UNL A   1      34.279  23.253  23.346  1.00  0.00     0.283 C 
ATOM      6  O   UNL A   1      34.267  23.614  22.164  1.00  0.00    -0.268 OA
ATOM      7  H   UNL A   1      36.026  22.483  22.905  1.00  0.00     0.163 HD
BRANCH   5   8
ATOM      8  C   UNL A   1      33.122  23.554  24.344  1.00  0.00     0.307 C 
BRANCH   8   9
ATOM      9  N   UNL A   1      33.342  24.653  25.372  1.00  0.00    -0.318 N 
ATOM     10  N   UNL A   1      31.992  27.229  24.775  1.00  0.00    -0.344 N 
ATOM     11  C   UNL A   1      33.206  26.818  24.059  1.00  0.00     0.179 C 
ATOM     12  C   UNL A   1      31.248  26.117  25.396  1.00  0.00     0.179 C 
ATOM     13  C   UNL A   1      34.030  25.898  24.971  1.00  0.00     0.284 C 
ATOM     14  C   UNL A   1      32.174  25.107  26.131  1.00  0.00     0.284 C 
ATOM     15  H   UNL A   1      33.970  24.084  25.940  1.00  0.00     0.349 HD
BRANCH  10  16
ATOM     16  C   UNL A   1      31.178  28.136  24.088  1.00  0.00     0.146 A 
ATOM     17  C   UNL A   1      31.018  29.454  24.535  1.00  0.00     0.095 A 
ATOM     18  C   UNL A   1      30.121  30.299  23.873  1.00  0.00     0.025 A 
ATOM     19  C   UNL A   1      29.407  29.820  22.782  1.00  0.00     0.022 A 
ATOM     20  N   UNL A   1      30.508  27.689  22.995  1.00  0.00    -0.238 NA
ATOM     21  C   UNL A   1      29.639  28.520  22.379  1.00  0.00     0.113 A 
BRANCH  17  22
ATOM     22  C   UNL A   1      31.766  29.963  25.651  1.00  0.00     0.103 C 
ATOM     23  N   UNL A   1      32.344  30.344  26.572  1.00  0.00    -0.192 NA
ENDBRANCH  17  22
ENDBRANCH  10  16
ENDBRANCH   8   9
BRANCH   8  24
ATOM     24  C   UNL A   1      32.546  22.320  25.099  1.00  0.00     0.044 A 
ATOM     25  C   UNL A   1      32.511  22.215  26.485  1.00  0.00     0.094 A 
ATOM     26  C   UNL A   1      32.366  20.959  24.639  1.00  0.00     0.009 A 
ATOM     27  N   UNL A   1      32.961  20.943  26.772  1.00  0.00    -0.361 N 
ATOM     28  C   UNL A   1      32.998  20.189  25.621  1.00  0.00     0.046 A 
ATOM     29  C   UNL A   1      32.042  20.318  23.428  1.00  0.00     0.011 A 
ATOM     30  H   UNL A   1      33.217  20.623  27.667  1.00  0.00     0.166 HD
ATOM     31  C   UNL A   1      33.654  18.983  25.313  1.00  0.00     0.032 A 
ATOM     32  C   UNL A   1      32.588  19.063  23.142  1.00  0.00     0.007 A 
ATOM     33  C   UNL A   1      33.519  18.480  24.006  1.00  0.00    -0.021 A 
BRANCH  33  34
ATOM     34  C   UNL A   1      34.394  17.355  23.509  1.00  0.00     0.191 C 
BRANCH  34  35
ATOM     35  O   UNL A   1      33.650  16.148  23.328  1.00  0.00    -0.392 OA
ATOM     36  H   UNL A   1      33.780  15.821  22.425  1.00  0.00     0.211 HD
ENDBRANCH  34  35
ENDBRANCH  33  34
ENDBRANCH   8  24
ENDBRANCH   5   8
ENDBRANCH   3   4
ENDBRANCH   2   3
ENDBRANCH   1   2
BRANCH   1  37
ATOM     37  C   UNL A   1      38.622  23.265  25.724  1.00  0.00     0.002 C 
BRANCH  37  38
ATOM     38  C   UNL A   1      39.519  22.455  26.665  1.00  0.00     0.021 C 
BRANCH  38  39
ATOM     39  C   UNL A   1      40.750  23.192  27.194  1.00  0.00     0.116 C 
BRANCH  39  40
ATOM     40  N   UNL A   1      41.509  23.833  26.128  1.00  0.00    -0.352 N 
ATOM     41  C   UNL A   1      41.802  25.166  25.953  1.00  0.00     0.251 C 
ATOM     42  H   UNL A   1      41.863  23.228  25.436  1.00  0.00     0.163 HD
ATOM     43  O   UNL A   1      42.272  25.559  24.890  1.00  0.00    -0.269 OA
BRANCH  41  44
ATOM     44  C   UNL A   1      41.533  26.128  27.046  1.00  0.00     0.039 A 
ATOM     45  C   UNL A   1      40.491  25.874  27.942  1.00  0.00     0.014 A 
ATOM     46  C   UNL A   1      42.310  27.283  27.179  1.00  0.00     0.014 A 
ATOM     47  C   UNL A   1      40.269  26.747  29.011  1.00  0.00     0.010 A 
ATOM     48  C   UNL A   1      42.125  28.117  28.280  1.00  0.00     0.010 A 
ATOM     49  C   UNL A   1      41.103  27.860  29.208  1.00  0.00    -0.014 A 
BRANCH  49  50
ATOM     50  C   UNL A   1      40.917  28.771  30.369  1.00  0.00     0.031 A 
ATOM     51  C   UNL A   1      41.761  28.602  31.604  1.00  0.00     0.074 A 
ATOM     52  C   UNL A   1      39.950  29.709  30.337  1.00  0.00     0.049 A 
ATOM     53  N   UNL A   1      41.698  29.243  32.743  1.00  0.00    -0.248 NA
ATOM     54  C   UNL A   1      42.799  27.558  31.560  1.00  0.00     0.031 C 
ATOM     55  C   UNL A   1      39.032  29.941  29.220  1.00  0.00     0.029 A 
ATOM     56  N   UNL A   1      39.566  30.634  31.277  1.00  0.00    -0.354 N 
ATOM     57  C   UNL A   1      42.680  28.680  33.550  1.00  0.00     0.074 A 
ATOM     58  C   UNL A   1      43.285  27.606  32.791  1.00  0.00     0.031 C 
ATOM     59  C   UNL A   1      38.196  30.944  29.537  1.00  0.00     0.029 A 
ATOM     60  C   UNL A   1      38.497  31.408  30.888  1.00  0.00     0.049 A 
ATOM     61  H   UNL A   1      40.014  30.734  32.148  1.00  0.00     0.167 HD
ATOM     62  C   UNL A   1      43.063  29.040  34.798  1.00  0.00     0.037 A 
ATOM     63  C   UNL A   1      37.827  32.373  31.549  1.00  0.00     0.037 A 
ATOM     64  C   UNL A   1      42.468  30.118  35.546  1.00  0.00     0.049 A 
ATOM     65  C   UNL A   1      38.269  32.758  32.935  1.00  0.00     0.074 A 
ATOM     66  C   UNL A   1      42.806  30.582  36.805  1.00  0.00     0.029 A 
ATOM     67  N   UNL A   1      41.415  30.903  35.102  1.00  0.00    -0.354 N 
ATOM     68  N   UNL A   1      39.235  32.248  33.663  1.00  0.00    -0.248 NA
ATOM     69  C   UNL A   1      37.541  33.854  33.588  1.00  0.00     0.031 C 
ATOM     70  C   UNL A   1      41.935  31.626  37.137  1.00  0.00     0.029 A 
ATOM     71  C   UNL A   1      41.084  31.842  36.064  1.00  0.00     0.049 A 
ATOM     72  H   UNL A   1      40.967  30.806  34.230  1.00  0.00     0.167 HD
ATOM     73  C   UNL A   1      39.245  32.977  34.847  1.00  0.00     0.074 A 
ATOM     74  C   UNL A   1      38.200  33.973  34.733  1.00  0.00     0.031 C 
ATOM     75  C   UNL A   1      40.047  32.835  35.931  1.00  0.00     0.037 A 
BRANCH  62  76
ATOM     76  C   UNL A   1      44.193  28.273  35.429  1.00  0.00     0.058 A 
ATOM     77  C   UNL A   1      43.955  27.117  36.190  1.00  0.00     0.135 A 
ATOM     78  C   UNL A   1      45.527  28.670  35.242  1.00  0.00     0.135 A 
ATOM     79  F   UNL A   1      42.699  26.701  36.414  1.00  0.00    -0.206 F 
ATOM     80  C   UNL A   1      44.997  26.398  36.767  1.00  0.00     0.059 A 
ATOM     81  C   UNL A   1      46.587  27.949  35.787  1.00  0.00     0.059 A 
ATOM     82  F   UNL A   1      45.813  29.766  34.521  1.00  0.00    -0.206 F 
ATOM     83  C   UNL A   1      46.310  26.821  36.560  1.00  0.00     0.060 A 
BRANCH  83  84
ATOM     84  S   UNL A   1      47.649  25.869  37.306  1.00  0.00     0.124 S 
ATOM     85  O   UNL A   1      48.034  26.732  38.420  1.00  0.00    -0.237 OA
ATOM     86  O   UNL A   1      46.982  24.624  37.673  1.00  0.00    -0.237 OA
ATOM     87  O   UNL A   1      48.630  25.758  36.231  1.00  0.00    -0.744 OA
ENDBRANCH  83  84
ENDBRANCH  62  76
BRANCH  63  88
ATOM     88  C   UNL A   1      36.670  33.051  30.904  1.00  0.00     0.058 A 
ATOM     89  C   UNL A   1      35.354  32.802  31.325  1.00  0.00     0.135 A 
ATOM     90  C   UNL A   1      36.856  33.962  29.852  1.00  0.00     0.135 A 
ATOM     91  F   UNL A   1      35.123  31.934  32.322  1.00  0.00    -0.206 F 
ATOM     92  C   UNL A   1      34.264  33.415  30.715  1.00  0.00     0.059 A 
ATOM     93  C   UNL A   1      35.784  34.607  29.244  1.00  0.00     0.059 A 
ATOM     94  F   UNL A   1      38.095  34.250  29.423  1.00  0.00    -0.206 F 
ATOM     95  C   UNL A   1      34.490  34.316  29.673  1.00  0.00     0.060 A 
BRANCH  95  96
ATOM     96  S   UNL A   1      33.073  35.138  28.913  1.00  0.00     0.124 S 
ATOM     97  O   UNL A   1      32.651  34.146  27.930  1.00  0.00    -0.237 OA
ATOM     98  O   UNL A   1      32.180  35.329  30.052  1.00  0.00    -0.237 OA
ATOM     99  O   UNL A   1      33.649  36.363  28.367  1.00  0.00    -0.744 OA
ENDBRANCH  95  96
ENDBRANCH  63  88
BRANCH  75 100
ATOM    100  C   UNL A   1      39.851  33.797  37.070  1.00  0.00     0.058 A 
ATOM    101  C   UNL A   1      40.466  35.058  37.086  1.00  0.00     0.135 A 
ATOM    102  C   UNL A   1      38.993  33.472  38.133  1.00  0.00     0.135 A 
ATOM    103  F   UNL A   1      41.300  35.414  36.096  1.00  0.00    -0.206 F 
ATOM    104  C   UNL A   1      40.256  35.955  38.128  1.00  0.00     0.059 A 
ATOM    105  C   UNL A   1      38.747  34.364  39.172  1.00  0.00     0.059 A 
ATOM    106  F   UNL A   1      38.370  32.282  38.161  1.00  0.00    -0.206 F 
ATOM    107  C   UNL A   1      39.392  35.600  39.166  1.00  0.00     0.060 A 
BRANCH 107 108
ATOM    108  S   UNL A   1      39.100  36.787  40.495  1.00  0.00     0.124 S 
ATOM    109  O   UNL A   1      38.149  36.062  41.332  1.00  0.00    -0.237 OA
ATOM    110  O   UNL A   1      40.436  36.961  41.057  1.00  0.00    -0.237 OA
ATOM    111  O   UNL A   1      38.564  37.952  39.798  1.00  0.00    -0.744 OA
ENDBRANCH 107 108
ENDBRANCH  75 100
ENDBRANCH  49  50
ENDBRANCH  41  44
ENDBRANCH  39  40
ENDBRANCH  38  39
ENDBRANCH  37  38
ENDBRANCH   1  37
TORSDOF 22
ENDMDL
