MODEL 1
REMARK VINA RESULT:     -11.6      0.000      0.000
REMARK SMILES O=C(CS[C@H](C(=O)Nc1ccc(C(F)(F)F)cc1)c1ccccc1)NCCCCCCNC(=O)c1ccc(-c2c3nc(c(-c4c(F)cc(S(=O)(=O)[O-])cc4F)c4ccc([nH]4)c(-c4c(F)cc(S(=O)(=O)[O-])cc4F)c4nc(c(-c5c(F)cc(S(=O)(=O)[O-])cc5F)c5ccc2[nH]5)C=C4)C=C3)cc1
REMARK SMILES IDX 27 1 26 2 25 3 1 4 2 5 3 7 4 8 5 9 19 10 20 11 24 12 21 13
REMARK SMILES IDX 23 14 22 15 6 16 7 17 8 18 9 20 10 21 18 22 11 23 17 24
REMARK SMILES IDX 12 25 13 26 14 27 15 28 16 29 28 30 29 31 30 32 31 33 32 34
REMARK SMILES IDX 33 35 34 37 35 38 36 39 100 40 37 41 99 42 38 43 39 44 40 45
REMARK SMILES IDX 93 46 41 47 98 48 92 49 94 50 42 51 97 52 91 53 90 54 43 56
REMARK SMILES IDX 77 57 56 58 76 59 57 60 60 61 75 62 95 63 58 64 59 65 74 67
REMARK SMILES IDX 96 68 61 69 44 70 45 71 54 72 46 73 47 74 53 75 55 76 48 77
REMARK SMILES IDX 49 78 50 79 51 80 52 81 78 82 79 83 88 84 80 85 81 86 87 87
REMARK SMILES IDX 89 88 82 89 83 90 84 91 85 92 86 93 62 94 63 95 72 96 64 97
REMARK SMILES IDX 65 98 71 99 73 100 66 101 67 102 68 103 69 104 70 105
REMARK H PARENT 25 6 8 19 32 36 94 55 60 66
REMARK Flexibility Score: inf
ROOT
ATOM      1  C   UNL A   1      30.988  26.891  24.724  1.00  0.00     0.021 C 
ENDROOT
BRANCH   1   2
ATOM      2  C   UNL A   1      31.063  26.273  26.123  1.00  0.00     0.116 C 
BRANCH   2   3
ATOM      3  N   UNL A   1      32.033  25.201  26.286  1.00  0.00    -0.355 N 
ATOM      4  O   UNL A   1      30.509  23.781  27.243  1.00  0.00    -0.274 OA
ATOM      5  C   UNL A   1      31.641  23.974  26.803  1.00  0.00     0.230 C 
ATOM      6  H   UNL A   1      32.972  25.344  26.028  1.00  0.00     0.163 HD
BRANCH   5   7
ATOM      7  C   UNL A   1      32.689  22.878  26.749  1.00  0.00     0.170 C 
BRANCH   7   8
ATOM      8  S   UNL A   1      32.247  21.476  25.644  1.00  0.00    -0.134 SA
BRANCH   8   9
ATOM      9  C   UNL A   1      33.810  20.457  25.416  1.00  0.00     0.166 C 
BRANCH   9  10
ATOM     10  C   UNL A   1      33.587  19.256  24.495  1.00  0.00    -0.026 A 
ATOM     11  C   UNL A   1      34.455  18.147  24.540  1.00  0.00     0.005 A 
ATOM     12  C   UNL A   1      32.543  19.186  23.564  1.00  0.00     0.005 A 
ATOM     13  C   UNL A   1      34.343  17.094  23.618  1.00  0.00     0.000 A 
ATOM     14  C   UNL A   1      32.425  18.142  22.642  1.00  0.00     0.000 A 
ATOM     15  C   UNL A   1      33.342  17.105  22.651  1.00  0.00     0.000 A 
ENDBRANCH   9  10
BRANCH   9  16
ATOM     16  C   UNL A   1      35.111  21.327  25.367  1.00  0.00     0.242 C 
ATOM     17  O   UNL A   1      36.073  21.114  26.119  1.00  0.00    -0.273 OA
ATOM     18  N   UNL A   1      35.424  22.160  24.320  1.00  0.00    -0.325 N 
ATOM     19  H   UNL A   1      36.348  22.064  23.992  1.00  0.00     0.169 HD
BRANCH  18  20
ATOM     20  C   UNL A   1      34.673  23.119  23.632  1.00  0.00     0.041 A 
ATOM     21  C   UNL A   1      34.708  24.454  24.032  1.00  0.00     0.027 A 
ATOM     22  C   UNL A   1      33.793  22.760  22.630  1.00  0.00     0.027 A 
ATOM     23  C   UNL A   1      33.988  25.422  23.315  1.00  0.00     0.015 A 
ATOM     24  C   UNL A   1      33.072  23.709  21.909  1.00  0.00     0.015 A 
ATOM     25  C   UNL A   1      33.201  25.061  22.210  1.00  0.00     0.056 A 
BRANCH  25  26
ATOM     26  C   UNL A   1      32.518  26.093  21.348  1.00  0.00     0.416 C 
ATOM     27  F   UNL A   1      33.072  27.327  21.453  1.00  0.00    -0.166 F 
ATOM     28  F   UNL A   1      32.565  25.767  20.025  1.00  0.00    -0.166 F 
ATOM     29  F   UNL A   1      31.194  26.241  21.639  1.00  0.00    -0.166 F 
ENDBRANCH  25  26
ENDBRANCH  18  20
ENDBRANCH   9  16
ENDBRANCH   8   9
ENDBRANCH   7   8
ENDBRANCH   5   7
ENDBRANCH   2   3
ENDBRANCH   1   2
BRANCH   1  30
ATOM     30  C   UNL A   1      30.922  28.418  24.641  1.00  0.00     0.002 C 
BRANCH  30  31
ATOM     31  C   UNL A   1      32.205  29.119  24.214  1.00  0.00     0.002 C 
BRANCH  31  32
ATOM     32  C   UNL A   1      33.536  28.520  24.646  1.00  0.00     0.021 C 
BRANCH  32  33
ATOM     33  C   UNL A   1      33.901  28.738  26.107  1.00  0.00     0.116 C 
BRANCH  33  34
ATOM     34  N   UNL A   1      33.783  30.121  26.559  1.00  0.00    -0.352 N 
ATOM     35  C   UNL A   1      34.608  30.841  27.395  1.00  0.00     0.251 C 
ATOM     36  H   UNL A   1      32.999  30.609  26.217  1.00  0.00     0.163 HD
ATOM     37  O   UNL A   1      34.309  31.995  27.700  1.00  0.00    -0.269 OA
BRANCH  35  38
ATOM     38  C   UNL A   1      35.826  30.214  27.966  1.00  0.00     0.039 A 
ATOM     39  C   UNL A   1      37.031  30.295  27.262  1.00  0.00     0.014 A 
ATOM     40  C   UNL A   1      35.795  29.586  29.211  1.00  0.00     0.014 A 
ATOM     41  C   UNL A   1      38.214  29.841  27.853  1.00  0.00     0.010 A 
ATOM     42  C   UNL A   1      36.984  29.236  29.841  1.00  0.00     0.010 A 
ATOM     43  C   UNL A   1      38.210  29.359  29.173  1.00  0.00    -0.014 A 
BRANCH  43  44
ATOM     44  C   UNL A   1      39.467  28.989  29.880  1.00  0.00     0.031 A 
ATOM     45  C   UNL A   1      39.896  29.749  31.107  1.00  0.00     0.074 A 
ATOM     46  C   UNL A   1      40.269  28.033  29.366  1.00  0.00     0.049 A 
ATOM     47  N   UNL A   1      40.997  29.641  31.805  1.00  0.00    -0.248 NA
ATOM     48  C   UNL A   1      38.983  30.797  31.593  1.00  0.00     0.031 C 
ATOM     49  C   UNL A   1      40.003  27.270  28.143  1.00  0.00     0.029 A 
ATOM     50  N   UNL A   1      41.477  27.548  29.800  1.00  0.00    -0.354 N 
ATOM     51  C   UNL A   1      40.919  30.617  32.793  1.00  0.00     0.074 A 
ATOM     52  C   UNL A   1      39.694  31.350  32.564  1.00  0.00     0.031 C 
ATOM     53  C   UNL A   1      40.999  26.393  27.946  1.00  0.00     0.029 A 
ATOM     54  C   UNL A   1      41.995  26.555  29.000  1.00  0.00     0.049 A 
ATOM     55  H   UNL A   1      41.931  27.878  30.608  1.00  0.00     0.167 HD
ATOM     56  C   UNL A   1      41.775  30.863  33.814  1.00  0.00     0.037 A 
ATOM     57  C   UNL A   1      43.143  25.857  29.100  1.00  0.00     0.037 A 
ATOM     58  C   UNL A   1      42.975  30.107  34.058  1.00  0.00     0.049 A 
ATOM     59  C   UNL A   1      44.069  26.132  30.254  1.00  0.00     0.074 A 
ATOM     60  C   UNL A   1      43.870  30.226  35.105  1.00  0.00     0.029 A 
ATOM     61  N   UNL A   1      43.447  29.088  33.242  1.00  0.00    -0.354 N 
ATOM     62  N   UNL A   1      43.942  27.012  31.220  1.00  0.00    -0.248 NA
ATOM     63  C   UNL A   1      45.289  25.317  30.336  1.00  0.00     0.031 C 
ATOM     64  C   UNL A   1      44.907  29.309  34.901  1.00  0.00     0.029 A 
ATOM     65  C   UNL A   1      44.632  28.584  33.753  1.00  0.00     0.049 A 
ATOM     66  H   UNL A   1      43.005  28.770  32.422  1.00  0.00     0.167 HD
ATOM     67  C   UNL A   1      45.054  26.839  32.037  1.00  0.00     0.074 A 
ATOM     68  C   UNL A   1      45.834  25.764  31.460  1.00  0.00     0.031 C 
ATOM     69  C   UNL A   1      45.397  27.511  33.164  1.00  0.00     0.037 A 
BRANCH  56  70
ATOM     70  C   UNL A   1      41.434  31.993  34.748  1.00  0.00     0.058 A 
ATOM     71  C   UNL A   1      40.646  31.792  35.896  1.00  0.00     0.135 A 
ATOM     72  C   UNL A   1      41.910  33.292  34.505  1.00  0.00     0.135 A 
ATOM     73  F   UNL A   1      40.152  30.574  36.170  1.00  0.00    -0.206 F 
ATOM     74  C   UNL A   1      40.308  32.842  36.741  1.00  0.00     0.059 A 
ATOM     75  C   UNL A   1      41.610  34.352  35.357  1.00  0.00     0.059 A 
ATOM     76  F   UNL A   1      42.668  33.543  33.427  1.00  0.00    -0.206 F 
ATOM     77  C   UNL A   1      40.793  34.121  36.461  1.00  0.00     0.060 A 
BRANCH  77  78
ATOM     78  S   UNL A   1      40.334  35.475  37.563  1.00  0.00     0.124 S 
ATOM     79  O   UNL A   1      39.205  34.895  38.283  1.00  0.00    -0.237 OA
ATOM     80  O   UNL A   1      41.551  35.669  38.345  1.00  0.00    -0.237 OA
ATOM     81  O   UNL A   1      40.002  36.561  36.647  1.00  0.00    -0.744 OA
ENDBRANCH  77  78
ENDBRANCH  56  70
BRANCH  57  82
ATOM     82  C   UNL A   1      43.460  24.802  28.099  1.00  0.00     0.058 A 
ATOM     83  C   UNL A   1      44.298  25.077  27.009  1.00  0.00     0.135 A 
ATOM     84  C   UNL A   1      42.960  23.497  28.226  1.00  0.00     0.135 A 
ATOM     85  F   UNL A   1      44.795  26.312  26.839  1.00  0.00    -0.206 F 
ATOM     86  C   UNL A   1      44.623  24.099  26.074  1.00  0.00     0.059 A 
ATOM     87  C   UNL A   1      43.290  22.495  27.318  1.00  0.00     0.059 A 
ATOM     88  F   UNL A   1      42.167  23.179  29.261  1.00  0.00    -0.206 F 
ATOM     89  C   UNL A   1      44.118  22.809  26.240  1.00  0.00     0.060 A 
BRANCH  89  90
ATOM     90  S   UNL A   1      44.600  21.532  25.056  1.00  0.00     0.124 S 
ATOM     91  O   UNL A   1      45.958  21.226  25.490  1.00  0.00    -0.237 OA
ATOM     92  O   UNL A   1      43.603  20.495  25.300  1.00  0.00    -0.237 OA
ATOM     93  O   UNL A   1      44.486  22.210  23.768  1.00  0.00    -0.744 OA
ENDBRANCH  89  90
ENDBRANCH  57  82
BRANCH  69  94
ATOM     94  C   UNL A   1      46.658  27.087  33.865  1.00  0.00     0.058 A 
ATOM     95  C   UNL A   1      46.658  26.070  34.831  1.00  0.00     0.135 A 
ATOM     96  C   UNL A   1      47.889  27.674  33.531  1.00  0.00     0.135 A 
ATOM     97  F   UNL A   1      45.507  25.480  35.192  1.00  0.00    -0.206 F 
ATOM     98  C   UNL A   1      47.831  25.664  35.459  1.00  0.00     0.059 A 
ATOM     99  C   UNL A   1      49.079  27.265  34.125  1.00  0.00     0.059 A 
ATOM    100  F   UNL A   1      47.947  28.644  32.605  1.00  0.00    -0.206 F 
ATOM    101  C   UNL A   1      49.038  26.267  35.097  1.00  0.00     0.060 A 
BRANCH 101 102
ATOM    102  S   UNL A   1      50.558  25.711  35.897  1.00  0.00     0.124 S 
ATOM    103  O   UNL A   1      50.070  25.319  37.215  1.00  0.00    -0.237 OA
ATOM    104  O   UNL A   1      50.986  24.618  35.028  1.00  0.00    -0.237 OA
ATOM    105  O   UNL A   1      51.409  26.896  35.869  1.00  0.00    -0.744 OA
ENDBRANCH 101 102
ENDBRANCH  69  94
ENDBRANCH  43  44
ENDBRANCH  35  38
ENDBRANCH  33  34
ENDBRANCH  32  33
ENDBRANCH  31  32
ENDBRANCH  30  31
ENDBRANCH   1  30
TORSDOF 22
ENDMDL
MODEL 2
REMARK VINA RESULT:     -11.5      4.745      6.215
REMARK SMILES O=C(CS[C@H](C(=O)Nc1ccc(C(F)(F)F)cc1)c1ccccc1)NCCCCCCNC(=O)c1ccc(-c2c3nc(c(-c4c(F)cc(S(=O)(=O)[O-])cc4F)c4ccc([nH]4)c(-c4c(F)cc(S(=O)(=O)[O-])cc4F)c4nc(c(-c5c(F)cc(S(=O)(=O)[O-])cc5F)c5ccc2[nH]5)C=C4)C=C3)cc1
REMARK SMILES IDX 27 1 26 2 25 3 1 4 2 5 3 7 4 8 5 9 19 10 20 11 24 12 21 13
REMARK SMILES IDX 23 14 22 15 6 16 7 17 8 18 9 20 10 21 18 22 11 23 17 24
REMARK SMILES IDX 12 25 13 26 14 27 15 28 16 29 28 30 29 31 30 32 31 33 32 34
REMARK SMILES IDX 33 35 34 37 35 38 36 39 100 40 37 41 99 42 38 43 39 44 40 45
REMARK SMILES IDX 93 46 41 47 98 48 92 49 94 50 42 51 97 52 91 53 90 54 43 56
REMARK SMILES IDX 77 57 56 58 76 59 57 60 60 61 75 62 95 63 58 64 59 65 74 67
REMARK SMILES IDX 96 68 61 69 44 70 45 71 54 72 46 73 47 74 53 75 55 76 48 77
REMARK SMILES IDX 49 78 50 79 51 80 52 81 78 82 79 83 88 84 80 85 81 86 87 87
REMARK SMILES IDX 89 88 82 89 83 90 84 91 85 92 86 93 62 94 63 95 72 96 64 97
REMARK SMILES IDX 65 98 71 99 73 100 66 101 67 102 68 103 69 104 70 105
REMARK H PARENT 25 6 8 19 32 36 94 55 60 66
REMARK Flexibility Score: inf
ROOT
ATOM      1  C   UNL A   1      32.845  28.535  26.845  1.00  0.00     0.021 C 
ENDROOT
BRANCH   1   2
ATOM      2  C   UNL A   1      32.025  27.504  26.065  1.00  0.00     0.116 C 
BRANCH   2   3
ATOM      3  N   UNL A   1      32.347  26.110  26.330  1.00  0.00    -0.355 N 
ATOM      4  O   UNL A   1      30.148  25.489  26.507  1.00  0.00    -0.274 OA
ATOM      5  C   UNL A   1      31.336  25.172  26.479  1.00  0.00     0.230 C 
ATOM      6  H   UNL A   1      33.288  25.830  26.404  1.00  0.00     0.163 HD
BRANCH   5   7
ATOM      7  C   UNL A   1      31.793  23.727  26.562  1.00  0.00     0.170 C 
BRANCH   7   8
ATOM      8  S   UNL A   1      31.964  22.903  24.926  1.00  0.00    -0.134 SA
BRANCH   8   9
ATOM      9  C   UNL A   1      33.438  23.701  24.073  1.00  0.00     0.166 C 
BRANCH   9  10
ATOM     10  C   UNL A   1      34.769  23.203  24.638  1.00  0.00    -0.026 A 
ATOM     11  C   UNL A   1      35.674  24.102  25.239  1.00  0.00     0.005 A 
ATOM     12  C   UNL A   1      35.172  21.864  24.587  1.00  0.00     0.005 A 
ATOM     13  C   UNL A   1      36.951  23.688  25.648  1.00  0.00     0.000 A 
ATOM     14  C   UNL A   1      36.443  21.442  24.991  1.00  0.00     0.000 A 
ATOM     15  C   UNL A   1      37.345  22.361  25.499  1.00  0.00     0.000 A 
ENDBRANCH   9  10
BRANCH   9  16
ATOM     16  C   UNL A   1      33.208  23.943  22.543  1.00  0.00     0.242 C 
ATOM     17  O   UNL A   1      33.817  23.298  21.678  1.00  0.00    -0.273 OA
ATOM     18  N   UNL A   1      32.129  24.629  22.040  1.00  0.00    -0.325 N 
ATOM     19  H   UNL A   1      31.674  24.172  21.295  1.00  0.00     0.169 HD
BRANCH  18  20
ATOM     20  C   UNL A   1      31.556  25.855  22.390  1.00  0.00     0.041 A 
ATOM     21  C   UNL A   1      32.264  27.040  22.193  1.00  0.00     0.027 A 
ATOM     22  C   UNL A   1      30.342  25.922  23.045  1.00  0.00     0.027 A 
ATOM     23  C   UNL A   1      31.672  28.274  22.505  1.00  0.00     0.015 A 
ATOM     24  C   UNL A   1      29.741  27.137  23.360  1.00  0.00     0.015 A 
ATOM     25  C   UNL A   1      30.378  28.334  23.046  1.00  0.00     0.056 A 
BRANCH  25  26
ATOM     26  C   UNL A   1      29.670  29.647  23.274  1.00  0.00     0.416 C 
ATOM     27  F   UNL A   1      30.165  30.343  24.328  1.00  0.00    -0.166 F 
ATOM     28  F   UNL A   1      29.766  30.473  22.194  1.00  0.00    -0.166 F 
ATOM     29  F   UNL A   1      28.334  29.500  23.503  1.00  0.00    -0.166 F 
ENDBRANCH  25  26
ENDBRANCH  18  20
ENDBRANCH   9  16
ENDBRANCH   8   9
ENDBRANCH   7   8
ENDBRANCH   5   7
ENDBRANCH   2   3
ENDBRANCH   1   2
BRANCH   1  30
ATOM     30  C   UNL A   1      34.336  28.629  26.518  1.00  0.00     0.002 C 
BRANCH  30  31
ATOM     31  C   UNL A   1      35.182  29.444  27.487  1.00  0.00     0.002 C 
BRANCH  31  32
ATOM     32  C   UNL A   1      34.886  30.930  27.633  1.00  0.00     0.021 C 
BRANCH  32  33
ATOM     33  C   UNL A   1      35.716  31.656  28.682  1.00  0.00     0.116 C 
BRANCH  33  34
ATOM     34  N   UNL A   1      35.544  31.154  30.041  1.00  0.00    -0.352 N 
ATOM     35  C   UNL A   1      36.471  30.579  30.884  1.00  0.00     0.251 C 
ATOM     36  H   UNL A   1      34.634  31.236  30.408  1.00  0.00     0.163 HD
ATOM     37  O   UNL A   1      36.117  30.168  31.988  1.00  0.00    -0.269 OA
BRANCH  35  38
ATOM     38  C   UNL A   1      37.878  30.410  30.444  1.00  0.00     0.039 A 
ATOM     39  C   UNL A   1      38.874  30.201  31.403  1.00  0.00     0.014 A 
ATOM     40  C   UNL A   1      38.213  30.411  29.089  1.00  0.00     0.014 A 
ATOM     41  C   UNL A   1      40.177  29.893  30.997  1.00  0.00     0.010 A 
ATOM     42  C   UNL A   1      39.479  29.998  28.687  1.00  0.00     0.010 A 
ATOM     43  C   UNL A   1      40.477  29.732  29.634  1.00  0.00    -0.014 A 
BRANCH  43  44
ATOM     44  C   UNL A   1      41.818  29.278  29.172  1.00  0.00     0.031 A 
ATOM     45  C   UNL A   1      42.962  30.254  29.094  1.00  0.00     0.074 A 
ATOM     46  C   UNL A   1      41.983  28.012  28.735  1.00  0.00     0.049 A 
ATOM     47  N   UNL A   1      44.173  30.075  28.632  1.00  0.00    -0.248 NA
ATOM     48  C   UNL A   1      42.699  31.625  29.562  1.00  0.00     0.031 C 
ATOM     49  C   UNL A   1      40.936  26.986  28.692  1.00  0.00     0.029 A 
ATOM     50  N   UNL A   1      43.089  27.374  28.231  1.00  0.00    -0.354 N 
ATOM     51  C   UNL A   1      44.805  31.310  28.732  1.00  0.00     0.074 A 
ATOM     52  C   UNL A   1      43.824  32.245  29.238  1.00  0.00     0.031 C 
ATOM     53  C   UNL A   1      41.459  25.843  28.223  1.00  0.00     0.029 A 
ATOM     54  C   UNL A   1      42.864  26.060  27.892  1.00  0.00     0.049 A 
ATOM     55  H   UNL A   1      43.962  27.815  28.124  1.00  0.00     0.167 HD
ATOM     56  C   UNL A   1      46.092  31.632  28.456  1.00  0.00     0.037 A 
ATOM     57  C   UNL A   1      43.692  25.134  27.369  1.00  0.00     0.037 A 
ATOM     58  C   UNL A   1      47.073  30.689  27.987  1.00  0.00     0.049 A 
ATOM     59  C   UNL A   1      45.123  25.507  27.089  1.00  0.00     0.074 A 
ATOM     60  C   UNL A   1      48.419  30.895  27.748  1.00  0.00     0.029 A 
ATOM     61  N   UNL A   1      46.812  29.360  27.686  1.00  0.00    -0.354 N 
ATOM     62  N   UNL A   1      45.721  26.662  27.259  1.00  0.00    -0.248 NA
ATOM     63  C   UNL A   1      45.992  24.450  26.554  1.00  0.00     0.031 C 
ATOM     64  C   UNL A   1      48.965  29.701  27.262  1.00  0.00     0.029 A 
ATOM     65  C   UNL A   1      47.969  28.738  27.244  1.00  0.00     0.049 A 
ATOM     66  H   UNL A   1      45.934  28.922  27.773  1.00  0.00     0.167 HD
ATOM     67  C   UNL A   1      47.043  26.465  26.874  1.00  0.00     0.074 A 
ATOM     68  C   UNL A   1      47.159  25.077  26.476  1.00  0.00     0.031 C 
ATOM     69  C   UNL A   1      48.067  27.353  26.852  1.00  0.00     0.037 A 
BRANCH  56  70
ATOM     70  C   UNL A   1      46.510  33.062  28.664  1.00  0.00     0.058 A 
ATOM     71  C   UNL A   1      46.341  34.035  27.663  1.00  0.00     0.135 A 
ATOM     72  C   UNL A   1      47.074  33.474  29.883  1.00  0.00     0.135 A 
ATOM     73  F   UNL A   1      45.821  33.696  26.473  1.00  0.00    -0.206 F 
ATOM     74  C   UNL A   1      46.755  35.350  27.847  1.00  0.00     0.059 A 
ATOM     75  C   UNL A   1      47.465  34.793  30.100  1.00  0.00     0.059 A 
ATOM     76  F   UNL A   1      47.257  32.589  30.876  1.00  0.00    -0.206 F 
ATOM     77  C   UNL A   1      47.320  35.718  29.069  1.00  0.00     0.060 A 
BRANCH  77  78
ATOM     78  S   UNL A   1      47.862  37.426  29.286  1.00  0.00     0.124 S 
ATOM     79  O   UNL A   1      47.201  38.086  28.165  1.00  0.00    -0.237 OA
ATOM     80  O   UNL A   1      47.342  37.754  30.610  1.00  0.00    -0.237 OA
ATOM     81  O   UNL A   1      49.316  37.336  29.193  1.00  0.00    -0.744 OA
ENDBRANCH  77  78
ENDBRANCH  56  70
BRANCH  57  82
ATOM     82  C   UNL A   1      43.196  23.754  27.114  1.00  0.00     0.058 A 
ATOM     83  C   UNL A   1      42.877  23.335  25.814  1.00  0.00     0.135 A 
ATOM     84  C   UNL A   1      43.060  22.821  28.153  1.00  0.00     0.135 A 
ATOM     85  F   UNL A   1      42.983  24.193  24.788  1.00  0.00    -0.206 F 
ATOM     86  C   UNL A   1      42.433  22.043  25.553  1.00  0.00     0.059 A 
ATOM     87  C   UNL A   1      42.641  21.515  27.914  1.00  0.00     0.059 A 
ATOM     88  F   UNL A   1      43.369  23.167  29.413  1.00  0.00    -0.206 F 
ATOM     89  C   UNL A   1      42.323  21.138  26.610  1.00  0.00     0.060 A 
BRANCH  89  90
ATOM     90  S   UNL A   1      41.808  19.444  26.248  1.00  0.00     0.124 S 
ATOM     91  O   UNL A   1      40.361  19.594  26.144  1.00  0.00    -0.237 OA
ATOM     92  O   UNL A   1      42.513  19.169  25.001  1.00  0.00    -0.237 OA
ATOM     93  O   UNL A   1      42.284  18.695  27.408  1.00  0.00    -0.744 OA
ENDBRANCH  89  90
ENDBRANCH  57  82
BRANCH  69  94
ATOM     94  C   UNL A   1      49.412  26.847  26.408  1.00  0.00     0.058 A 
ATOM     95  C   UNL A   1      50.335  26.312  27.318  1.00  0.00     0.135 A 
ATOM     96  C   UNL A   1      49.761  26.855  25.047  1.00  0.00     0.135 A 
ATOM     97  F   UNL A   1      50.053  26.287  28.631  1.00  0.00    -0.206 F 
ATOM     98  C   UNL A   1      51.567  25.822  26.900  1.00  0.00     0.059 A 
ATOM     99  C   UNL A   1      50.976  26.345  24.602  1.00  0.00     0.059 A 
ATOM    100  F   UNL A   1      48.909  27.346  24.133  1.00  0.00    -0.206 F 
ATOM    101  C   UNL A   1      51.879  25.841  25.538  1.00  0.00     0.060 A 
BRANCH 101 102
ATOM    102  S   UNL A   1      53.469  25.176  25.003  1.00  0.00     0.124 S 
ATOM    103  O   UNL A   1      53.285  23.748  25.243  1.00  0.00    -0.237 OA
ATOM    104  O   UNL A   1      53.521  25.580  23.600  1.00  0.00    -0.237 OA
ATOM    105  O   UNL A   1      54.428  25.842  25.877  1.00  0.00    -0.744 OA
ENDBRANCH 101 102
ENDBRANCH  69  94
ENDBRANCH  43  44
ENDBRANCH  35  38
ENDBRANCH  33  34
ENDBRANCH  32  33
ENDBRANCH  31  32
ENDBRANCH  30  31
ENDBRANCH   1  30
TORSDOF 22
ENDMDL
MODEL 3
REMARK VINA RESULT:     -11.5      3.128      9.415
REMARK SMILES O=C(CS[C@H](C(=O)Nc1ccc(C(F)(F)F)cc1)c1ccccc1)NCCCCCCNC(=O)c1ccc(-c2c3nc(c(-c4c(F)cc(S(=O)(=O)[O-])cc4F)c4ccc([nH]4)c(-c4c(F)cc(S(=O)(=O)[O-])cc4F)c4nc(c(-c5c(F)cc(S(=O)(=O)[O-])cc5F)c5ccc2[nH]5)C=C4)C=C3)cc1
REMARK SMILES IDX 27 1 26 2 25 3 1 4 2 5 3 7 4 8 5 9 19 10 20 11 24 12 21 13
REMARK SMILES IDX 23 14 22 15 6 16 7 17 8 18 9 20 10 21 18 22 11 23 17 24
REMARK SMILES IDX 12 25 13 26 14 27 15 28 16 29 28 30 29 31 30 32 31 33 32 34
REMARK SMILES IDX 33 35 34 37 35 38 36 39 100 40 37 41 99 42 38 43 39 44 40 45
REMARK SMILES IDX 93 46 41 47 98 48 92 49 94 50 42 51 97 52 91 53 90 54 43 56
REMARK SMILES IDX 77 57 56 58 76 59 57 60 60 61 75 62 95 63 58 64 59 65 74 67
REMARK SMILES IDX 96 68 61 69 44 70 45 71 54 72 46 73 47 74 53 75 55 76 48 77
REMARK SMILES IDX 49 78 50 79 51 80 52 81 78 82 79 83 88 84 80 85 81 86 87 87
REMARK SMILES IDX 89 88 82 89 83 90 84 91 85 92 86 93 62 94 63 95 72 96 64 97
REMARK SMILES IDX 65 98 71 99 73 100 66 101 67 102 68 103 69 104 70 105
REMARK H PARENT 25 6 8 19 32 36 94 55 60 66
REMARK Flexibility Score: inf
ROOT
ATOM      1  C   UNL A   1      39.367  22.897  26.617  1.00  0.00     0.021 C 
ENDROOT
BRANCH   1   2
ATOM      2  C   UNL A   1      38.316  22.058  25.885  1.00  0.00     0.116 C 
BRANCH   2   3
ATOM      3  N   UNL A   1      36.935  22.296  26.278  1.00  0.00    -0.355 N 
ATOM      4  O   UNL A   1      36.170  20.391  25.258  1.00  0.00    -0.274 OA
ATOM      5  C   UNL A   1      35.948  21.372  25.965  1.00  0.00     0.230 C 
ATOM      6  H   UNL A   1      36.699  23.115  26.770  1.00  0.00     0.163 HD
BRANCH   5   7
ATOM      7  C   UNL A   1      34.589  21.634  26.588  1.00  0.00     0.170 C 
BRANCH   7   8
ATOM      8  S   UNL A   1      33.278  22.055  25.368  1.00  0.00    -0.134 SA
BRANCH   8   9
ATOM      9  C   UNL A   1      32.986  23.907  25.511  1.00  0.00     0.166 C 
BRANCH   9  10
ATOM     10  C   UNL A   1      33.118  24.617  24.162  1.00  0.00    -0.026 A 
ATOM     11  C   UNL A   1      33.909  25.777  24.037  1.00  0.00     0.005 A 
ATOM     12  C   UNL A   1      32.471  24.182  22.999  1.00  0.00     0.005 A 
ATOM     13  C   UNL A   1      33.941  26.513  22.842  1.00  0.00     0.000 A 
ATOM     14  C   UNL A   1      32.496  24.909  21.806  1.00  0.00     0.000 A 
ATOM     15  C   UNL A   1      33.212  26.092  21.733  1.00  0.00     0.000 A 
ENDBRANCH   9  10
BRANCH   9  16
ATOM     16  C   UNL A   1      31.879  24.277  26.555  1.00  0.00     0.242 C 
ATOM     17  O   UNL A   1      31.585  23.525  27.495  1.00  0.00    -0.273 OA
ATOM     18  N   UNL A   1      31.381  25.549  26.710  1.00  0.00    -0.325 N 
ATOM     19  H   UNL A   1      31.342  25.853  27.646  1.00  0.00     0.169 HD
BRANCH  18  20
ATOM     20  C   UNL A   1      30.922  26.491  25.785  1.00  0.00     0.041 A 
ATOM     21  C   UNL A   1      31.424  27.792  25.802  1.00  0.00     0.027 A 
ATOM     22  C   UNL A   1      29.885  26.203  24.918  1.00  0.00     0.027 A 
ATOM     23  C   UNL A   1      30.994  28.725  24.846  1.00  0.00     0.015 A 
ATOM     24  C   UNL A   1      29.448  27.118  23.964  1.00  0.00     0.015 A 
ATOM     25  C   UNL A   1      30.035  28.377  23.882  1.00  0.00     0.056 A 
BRANCH  25  26
ATOM     26  C   UNL A   1      29.647  29.318  22.769  1.00  0.00     0.416 C 
ATOM     27  F   UNL A   1      29.576  30.613  23.166  1.00  0.00    -0.166 F 
ATOM     28  F   UNL A   1      30.539  29.285  21.738  1.00  0.00    -0.166 F 
ATOM     29  F   UNL A   1      28.439  29.019  22.214  1.00  0.00    -0.166 F 
ENDBRANCH  25  26
ENDBRANCH  18  20
ENDBRANCH   9  16
ENDBRANCH   8   9
ENDBRANCH   7   8
ENDBRANCH   5   7
ENDBRANCH   2   3
ENDBRANCH   1   2
BRANCH   1  30
ATOM     30  C   UNL A   1      40.344  22.149  27.526  1.00  0.00     0.002 C 
BRANCH  30  31
ATOM     31  C   UNL A   1      41.353  21.249  26.826  1.00  0.00     0.002 C 
BRANCH  31  32
ATOM     32  C   UNL A   1      42.780  21.752  26.659  1.00  0.00     0.021 C 
BRANCH  32  33
ATOM     33  C   UNL A   1      42.978  23.238  26.925  1.00  0.00     0.116 C 
BRANCH  33  34
ATOM     34  N   UNL A   1      42.583  24.106  25.821  1.00  0.00    -0.352 N 
ATOM     35  C   UNL A   1      42.161  25.418  25.848  1.00  0.00     0.251 C 
ATOM     36  H   UNL A   1      42.622  23.695  24.928  1.00  0.00     0.163 HD
ATOM     37  O   UNL A   1      41.821  25.970  24.803  1.00  0.00    -0.269 OA
BRANCH  35  38
ATOM     38  C   UNL A   1      42.070  26.147  27.138  1.00  0.00     0.039 A 
ATOM     39  C   UNL A   1      43.027  27.119  27.442  1.00  0.00     0.014 A 
ATOM     40  C   UNL A   1      41.020  25.909  28.026  1.00  0.00     0.014 A 
ATOM     41  C   UNL A   1      42.871  27.917  28.581  1.00  0.00     0.010 A 
ATOM     42  C   UNL A   1      40.807  26.773  29.095  1.00  0.00     0.010 A 
ATOM     43  C   UNL A   1      41.728  27.788  29.388  1.00  0.00    -0.014 A 
BRANCH  43  44
ATOM     44  C   UNL A   1      41.463  28.705  30.531  1.00  0.00     0.031 A 
ATOM     45  C   UNL A   1      42.283  28.599  31.790  1.00  0.00     0.074 A 
ATOM     46  C   UNL A   1      40.428  29.568  30.472  1.00  0.00     0.049 A 
ATOM     47  N   UNL A   1      42.147  29.240  32.922  1.00  0.00    -0.248 NA
ATOM     48  C   UNL A   1      43.378  27.615  31.790  1.00  0.00     0.031 C 
ATOM     49  C   UNL A   1      39.513  29.720  29.337  1.00  0.00     0.029 A 
ATOM     50  N   UNL A   1      39.962  30.473  31.393  1.00  0.00    -0.354 N 
ATOM     51  C   UNL A   1      43.119  28.722  33.772  1.00  0.00     0.074 A 
ATOM     52  C   UNL A   1      43.794  27.669  33.046  1.00  0.00     0.031 C 
ATOM     53  C   UNL A   1      38.620  30.682  29.616  1.00  0.00     0.029 A 
ATOM     54  C   UNL A   1      38.869  31.188  30.962  1.00  0.00     0.049 A 
ATOM     55  H   UNL A   1      40.371  30.599  32.279  1.00  0.00     0.167 HD
ATOM     56  C   UNL A   1      43.439  29.106  35.031  1.00  0.00     0.037 A 
ATOM     57  C   UNL A   1      38.145  32.142  31.580  1.00  0.00     0.037 A 
ATOM     58  C   UNL A   1      42.786  30.178  35.735  1.00  0.00     0.049 A 
ATOM     59  C   UNL A   1      38.531  32.568  32.971  1.00  0.00     0.074 A 
ATOM     60  C   UNL A   1      43.083  30.695  36.983  1.00  0.00     0.029 A 
ATOM     61  N   UNL A   1      41.704  30.899  35.251  1.00  0.00    -0.354 N 
ATOM     62  N   UNL A   1      39.500  32.115  33.732  1.00  0.00    -0.248 NA
ATOM     63  C   UNL A   1      37.730  33.636  33.585  1.00  0.00     0.031 C 
ATOM     64  C   UNL A   1      42.154  31.700  37.273  1.00  0.00     0.029 A 
ATOM     65  C   UNL A   1      41.309  31.843  36.185  1.00  0.00     0.049 A 
ATOM     66  H   UNL A   1      41.280  30.761  34.374  1.00  0.00     0.167 HD
ATOM     67  C   UNL A   1      39.441  32.860  34.904  1.00  0.00     0.074 A 
ATOM     68  C   UNL A   1      38.350  33.801  34.747  1.00  0.00     0.031 C 
ATOM     69  C   UNL A   1      40.219  32.774  36.011  1.00  0.00     0.037 A 
BRANCH  56  70
ATOM     70  C   UNL A   1      44.552  28.364  35.721  1.00  0.00     0.058 A 
ATOM     71  C   UNL A   1      45.897  28.749  35.579  1.00  0.00     0.135 A 
ATOM     72  C   UNL A   1      44.274  27.261  36.547  1.00  0.00     0.135 A 
ATOM     73  F   UNL A   1      46.223  29.786  34.791  1.00  0.00    -0.206 F 
ATOM     74  C   UNL A   1      46.925  28.044  36.194  1.00  0.00     0.059 A 
ATOM     75  C   UNL A   1      45.287  26.562  37.198  1.00  0.00     0.059 A 
ATOM     76  F   UNL A   1      43.009  26.850  36.721  1.00  0.00    -0.206 F 
ATOM     77  C   UNL A   1      46.610  26.949  36.999  1.00  0.00     0.060 A 
BRANCH  77  78
ATOM     78  S   UNL A   1      47.959  26.038  37.780  1.00  0.00     0.124 S 
ATOM     79  O   UNL A   1      47.672  24.671  37.356  1.00  0.00    -0.237 OA
ATOM     80  O   UNL A   1      49.140  26.652  37.180  1.00  0.00    -0.237 OA
ATOM     81  O   UNL A   1      47.772  26.306  39.202  1.00  0.00    -0.744 OA
ENDBRANCH  77  78
ENDBRANCH  56  70
BRANCH  57  82
ATOM     82  C   UNL A   1      37.006  32.785  30.871  1.00  0.00     0.058 A 
ATOM     83  C   UNL A   1      35.684  32.401  31.139  1.00  0.00     0.135 A 
ATOM     84  C   UNL A   1      37.210  33.814  29.939  1.00  0.00     0.135 A 
ATOM     85  F   UNL A   1      35.437  31.416  32.016  1.00  0.00    -0.206 F 
ATOM     86  C   UNL A   1      34.605  33.005  30.502  1.00  0.00     0.059 A 
ATOM     87  C   UNL A   1      36.146  34.452  29.307  1.00  0.00     0.059 A 
ATOM     88  F   UNL A   1      38.455  34.232  29.660  1.00  0.00    -0.206 F 
ATOM     89  C   UNL A   1      34.846  34.034  29.591  1.00  0.00     0.060 A 
BRANCH  89  90
ATOM     90  S   UNL A   1      33.433  34.855  28.819  1.00  0.00     0.124 S 
ATOM     91  O   UNL A   1      32.578  35.113  29.972  1.00  0.00    -0.237 OA
ATOM     92  O   UNL A   1      34.054  36.026  28.210  1.00  0.00    -0.237 OA
ATOM     93  O   UNL A   1      32.939  33.855  27.877  1.00  0.00    -0.744 OA
ENDBRANCH  89  90
ENDBRANCH  57  82
BRANCH  69  94
ATOM     94  C   UNL A   1      39.940  33.738  37.131  1.00  0.00     0.058 A 
ATOM     95  C   UNL A   1      40.478  35.033  37.140  1.00  0.00     0.135 A 
ATOM     96  C   UNL A   1      39.083  33.375  38.184  1.00  0.00     0.135 A 
ATOM     97  F   UNL A   1      41.308  35.427  36.160  1.00  0.00    -0.206 F 
ATOM     98  C   UNL A   1      40.196  35.929  38.165  1.00  0.00     0.059 A 
ATOM     99  C   UNL A   1      38.765  34.264  39.205  1.00  0.00     0.059 A 
ATOM    100  F   UNL A   1      38.533  32.151  38.217  1.00  0.00    -0.206 F 
ATOM    101  C   UNL A   1      39.337  35.536  39.194  1.00  0.00     0.060 A 
BRANCH 101 102
ATOM    102  S   UNL A   1      38.954  36.718  40.503  1.00  0.00     0.124 S 
ATOM    103  O   UNL A   1      38.480  37.865  39.734  1.00  0.00    -0.237 OA
ATOM    104  O   UNL A   1      37.938  36.010  41.277  1.00  0.00    -0.237 OA
ATOM    105  O   UNL A   1      40.234  36.902  41.180  1.00  0.00    -0.744 OA
ENDBRANCH 101 102
ENDBRANCH  69  94
ENDBRANCH  43  44
ENDBRANCH  35  38
ENDBRANCH  33  34
ENDBRANCH  32  33
ENDBRANCH  31  32
ENDBRANCH  30  31
ENDBRANCH   1  30
TORSDOF 22
ENDMDL
