MODEL 1
REMARK VINA RESULT:     -11.6      0.000      0.000
REMARK SMILES C[C@@H]1CCC[C@@](Cc2ncccn2)(C(=O)NCCCCCCNC(=O)c2ccc(-c3c4nc(c(-c5c(F)cc(S(=O)(=O)[O-])cc5F)c5ccc([nH]5)c(-c5c(F)cc(S(=O)(=O)[O-])cc5F)c5nc(c(-c6c(F)cc(S(=O)(=O)[O-])cc6F)c6ccc3[nH]6)C=C5)C=C4)cc2)C1
REMARK SMILES IDX 20 1 19 2 18 3 17 4 16 5 14 6 15 7 6 9 1 10 2 11 3 12 92 13
REMARK SMILES IDX 4 14 5 15 7 16 8 17 9 18 13 19 10 20 12 21 11 22 21 23 22 24
REMARK SMILES IDX 23 25 24 26 25 28 26 29 27 30 91 31 28 32 90 33 29 34 30 35
REMARK SMILES IDX 31 36 84 37 32 38 89 39 83 40 85 41 33 42 88 43 82 44 81 45
REMARK SMILES IDX 34 47 68 48 47 49 67 50 48 51 51 52 66 53 86 54 49 55 50 56
REMARK SMILES IDX 65 58 87 59 52 60 35 61 36 62 45 63 37 64 38 65 44 66 46 67
REMARK SMILES IDX 39 68 40 69 41 70 42 71 43 72 69 73 70 74 79 75 71 76 72 77
REMARK SMILES IDX 78 78 80 79 73 80 74 81 75 82 76 83 77 84 53 85 54 86 63 87
REMARK SMILES IDX 55 88 56 89 62 90 64 91 57 92 58 93 59 94 60 95 61 96
REMARK H PARENT 16 8 23 27 85 46 51 57
REMARK Flexibility Score: inf
ROOT
ATOM      1  C   UNL A   1      40.924  22.072  27.702  1.00  0.00     0.002 C 
ENDROOT
BRANCH   1   2
ATOM      2  C   UNL A   1      40.071  21.847  26.445  1.00  0.00     0.002 C 
BRANCH   2   3
ATOM      3  C   UNL A   1      38.915  22.827  26.231  1.00  0.00     0.021 C 
BRANCH   3   4
ATOM      4  C   UNL A   1      37.618  22.192  25.749  1.00  0.00     0.116 C 
BRANCH   4   5
ATOM      5  N   UNL A   1      37.397  22.330  24.327  1.00  0.00    -0.356 N 
ATOM      6  C   UNL A   1      36.313  22.719  23.604  1.00  0.00     0.226 C 
ATOM      7  O   UNL A   1      36.558  22.997  22.422  1.00  0.00    -0.274 OA
ATOM      8  H   UNL A   1      38.179  22.096  23.777  1.00  0.00     0.163 HD
BRANCH   6   9
ATOM      9  C   UNL A   1      34.860  22.832  24.163  1.00  0.00     0.056 C 
ATOM     10  C   UNL A   1      32.032  21.161  25.133  1.00  0.00     0.007 C 
ATOM     11  C   UNL A   1      33.380  21.347  25.834  1.00  0.00    -0.013 C 
ATOM     12  C   UNL A   1      33.351  22.518  26.814  1.00  0.00     0.003 C 
ATOM     13  C   UNL A   1      34.586  21.451  24.881  1.00  0.00     0.020 C 
ATOM     14  C   UNL A   1      33.489  23.859  26.112  1.00  0.00     0.001 C 
ATOM     15  C   UNL A   1      34.746  23.928  25.249  1.00  0.00     0.017 C 
BRANCH   9  16
ATOM     16  C   UNL A   1      33.858  22.942  22.984  1.00  0.00     0.094 C 
BRANCH  16  17
ATOM     17  C   UNL A   1      33.164  24.247  22.714  1.00  0.00     0.129 A 
ATOM     18  N   UNL A   1      33.892  25.248  22.181  1.00  0.00    -0.241 NA
ATOM     19  N   UNL A   1      31.873  24.360  23.082  1.00  0.00    -0.241 NA
ATOM     20  C   UNL A   1      33.264  26.431  22.020  1.00  0.00     0.115 A 
ATOM     21  C   UNL A   1      31.296  25.565  22.900  1.00  0.00     0.115 A 
ATOM     22  C   UNL A   1      31.951  26.647  22.363  1.00  0.00     0.040 A 
ENDBRANCH  16  17
ENDBRANCH   9  16
ENDBRANCH   6   9
ENDBRANCH   4   5
ENDBRANCH   3   4
ENDBRANCH   2   3
ENDBRANCH   1   2
BRANCH   1  23
ATOM     23  C   UNL A   1      42.444  22.021  27.510  1.00  0.00     0.021 C 
BRANCH  23  24
ATOM     24  C   UNL A   1      43.140  23.368  27.336  1.00  0.00     0.116 C 
BRANCH  24  25
ATOM     25  N   UNL A   1      42.666  24.091  26.172  1.00  0.00    -0.352 N 
ATOM     26  C   UNL A   1      41.957  25.260  26.081  1.00  0.00     0.251 C 
ATOM     27  H   UNL A   1      42.890  23.677  25.308  1.00  0.00     0.163 HD
ATOM     28  O   UNL A   1      41.532  25.609  24.978  1.00  0.00    -0.269 OA
BRANCH  26  29
ATOM     29  C   UNL A   1      41.675  26.094  27.272  1.00  0.00     0.039 A 
ATOM     30  C   UNL A   1      42.540  27.157  27.549  1.00  0.00     0.014 A 
ATOM     31  C   UNL A   1      40.622  25.814  28.149  1.00  0.00     0.014 A 
ATOM     32  C   UNL A   1      42.329  27.959  28.674  1.00  0.00     0.010 A 
ATOM     33  C   UNL A   1      40.374  26.654  29.240  1.00  0.00     0.010 A 
ATOM     34  C   UNL A   1      41.230  27.730  29.517  1.00  0.00    -0.014 A 
BRANCH  34  35
ATOM     35  C   UNL A   1      40.982  28.619  30.682  1.00  0.00     0.031 A 
ATOM     36  C   UNL A   1      41.830  28.518  31.922  1.00  0.00     0.074 A 
ATOM     37  C   UNL A   1      39.981  29.520  30.621  1.00  0.00     0.049 A 
ATOM     38  N   UNL A   1      41.770  29.224  33.022  1.00  0.00    -0.248 NA
ATOM     39  C   UNL A   1      42.870  27.475  31.937  1.00  0.00     0.031 C 
ATOM     40  C   UNL A   1      39.056  29.681  29.496  1.00  0.00     0.029 A 
ATOM     41  N   UNL A   1      39.575  30.473  31.520  1.00  0.00    -0.354 N 
ATOM     42  C   UNL A   1      42.762  28.720  33.856  1.00  0.00     0.074 A 
ATOM     43  C   UNL A   1      43.373  27.610  33.157  1.00  0.00     0.031 C 
ATOM     44  C   UNL A   1      38.212  30.692  29.760  1.00  0.00     0.029 A 
ATOM     45  C   UNL A   1      38.518  31.235  31.079  1.00  0.00     0.049 A 
ATOM     46  H   UNL A   1      40.000  30.601  32.399  1.00  0.00     0.167 HD
ATOM     47  C   UNL A   1      43.147  29.158  35.079  1.00  0.00     0.037 A 
ATOM     48  C   UNL A   1      37.872  32.260  31.668  1.00  0.00     0.037 A 
ATOM     49  C   UNL A   1      42.550  30.277  35.764  1.00  0.00     0.049 A 
ATOM     50  C   UNL A   1      38.333  32.736  33.019  1.00  0.00     0.074 A 
ATOM     51  C   UNL A   1      42.890  30.817  36.994  1.00  0.00     0.029 A 
ATOM     52  N   UNL A   1      41.495  31.035  35.276  1.00  0.00    -0.354 N 
ATOM     53  N   UNL A   1      39.305  32.275  33.769  1.00  0.00    -0.248 NA
ATOM     54  C   UNL A   1      37.615  33.881  33.598  1.00  0.00     0.031 C 
ATOM     55  C   UNL A   1      42.025  31.884  37.260  1.00  0.00     0.029 A 
ATOM     56  C   UNL A   1      41.169  32.031  36.181  1.00  0.00     0.049 A 
ATOM     57  H   UNL A   1      41.045  30.885  34.414  1.00  0.00     0.167 HD
ATOM     58  C   UNL A   1      39.328  33.086  34.899  1.00  0.00     0.074 A 
ATOM     59  C   UNL A   1      38.290  34.080  34.721  1.00  0.00     0.031 C 
ATOM     60  C   UNL A   1      40.133  33.012  35.987  1.00  0.00     0.037 A 
BRANCH  47  61
ATOM     61  C   UNL A   1      44.287  28.446  35.751  1.00  0.00     0.058 A 
ATOM     62  C   UNL A   1      44.064  27.330  36.574  1.00  0.00     0.135 A 
ATOM     63  C   UNL A   1      45.616  28.836  35.523  1.00  0.00     0.135 A 
ATOM     64  F   UNL A   1      42.812  26.925  36.839  1.00  0.00    -0.206 F 
ATOM     65  C   UNL A   1      45.118  26.634  37.157  1.00  0.00     0.059 A 
ATOM     66  C   UNL A   1      46.688  28.140  36.077  1.00  0.00     0.059 A 
ATOM     67  F   UNL A   1      45.885  29.897  34.747  1.00  0.00    -0.206 F 
ATOM     68  C   UNL A   1      46.427  27.045  36.900  1.00  0.00     0.060 A 
BRANCH  68  69
ATOM     69  S   UNL A   1      47.784  26.110  37.638  1.00  0.00     0.124 S 
ATOM     70  O   UNL A   1      47.259  25.841  38.973  1.00  0.00    -0.237 OA
ATOM     71  O   UNL A   1      47.884  24.953  36.753  1.00  0.00    -0.237 OA
ATOM     72  O   UNL A   1      48.908  27.038  37.580  1.00  0.00    -0.744 OA
ENDBRANCH  68  69
ENDBRANCH  47  61
BRANCH  48  73
ATOM     73  C   UNL A   1      36.735  32.925  30.981  1.00  0.00     0.058 A 
ATOM     74  C   UNL A   1      36.950  33.805  29.910  1.00  0.00     0.135 A 
ATOM     75  C   UNL A   1      35.412  32.714  31.399  1.00  0.00     0.135 A 
ATOM     76  F   UNL A   1      38.198  34.041  29.478  1.00  0.00    -0.206 F 
ATOM     77  C   UNL A   1      35.899  34.482  29.300  1.00  0.00     0.059 A 
ATOM     78  C   UNL A   1      34.343  33.359  30.788  1.00  0.00     0.059 A 
ATOM     79  F   UNL A   1      35.151  31.864  32.405  1.00  0.00    -0.206 F 
ATOM     80  C   UNL A   1      34.597  34.256  29.751  1.00  0.00     0.060 A 
BRANCH  80  81
ATOM     81  S   UNL A   1      33.233  35.124  28.948  1.00  0.00     0.124 S 
ATOM     82  O   UNL A   1      32.378  35.440  30.086  1.00  0.00    -0.237 OA
ATOM     83  O   UNL A   1      33.910  36.255  28.321  1.00  0.00    -0.237 OA
ATOM     84  O   UNL A   1      32.709  34.126  28.019  1.00  0.00    -0.744 OA
ENDBRANCH  80  81
ENDBRANCH  48  73
BRANCH  60  85
ATOM     85  C   UNL A   1      39.929  34.051  37.055  1.00  0.00     0.058 A 
ATOM     86  C   UNL A   1      39.175  33.781  38.207  1.00  0.00     0.135 A 
ATOM     87  C   UNL A   1      40.495  35.329  36.923  1.00  0.00     0.135 A 
ATOM     88  F   UNL A   1      38.609  32.576  38.376  1.00  0.00    -0.206 F 
ATOM     89  C   UNL A   1      38.953  34.756  39.174  1.00  0.00     0.059 A 
ATOM     90  C   UNL A   1      40.308  36.310  37.890  1.00  0.00     0.059 A 
ATOM     91  F   UNL A   1      41.236  35.634  35.846  1.00  0.00    -0.206 F 
ATOM     92  C   UNL A   1      39.518  36.021  39.001  1.00  0.00     0.060 A 
BRANCH  92  93
ATOM     93  S   UNL A   1      39.218  37.283  40.257  1.00  0.00     0.124 S 
ATOM     94  O   UNL A   1      38.395  36.554  41.216  1.00  0.00    -0.237 OA
ATOM     95  O   UNL A   1      40.569  37.612  40.703  1.00  0.00    -0.237 OA
ATOM     96  O   UNL A   1      38.536  38.340  39.517  1.00  0.00    -0.744 OA
ENDBRANCH  92  93
ENDBRANCH  60  85
ENDBRANCH  34  35
ENDBRANCH  26  29
ENDBRANCH  24  25
ENDBRANCH  23  24
ENDBRANCH   1  23
TORSDOF 18
ENDMDL
MODEL 2
REMARK VINA RESULT:     -11.3      1.177      2.299
REMARK SMILES C[C@@H]1CCC[C@@](Cc2ncccn2)(C(=O)NCCCCCCNC(=O)c2ccc(-c3c4nc(c(-c5c(F)cc(S(=O)(=O)[O-])cc5F)c5ccc([nH]5)c(-c5c(F)cc(S(=O)(=O)[O-])cc5F)c5nc(c(-c6c(F)cc(S(=O)(=O)[O-])cc6F)c6ccc3[nH]6)C=C5)C=C4)cc2)C1
REMARK SMILES IDX 20 1 19 2 18 3 17 4 16 5 14 6 15 7 6 9 1 10 2 11 3 12 92 13
REMARK SMILES IDX 4 14 5 15 7 16 8 17 9 18 13 19 10 20 12 21 11 22 21 23 22 24
REMARK SMILES IDX 23 25 24 26 25 28 26 29 27 30 91 31 28 32 90 33 29 34 30 35
REMARK SMILES IDX 31 36 84 37 32 38 89 39 83 40 85 41 33 42 88 43 82 44 81 45
REMARK SMILES IDX 34 47 68 48 47 49 67 50 48 51 51 52 66 53 86 54 49 55 50 56
REMARK SMILES IDX 65 58 87 59 52 60 35 61 36 62 45 63 37 64 38 65 44 66 46 67
REMARK SMILES IDX 39 68 40 69 41 70 42 71 43 72 69 73 70 74 79 75 71 76 72 77
REMARK SMILES IDX 78 78 80 79 73 80 74 81 75 82 76 83 77 84 53 85 54 86 63 87
REMARK SMILES IDX 55 88 56 89 62 90 64 91 57 92 58 93 59 94 60 95 61 96
REMARK H PARENT 16 8 23 27 85 46 51 57
REMARK Flexibility Score: inf
ROOT
ATOM      1  C   UNL A   1      39.556  22.511  26.550  1.00  0.00     0.002 C 
ENDROOT
BRANCH   1   2
ATOM      2  C   UNL A   1      38.819  21.413  25.770  1.00  0.00     0.002 C 
BRANCH   2   3
ATOM      3  C   UNL A   1      37.441  21.786  25.217  1.00  0.00     0.021 C 
BRANCH   3   4
ATOM      4  C   UNL A   1      36.858  23.080  25.769  1.00  0.00     0.116 C 
BRANCH   4   5
ATOM      5  N   UNL A   1      35.782  22.876  26.712  1.00  0.00    -0.356 N 
ATOM      6  C   UNL A   1      34.432  22.973  26.592  1.00  0.00     0.226 C 
ATOM      7  O   UNL A   1      33.795  22.453  27.519  1.00  0.00    -0.274 OA
ATOM      8  H   UNL A   1      36.084  22.619  27.613  1.00  0.00     0.163 HD
BRANCH   6   9
ATOM      9  C   UNL A   1      33.687  23.663  25.407  1.00  0.00     0.056 C 
ATOM     10  C   UNL A   1      30.769  23.936  23.633  1.00  0.00     0.007 C 
ATOM     11  C   UNL A   1      31.166  24.482  25.006  1.00  0.00    -0.013 C 
ATOM     12  C   UNL A   1      31.670  25.921  24.919  1.00  0.00     0.003 C 
ATOM     13  C   UNL A   1      32.155  23.594  25.786  1.00  0.00     0.020 C 
ATOM     14  C   UNL A   1      33.108  25.997  24.433  1.00  0.00     0.001 C 
ATOM     15  C   UNL A   1      34.051  25.163  25.295  1.00  0.00     0.017 C 
BRANCH   9  16
ATOM     16  C   UNL A   1      33.877  22.824  24.115  1.00  0.00     0.094 C 
BRANCH  16  17
ATOM     17  C   UNL A   1      33.531  21.362  24.118  1.00  0.00     0.129 A 
ATOM     18  N   UNL A   1      34.336  20.526  24.801  1.00  0.00    -0.241 NA
ATOM     19  N   UNL A   1      32.474  20.966  23.380  1.00  0.00    -0.241 NA
ATOM     20  C   UNL A   1      34.045  19.211  24.724  1.00  0.00     0.115 A 
ATOM     21  C   UNL A   1      32.231  19.641  23.338  1.00  0.00     0.115 A 
ATOM     22  C   UNL A   1      32.991  18.708  24.001  1.00  0.00     0.040 A 
ENDBRANCH  16  17
ENDBRANCH   9  16
ENDBRANCH   6   9
ENDBRANCH   4   5
ENDBRANCH   3   4
ENDBRANCH   2   3
ENDBRANCH   1   2
BRANCH   1  23
ATOM     23  C   UNL A   1      40.778  22.066  27.361  1.00  0.00     0.021 C 
BRANCH  23  24
ATOM     24  C   UNL A   1      41.936  23.058  27.420  1.00  0.00     0.116 C 
BRANCH  24  25
ATOM     25  N   UNL A   1      41.988  23.921  26.256  1.00  0.00    -0.352 N 
ATOM     26  C   UNL A   1      41.717  25.257  26.127  1.00  0.00     0.251 C 
ATOM     27  H   UNL A   1      42.265  23.474  25.423  1.00  0.00     0.163 HD
ATOM     28  O   UNL A   1      41.684  25.748  24.997  1.00  0.00    -0.269 OA
BRANCH  26  29
ATOM     29  C   UNL A   1      41.442  26.111  27.306  1.00  0.00     0.039 A 
ATOM     30  C   UNL A   1      42.352  27.130  27.605  1.00  0.00     0.014 A 
ATOM     31  C   UNL A   1      40.349  25.892  28.151  1.00  0.00     0.014 A 
ATOM     32  C   UNL A   1      42.148  27.948  28.719  1.00  0.00     0.010 A 
ATOM     33  C   UNL A   1      40.112  26.749  29.230  1.00  0.00     0.010 A 
ATOM     34  C   UNL A   1      41.013  27.781  29.529  1.00  0.00    -0.014 A 
BRANCH  34  35
ATOM     35  C   UNL A   1      40.776  28.689  30.682  1.00  0.00     0.031 A 
ATOM     36  C   UNL A   1      41.611  28.581  31.930  1.00  0.00     0.074 A 
ATOM     37  C   UNL A   1      39.797  29.613  30.603  1.00  0.00     0.049 A 
ATOM     38  N   UNL A   1      41.558  29.301  33.023  1.00  0.00    -0.248 NA
ATOM     39  C   UNL A   1      42.625  27.515  31.967  1.00  0.00     0.031 C 
ATOM     40  C   UNL A   1      38.887  29.783  29.467  1.00  0.00     0.029 A 
ATOM     41  N   UNL A   1      39.406  30.585  31.487  1.00  0.00    -0.354 N 
ATOM     42  C   UNL A   1      42.530  28.783  33.870  1.00  0.00     0.074 A 
ATOM     43  C   UNL A   1      43.121  27.651  33.189  1.00  0.00     0.031 C 
ATOM     44  C   UNL A   1      38.065  30.816  29.712  1.00  0.00     0.029 A 
ATOM     45  C   UNL A   1      38.372  31.367  31.028  1.00  0.00     0.049 A 
ATOM     46  H   UNL A   1      39.827  30.712  32.369  1.00  0.00     0.167 HD
ATOM     47  C   UNL A   1      42.915  29.226  35.092  1.00  0.00     0.037 A 
ATOM     48  C   UNL A   1      37.746  32.413  31.600  1.00  0.00     0.037 A 
ATOM     49  C   UNL A   1      42.338  30.365  35.759  1.00  0.00     0.049 A 
ATOM     50  C   UNL A   1      38.205  32.893  32.950  1.00  0.00     0.074 A 
ATOM     51  C   UNL A   1      42.681  30.911  36.986  1.00  0.00     0.029 A 
ATOM     52  N   UNL A   1      41.307  31.143  35.254  1.00  0.00    -0.354 N 
ATOM     53  N   UNL A   1      39.160  32.417  33.714  1.00  0.00    -0.248 NA
ATOM     54  C   UNL A   1      37.510  34.060  33.510  1.00  0.00     0.031 C 
ATOM     55  C   UNL A   1      41.839  32.001  37.234  1.00  0.00     0.029 A 
ATOM     56  C   UNL A   1      40.996  32.157  36.145  1.00  0.00     0.049 A 
ATOM     57  H   UNL A   1      40.861  30.994  34.390  1.00  0.00     0.167 HD
ATOM     58  C   UNL A   1      39.192  33.240  34.835  1.00  0.00     0.074 A 
ATOM     59  C   UNL A   1      38.180  34.256  34.637  1.00  0.00     0.031 C 
ATOM     60  C   UNL A   1      39.985  33.159  35.931  1.00  0.00     0.037 A 
BRANCH  47  61
ATOM     61  C   UNL A   1      44.032  28.494  35.783  1.00  0.00     0.058 A 
ATOM     62  C   UNL A   1      43.771  27.428  36.659  1.00  0.00     0.135 A 
ATOM     63  C   UNL A   1      45.374  28.813  35.519  1.00  0.00     0.135 A 
ATOM     64  F   UNL A   1      42.507  27.092  36.958  1.00  0.00    -0.206 F 
ATOM     65  C   UNL A   1      44.801  26.712  37.261  1.00  0.00     0.059 A 
ATOM     66  C   UNL A   1      46.421  28.095  36.092  1.00  0.00     0.059 A 
ATOM     67  F   UNL A   1      45.678  29.824  34.692  1.00  0.00    -0.206 F 
ATOM     68  C   UNL A   1      46.123  27.051  36.968  1.00  0.00     0.060 A 
BRANCH  68  69
ATOM     69  S   UNL A   1      47.449  26.091  37.732  1.00  0.00     0.124 S 
ATOM     70  O   UNL A   1      48.604  26.513  36.944  1.00  0.00    -0.237 OA
ATOM     71  O   UNL A   1      47.419  26.561  39.113  1.00  0.00    -0.237 OA
ATOM     72  O   UNL A   1      47.025  24.710  37.533  1.00  0.00    -0.744 OA
ENDBRANCH  68  69
ENDBRANCH  47  61
BRANCH  48  73
ATOM     73  C   UNL A   1      36.630  33.097  30.896  1.00  0.00     0.058 A 
ATOM     74  C   UNL A   1      36.873  33.938  29.800  1.00  0.00     0.135 A 
ATOM     75  C   UNL A   1      35.302  32.944  31.321  1.00  0.00     0.135 A 
ATOM     76  F   UNL A   1      38.128  34.118  29.359  1.00  0.00    -0.206 F 
ATOM     77  C   UNL A   1      35.845  34.633  29.172  1.00  0.00     0.059 A 
ATOM     78  C   UNL A   1      34.254  33.608  30.693  1.00  0.00     0.059 A 
ATOM     79  F   UNL A   1      35.014  32.133  32.351  1.00  0.00    -0.206 F 
ATOM     80  C   UNL A   1      34.537  34.465  29.630  1.00  0.00     0.060 A 
BRANCH  80  81
ATOM     81  S   UNL A   1      33.202  35.356  28.804  1.00  0.00     0.124 S 
ATOM     82  O   UNL A   1      32.564  34.287  28.046  1.00  0.00    -0.237 OA
ATOM     83  O   UNL A   1      32.440  35.888  29.929  1.00  0.00    -0.237 OA
ATOM     84  O   UNL A   1      33.913  36.357  28.013  1.00  0.00    -0.744 OA
ENDBRANCH  80  81
ENDBRANCH  48  73
BRANCH  60  85
ATOM     85  C   UNL A   1      39.797  34.215  36.985  1.00  0.00     0.058 A 
ATOM     86  C   UNL A   1      40.380  35.485  36.865  1.00  0.00     0.135 A 
ATOM     87  C   UNL A   1      39.022  33.952  38.126  1.00  0.00     0.135 A 
ATOM     88  F   UNL A   1      41.134  35.783  35.794  1.00  0.00    -0.206 F 
ATOM     89  C   UNL A   1      40.238  36.446  37.860  1.00  0.00     0.059 A 
ATOM     90  C   UNL A   1      38.846  34.907  39.121  1.00  0.00     0.059 A 
ATOM     91  F   UNL A   1      38.432  32.756  38.284  1.00  0.00    -0.206 F 
ATOM     92  C   UNL A   1      39.475  36.144  38.989  1.00  0.00     0.060 A 
BRANCH  92  93
ATOM     93  S   UNL A   1      39.303  37.394  40.280  1.00  0.00     0.124 S 
ATOM     94  O   UNL A   1      38.497  38.405  39.603  1.00  0.00    -0.237 OA
ATOM     95  O   UNL A   1      38.629  36.657  41.346  1.00  0.00    -0.237 OA
ATOM     96  O   UNL A   1      40.682  37.776  40.567  1.00  0.00    -0.744 OA
ENDBRANCH  92  93
ENDBRANCH  60  85
ENDBRANCH  34  35
ENDBRANCH  26  29
ENDBRANCH  24  25
ENDBRANCH  23  24
ENDBRANCH   1  23
TORSDOF 18
ENDMDL
MODEL 3
REMARK VINA RESULT:     -11.1      4.837      9.901
REMARK SMILES C[C@@H]1CCC[C@@](Cc2ncccn2)(C(=O)NCCCCCCNC(=O)c2ccc(-c3c4nc(c(-c5c(F)cc(S(=O)(=O)[O-])cc5F)c5ccc([nH]5)c(-c5c(F)cc(S(=O)(=O)[O-])cc5F)c5nc(c(-c6c(F)cc(S(=O)(=O)[O-])cc6F)c6ccc3[nH]6)C=C5)C=C4)cc2)C1
REMARK SMILES IDX 20 1 19 2 18 3 17 4 16 5 14 6 15 7 6 9 1 10 2 11 3 12 92 13
REMARK SMILES IDX 4 14 5 15 7 16 8 17 9 18 13 19 10 20 12 21 11 22 21 23 22 24
REMARK SMILES IDX 23 25 24 26 25 28 26 29 27 30 91 31 28 32 90 33 29 34 30 35
REMARK SMILES IDX 31 36 84 37 32 38 89 39 83 40 85 41 33 42 88 43 82 44 81 45
REMARK SMILES IDX 34 47 68 48 47 49 67 50 48 51 51 52 66 53 86 54 49 55 50 56
REMARK SMILES IDX 65 58 87 59 52 60 35 61 36 62 45 63 37 64 38 65 44 66 46 67
REMARK SMILES IDX 39 68 40 69 41 70 42 71 43 72 69 73 70 74 79 75 71 76 72 77
REMARK SMILES IDX 78 78 80 79 73 80 74 81 75 82 76 83 77 84 53 85 54 86 63 87
REMARK SMILES IDX 55 88 56 89 62 90 64 91 57 92 58 93 59 94 60 95 61 96
REMARK H PARENT 16 8 23 27 85 46 51 57
REMARK Flexibility Score: inf
ROOT
ATOM      1  C   UNL A   1      31.593  27.184  25.420  1.00  0.00     0.002 C 
ENDROOT
BRANCH   1   2
ATOM      2  C   UNL A   1      30.973  25.828  25.056  1.00  0.00     0.002 C 
BRANCH   2   3
ATOM      3  C   UNL A   1      31.204  24.690  26.054  1.00  0.00     0.021 C 
BRANCH   3   4
ATOM      4  C   UNL A   1      31.329  23.307  25.430  1.00  0.00     0.116 C 
BRANCH   4   5
ATOM      5  N   UNL A   1      31.955  23.312  24.127  1.00  0.00    -0.356 N 
ATOM      6  C   UNL A   1      33.191  22.935  23.707  1.00  0.00     0.226 C 
ATOM      7  O   UNL A   1      33.298  22.805  22.479  1.00  0.00    -0.274 OA
ATOM      8  H   UNL A   1      31.376  23.654  23.408  1.00  0.00     0.163 HD
BRANCH   6   9
ATOM      9  C   UNL A   1      34.410  22.667  24.643  1.00  0.00     0.056 C 
ATOM     10  C   UNL A   1      37.468  21.163  24.996  1.00  0.00     0.007 C 
ATOM     11  C   UNL A   1      37.052  22.432  24.249  1.00  0.00    -0.013 C 
ATOM     12  C   UNL A   1      37.268  23.684  25.097  1.00  0.00     0.003 C 
ATOM     13  C   UNL A   1      35.625  22.394  23.669  1.00  0.00     0.020 C 
ATOM     14  C   UNL A   1      36.163  23.882  26.121  1.00  0.00     0.001 C 
ATOM     15  C   UNL A   1      34.781  23.918  25.475  1.00  0.00     0.017 C 
BRANCH   9  16
ATOM     16  C   UNL A   1      34.169  21.365  25.451  1.00  0.00     0.094 C 
BRANCH  16  17
ATOM     17  C   UNL A   1      33.812  20.096  24.731  1.00  0.00     0.129 A 
ATOM     18  N   UNL A   1      32.581  20.004  24.192  1.00  0.00    -0.241 NA
ATOM     19  N   UNL A   1      34.720  19.099  24.725  1.00  0.00    -0.241 NA
ATOM     20  C   UNL A   1      32.260  18.825  23.618  1.00  0.00     0.115 A 
ATOM     21  C   UNL A   1      34.346  17.945  24.139  1.00  0.00     0.115 A 
ATOM     22  C   UNL A   1      33.115  17.751  23.559  1.00  0.00     0.040 A 
ENDBRANCH  16  17
ENDBRANCH   9  16
ENDBRANCH   6   9
ENDBRANCH   4   5
ENDBRANCH   3   4
ENDBRANCH   2   3
ENDBRANCH   1   2
BRANCH   1  23
ATOM     23  C   UNL A   1      33.114  27.299  25.268  1.00  0.00     0.021 C 
BRANCH  23  24
ATOM     24  C   UNL A   1      33.882  27.698  26.525  1.00  0.00     0.116 C 
BRANCH  24  25
ATOM     25  N   UNL A   1      33.567  29.043  26.965  1.00  0.00    -0.352 N 
ATOM     26  C   UNL A   1      34.329  29.959  27.640  1.00  0.00     0.251 C 
ATOM     27  H   UNL A   1      32.658  29.348  26.742  1.00  0.00     0.163 HD
ATOM     28  O   UNL A   1      33.793  30.993  28.043  1.00  0.00    -0.269 OA
BRANCH  26  29
ATOM     29  C   UNL A   1      35.766  29.724  27.913  1.00  0.00     0.039 A 
ATOM     30  C   UNL A   1      36.134  29.325  29.202  1.00  0.00     0.014 A 
ATOM     31  C   UNL A   1      36.757  29.949  26.951  1.00  0.00     0.014 A 
ATOM     32  C   UNL A   1      37.479  29.113  29.514  1.00  0.00     0.010 A 
ATOM     33  C   UNL A   1      38.097  29.677  27.246  1.00  0.00     0.010 A 
ATOM     34  C   UNL A   1      38.471  29.263  28.532  1.00  0.00    -0.014 A 
BRANCH  34  35
ATOM     35  C   UNL A   1      39.895  28.986  28.858  1.00  0.00     0.031 A 
ATOM     36  C   UNL A   1      40.506  27.644  28.556  1.00  0.00     0.074 A 
ATOM     37  C   UNL A   1      40.639  29.951  29.435  1.00  0.00     0.049 A 
ATOM     38  N   UNL A   1      41.734  27.234  28.753  1.00  0.00    -0.248 NA
ATOM     39  C   UNL A   1      39.621  26.621  27.975  1.00  0.00     0.031 C 
ATOM     40  C   UNL A   1      40.148  31.276  29.823  1.00  0.00     0.029 A 
ATOM     41  N   UNL A   1      41.963  29.973  29.790  1.00  0.00    -0.354 N 
ATOM     42  C   UNL A   1      41.771  25.914  28.316  1.00  0.00     0.074 A 
ATOM     43  C   UNL A   1      40.429  25.572  27.896  1.00  0.00     0.031 C 
ATOM     44  C   UNL A   1      41.164  31.990  30.335  1.00  0.00     0.029 A 
ATOM     45  C   UNL A   1      42.371  31.170  30.333  1.00  0.00     0.049 A 
ATOM     46  H   UNL A   1      42.567  29.204  29.668  1.00  0.00     0.167 HD
ATOM     47  C   UNL A   1      42.832  25.073  28.245  1.00  0.00     0.037 A 
ATOM     48  C   UNL A   1      43.581  31.563  30.773  1.00  0.00     0.037 A 
ATOM     49  C   UNL A   1      44.171  25.422  28.645  1.00  0.00     0.049 A 
ATOM     50  C   UNL A   1      44.743  30.614  30.667  1.00  0.00     0.074 A 
ATOM     51  C   UNL A   1      45.319  24.648  28.583  1.00  0.00     0.029 A 
ATOM     52  N   UNL A   1      44.548  26.649  29.172  1.00  0.00    -0.354 N 
ATOM     53  N   UNL A   1      44.766  29.386  30.206  1.00  0.00    -0.248 NA
ATOM     54  C   UNL A   1      46.048  31.109  31.129  1.00  0.00     0.031 C 
ATOM     55  C   UNL A   1      46.383  25.399  29.097  1.00  0.00     0.029 A 
ATOM     56  C   UNL A   1      45.906  26.652  29.444  1.00  0.00     0.049 A 
ATOM     57  H   UNL A   1      43.939  27.406  29.328  1.00  0.00     0.167 HD
ATOM     58  C   UNL A   1      46.089  28.969  30.305  1.00  0.00     0.074 A 
ATOM     59  C   UNL A   1      46.839  30.084  30.845  1.00  0.00     0.031 C 
ATOM     60  C   UNL A   1      46.635  27.771  29.982  1.00  0.00     0.037 A 
BRANCH  47  61
ATOM     61  C   UNL A   1      42.597  23.696  27.690  1.00  0.00     0.058 A 
ATOM     62  C   UNL A   1      42.660  23.447  26.309  1.00  0.00     0.135 A 
ATOM     63  C   UNL A   1      42.375  22.603  28.543  1.00  0.00     0.135 A 
ATOM     64  F   UNL A   1      42.853  24.458  25.449  1.00  0.00    -0.206 F 
ATOM     65  C   UNL A   1      42.497  22.166  25.793  1.00  0.00     0.059 A 
ATOM     66  C   UNL A   1      42.232  21.308  28.050  1.00  0.00     0.059 A 
ATOM     67  F   UNL A   1      42.304  22.785  29.871  1.00  0.00    -0.206 F 
ATOM     68  C   UNL A   1      42.287  21.102  26.672  1.00  0.00     0.060 A 
BRANCH  68  69
ATOM     69  S   UNL A   1      42.110  19.440  25.987  1.00  0.00     0.124 S 
ATOM     70  O   UNL A   1      42.955  19.525  24.799  1.00  0.00    -0.237 OA
ATOM     71  O   UNL A   1      42.621  18.601  27.067  1.00  0.00    -0.237 OA
ATOM     72  O   UNL A   1      40.679  19.327  25.733  1.00  0.00    -0.744 OA
ENDBRANCH  68  69
ENDBRANCH  47  61
BRANCH  48  73
ATOM     73  C   UNL A   1      43.769  32.925  31.337  1.00  0.00     0.058 A 
ATOM     74  C   UNL A   1      43.556  33.181  32.699  1.00  0.00     0.135 A 
ATOM     75  C   UNL A   1      44.141  34.003  30.519  1.00  0.00     0.135 A 
ATOM     76  F   UNL A   1      43.196  32.182  33.520  1.00  0.00    -0.206 F 
ATOM     77  C   UNL A   1      43.667  34.463  33.226  1.00  0.00     0.059 A 
ATOM     78  C   UNL A   1      44.284  35.289  31.027  1.00  0.00     0.059 A 
ATOM     79  F   UNL A   1      44.379  33.806  29.212  1.00  0.00    -0.206 F 
ATOM     80  C   UNL A   1      44.027  35.514  32.379  1.00  0.00     0.060 A 
BRANCH  80  81
ATOM     81  S   UNL A   1      44.186  37.174  33.069  1.00  0.00     0.124 S 
ATOM     82  O   UNL A   1      45.458  37.076  33.775  1.00  0.00    -0.237 OA
ATOM     83  O   UNL A   1      44.181  38.010  31.872  1.00  0.00    -0.237 OA
ATOM     84  O   UNL A   1      43.001  37.297  33.912  1.00  0.00    -0.744 OA
ENDBRANCH  80  81
ENDBRANCH  48  73
BRANCH  60  85
ATOM     85  C   UNL A   1      48.117  27.621  30.188  1.00  0.00     0.058 A 
ATOM     86  C   UNL A   1      49.032  27.906  29.163  1.00  0.00     0.135 A 
ATOM     87  C   UNL A   1      48.625  27.190  31.423  1.00  0.00     0.135 A 
ATOM     88  F   UNL A   1      48.595  28.316  27.962  1.00  0.00    -0.206 F 
ATOM     89  C   UNL A   1      50.400  27.728  29.342  1.00  0.00     0.059 A 
ATOM     90  C   UNL A   1      49.990  27.030  31.632  1.00  0.00     0.059 A 
ATOM     91  F   UNL A   1      47.791  26.917  32.440  1.00  0.00    -0.206 F 
ATOM     92  C   UNL A   1      50.868  27.281  30.579  1.00  0.00     0.060 A 
BRANCH  92  93
ATOM     93  S   UNL A   1      52.644  27.045  30.801  1.00  0.00     0.124 S 
ATOM     94  O   UNL A   1      53.038  28.320  31.391  1.00  0.00    -0.237 OA
ATOM     95  O   UNL A   1      52.700  25.890  31.694  1.00  0.00    -0.237 OA
ATOM     96  O   UNL A   1      53.125  26.803  29.445  1.00  0.00    -0.744 OA
ENDBRANCH  92  93
ENDBRANCH  60  85
ENDBRANCH  34  35
ENDBRANCH  26  29
ENDBRANCH  24  25
ENDBRANCH  23  24
ENDBRANCH   1  23
TORSDOF 18
ENDMDL
