MODEL 1
REMARK VINA RESULT:     -12.2      0.000      0.000
REMARK SMILES O=C(NCCCCCCNC(=O)[C@@]1(Cl)C=CC=C(c2ccccc2)[C@H]1Cl)c1ccc(-c2c3nc(c(-c4c(F)cc(S(=O)(=O)[O-])cc4F)c4ccc([nH]4)c(-c4c(F)cc(S(=O)(=O)[O-])cc4F)c4nc(c(-c5c(F)cc(S(=O)(=O)[O-])cc5F)c5ccc2[nH]5)C=C4)C=C3)cc1
REMARK SMILES IDX 5 1 4 2 3 3 1 4 2 5 27 7 28 8 92 9 29 10 91 11 30 12 31 13
REMARK SMILES IDX 32 14 85 15 33 16 90 17 84 18 86 19 34 20 89 21 83 22 82 23
REMARK SMILES IDX 35 25 69 26 48 27 68 28 49 29 52 30 67 31 87 32 50 33 51 34
REMARK SMILES IDX 66 36 88 37 53 38 36 39 37 40 46 41 38 42 39 43 45 44 47 45
REMARK SMILES IDX 40 46 41 47 42 48 43 49 44 50 70 51 71 52 80 53 72 54 73 55
REMARK SMILES IDX 79 56 81 57 74 58 75 59 76 60 77 61 78 62 54 63 55 64 64 65
REMARK SMILES IDX 56 66 57 67 63 68 65 69 58 70 59 71 60 72 61 73 62 74 6 75
REMARK SMILES IDX 7 76 8 77 9 78 10 79 11 80 12 82 13 83 14 84 15 85 25 86
REMARK SMILES IDX 16 87 18 88 26 89 17 90 19 91 20 92 24 93 21 94 23 95 22 96
REMARK H PARENT 3 6 86 24 52 35 10 81
REMARK Flexibility Score: inf
ROOT
ATOM      1  C   UNL A   1      40.585  22.665  27.677  1.00  0.00     0.021 C 
ENDROOT
BRANCH   1   2
ATOM      2  C   UNL A   1      41.956  23.283  27.448  1.00  0.00     0.116 C 
BRANCH   2   3
ATOM      3  N   UNL A   1      42.020  24.055  26.219  1.00  0.00    -0.352 N 
ATOM      4  O   UNL A   1      41.675  25.859  24.903  1.00  0.00    -0.269 OA
ATOM      5  C   UNL A   1      41.734  25.388  26.034  1.00  0.00     0.251 C 
ATOM      6  H   UNL A   1      42.304  23.561  25.415  1.00  0.00     0.163 HD
BRANCH   5   7
ATOM      7  C   UNL A   1      41.472  26.238  27.216  1.00  0.00     0.039 A 
ATOM      8  C   UNL A   1      42.390  27.223  27.589  1.00  0.00     0.014 A 
ATOM      9  C   UNL A   1      40.313  26.036  27.970  1.00  0.00     0.014 A 
ATOM     10  C   UNL A   1      42.219  27.907  28.785  1.00  0.00     0.010 A 
ATOM     11  C   UNL A   1      40.096  26.794  29.126  1.00  0.00     0.010 A 
ATOM     12  C   UNL A   1      41.057  27.720  29.555  1.00  0.00    -0.014 A 
BRANCH  12  13
ATOM     13  C   UNL A   1      40.850  28.586  30.744  1.00  0.00     0.031 A 
ATOM     14  C   UNL A   1      41.728  28.487  31.959  1.00  0.00     0.074 A 
ATOM     15  C   UNL A   1      39.877  29.519  30.680  1.00  0.00     0.049 A 
ATOM     16  N   UNL A   1      41.709  29.217  33.046  1.00  0.00    -0.248 NA
ATOM     17  C   UNL A   1      42.755  27.434  31.965  1.00  0.00     0.031 C 
ATOM     18  C   UNL A   1      38.945  29.683  29.558  1.00  0.00     0.029 A 
ATOM     19  N   UNL A   1      39.528  30.519  31.547  1.00  0.00    -0.354 N 
ATOM     20  C   UNL A   1      42.708  28.710  33.868  1.00  0.00     0.074 A 
ATOM     21  C   UNL A   1      43.299  27.591  33.166  1.00  0.00     0.031 C 
ATOM     22  C   UNL A   1      38.174  30.757  29.780  1.00  0.00     0.029 A 
ATOM     23  C   UNL A   1      38.511  31.317  31.082  1.00  0.00     0.049 A 
ATOM     24  H   UNL A   1      39.963  30.653  32.421  1.00  0.00     0.167 HD
ATOM     25  C   UNL A   1      43.097  29.148  35.091  1.00  0.00     0.037 A 
ATOM     26  C   UNL A   1      37.905  32.380  31.642  1.00  0.00     0.037 A 
ATOM     27  C   UNL A   1      42.503  30.270  35.776  1.00  0.00     0.049 A 
ATOM     28  C   UNL A   1      38.366  32.848  32.991  1.00  0.00     0.074 A 
ATOM     29  C   UNL A   1      42.831  30.793  37.016  1.00  0.00     0.029 A 
ATOM     30  N   UNL A   1      41.465  31.045  35.281  1.00  0.00    -0.354 N 
ATOM     31  N   UNL A   1      39.321  32.359  33.746  1.00  0.00    -0.248 NA
ATOM     32  C   UNL A   1      37.669  34.005  33.565  1.00  0.00     0.031 C 
ATOM     33  C   UNL A   1      41.970  31.866  37.281  1.00  0.00     0.029 A 
ATOM     34  C   UNL A   1      41.134  32.036  36.192  1.00  0.00     0.049 A 
ATOM     35  H   UNL A   1      41.027  30.911  34.409  1.00  0.00     0.167 HD
ATOM     36  C   UNL A   1      39.337  33.148  34.889  1.00  0.00     0.074 A 
ATOM     37  C   UNL A   1      38.324  34.167  34.706  1.00  0.00     0.031 C 
ATOM     38  C   UNL A   1      40.111  33.032  35.996  1.00  0.00     0.037 A 
BRANCH  25  39
ATOM     39  C   UNL A   1      44.219  28.416  35.777  1.00  0.00     0.058 A 
ATOM     40  C   UNL A   1      43.972  27.330  36.632  1.00  0.00     0.135 A 
ATOM     41  C   UNL A   1      45.558  28.755  35.521  1.00  0.00     0.135 A 
ATOM     42  F   UNL A   1      42.711  26.973  36.924  1.00  0.00    -0.206 F 
ATOM     43  C   UNL A   1      45.012  26.613  37.216  1.00  0.00     0.059 A 
ATOM     44  C   UNL A   1      46.614  28.038  36.077  1.00  0.00     0.059 A 
ATOM     45  F   UNL A   1      45.851  29.785  34.712  1.00  0.00    -0.206 F 
ATOM     46  C   UNL A   1      46.330  26.972  36.931  1.00  0.00     0.060 A 
BRANCH  46  47
ATOM     47  S   UNL A   1      47.666  26.012  37.675  1.00  0.00     0.124 S 
ATOM     48  O   UNL A   1      47.841  26.698  38.952  1.00  0.00    -0.237 OA
ATOM     49  O   UNL A   1      47.088  24.675  37.748  1.00  0.00    -0.237 OA
ATOM     50  O   UNL A   1      48.766  26.166  36.726  1.00  0.00    -0.744 OA
ENDBRANCH  46  47
ENDBRANCH  25  39
BRANCH  26  51
ATOM     51  C   UNL A   1      36.785  33.051  30.933  1.00  0.00     0.058 A 
ATOM     52  C   UNL A   1      35.452  32.835  31.310  1.00  0.00     0.135 A 
ATOM     53  C   UNL A   1      37.032  33.940  29.877  1.00  0.00     0.135 A 
ATOM     54  F   UNL A   1      35.165  31.993  32.315  1.00  0.00    -0.206 F 
ATOM     55  C   UNL A   1      34.400  33.461  30.648  1.00  0.00     0.059 A 
ATOM     56  C   UNL A   1      36.000  34.601  29.220  1.00  0.00     0.059 A 
ATOM     57  F   UNL A   1      38.293  34.198  29.495  1.00  0.00    -0.206 F 
ATOM     58  C   UNL A   1      34.686  34.343  29.603  1.00  0.00     0.060 A 
BRANCH  58  59
ATOM     59  S   UNL A   1      33.322  35.186  28.773  1.00  0.00     0.124 S 
ATOM     60  O   UNL A   1      34.033  36.204  28.008  1.00  0.00    -0.237 OA
ATOM     61  O   UNL A   1      32.718  34.108  27.996  1.00  0.00    -0.237 OA
ATOM     62  O   UNL A   1      32.511  35.678  29.882  1.00  0.00    -0.744 OA
ENDBRANCH  58  59
ENDBRANCH  26  51
BRANCH  38  63
ATOM     63  C   UNL A   1      39.881  34.040  37.085  1.00  0.00     0.058 A 
ATOM     64  C   UNL A   1      39.039  33.761  38.173  1.00  0.00     0.135 A 
ATOM     65  C   UNL A   1      40.502  35.297  37.038  1.00  0.00     0.135 A 
ATOM     66  F   UNL A   1      38.416  32.574  38.258  1.00  0.00    -0.206 F 
ATOM     67  C   UNL A   1      38.789  34.708  39.159  1.00  0.00     0.059 A 
ATOM     68  C   UNL A   1      40.287  36.251  38.026  1.00  0.00     0.059 A 
ATOM     69  F   UNL A   1      41.324  35.609  36.023  1.00  0.00    -0.206 F 
ATOM     70  C   UNL A   1      39.413  35.955  39.072  1.00  0.00     0.060 A 
BRANCH  70  71
ATOM     71  S   UNL A   1      39.078  37.182  40.353  1.00  0.00     0.124 S 
ATOM     72  O   UNL A   1      38.439  38.243  39.580  1.00  0.00    -0.237 OA
ATOM     73  O   UNL A   1      38.209  36.453  41.270  1.00  0.00    -0.237 OA
ATOM     74  O   UNL A   1      40.406  37.496  40.873  1.00  0.00    -0.744 OA
ENDBRANCH  70  71
ENDBRANCH  38  63
ENDBRANCH  12  13
ENDBRANCH   5   7
ENDBRANCH   2   3
ENDBRANCH   1   2
BRANCH   1  75
ATOM     75  C   UNL A   1      40.116  21.724  26.568  1.00  0.00     0.002 C 
BRANCH  75  76
ATOM     76  C   UNL A   1      38.745  22.049  25.964  1.00  0.00     0.002 C 
BRANCH  76  77
ATOM     77  C   UNL A   1      38.275  23.499  26.128  1.00  0.00     0.021 C 
BRANCH  77  78
ATOM     78  C   UNL A   1      36.771  23.703  25.940  1.00  0.00     0.116 C 
BRANCH  78  79
ATOM     79  N   UNL A   1      36.368  23.534  24.555  1.00  0.00    -0.354 N 
ATOM     80  C   UNL A   1      35.224  23.055  23.975  1.00  0.00     0.247 C 
ATOM     81  H   UNL A   1      37.052  23.820  23.906  1.00  0.00     0.163 HD
ATOM     82  O   UNL A   1      35.167  23.226  22.751  1.00  0.00    -0.273 OA
BRANCH  80  83
ATOM     83  C   UNL A   1      34.012  22.509  24.788  1.00  0.00     0.161 C 
ATOM     84  Cl  UNL A   1      33.891  23.315  26.403  1.00  0.00    -0.102 Cl
ATOM     85  C   UNL A   1      32.806  22.894  23.943  1.00  0.00     0.008 C 
ATOM     86  C   UNL A   1      34.066  20.970  25.088  1.00  0.00     0.146 C 
ATOM     87  C   UNL A   1      32.107  22.005  23.224  1.00  0.00    -0.002 C 
ATOM     88  C   UNL A   1      33.264  20.074  24.155  1.00  0.00    -0.020 C 
ATOM     89  Cl  UNL A   1      35.731  20.339  25.374  1.00  0.00    -0.115 Cl
ATOM     90  C   UNL A   1      32.381  20.592  23.281  1.00  0.00     0.006 C 
BRANCH  88  91
ATOM     91  C   UNL A   1      33.256  18.614  24.391  1.00  0.00    -0.021 A 
ATOM     92  C   UNL A   1      32.552  18.050  25.462  1.00  0.00     0.008 A 
ATOM     93  C   UNL A   1      33.978  17.765  23.537  1.00  0.00     0.008 A 
ATOM     94  C   UNL A   1      32.558  16.666  25.661  1.00  0.00     0.001 A 
ATOM     95  C   UNL A   1      33.980  16.384  23.733  1.00  0.00     0.001 A 
ATOM     96  C   UNL A   1      33.268  15.835  24.795  1.00  0.00     0.000 A 
ENDBRANCH  88  91
ENDBRANCH  80  83
ENDBRANCH  78  79
ENDBRANCH  77  78
ENDBRANCH  76  77
ENDBRANCH  75  76
ENDBRANCH   1  75
TORSDOF 17
ENDMDL
MODEL 2
REMARK VINA RESULT:     -12.0      6.874     12.109
REMARK SMILES O=C(NCCCCCCNC(=O)[C@@]1(Cl)C=CC=C(c2ccccc2)[C@H]1Cl)c1ccc(-c2c3nc(c(-c4c(F)cc(S(=O)(=O)[O-])cc4F)c4ccc([nH]4)c(-c4c(F)cc(S(=O)(=O)[O-])cc4F)c4nc(c(-c5c(F)cc(S(=O)(=O)[O-])cc5F)c5ccc2[nH]5)C=C4)C=C3)cc1
REMARK SMILES IDX 5 1 4 2 3 3 1 4 2 5 27 7 28 8 92 9 29 10 91 11 30 12 31 13
REMARK SMILES IDX 32 14 85 15 33 16 90 17 84 18 86 19 34 20 89 21 83 22 82 23
REMARK SMILES IDX 35 25 69 26 48 27 68 28 49 29 52 30 67 31 87 32 50 33 51 34
REMARK SMILES IDX 66 36 88 37 53 38 36 39 37 40 46 41 38 42 39 43 45 44 47 45
REMARK SMILES IDX 40 46 41 47 42 48 43 49 44 50 70 51 71 52 80 53 72 54 73 55
REMARK SMILES IDX 79 56 81 57 74 58 75 59 76 60 77 61 78 62 54 63 55 64 64 65
REMARK SMILES IDX 56 66 57 67 63 68 65 69 58 70 59 71 60 72 61 73 62 74 6 75
REMARK SMILES IDX 7 76 8 77 9 78 10 79 11 80 12 82 13 83 14 84 15 85 25 86
REMARK SMILES IDX 16 87 18 88 26 89 17 90 19 91 20 92 24 93 21 94 23 95 22 96
REMARK H PARENT 3 6 86 24 52 35 10 81
REMARK Flexibility Score: inf
ROOT
ATOM      1  C   UNL A   1      34.062  29.596  26.957  1.00  0.00     0.021 C 
ENDROOT
BRANCH   1   2
ATOM      2  C   UNL A   1      35.375  29.312  27.670  1.00  0.00     0.116 C 
BRANCH   2   3
ATOM      3  N   UNL A   1      35.360  29.745  29.057  1.00  0.00    -0.352 N 
ATOM      4  O   UNL A   1      36.191  29.987  31.145  1.00  0.00    -0.269 OA
ATOM      5  C   UNL A   1      36.399  29.746  29.959  1.00  0.00     0.251 C 
ATOM      6  H   UNL A   1      34.497  30.078  29.395  1.00  0.00     0.163 HD
BRANCH   5   7
ATOM      7  C   UNL A   1      37.764  29.430  29.485  1.00  0.00     0.039 A 
ATOM      8  C   UNL A   1      38.709  28.904  30.370  1.00  0.00     0.014 A 
ATOM      9  C   UNL A   1      38.109  29.679  28.154  1.00  0.00     0.014 A 
ATOM     10  C   UNL A   1      40.028  28.759  29.961  1.00  0.00     0.010 A 
ATOM     11  C   UNL A   1      39.418  29.442  27.720  1.00  0.00     0.010 A 
ATOM     12  C   UNL A   1      40.393  29.002  28.625  1.00  0.00    -0.014 A 
BRANCH  12  13
ATOM     13  C   UNL A   1      41.782  28.685  28.203  1.00  0.00     0.031 A 
ATOM     14  C   UNL A   1      42.869  29.723  28.214  1.00  0.00     0.074 A 
ATOM     15  C   UNL A   1      42.060  27.410  27.861  1.00  0.00     0.049 A 
ATOM     16  N   UNL A   1      44.141  29.580  27.934  1.00  0.00    -0.248 NA
ATOM     17  C   UNL A   1      42.488  31.096  28.579  1.00  0.00     0.031 C 
ATOM     18  C   UNL A   1      41.072  26.328  27.786  1.00  0.00     0.029 A 
ATOM     19  N   UNL A   1      43.244  26.798  27.548  1.00  0.00    -0.354 N 
ATOM     20  C   UNL A   1      44.710  30.840  28.077  1.00  0.00     0.074 A 
ATOM     21  C   UNL A   1      43.640  31.743  28.444  1.00  0.00     0.031 C 
ATOM     22  C   UNL A   1      41.700  25.177  27.509  1.00  0.00     0.029 A 
ATOM     23  C   UNL A   1      43.119  25.447  27.324  1.00  0.00     0.049 A 
ATOM     24  H   UNL A   1      44.101  27.278  27.487  1.00  0.00     0.167 HD
ATOM     25  C   UNL A   1      46.008  31.201  27.923  1.00  0.00     0.037 A 
ATOM     26  C   UNL A   1      44.042  24.525  26.995  1.00  0.00     0.037 A 
ATOM     27  C   UNL A   1      47.065  30.289  27.564  1.00  0.00     0.049 A 
ATOM     28  C   UNL A   1      45.472  24.954  26.845  1.00  0.00     0.074 A 
ATOM     29  C   UNL A   1      48.413  30.559  27.389  1.00  0.00     0.029 A 
ATOM     30  N   UNL A   1      46.899  28.932  27.330  1.00  0.00    -0.354 N 
ATOM     31  N   UNL A   1      45.989  26.150  26.996  1.00  0.00    -0.248 NA
ATOM     32  C   UNL A   1      46.440  23.914  26.478  1.00  0.00     0.031 C 
ATOM     33  C   UNL A   1      49.054  29.370  27.021  1.00  0.00     0.029 A 
ATOM     34  C   UNL A   1      48.116  28.352  27.005  1.00  0.00     0.049 A 
ATOM     35  H   UNL A   1      46.042  28.450  27.388  1.00  0.00     0.167 HD
ATOM     36  C   UNL A   1      47.346  26.007  26.737  1.00  0.00     0.074 A 
ATOM     37  C   UNL A   1      47.572  24.603  26.460  1.00  0.00     0.031 C 
ATOM     38  C   UNL A   1      48.316  26.955  26.718  1.00  0.00     0.037 A 
BRANCH  25  39
ATOM     39  C   UNL A   1      46.367  32.647  28.141  1.00  0.00     0.058 A 
ATOM     40  C   UNL A   1      46.862  33.101  29.374  1.00  0.00     0.135 A 
ATOM     41  C   UNL A   1      46.285  33.572  27.088  1.00  0.00     0.135 A 
ATOM     42  F   UNL A   1      46.947  32.263  30.419  1.00  0.00    -0.206 F 
ATOM     43  C   UNL A   1      47.255  34.424  29.557  1.00  0.00     0.059 A 
ATOM     44  C   UNL A   1      46.692  34.895  27.243  1.00  0.00     0.059 A 
ATOM     45  F   UNL A   1      45.817  33.191  25.889  1.00  0.00    -0.206 F 
ATOM     46  C   UNL A   1      47.169  35.314  28.485  1.00  0.00     0.060 A 
BRANCH  46  47
ATOM     47  S   UNL A   1      47.709  37.019  28.733  1.00  0.00     0.124 S 
ATOM     48  O   UNL A   1      47.409  37.215  30.148  1.00  0.00    -0.237 OA
ATOM     49  O   UNL A   1      49.125  36.952  28.389  1.00  0.00    -0.237 OA
ATOM     50  O   UNL A   1      46.876  37.778  27.804  1.00  0.00    -0.744 OA
ENDBRANCH  46  47
ENDBRANCH  25  39
BRANCH  26  51
ATOM     51  C   UNL A   1      43.630  23.116  26.767  1.00  0.00     0.058 A 
ATOM     52  C   UNL A   1      43.619  22.560  25.480  1.00  0.00     0.135 A 
ATOM     53  C   UNL A   1      43.261  22.292  27.841  1.00  0.00     0.135 A 
ATOM     54  F   UNL A   1      43.964  23.310  24.422  1.00  0.00    -0.206 F 
ATOM     55  C   UNL A   1      43.233  21.241  25.261  1.00  0.00     0.059 A 
ATOM     56  C   UNL A   1      42.901  20.962  27.651  1.00  0.00     0.059 A 
ATOM     57  F   UNL A   1      43.279  22.770  29.094  1.00  0.00    -0.206 F 
ATOM     58  C   UNL A   1      42.875  20.450  26.356  1.00  0.00     0.060 A 
BRANCH  58  59
ATOM     59  S   UNL A   1      42.415  18.727  26.075  1.00  0.00     0.124 S 
ATOM     60  O   UNL A   1      42.622  18.153  27.400  1.00  0.00    -0.237 OA
ATOM     61  O   UNL A   1      41.027  18.844  25.639  1.00  0.00    -0.237 OA
ATOM     62  O   UNL A   1      43.354  18.297  25.044  1.00  0.00    -0.744 OA
ENDBRANCH  58  59
ENDBRANCH  26  51
BRANCH  38  63
ATOM     63  C   UNL A   1      49.704  26.488  26.385  1.00  0.00     0.058 A 
ATOM     64  C   UNL A   1      50.566  25.995  27.378  1.00  0.00     0.135 A 
ATOM     65  C   UNL A   1      50.178  26.537  25.066  1.00  0.00     0.135 A 
ATOM     66  F   UNL A   1      50.160  25.935  28.656  1.00  0.00    -0.206 F 
ATOM     67  C   UNL A   1      51.866  25.603  27.080  1.00  0.00     0.059 A 
ATOM     68  C   UNL A   1      51.467  26.127  24.741  1.00  0.00     0.059 A 
ATOM     69  F   UNL A   1      49.389  26.992  24.080  1.00  0.00    -0.206 F 
ATOM     70  C   UNL A   1      52.310  25.681  25.758  1.00  0.00     0.060 A 
BRANCH  70  71
ATOM     71  S   UNL A   1      54.002  25.177  25.381  1.00  0.00     0.124 S 
ATOM     72  O   UNL A   1      54.659  25.372  26.670  1.00  0.00    -0.237 OA
ATOM     73  O   UNL A   1      53.832  23.791  24.959  1.00  0.00    -0.237 OA
ATOM     74  O   UNL A   1      54.401  26.103  24.325  1.00  0.00    -0.744 OA
ENDBRANCH  70  71
ENDBRANCH  38  63
ENDBRANCH  12  13
ENDBRANCH   5   7
ENDBRANCH   2   3
ENDBRANCH   1   2
BRANCH   1  75
ATOM     75  C   UNL A   1      33.785  28.700  25.750  1.00  0.00     0.002 C 
BRANCH  75  76
ATOM     76  C   UNL A   1      33.091  27.370  26.062  1.00  0.00     0.002 C 
BRANCH  76  77
ATOM     77  C   UNL A   1      33.540  26.173  25.215  1.00  0.00     0.021 C 
BRANCH  77  78
ATOM     78  C   UNL A   1      33.625  24.851  25.980  1.00  0.00     0.116 C 
BRANCH  78  79
ATOM     79  N   UNL A   1      32.369  24.125  25.953  1.00  0.00    -0.354 N 
ATOM     80  C   UNL A   1      32.019  22.898  25.456  1.00  0.00     0.247 C 
ATOM     81  H   UNL A   1      31.622  24.609  26.376  1.00  0.00     0.163 HD
ATOM     82  O   UNL A   1      30.881  22.529  25.774  1.00  0.00    -0.273 OA
BRANCH  80  83
ATOM     83  C   UNL A   1      33.013  21.957  24.711  1.00  0.00     0.161 C 
ATOM     84  Cl  UNL A   1      32.377  20.266  24.628  1.00  0.00    -0.102 Cl
ATOM     85  C   UNL A   1      33.079  22.538  23.307  1.00  0.00     0.008 C 
ATOM     86  C   UNL A   1      34.428  21.842  25.379  1.00  0.00     0.146 C 
ATOM     87  C   UNL A   1      34.137  23.224  22.851  1.00  0.00    -0.002 C 
ATOM     88  C   UNL A   1      35.523  22.720  24.790  1.00  0.00    -0.020 C 
ATOM     89  Cl  UNL A   1      34.394  21.912  27.181  1.00  0.00    -0.115 Cl
ATOM     90  C   UNL A   1      35.344  23.369  23.624  1.00  0.00     0.006 C 
BRANCH  88  91
ATOM     91  C   UNL A   1      36.887  22.647  25.359  1.00  0.00    -0.021 A 
ATOM     92  C   UNL A   1      37.662  21.486  25.256  1.00  0.00     0.008 A 
ATOM     93  C   UNL A   1      37.421  23.758  26.033  1.00  0.00     0.008 A 
ATOM     94  C   UNL A   1      38.950  21.446  25.801  1.00  0.00     0.001 A 
ATOM     95  C   UNL A   1      38.707  23.719  26.571  1.00  0.00     0.001 A 
ATOM     96  C   UNL A   1      39.472  22.562  26.453  1.00  0.00     0.000 A 
ENDBRANCH  88  91
ENDBRANCH  80  83
ENDBRANCH  78  79
ENDBRANCH  77  78
ENDBRANCH  76  77
ENDBRANCH  75  76
ENDBRANCH   1  75
TORSDOF 17
ENDMDL
MODEL 3
REMARK VINA RESULT:     -11.9      1.849      3.545
REMARK SMILES O=C(NCCCCCCNC(=O)[C@@]1(Cl)C=CC=C(c2ccccc2)[C@H]1Cl)c1ccc(-c2c3nc(c(-c4c(F)cc(S(=O)(=O)[O-])cc4F)c4ccc([nH]4)c(-c4c(F)cc(S(=O)(=O)[O-])cc4F)c4nc(c(-c5c(F)cc(S(=O)(=O)[O-])cc5F)c5ccc2[nH]5)C=C4)C=C3)cc1
REMARK SMILES IDX 5 1 4 2 3 3 1 4 2 5 27 7 28 8 92 9 29 10 91 11 30 12 31 13
REMARK SMILES IDX 32 14 85 15 33 16 90 17 84 18 86 19 34 20 89 21 83 22 82 23
REMARK SMILES IDX 35 25 69 26 48 27 68 28 49 29 52 30 67 31 87 32 50 33 51 34
REMARK SMILES IDX 66 36 88 37 53 38 36 39 37 40 46 41 38 42 39 43 45 44 47 45
REMARK SMILES IDX 40 46 41 47 42 48 43 49 44 50 70 51 71 52 80 53 72 54 73 55
REMARK SMILES IDX 79 56 81 57 74 58 75 59 76 60 77 61 78 62 54 63 55 64 64 65
REMARK SMILES IDX 56 66 57 67 63 68 65 69 58 70 59 71 60 72 61 73 62 74 6 75
REMARK SMILES IDX 7 76 8 77 9 78 10 79 11 80 12 82 13 83 14 84 15 85 25 86
REMARK SMILES IDX 16 87 18 88 26 89 17 90 19 91 20 92 24 93 21 94 23 95 22 96
REMARK H PARENT 3 6 86 24 52 35 10 81
REMARK Flexibility Score: inf
ROOT
ATOM      1  C   UNL A   1      37.611  23.673  25.911  1.00  0.00     0.021 C 
ENDROOT
BRANCH   1   2
ATOM      2  C   UNL A   1      38.812  24.023  26.775  1.00  0.00     0.116 C 
BRANCH   2   3
ATOM      3  N   UNL A   1      39.976  24.393  25.987  1.00  0.00    -0.352 N 
ATOM      4  O   UNL A   1      41.643  25.752  25.295  1.00  0.00    -0.269 OA
ATOM      5  C   UNL A   1      40.796  25.486  26.143  1.00  0.00     0.251 C 
ATOM      6  H   UNL A   1      40.205  23.785  25.248  1.00  0.00     0.163 HD
BRANCH   5   7
ATOM      7  C   UNL A   1      40.628  26.349  27.332  1.00  0.00     0.039 A 
ATOM      8  C   UNL A   1      41.346  27.543  27.441  1.00  0.00     0.014 A 
ATOM      9  C   UNL A   1      39.761  25.954  28.356  1.00  0.00     0.014 A 
ATOM     10  C   UNL A   1      41.304  28.266  28.625  1.00  0.00     0.010 A 
ATOM     11  C   UNL A   1      39.650  26.736  29.511  1.00  0.00     0.010 A 
ATOM     12  C   UNL A   1      40.437  27.886  29.665  1.00  0.00    -0.014 A 
BRANCH  12  13
ATOM     13  C   UNL A   1      40.317  28.777  30.847  1.00  0.00     0.031 A 
ATOM     14  C   UNL A   1      41.241  28.658  32.026  1.00  0.00     0.074 A 
ATOM     15  C   UNL A   1      39.382  29.749  30.809  1.00  0.00     0.049 A 
ATOM     16  N   UNL A   1      41.298  29.405  33.100  1.00  0.00    -0.248 NA
ATOM     17  C   UNL A   1      42.222  27.563  32.006  1.00  0.00     0.031 C 
ATOM     18  C   UNL A   1      38.410  29.936  29.725  1.00  0.00     0.029 A 
ATOM     19  N   UNL A   1      39.112  30.776  31.674  1.00  0.00    -0.354 N 
ATOM     20  C   UNL A   1      42.309  28.868  33.888  1.00  0.00     0.074 A 
ATOM     21  C   UNL A   1      42.823  27.715  33.180  1.00  0.00     0.031 C 
ATOM     22  C   UNL A   1      37.695  31.044  29.961  1.00  0.00     0.029 A 
ATOM     23  C   UNL A   1      38.110  31.609  31.238  1.00  0.00     0.049 A 
ATOM     24  H   UNL A   1      39.588  30.903  32.526  1.00  0.00     0.167 HD
ATOM     25  C   UNL A   1      42.768  29.307  35.086  1.00  0.00     0.037 A 
ATOM     26  C   UNL A   1      37.573  32.705  31.806  1.00  0.00     0.037 A 
ATOM     27  C   UNL A   1      42.251  30.463  35.777  1.00  0.00     0.049 A 
ATOM     28  C   UNL A   1      38.110  33.172  33.126  1.00  0.00     0.074 A 
ATOM     29  C   UNL A   1      42.653  30.990  36.994  1.00  0.00     0.029 A 
ATOM     30  N   UNL A   1      41.226  31.273  35.313  1.00  0.00    -0.354 N 
ATOM     31  N   UNL A   1      39.075  32.655  33.849  1.00  0.00    -0.248 NA
ATOM     32  C   UNL A   1      37.487  34.366  33.710  1.00  0.00     0.031 C 
ATOM     33  C   UNL A   1      41.850  32.101  37.277  1.00  0.00     0.029 A 
ATOM     34  C   UNL A   1      40.976  32.291  36.221  1.00  0.00     0.049 A 
ATOM     35  H   UNL A   1      40.746  31.145  34.463  1.00  0.00     0.167 HD
ATOM     36  C   UNL A   1      39.173  33.459  34.976  1.00  0.00     0.074 A 
ATOM     37  C   UNL A   1      38.196  34.517  34.820  1.00  0.00     0.031 C 
ATOM     38  C   UNL A   1      39.988  33.326  36.052  1.00  0.00     0.037 A 
BRANCH  25  39
ATOM     39  C   UNL A   1      43.887  28.538  35.736  1.00  0.00     0.058 A 
ATOM     40  C   UNL A   1      45.232  28.876  35.517  1.00  0.00     0.135 A 
ATOM     41  C   UNL A   1      43.613  27.503  36.645  1.00  0.00     0.135 A 
ATOM     42  F   UNL A   1      45.552  29.847  34.647  1.00  0.00    -0.206 F 
ATOM     43  C   UNL A   1      46.265  28.207  36.167  1.00  0.00     0.059 A 
ATOM     44  C   UNL A   1      44.629  26.835  37.323  1.00  0.00     0.059 A 
ATOM     45  F   UNL A   1      42.345  27.139  36.891  1.00  0.00    -0.206 F 
ATOM     46  C   UNL A   1      45.954  27.189  37.071  1.00  0.00     0.060 A 
BRANCH  46  47
ATOM     47  S   UNL A   1      47.307  26.353  37.926  1.00  0.00     0.124 S 
ATOM     48  O   UNL A   1      46.600  25.712  39.031  1.00  0.00    -0.237 OA
ATOM     49  O   UNL A   1      47.820  25.455  36.897  1.00  0.00    -0.237 OA
ATOM     50  O   UNL A   1      48.199  27.445  38.303  1.00  0.00    -0.744 OA
ENDBRANCH  46  47
ENDBRANCH  25  39
BRANCH  26  51
ATOM     51  C   UNL A   1      36.452  33.412  31.134  1.00  0.00     0.058 A 
ATOM     52  C   UNL A   1      35.146  33.352  31.639  1.00  0.00     0.135 A 
ATOM     53  C   UNL A   1      36.676  34.182  29.982  1.00  0.00     0.135 A 
ATOM     54  F   UNL A   1      34.883  32.628  32.738  1.00  0.00    -0.206 F 
ATOM     55  C   UNL A   1      34.094  34.012  31.012  1.00  0.00     0.059 A 
ATOM     56  C   UNL A   1      35.646  34.875  29.356  1.00  0.00     0.059 A 
ATOM     57  F   UNL A   1      37.913  34.290  29.474  1.00  0.00    -0.206 F 
ATOM     58  C   UNL A   1      34.356  34.771  29.870  1.00  0.00     0.060 A 
BRANCH  58  59
ATOM     59  S   UNL A   1      32.997  35.661  29.081  1.00  0.00     0.124 S 
ATOM     60  O   UNL A   1      32.211  36.076  30.238  1.00  0.00    -0.237 OA
ATOM     61  O   UNL A   1      33.695  36.726  28.368  1.00  0.00    -0.237 OA
ATOM     62  O   UNL A   1      32.384  34.645  28.231  1.00  0.00    -0.744 OA
ENDBRANCH  58  59
ENDBRANCH  26  51
BRANCH  38  63
ATOM     63  C   UNL A   1      39.846  34.359  37.133  1.00  0.00     0.058 A 
ATOM     64  C   UNL A   1      39.046  34.129  38.263  1.00  0.00     0.135 A 
ATOM     65  C   UNL A   1      40.512  35.590  37.037  1.00  0.00     0.135 A 
ATOM     66  F   UNL A   1      38.382  32.969  38.396  1.00  0.00    -0.206 F 
ATOM     67  C   UNL A   1      38.878  35.100  39.243  1.00  0.00     0.059 A 
ATOM     68  C   UNL A   1      40.379  36.567  38.017  1.00  0.00     0.059 A 
ATOM     69  F   UNL A   1      41.297  35.854  35.980  1.00  0.00    -0.206 F 
ATOM     70  C   UNL A   1      39.544  36.320  39.107  1.00  0.00     0.060 A 
BRANCH  70  71
ATOM     71  S   UNL A   1      39.315  37.579  40.380  1.00  0.00     0.124 S 
ATOM     72  O   UNL A   1      40.613  38.247  40.367  1.00  0.00    -0.237 OA
ATOM     73  O   UNL A   1      38.196  38.357  39.858  1.00  0.00    -0.237 OA
ATOM     74  O   UNL A   1      39.022  36.798  41.578  1.00  0.00    -0.744 OA
ENDBRANCH  70  71
ENDBRANCH  38  63
ENDBRANCH  12  13
ENDBRANCH   5   7
ENDBRANCH   2   3
ENDBRANCH   1   2
BRANCH   1  75
ATOM     75  C   UNL A   1      37.523  22.202  25.506  1.00  0.00     0.002 C 
BRANCH  75  76
ATOM     76  C   UNL A   1      36.296  21.820  24.671  1.00  0.00     0.002 C 
BRANCH  76  77
ATOM     77  C   UNL A   1      35.282  20.902  25.364  1.00  0.00     0.021 C 
BRANCH  77  78
ATOM     78  C   UNL A   1      34.067  20.540  24.508  1.00  0.00     0.116 C 
BRANCH  78  79
ATOM     79  N   UNL A   1      32.821  20.931  25.141  1.00  0.00    -0.354 N 
ATOM     80  C   UNL A   1      32.029  22.042  25.022  1.00  0.00     0.247 C 
ATOM     81  H   UNL A   1      32.476  20.267  25.783  1.00  0.00     0.163 HD
ATOM     82  O   UNL A   1      30.936  21.950  25.595  1.00  0.00    -0.273 OA
BRANCH  80  83
ATOM     83  C   UNL A   1      32.377  23.249  24.099  1.00  0.00     0.161 C 
ATOM     84  Cl  UNL A   1      33.647  22.804  22.891  1.00  0.00    -0.102 Cl
ATOM     85  C   UNL A   1      31.072  23.537  23.372  1.00  0.00     0.008 C 
ATOM     86  C   UNL A   1      32.934  24.508  24.852  1.00  0.00     0.146 C 
ATOM     87  C   UNL A   1      30.298  24.596  23.655  1.00  0.00    -0.002 C 
ATOM     88  C   UNL A   1      31.929  25.610  25.154  1.00  0.00    -0.020 C 
ATOM     89  Cl  UNL A   1      33.960  24.111  26.281  1.00  0.00    -0.115 Cl
ATOM     90  C   UNL A   1      30.702  25.605  24.600  1.00  0.00     0.006 C 
BRANCH  88  91
ATOM     91  C   UNL A   1      32.390  26.834  25.845  1.00  0.00    -0.021 A 
ATOM     92  C   UNL A   1      33.635  27.409  25.561  1.00  0.00     0.008 A 
ATOM     93  C   UNL A   1      31.576  27.434  26.819  1.00  0.00     0.008 A 
ATOM     94  C   UNL A   1      34.045  28.569  26.227  1.00  0.00     0.001 A 
ATOM     95  C   UNL A   1      31.984  28.593  27.480  1.00  0.00     0.001 A 
ATOM     96  C   UNL A   1      33.219  29.161  27.181  1.00  0.00     0.000 A 
ENDBRANCH  88  91
ENDBRANCH  80  83
ENDBRANCH  78  79
ENDBRANCH  77  78
ENDBRANCH  76  77
ENDBRANCH  75  76
ENDBRANCH   1  75
TORSDOF 17
ENDMDL
