MODEL 1
REMARK VINA RESULT:     -12.2      0.000      0.000
REMARK SMILES Cc1nc(=O)[nH]c(C)c1CC(=O)N1CC[C@H](C(=O)NCCCCCCNC(=O)c2ccc(-c3c4nc(c(-c5c(F)cc(S(=O)(=O)[O-])cc5F)c5ccc([nH]5)c(-c5c(F)cc(S(=O)(=O)[O-])cc5F)c5nc(c(-c6c(F)cc(S(=O)(=O)[O-])cc6F)c6ccc3[nH]6)C=C5)C=C4)cc2)[C@@H]1C
REMARK SMILES IDX 22 1 21 2 20 3 19 4 17 5 18 6 16 8 13 9 14 10 95 11 15 12
REMARK SMILES IDX 96 13 11 14 12 15 10 16 9 17 1 18 2 19 3 20 4 21 7 22 5 23
REMARK SMILES IDX 6 24 8 25 23 27 24 28 25 29 26 30 27 31 28 33 29 34 30 35
REMARK SMILES IDX 94 36 31 37 93 38 32 39 33 40 34 41 87 42 35 43 92 44 86 45
REMARK SMILES IDX 88 46 36 47 91 48 85 49 84 50 37 52 71 53 50 54 70 55 51 56
REMARK SMILES IDX 54 57 69 58 89 59 52 60 53 61 68 63 90 64 55 65 38 66 39 67
REMARK SMILES IDX 48 68 40 69 41 70 47 71 49 72 42 73 43 74 44 75 45 76 46 77
REMARK SMILES IDX 72 78 73 79 82 80 74 81 75 82 81 83 83 84 76 85 77 86 78 87
REMARK SMILES IDX 79 88 80 89 56 90 57 91 66 92 58 93 59 94 65 95 67 96 60 97
REMARK SMILES IDX 61 98 62 99 63 100 64 101
REMARK H PARENT 19 7 6 26 26 32 88 51 54 62
REMARK Flexibility Score: inf
ROOT
ATOM      1  C   UNL A   1      38.328  22.129  25.797  1.00  0.00     0.002 C 
ENDROOT
BRANCH   1   2
ATOM      2  C   UNL A   1      37.280  21.696  24.767  1.00  0.00     0.021 C 
BRANCH   2   3
ATOM      3  C   UNL A   1      36.157  20.829  25.325  1.00  0.00     0.116 C 
BRANCH   3   4
ATOM      4  N   UNL A   1      35.513  21.410  26.492  1.00  0.00    -0.356 N 
ATOM      5  C   UNL A   1      34.338  22.057  26.684  1.00  0.00     0.225 C 
ATOM      6  O   UNL A   1      34.018  22.236  27.868  1.00  0.00    -0.275 OA
ATOM      7  H   UNL A   1      36.042  21.312  27.316  1.00  0.00     0.163 HD
BRANCH   5   8
ATOM      8  C   UNL A   1      33.443  22.673  25.597  1.00  0.00     0.102 C 
ATOM      9  N   UNL A   1      32.618  24.870  25.979  1.00  0.00    -0.339 N 
ATOM     10  C   UNL A   1      31.747  23.932  26.689  1.00  0.00     0.120 C 
ATOM     11  C   UNL A   1      33.591  24.135  25.140  1.00  0.00     0.094 C 
ATOM     12  C   UNL A   1      31.984  22.591  26.026  1.00  0.00     0.037 C 
ATOM     13  C   UNL A   1      35.056  24.556  25.131  1.00  0.00     0.032 C 
BRANCH   9  14
ATOM     14  C   UNL A   1      32.315  26.209  26.124  1.00  0.00     0.227 C 
ATOM     15  O   UNL A   1      31.374  26.549  26.852  1.00  0.00    -0.275 OA
BRANCH  14  16
ATOM     16  C   UNL A   1      32.988  27.275  25.261  1.00  0.00     0.139 C 
BRANCH  16  17
ATOM     17  C   UNL A   1      32.163  27.905  24.190  1.00  0.00     0.002 A 
ATOM     18  C   UNL A   1      31.561  29.949  25.729  1.00  0.00     0.067 C 
ATOM     19  C   UNL A   1      31.389  29.165  24.441  1.00  0.00     0.049 A 
ATOM     20  N   UNL A   1      30.514  29.662  23.626  1.00  0.00    -0.198 NA
ATOM     21  C   UNL A   1      30.293  29.045  22.430  1.00  0.00     0.345 A 
ATOM     22  C   UNL A   1      32.012  27.409  22.945  1.00  0.00     0.022 A 
ATOM     23  O   UNL A   1      29.396  29.384  21.661  1.00  0.00    -0.246 OA
ATOM     24  N   UNL A   1      31.098  27.989  22.101  1.00  0.00    -0.310 N 
ATOM     25  C   UNL A   1      32.692  26.186  22.391  1.00  0.00     0.065 C 
ATOM     26  H   UNL A   1      31.017  27.620  21.192  1.00  0.00     0.171 HD
ENDBRANCH  16  17
ENDBRANCH  14  16
ENDBRANCH   9  14
ENDBRANCH   5   8
ENDBRANCH   3   4
ENDBRANCH   2   3
ENDBRANCH   1   2
BRANCH   1  27
ATOM     27  C   UNL A   1      39.526  21.190  25.968  1.00  0.00     0.002 C 
BRANCH  27  28
ATOM     28  C   UNL A   1      40.534  21.578  27.052  1.00  0.00     0.021 C 
BRANCH  28  29
ATOM     29  C   UNL A   1      40.664  23.074  27.322  1.00  0.00     0.116 C 
BRANCH  29  30
ATOM     30  N   UNL A   1      41.290  23.792  26.226  1.00  0.00    -0.352 N 
ATOM     31  C   UNL A   1      41.637  25.117  26.141  1.00  0.00     0.251 C 
ATOM     32  H   UNL A   1      41.493  23.251  25.429  1.00  0.00     0.163 HD
ATOM     33  O   UNL A   1      42.031  25.581  25.076  1.00  0.00    -0.269 OA
BRANCH  31  34
ATOM     34  C   UNL A   1      41.509  25.988  27.330  1.00  0.00     0.039 A 
ATOM     35  C   UNL A   1      42.504  26.936  27.582  1.00  0.00     0.014 A 
ATOM     36  C   UNL A   1      40.411  25.879  28.189  1.00  0.00     0.014 A 
ATOM     37  C   UNL A   1      42.368  27.814  28.659  1.00  0.00     0.010 A 
ATOM     38  C   UNL A   1      40.241  26.802  29.218  1.00  0.00     0.010 A 
ATOM     39  C   UNL A   1      41.219  27.778  29.466  1.00  0.00    -0.014 A 
BRANCH  39  40
ATOM     40  C   UNL A   1      41.019  28.752  30.572  1.00  0.00     0.031 A 
ATOM     41  C   UNL A   1      41.835  28.636  31.833  1.00  0.00     0.074 A 
ATOM     42  C   UNL A   1      40.058  29.693  30.469  1.00  0.00     0.049 A 
ATOM     43  N   UNL A   1      41.744  29.326  32.940  1.00  0.00    -0.248 NA
ATOM     44  C   UNL A   1      42.872  27.591  31.865  1.00  0.00     0.031 C 
ATOM     45  C   UNL A   1      39.174  29.878  29.316  1.00  0.00     0.029 A 
ATOM     46  N   UNL A   1      39.650  30.662  31.354  1.00  0.00    -0.354 N 
ATOM     47  C   UNL A   1      42.690  28.787  33.804  1.00  0.00     0.074 A 
ATOM     48  C   UNL A   1      43.320  27.686  33.110  1.00  0.00     0.031 C 
ATOM     49  C   UNL A   1      38.336  30.900  29.560  1.00  0.00     0.029 A 
ATOM     50  C   UNL A   1      38.592  31.416  30.901  1.00  0.00     0.049 A 
ATOM     51  H   UNL A   1      40.075  30.803  32.230  1.00  0.00     0.167 HD
ATOM     52  C   UNL A   1      43.014  29.185  35.056  1.00  0.00     0.037 A 
ATOM     53  C   UNL A   1      37.892  32.398  31.505  1.00  0.00     0.037 A 
ATOM     54  C   UNL A   1      42.412  30.310  35.724  1.00  0.00     0.049 A 
ATOM     55  C   UNL A   1      38.280  32.821  32.899  1.00  0.00     0.074 A 
ATOM     56  C   UNL A   1      42.733  30.843  36.960  1.00  0.00     0.029 A 
ATOM     57  N   UNL A   1      41.369  31.070  35.219  1.00  0.00    -0.354 N 
ATOM     58  N   UNL A   1      39.234  32.352  33.667  1.00  0.00    -0.248 NA
ATOM     59  C   UNL A   1      37.502  33.910  33.508  1.00  0.00     0.031 C 
ATOM     60  C   UNL A   1      41.844  31.887  37.230  1.00  0.00     0.029 A 
ATOM     61  C   UNL A   1      41.013  32.047  36.133  1.00  0.00     0.049 A 
ATOM     62  H   UNL A   1      40.945  30.935  34.341  1.00  0.00     0.167 HD
ATOM     63  C   UNL A   1      39.195  33.113  34.830  1.00  0.00     0.074 A 
ATOM     64  C   UNL A   1      38.131  34.080  34.662  1.00  0.00     0.031 C 
ATOM     65  C   UNL A   1      39.969  33.021  35.939  1.00  0.00     0.037 A 
BRANCH  52  66
ATOM     66  C   UNL A   1      44.070  28.417  35.802  1.00  0.00     0.058 A 
ATOM     67  C   UNL A   1      45.425  28.774  35.744  1.00  0.00     0.135 A 
ATOM     68  C   UNL A   1      43.703  27.377  36.672  1.00  0.00     0.135 A 
ATOM     69  F   UNL A   1      45.834  29.749  34.916  1.00  0.00    -0.206 F 
ATOM     70  C   UNL A   1      46.381  28.128  36.522  1.00  0.00     0.059 A 
ATOM     71  C   UNL A   1      44.637  26.735  37.480  1.00  0.00     0.059 A 
ATOM     72  F   UNL A   1      42.420  26.992  36.762  1.00  0.00    -0.206 F 
ATOM     73  C   UNL A   1      45.974  27.118  37.396  1.00  0.00     0.060 A 
BRANCH  73  74
ATOM     74  S   UNL A   1      47.218  26.336  38.446  1.00  0.00     0.124 S 
ATOM     75  O   UNL A   1      47.665  27.464  39.257  1.00  0.00    -0.237 OA
ATOM     76  O   UNL A   1      46.438  25.321  39.147  1.00  0.00    -0.237 OA
ATOM     77  O   UNL A   1      48.196  25.824  37.492  1.00  0.00    -0.744 OA
ENDBRANCH  73  74
ENDBRANCH  52  66
BRANCH  53  78
ATOM     78  C   UNL A   1      36.742  33.045  30.812  1.00  0.00     0.058 A 
ATOM     79  C   UNL A   1      36.945  33.982  29.787  1.00  0.00     0.135 A 
ATOM     80  C   UNL A   1      35.419  32.773  31.193  1.00  0.00     0.135 A 
ATOM     81  F   UNL A   1      38.191  34.279  29.386  1.00  0.00    -0.206 F 
ATOM     82  C   UNL A   1      35.883  34.662  29.198  1.00  0.00     0.059 A 
ATOM     83  C   UNL A   1      34.338  33.416  30.596  1.00  0.00     0.059 A 
ATOM     84  F   UNL A   1      35.165  31.870  32.153  1.00  0.00    -0.206 F 
ATOM     85  C   UNL A   1      34.582  34.376  29.616  1.00  0.00     0.060 A 
BRANCH  85  86
ATOM     86  S   UNL A   1      33.212  35.274  28.859  1.00  0.00     0.124 S 
ATOM     87  O   UNL A   1      33.916  36.335  28.146  1.00  0.00    -0.237 OA
ATOM     88  O   UNL A   1      32.594  34.247  28.027  1.00  0.00    -0.237 OA
ATOM     89  O   UNL A   1      32.419  35.704  30.006  1.00  0.00    -0.744 OA
ENDBRANCH  85  86
ENDBRANCH  53  78
BRANCH  65  90
ATOM     90  C   UNL A   1      39.740  34.021  37.039  1.00  0.00     0.058 A 
ATOM     91  C   UNL A   1      38.897  33.748  38.128  1.00  0.00     0.135 A 
ATOM     92  C   UNL A   1      40.433  35.244  37.036  1.00  0.00     0.135 A 
ATOM     93  F   UNL A   1      38.208  32.598  38.177  1.00  0.00    -0.206 F 
ATOM     94  C   UNL A   1      38.733  34.661  39.165  1.00  0.00     0.059 A 
ATOM     95  C   UNL A   1      40.309  36.156  38.078  1.00  0.00     0.059 A 
ATOM     96  F   UNL A   1      41.260  35.550  36.024  1.00  0.00    -0.206 F 
ATOM     97  C   UNL A   1      39.448  35.861  39.134  1.00  0.00     0.060 A 
BRANCH  97  98
ATOM     98  S   UNL A   1      39.262  37.013  40.510  1.00  0.00     0.124 S 
ATOM     99  O   UNL A   1      38.523  38.103  39.883  1.00  0.00    -0.237 OA
ATOM    100  O   UNL A   1      38.518  36.219  41.482  1.00  0.00    -0.237 OA
ATOM    101  O   UNL A   1      40.639  37.322  40.884  1.00  0.00    -0.744 OA
ENDBRANCH  97  98
ENDBRANCH  65  90
ENDBRANCH  39  40
ENDBRANCH  31  34
ENDBRANCH  29  30
ENDBRANCH  28  29
ENDBRANCH  27  28
ENDBRANCH   1  27
TORSDOF 19
ENDMDL
MODEL 2
REMARK VINA RESULT:     -11.9      6.350     12.055
REMARK SMILES Cc1nc(=O)[nH]c(C)c1CC(=O)N1CC[C@H](C(=O)NCCCCCCNC(=O)c2ccc(-c3c4nc(c(-c5c(F)cc(S(=O)(=O)[O-])cc5F)c5ccc([nH]5)c(-c5c(F)cc(S(=O)(=O)[O-])cc5F)c5nc(c(-c6c(F)cc(S(=O)(=O)[O-])cc6F)c6ccc3[nH]6)C=C5)C=C4)cc2)[C@@H]1C
REMARK SMILES IDX 22 1 21 2 20 3 19 4 17 5 18 6 16 8 13 9 14 10 95 11 15 12
REMARK SMILES IDX 96 13 11 14 12 15 10 16 9 17 1 18 2 19 3 20 4 21 7 22 5 23
REMARK SMILES IDX 6 24 8 25 23 27 24 28 25 29 26 30 27 31 28 33 29 34 30 35
REMARK SMILES IDX 94 36 31 37 93 38 32 39 33 40 34 41 87 42 35 43 92 44 86 45
REMARK SMILES IDX 88 46 36 47 91 48 85 49 84 50 37 52 71 53 50 54 70 55 51 56
REMARK SMILES IDX 54 57 69 58 89 59 52 60 53 61 68 63 90 64 55 65 38 66 39 67
REMARK SMILES IDX 48 68 40 69 41 70 47 71 49 72 42 73 43 74 44 75 45 76 46 77
REMARK SMILES IDX 72 78 73 79 82 80 74 81 75 82 81 83 83 84 76 85 77 86 78 87
REMARK SMILES IDX 79 88 80 89 56 90 57 91 66 92 58 93 59 94 65 95 67 96 60 97
REMARK SMILES IDX 61 98 62 99 63 100 64 101
REMARK H PARENT 19 7 6 26 26 32 88 51 54 62
REMARK Flexibility Score: inf
ROOT
ATOM      1  C   UNL A   1      32.903  29.943  25.335  1.00  0.00     0.002 C 
ENDROOT
BRANCH   1   2
ATOM      2  C   UNL A   1      31.420  29.690  25.054  1.00  0.00     0.021 C 
BRANCH   2   3
ATOM      3  C   UNL A   1      31.137  28.499  24.144  1.00  0.00     0.116 C 
BRANCH   3   4
ATOM      4  N   UNL A   1      32.287  28.102  23.349  1.00  0.00    -0.356 N 
ATOM      5  C   UNL A   1      32.773  26.903  22.944  1.00  0.00     0.225 C 
ATOM      6  O   UNL A   1      33.675  26.954  22.095  1.00  0.00    -0.275 OA
ATOM      7  H   UNL A   1      32.827  28.865  23.039  1.00  0.00     0.163 HD
BRANCH   5   8
ATOM      8  C   UNL A   1      32.397  25.524  23.509  1.00  0.00     0.102 C 
ATOM      9  N   UNL A   1      34.162  24.171  24.349  1.00  0.00    -0.339 N 
ATOM     10  C   UNL A   1      34.117  24.001  22.897  1.00  0.00     0.120 C 
ATOM     11  C   UNL A   1      33.007  24.973  24.810  1.00  0.00     0.094 C 
ATOM     12  C   UNL A   1      32.727  24.444  22.488  1.00  0.00     0.037 C 
ATOM     13  C   UNL A   1      33.215  26.089  25.828  1.00  0.00     0.032 C 
BRANCH   9  14
ATOM     14  C   UNL A   1      35.163  23.488  25.010  1.00  0.00     0.227 C 
ATOM     15  O   UNL A   1      36.343  23.661  24.681  1.00  0.00    -0.275 OA
BRANCH  14  16
ATOM     16  C   UNL A   1      34.844  22.381  26.012  1.00  0.00     0.139 C 
BRANCH  16  17
ATOM     17  C   UNL A   1      34.341  21.088  25.462  1.00  0.00     0.002 A 
ATOM     18  C   UNL A   1      31.838  21.855  25.706  1.00  0.00     0.067 C 
ATOM     19  C   UNL A   1      32.872  20.789  25.395  1.00  0.00     0.049 A 
ATOM     20  N   UNL A   1      32.374  19.629  25.107  1.00  0.00    -0.198 NA
ATOM     21  C   UNL A   1      33.215  18.602  24.794  1.00  0.00     0.345 A 
ATOM     22  C   UNL A   1      35.124  20.086  25.016  1.00  0.00     0.022 A 
ATOM     23  O   UNL A   1      32.826  17.448  24.631  1.00  0.00    -0.246 OA
ATOM     24  N   UNL A   1      34.549  18.884  24.687  1.00  0.00    -0.310 N 
ATOM     25  C   UNL A   1      36.626  20.111  24.923  1.00  0.00     0.065 C 
ATOM     26  H   UNL A   1      35.140  18.173  24.348  1.00  0.00     0.171 HD
ENDBRANCH  16  17
ENDBRANCH  14  16
ENDBRANCH   9  14
ENDBRANCH   5   8
ENDBRANCH   3   4
ENDBRANCH   2   3
ENDBRANCH   1   2
BRANCH   1  27
ATOM     27  C   UNL A   1      33.380  29.614  26.754  1.00  0.00     0.002 C 
BRANCH  27  28
ATOM     28  C   UNL A   1      33.895  30.795  27.580  1.00  0.00     0.021 C 
BRANCH  28  29
ATOM     29  C   UNL A   1      35.261  30.597  28.229  1.00  0.00     0.116 C 
BRANCH  29  30
ATOM     30  N   UNL A   1      35.295  31.033  29.614  1.00  0.00    -0.352 N 
ATOM     31  C   UNL A   1      36.293  30.890  30.545  1.00  0.00     0.251 C 
ATOM     32  H   UNL A   1      34.486  31.497  29.930  1.00  0.00     0.163 HD
ATOM     33  O   UNL A   1      36.089  31.199  31.716  1.00  0.00    -0.269 OA
BRANCH  31  34
ATOM     34  C   UNL A   1      37.605  30.339  30.139  1.00  0.00     0.039 A 
ATOM     35  C   UNL A   1      37.964  30.378  28.789  1.00  0.00     0.014 A 
ATOM     36  C   UNL A   1      38.480  29.792  31.082  1.00  0.00     0.014 A 
ATOM     37  C   UNL A   1      39.224  29.926  28.394  1.00  0.00     0.010 A 
ATOM     38  C   UNL A   1      39.763  29.410  30.698  1.00  0.00     0.010 A 
ATOM     39  C   UNL A   1      40.149  29.470  29.349  1.00  0.00    -0.014 A 
BRANCH  39  40
ATOM     40  C   UNL A   1      41.522  29.054  28.960  1.00  0.00     0.031 A 
ATOM     41  C   UNL A   1      42.628  30.074  28.894  1.00  0.00     0.074 A 
ATOM     42  C   UNL A   1      41.756  27.774  28.601  1.00  0.00     0.049 A 
ATOM     43  N   UNL A   1      43.862  29.927  28.489  1.00  0.00    -0.248 NA
ATOM     44  C   UNL A   1      42.297  31.447  29.313  1.00  0.00     0.031 C 
ATOM     45  C   UNL A   1      40.756  26.703  28.582  1.00  0.00     0.029 A 
ATOM     46  N   UNL A   1      42.904  27.159  28.164  1.00  0.00    -0.354 N 
ATOM     47  C   UNL A   1      44.447  31.184  28.583  1.00  0.00     0.074 A 
ATOM     48  C   UNL A   1      43.423  32.094  29.045  1.00  0.00     0.031 C 
ATOM     49  C   UNL A   1      41.335  25.565  28.166  1.00  0.00     0.029 A 
ATOM     50  C   UNL A   1      42.734  25.831  27.846  1.00  0.00     0.049 A 
ATOM     51  H   UNL A   1      43.767  27.624  28.087  1.00  0.00     0.167 HD
ATOM     52  C   UNL A   1      45.726  31.543  28.321  1.00  0.00     0.037 A 
ATOM     53  C   UNL A   1      43.601  24.933  27.334  1.00  0.00     0.037 A 
ATOM     54  C   UNL A   1      46.750  30.622  27.902  1.00  0.00     0.049 A 
ATOM     55  C   UNL A   1      45.019  25.363  27.057  1.00  0.00     0.074 A 
ATOM     56  C   UNL A   1      48.095  30.874  27.694  1.00  0.00     0.029 A 
ATOM     57  N   UNL A   1      46.548  29.279  27.625  1.00  0.00    -0.354 N 
ATOM     58  N   UNL A   1      45.573  26.539  27.231  1.00  0.00    -0.248 NA
ATOM     59  C   UNL A   1      45.934  24.345  26.520  1.00  0.00     0.031 C 
ATOM     60  C   UNL A   1      48.693  29.699  27.232  1.00  0.00     0.029 A 
ATOM     61  C   UNL A   1      47.736  28.698  27.217  1.00  0.00     0.049 A 
ATOM     62  H   UNL A   1      45.686  28.808  27.706  1.00  0.00     0.167 HD
ATOM     63  C   UNL A   1      46.906  26.391  26.862  1.00  0.00     0.074 A 
ATOM     64  C   UNL A   1      47.078  25.010  26.466  1.00  0.00     0.031 C 
ATOM     65  C   UNL A   1      47.898  27.314  26.851  1.00  0.00     0.037 A 
BRANCH  52  66
ATOM     66  C   UNL A   1      46.112  32.987  28.479  1.00  0.00     0.058 A 
ATOM     67  C   UNL A   1      46.726  33.465  29.646  1.00  0.00     0.135 A 
ATOM     68  C   UNL A   1      45.962  33.880  27.405  1.00  0.00     0.135 A 
ATOM     69  F   UNL A   1      46.878  32.661  30.711  1.00  0.00    -0.206 F 
ATOM     70  C   UNL A   1      47.179  34.778  29.743  1.00  0.00     0.059 A 
ATOM     71  C   UNL A   1      46.432  35.188  27.468  1.00  0.00     0.059 A 
ATOM     72  F   UNL A   1      45.375  33.474  26.267  1.00  0.00    -0.206 F 
ATOM     73  C   UNL A   1      47.039  35.627  28.644  1.00  0.00     0.060 A 
BRANCH  73  74
ATOM     74  S   UNL A   1      47.693  37.305  28.765  1.00  0.00     0.124 S 
ATOM     75  O   UNL A   1      48.898  37.208  27.946  1.00  0.00    -0.237 OA
ATOM     76  O   UNL A   1      46.607  38.102  28.201  1.00  0.00    -0.237 OA
ATOM     77  O   UNL A   1      47.920  37.481  30.195  1.00  0.00    -0.744 OA
ENDBRANCH  73  74
ENDBRANCH  52  66
BRANCH  53  78
ATOM     78  C   UNL A   1      43.161  23.542  27.032  1.00  0.00     0.058 A 
ATOM     79  C   UNL A   1      43.041  22.581  28.048  1.00  0.00     0.135 A 
ATOM     80  C   UNL A   1      42.897  23.134  25.715  1.00  0.00     0.135 A 
ATOM     81  F   UNL A   1      43.283  22.919  29.324  1.00  0.00    -0.206 F 
ATOM     82  C   UNL A   1      42.722  21.256  27.766  1.00  0.00     0.059 A 
ATOM     83  C   UNL A   1      42.545  21.822  25.412  1.00  0.00     0.059 A 
ATOM     84  F   UNL A   1      42.976  24.016  24.707  1.00  0.00    -0.206 F 
ATOM     85  C   UNL A   1      42.483  20.885  26.442  1.00  0.00     0.060 A 
BRANCH  85  86
ATOM     86  S   UNL A   1      42.087  19.161  26.083  1.00  0.00     0.124 S 
ATOM     87  O   UNL A   1      40.643  19.228  25.883  1.00  0.00    -0.237 OA
ATOM     88  O   UNL A   1      42.886  18.905  24.889  1.00  0.00    -0.237 OA
ATOM     89  O   UNL A   1      42.525  18.460  27.286  1.00  0.00    -0.744 OA
ENDBRANCH  85  86
ENDBRANCH  53  78
BRANCH  65  90
ATOM     90  C   UNL A   1      49.275  26.859  26.453  1.00  0.00     0.058 A 
ATOM     91  C   UNL A   1      50.138  26.220  27.356  1.00  0.00     0.135 A 
ATOM     92  C   UNL A   1      49.708  27.003  25.123  1.00  0.00     0.135 A 
ATOM     93  F   UNL A   1      49.776  26.061  28.639  1.00  0.00    -0.206 F 
ATOM     94  C   UNL A   1      51.390  25.758  26.962  1.00  0.00     0.059 A 
ATOM     95  C   UNL A   1      50.942  26.521  24.700  1.00  0.00     0.059 A 
ATOM     96  F   UNL A   1      48.918  27.598  24.216  1.00  0.00    -0.206 F 
ATOM     97  C   UNL A   1      51.781  25.908  25.630  1.00  0.00     0.060 A 
BRANCH  97  98
ATOM     98  S   UNL A   1      53.387  25.261  25.122  1.00  0.00     0.124 S 
ATOM     99  O   UNL A   1      53.230  23.837  25.396  1.00  0.00    -0.237 OA
ATOM    100  O   UNL A   1      53.442  25.634  23.713  1.00  0.00    -0.237 OA
ATOM    101  O   UNL A   1      54.327  25.966  25.989  1.00  0.00    -0.744 OA
ENDBRANCH  97  98
ENDBRANCH  65  90
ENDBRANCH  39  40
ENDBRANCH  31  34
ENDBRANCH  29  30
ENDBRANCH  28  29
ENDBRANCH  27  28
ENDBRANCH   1  27
TORSDOF 19
ENDMDL
MODEL 3
REMARK VINA RESULT:     -11.9      2.312      9.106
REMARK SMILES Cc1nc(=O)[nH]c(C)c1CC(=O)N1CC[C@H](C(=O)NCCCCCCNC(=O)c2ccc(-c3c4nc(c(-c5c(F)cc(S(=O)(=O)[O-])cc5F)c5ccc([nH]5)c(-c5c(F)cc(S(=O)(=O)[O-])cc5F)c5nc(c(-c6c(F)cc(S(=O)(=O)[O-])cc6F)c6ccc3[nH]6)C=C5)C=C4)cc2)[C@@H]1C
REMARK SMILES IDX 22 1 21 2 20 3 19 4 17 5 18 6 16 8 13 9 14 10 95 11 15 12
REMARK SMILES IDX 96 13 11 14 12 15 10 16 9 17 1 18 2 19 3 20 4 21 7 22 5 23
REMARK SMILES IDX 6 24 8 25 23 27 24 28 25 29 26 30 27 31 28 33 29 34 30 35
REMARK SMILES IDX 94 36 31 37 93 38 32 39 33 40 34 41 87 42 35 43 92 44 86 45
REMARK SMILES IDX 88 46 36 47 91 48 85 49 84 50 37 52 71 53 50 54 70 55 51 56
REMARK SMILES IDX 54 57 69 58 89 59 52 60 53 61 68 63 90 64 55 65 38 66 39 67
REMARK SMILES IDX 48 68 40 69 41 70 47 71 49 72 42 73 43 74 44 75 45 76 46 77
REMARK SMILES IDX 72 78 73 79 82 80 74 81 75 82 81 83 83 84 76 85 77 86 78 87
REMARK SMILES IDX 79 88 80 89 56 90 57 91 66 92 58 93 59 94 65 95 67 96 60 97
REMARK SMILES IDX 61 98 62 99 63 100 64 101
REMARK H PARENT 19 7 6 26 26 32 88 51 54 62
REMARK Flexibility Score: inf
ROOT
ATOM      1  C   UNL A   1      31.840  29.994  25.329  1.00  0.00     0.002 C 
ENDROOT
BRANCH   1   2
ATOM      2  C   UNL A   1      30.576  30.118  24.474  1.00  0.00     0.021 C 
BRANCH   2   3
ATOM      3  C   UNL A   1      30.472  29.106  23.338  1.00  0.00     0.116 C 
BRANCH   3   4
ATOM      4  N   UNL A   1      30.437  27.729  23.800  1.00  0.00    -0.356 N 
ATOM      5  C   UNL A   1      31.394  26.802  24.046  1.00  0.00     0.225 C 
ATOM      6  O   UNL A   1      31.007  25.780  24.632  1.00  0.00    -0.275 OA
ATOM      7  H   UNL A   1      29.525  27.400  23.970  1.00  0.00     0.163 HD
BRANCH   5   8
ATOM      8  C   UNL A   1      32.858  26.849  23.578  1.00  0.00     0.102 C 
ATOM      9  N   UNL A   1      34.195  24.925  23.983  1.00  0.00    -0.339 N 
ATOM     10  C   UNL A   1      34.172  25.724  25.208  1.00  0.00     0.120 C 
ATOM     11  C   UNL A   1      33.537  25.659  22.878  1.00  0.00     0.094 C 
ATOM     12  C   UNL A   1      33.768  27.116  24.769  1.00  0.00     0.037 C 
ATOM     13  C   UNL A   1      32.555  24.933  21.965  1.00  0.00     0.032 C 
BRANCH   9  14
ATOM     14  C   UNL A   1      34.895  23.737  24.044  1.00  0.00     0.227 C 
ATOM     15  O   UNL A   1      35.367  23.251  23.008  1.00  0.00    -0.275 OA
BRANCH  14  16
ATOM     16  C   UNL A   1      34.943  22.906  25.323  1.00  0.00     0.139 C 
BRANCH  16  17
ATOM     17  C   UNL A   1      34.152  21.641  25.344  1.00  0.00     0.002 A 
ATOM     18  C   UNL A   1      36.285  20.192  24.837  1.00  0.00     0.067 C 
ATOM     19  C   UNL A   1      34.784  20.320  25.017  1.00  0.00     0.049 A 
ATOM     20  N   UNL A   1      34.128  19.219  24.835  1.00  0.00    -0.198 NA
ATOM     21  C   UNL A   1      32.773  19.219  24.989  1.00  0.00     0.345 A 
ATOM     22  C   UNL A   1      32.834  21.563  25.619  1.00  0.00     0.022 A 
ATOM     23  O   UNL A   1      32.072  18.248  24.715  1.00  0.00    -0.246 OA
ATOM     24  N   UNL A   1      32.185  20.366  25.446  1.00  0.00    -0.310 N 
ATOM     25  C   UNL A   1      31.945  22.709  26.019  1.00  0.00     0.065 C 
ATOM     26  H   UNL A   1      31.227  20.330  25.669  1.00  0.00     0.171 HD
ENDBRANCH  16  17
ENDBRANCH  14  16
ENDBRANCH   9  14
ENDBRANCH   5   8
ENDBRANCH   3   4
ENDBRANCH   2   3
ENDBRANCH   1   2
BRANCH   1  27
ATOM     27  C   UNL A   1      31.755  30.588  26.739  1.00  0.00     0.002 C 
BRANCH  27  28
ATOM     28  C   UNL A   1      31.627  32.110  26.820  1.00  0.00     0.021 C 
BRANCH  28  29
ATOM     29  C   UNL A   1      32.877  32.850  27.286  1.00  0.00     0.116 C 
BRANCH  29  30
ATOM     30  N   UNL A   1      32.608  34.225  27.669  1.00  0.00    -0.352 N 
ATOM     31  C   UNL A   1      33.143  34.962  28.696  1.00  0.00     0.251 C 
ATOM     32  H   UNL A   1      31.946  34.696  27.113  1.00  0.00     0.163 HD
ATOM     33  O   UNL A   1      32.689  36.072  28.957  1.00  0.00    -0.269 OA
BRANCH  31  34
ATOM     34  C   UNL A   1      34.249  34.402  29.504  1.00  0.00     0.039 A 
ATOM     35  C   UNL A   1      33.940  33.651  30.641  1.00  0.00     0.014 A 
ATOM     36  C   UNL A   1      35.583  34.609  29.142  1.00  0.00     0.014 A 
ATOM     37  C   UNL A   1      34.966  33.056  31.378  1.00  0.00     0.010 A 
ATOM     38  C   UNL A   1      36.599  33.956  29.835  1.00  0.00     0.010 A 
ATOM     39  C   UNL A   1      36.302  33.173  30.962  1.00  0.00    -0.014 A 
BRANCH  39  40
ATOM     40  C   UNL A   1      37.403  32.488  31.690  1.00  0.00     0.031 A 
ATOM     41  C   UNL A   1      37.847  32.997  33.036  1.00  0.00     0.074 A 
ATOM     42  C   UNL A   1      38.046  31.454  31.109  1.00  0.00     0.049 A 
ATOM     43  N   UNL A   1      38.844  32.596  33.781  1.00  0.00    -0.248 NA
ATOM     44  C   UNL A   1      37.088  34.122  33.609  1.00  0.00     0.031 C 
ATOM     45  C   UNL A   1      37.736  30.897  29.789  1.00  0.00     0.029 A 
ATOM     46  N   UNL A   1      39.106  30.696  31.544  1.00  0.00    -0.354 N 
ATOM     47  C   UNL A   1      38.846  33.428  34.894  1.00  0.00     0.074 A 
ATOM     48  C   UNL A   1      37.777  34.384  34.712  1.00  0.00     0.031 C 
ATOM     49  C   UNL A   1      38.579  29.884  29.527  1.00  0.00     0.029 A 
ATOM     50  C   UNL A   1      39.517  29.746  30.637  1.00  0.00     0.049 A 
ATOM     51  H   UNL A   1      39.531  30.821  32.422  1.00  0.00     0.167 HD
ATOM     52  C   UNL A   1      39.658  33.388  35.977  1.00  0.00     0.037 A 
ATOM     53  C   UNL A   1      40.545  28.874  30.684  1.00  0.00     0.037 A 
ATOM     54  C   UNL A   1      40.692  32.406  36.171  1.00  0.00     0.049 A 
ATOM     55  C   UNL A   1      41.428  28.852  31.906  1.00  0.00     0.074 A 
ATOM     56  C   UNL A   1      41.511  32.231  37.273  1.00  0.00     0.029 A 
ATOM     57  N   UNL A   1      41.055  31.438  35.247  1.00  0.00    -0.354 N 
ATOM     58  N   UNL A   1      41.362  29.595  32.985  1.00  0.00    -0.248 NA
ATOM     59  C   UNL A   1      42.524  27.871  31.921  1.00  0.00     0.031 C 
ATOM     60  C   UNL A   1      42.408  31.198  36.991  1.00  0.00     0.029 A 
ATOM     61  C   UNL A   1      42.105  30.685  35.741  1.00  0.00     0.049 A 
ATOM     62  H   UNL A   1      40.628  31.307  34.369  1.00  0.00     0.167 HD
ATOM     63  C   UNL A   1      42.379  29.144  33.820  1.00  0.00     0.074 A 
ATOM     64  C   UNL A   1      43.039  28.059  33.127  1.00  0.00     0.031 C 
ATOM     65  C   UNL A   1      42.735  29.589  35.050  1.00  0.00     0.037 A 
BRANCH  52  66
ATOM     66  C   UNL A   1      39.473  34.424  37.050  1.00  0.00     0.058 A 
ATOM     67  C   UNL A   1      38.730  34.162  38.211  1.00  0.00     0.135 A 
ATOM     68  C   UNL A   1      40.139  35.658  36.963  1.00  0.00     0.135 A 
ATOM     69  F   UNL A   1      38.057  33.007  38.339  1.00  0.00    -0.206 F 
ATOM     70  C   UNL A   1      38.653  35.086  39.249  1.00  0.00     0.059 A 
ATOM     71  C   UNL A   1      40.100  36.585  38.001  1.00  0.00     0.059 A 
ATOM     72  F   UNL A   1      40.859  35.961  35.872  1.00  0.00    -0.206 F 
ATOM     73  C   UNL A   1      39.352  36.289  39.139  1.00  0.00     0.060 A 
BRANCH  73  74
ATOM     74  S   UNL A   1      39.296  37.447  40.524  1.00  0.00     0.124 S 
ATOM     75  O   UNL A   1      40.681  37.903  40.579  1.00  0.00    -0.237 OA
ATOM     76  O   UNL A   1      38.322  38.432  40.064  1.00  0.00    -0.237 OA
ATOM     77  O   UNL A   1      38.864  36.618  41.644  1.00  0.00    -0.744 OA
ENDBRANCH  73  74
ENDBRANCH  52  66
BRANCH  53  78
ATOM     78  C   UNL A   1      40.815  27.958  29.540  1.00  0.00     0.058 A 
ATOM     79  C   UNL A   1      40.029  26.816  29.322  1.00  0.00     0.135 A 
ATOM     80  C   UNL A   1      41.894  28.182  28.670  1.00  0.00     0.135 A 
ATOM     81  F   UNL A   1      38.987  26.556  30.127  1.00  0.00    -0.206 F 
ATOM     82  C   UNL A   1      40.329  25.904  28.315  1.00  0.00     0.059 A 
ATOM     83  C   UNL A   1      42.194  27.302  27.635  1.00  0.00     0.059 A 
ATOM     84  F   UNL A   1      42.666  29.269  28.818  1.00  0.00    -0.206 F 
ATOM     85  C   UNL A   1      41.420  26.153  27.480  1.00  0.00     0.060 A 
BRANCH  85  86
ATOM     86  S   UNL A   1      41.812  24.956  26.187  1.00  0.00     0.124 S 
ATOM     87  O   UNL A   1      41.708  25.779  24.987  1.00  0.00    -0.237 OA
ATOM     88  O   UNL A   1      43.159  24.535  26.558  1.00  0.00    -0.237 OA
ATOM     89  O   UNL A   1      40.776  23.940  26.346  1.00  0.00    -0.744 OA
ENDBRANCH  85  86
ENDBRANCH  53  78
BRANCH  65  90
ATOM     90  C   UNL A   1      43.853  28.873  35.758  1.00  0.00     0.058 A 
ATOM     91  C   UNL A   1      43.622  27.748  36.565  1.00  0.00     0.135 A 
ATOM     92  C   UNL A   1      45.184  29.281  35.566  1.00  0.00     0.135 A 
ATOM     93  F   UNL A   1      42.369  27.320  36.786  1.00  0.00    -0.206 F 
ATOM     94  C   UNL A   1      44.670  27.064  37.174  1.00  0.00     0.059 A 
ATOM     95  C   UNL A   1      46.248  28.593  36.139  1.00  0.00     0.059 A 
ATOM     96  F   UNL A   1      45.461  30.344  34.795  1.00  0.00    -0.206 F 
ATOM     97  C   UNL A   1      45.981  27.491  36.950  1.00  0.00     0.060 A 
BRANCH  97  98
ATOM     98  S   UNL A   1      47.332  26.565  37.707  1.00  0.00     0.124 S 
ATOM     99  O   UNL A   1      46.786  25.212  37.727  1.00  0.00    -0.237 OA
ATOM    100  O   UNL A   1      48.428  26.793  36.771  1.00  0.00    -0.237 OA
ATOM    101  O   UNL A   1      47.488  27.197  39.014  1.00  0.00    -0.744 OA
ENDBRANCH  97  98
ENDBRANCH  65  90
ENDBRANCH  39  40
ENDBRANCH  31  34
ENDBRANCH  29  30
ENDBRANCH  28  29
ENDBRANCH  27  28
ENDBRANCH   1  27
TORSDOF 19
ENDMDL
