MODEL 1
REMARK VINA RESULT:     -11.9      0.000      0.000
REMARK SMILES O=C(C[C@H](NC(=O)[C@]12C[C@H]3C[C@H](C[C@H](C3)C1)C2)c1ccc(Cl)cc1Cl)NCCCCCCNC(=O)c1ccc(-c2c3nc(c(-c4c(F)cc(S(=O)(=O)[O-])cc4F)c4ccc([nH]4)c(-c4c(F)cc(S(=O)(=O)[O-])cc4F)c4nc(c(-c5c(F)cc(S(=O)(=O)[O-])cc5F)c5ccc2[nH]5)C=C4)C=C3)cc1
REMARK SMILES IDX 29 1 28 2 27 3 26 4 1 5 2 6 3 8 4 9 18 10 19 11 24 12 20 13
REMARK SMILES IDX 23 14 25 15 21 16 22 17 5 18 6 19 7 21 8 22 9 23 16 24 17 25
REMARK SMILES IDX 10 26 14 27 12 28 11 29 15 30 13 31 30 32 31 33 32 34 33 35
REMARK SMILES IDX 34 36 35 38 36 39 37 40 101 41 38 42 100 43 39 44 40 45
REMARK SMILES IDX 41 46 94 47 42 48 99 49 93 50 95 51 43 52 98 53 92 54 91 55
REMARK SMILES IDX 44 57 78 58 57 59 77 60 58 61 61 62 76 63 96 64 59 65 60 66
REMARK SMILES IDX 75 68 97 69 62 70 45 71 46 72 55 73 47 74 48 75 54 76 56 77
REMARK SMILES IDX 49 78 50 79 51 80 52 81 53 82 79 83 80 84 89 85 81 86 82 87
REMARK SMILES IDX 88 88 90 89 83 90 84 91 85 92 86 93 87 94 63 95 64 96 73 97
REMARK SMILES IDX 65 98 66 99 72 100 74 101 67 102 68 103 69 104 70 105 71 106
REMARK H PARENT 26 7 5 20 33 37 95 56 61 67
REMARK Flexibility Score: inf
ROOT
ATOM      1  C   UNL A   1      35.929  19.455  24.932  1.00  0.00     0.002 C 
ENDROOT
BRANCH   1   2
ATOM      2  C   UNL A   1      35.040  18.239  24.622  1.00  0.00     0.021 C 
BRANCH   2   3
ATOM      3  C   UNL A   1      33.540  18.506  24.680  1.00  0.00     0.116 C 
BRANCH   3   4
ATOM      4  N   UNL A   1      33.186  19.595  23.805  1.00  0.00    -0.356 N 
ATOM      5  O   UNL A   1      31.796  20.737  25.233  1.00  0.00    -0.275 OA
ATOM      6  C   UNL A   1      32.396  20.649  24.170  1.00  0.00     0.222 C 
ATOM      7  H   UNL A   1      33.536  19.579  22.884  1.00  0.00     0.163 HD
BRANCH   6   8
ATOM      8  C   UNL A   1      32.290  21.687  23.084  1.00  0.00     0.129 C 
BRANCH   8   9
ATOM      9  C   UNL A   1      32.690  23.144  23.428  1.00  0.00     0.123 C 
BRANCH   9  10
ATOM     10  C   UNL A   1      34.051  23.371  24.100  1.00  0.00    -0.006 A 
ATOM     11  C   UNL A   1      35.268  23.342  23.393  1.00  0.00     0.009 A 
ATOM     12  C   UNL A   1      34.124  23.609  25.498  1.00  0.00     0.047 A 
ATOM     13  C   UNL A   1      36.493  23.481  24.058  1.00  0.00     0.021 A 
ATOM     14  C   UNL A   1      35.349  23.694  26.165  1.00  0.00     0.041 A 
ATOM     15  Cl  UNL A   1      32.708  23.821  26.475  1.00  0.00    -0.084 Cl
ATOM     16  C   UNL A   1      36.530  23.619  25.440  1.00  0.00     0.042 A 
ATOM     17  Cl  UNL A   1      38.041  23.682  26.255  1.00  0.00    -0.084 Cl
ENDBRANCH   9  10
BRANCH   9  18
ATOM     18  N   UNL A   1      32.494  23.961  22.217  1.00  0.00    -0.348 N 
ATOM     19  C   UNL A   1      32.288  25.283  22.003  1.00  0.00     0.226 C 
ATOM     20  H   UNL A   1      32.520  23.434  21.386  1.00  0.00     0.164 HD
ATOM     21  O   UNL A   1      32.064  25.582  20.823  1.00  0.00    -0.274 OA
BRANCH  19  22
ATOM     22  C   UNL A   1      32.209  26.362  23.103  1.00  0.00     0.050 C 
ATOM     23  C   UNL A   1      31.340  26.037  24.334  1.00  0.00     0.020 C 
ATOM     24  C   UNL A   1      31.727  27.689  22.465  1.00  0.00     0.020 C 
ATOM     25  C   UNL A   1      33.657  26.614  23.626  1.00  0.00     0.020 C 
ATOM     26  C   UNL A   1      31.348  27.167  25.363  1.00  0.00    -0.010 C 
ATOM     27  C   UNL A   1      31.728  28.825  23.505  1.00  0.00    -0.010 C 
ATOM     28  C   UNL A   1      33.683  27.742  24.673  1.00  0.00    -0.010 C 
ATOM     29  C   UNL A   1      32.780  27.368  25.856  1.00  0.00     0.007 C 
ATOM     30  C   UNL A   1      30.818  28.441  24.681  1.00  0.00     0.007 C 
ATOM     31  C   UNL A   1      33.157  29.037  24.032  1.00  0.00     0.007 C 
ENDBRANCH  19  22
ENDBRANCH   9  18
ENDBRANCH   8   9
ENDBRANCH   6   8
ENDBRANCH   3   4
ENDBRANCH   2   3
ENDBRANCH   1   2
BRANCH   1  32
ATOM     32  C   UNL A   1      37.434  19.183  25.003  1.00  0.00     0.002 C 
BRANCH  32  33
ATOM     33  C   UNL A   1      38.330  20.417  24.977  1.00  0.00     0.021 C 
BRANCH  33  34
ATOM     34  C   UNL A   1      39.352  20.468  26.100  1.00  0.00     0.116 C 
BRANCH  34  35
ATOM     35  N   UNL A   1      40.275  19.348  26.061  1.00  0.00    -0.352 N 
ATOM     36  C   UNL A   1      41.650  19.379  26.105  1.00  0.00     0.251 C 
ATOM     37  H   UNL A   1      39.866  18.455  25.994  1.00  0.00     0.163 HD
ATOM     38  O   UNL A   1      42.299  18.363  25.913  1.00  0.00    -0.269 OA
BRANCH  36  39
ATOM     39  C   UNL A   1      42.319  20.673  26.359  1.00  0.00     0.039 A 
ATOM     40  C   UNL A   1      42.663  21.478  25.273  1.00  0.00     0.014 A 
ATOM     41  C   UNL A   1      42.563  21.102  27.667  1.00  0.00     0.014 A 
ATOM     42  C   UNL A   1      43.207  22.742  25.503  1.00  0.00     0.010 A 
ATOM     43  C   UNL A   1      43.022  22.394  27.894  1.00  0.00     0.010 A 
ATOM     44  C   UNL A   1      43.363  23.221  26.814  1.00  0.00    -0.014 A 
BRANCH  44  45
ATOM     45  C   UNL A   1      43.903  24.578  27.081  1.00  0.00     0.031 A 
ATOM     46  C   UNL A   1      42.976  25.677  27.525  1.00  0.00     0.074 A 
ATOM     47  C   UNL A   1      45.210  24.832  26.868  1.00  0.00     0.049 A 
ATOM     48  N   UNL A   1      43.234  26.940  27.737  1.00  0.00    -0.248 NA
ATOM     49  C   UNL A   1      41.562  25.313  27.729  1.00  0.00     0.031 C 
ATOM     50  C   UNL A   1      46.196  23.859  26.392  1.00  0.00     0.029 A 
ATOM     51  N   UNL A   1      45.931  25.990  27.014  1.00  0.00    -0.354 N 
ATOM     52  C   UNL A   1      42.020  27.522  28.083  1.00  0.00     0.074 A 
ATOM     53  C   UNL A   1      41.014  26.488  27.994  1.00  0.00     0.031 C 
ATOM     54  C   UNL A   1      47.397  24.455  26.308  1.00  0.00     0.029 A 
ATOM     55  C   UNL A   1      47.261  25.859  26.681  1.00  0.00     0.049 A 
ATOM     56  H   UNL A   1      45.536  26.835  27.327  1.00  0.00     0.167 HD
ATOM     57  C   UNL A   1      41.771  28.797  28.465  1.00  0.00     0.037 A 
ATOM     58  C   UNL A   1      48.252  26.770  26.670  1.00  0.00     0.037 A 
ATOM     59  C   UNL A   1      42.786  29.812  28.578  1.00  0.00     0.049 A 
ATOM     60  C   UNL A   1      47.949  28.183  27.096  1.00  0.00     0.074 A 
ATOM     61  C   UNL A   1      42.649  31.118  29.012  1.00  0.00     0.029 A 
ATOM     62  N   UNL A   1      44.123  29.634  28.256  1.00  0.00    -0.354 N 
ATOM     63  N   UNL A   1      46.807  28.701  27.481  1.00  0.00    -0.248 NA
ATOM     64  C   UNL A   1      49.070  29.134  27.093  1.00  0.00     0.031 C 
ATOM     65  C   UNL A   1      43.894  31.745  28.904  1.00  0.00     0.029 A 
ATOM     66  C   UNL A   1      44.819  30.813  28.461  1.00  0.00     0.049 A 
ATOM     67  H   UNL A   1      44.519  28.794  27.930  1.00  0.00     0.167 HD
ATOM     68  C   UNL A   1      47.078  30.027  27.799  1.00  0.00     0.074 A 
ATOM     69  C   UNL A   1      48.494  30.229  27.570  1.00  0.00     0.031 C 
ATOM     70  C   UNL A   1      46.233  30.991  28.242  1.00  0.00     0.037 A 
BRANCH  57  71
ATOM     71  C   UNL A   1      40.350  29.166  28.796  1.00  0.00     0.058 A 
ATOM     72  C   UNL A   1      39.911  29.297  30.124  1.00  0.00     0.135 A 
ATOM     73  C   UNL A   1      39.426  29.433  27.773  1.00  0.00     0.135 A 
ATOM     74  F   UNL A   1      40.747  29.037  31.142  1.00  0.00    -0.206 F 
ATOM     75  C   UNL A   1      38.602  29.655  30.425  1.00  0.00     0.059 A 
ATOM     76  C   UNL A   1      38.119  29.823  28.052  1.00  0.00     0.059 A 
ATOM     77  F   UNL A   1      39.790  29.319  26.486  1.00  0.00    -0.206 F 
ATOM     78  C   UNL A   1      37.713  29.920  29.382  1.00  0.00     0.060 A 
BRANCH  78  79
ATOM     79  S   UNL A   1      36.023  30.401  29.793  1.00  0.00     0.124 S 
ATOM     80  O   UNL A   1      35.266  29.740  28.735  1.00  0.00    -0.237 OA
ATOM     81  O   UNL A   1      35.859  29.846  31.132  1.00  0.00    -0.237 OA
ATOM     82  O   UNL A   1      36.057  31.859  29.723  1.00  0.00    -0.744 OA
ENDBRANCH  78  79
ENDBRANCH  57  71
BRANCH  58  83
ATOM     83  C   UNL A   1      49.627  26.375  26.258  1.00  0.00     0.058 A 
ATOM     84  C   UNL A   1      50.482  25.702  27.144  1.00  0.00     0.135 A 
ATOM     85  C   UNL A   1      50.114  26.660  24.973  1.00  0.00     0.135 A 
ATOM     86  F   UNL A   1      50.066  25.410  28.386  1.00  0.00    -0.206 F 
ATOM     87  C   UNL A   1      51.778  25.349  26.780  1.00  0.00     0.059 A 
ATOM     88  C   UNL A   1      51.395  26.292  24.576  1.00  0.00     0.059 A 
ATOM     89  F   UNL A   1      49.330  27.286  24.080  1.00  0.00    -0.206 F 
ATOM     90  C   UNL A   1      52.225  25.648  25.492  1.00  0.00     0.060 A 
BRANCH  90  91
ATOM     91  S   UNL A   1      53.898  25.157  25.021  1.00  0.00     0.124 S 
ATOM     92  O   UNL A   1      54.679  25.660  26.144  1.00  0.00    -0.237 OA
ATOM     93  O   UNL A   1      53.775  23.705  24.927  1.00  0.00    -0.237 OA
ATOM     94  O   UNL A   1      54.104  25.844  23.749  1.00  0.00    -0.744 OA
ENDBRANCH  90  91
ENDBRANCH  58  83
BRANCH  70  95
ATOM     95  C   UNL A   1      46.820  32.340  28.558  1.00  0.00     0.058 A 
ATOM     96  C   UNL A   1      47.358  32.637  29.820  1.00  0.00     0.135 A 
ATOM     97  C   UNL A   1      46.900  33.326  27.561  1.00  0.00     0.135 A 
ATOM     98  F   UNL A   1      47.301  31.733  30.809  1.00  0.00    -0.206 F 
ATOM     99  C   UNL A   1      47.936  33.874  30.088  1.00  0.00     0.059 A 
ATOM    100  C   UNL A   1      47.501  34.558  27.799  1.00  0.00     0.059 A 
ATOM    101  F   UNL A   1      46.410  33.088  26.334  1.00  0.00    -0.206 F 
ATOM    102  C   UNL A   1      48.006  34.826  29.069  1.00  0.00     0.060 A 
BRANCH 102 103
ATOM    103  S   UNL A   1      48.796  36.411  29.420  1.00  0.00     0.124 S 
ATOM    104  O   UNL A   1      48.834  37.021  28.096  1.00  0.00    -0.237 OA
ATOM    105  O   UNL A   1      47.869  37.017  30.371  1.00  0.00    -0.237 OA
ATOM    106  O   UNL A   1      50.092  36.029  29.973  1.00  0.00    -0.744 OA
ENDBRANCH 102 103
ENDBRANCH  70  95
ENDBRANCH  44  45
ENDBRANCH  36  39
ENDBRANCH  34  35
ENDBRANCH  33  34
ENDBRANCH  32  33
ENDBRANCH   1  32
TORSDOF 20
ENDMDL
MODEL 2
REMARK VINA RESULT:     -11.5      2.646      8.822
REMARK SMILES O=C(C[C@H](NC(=O)[C@]12C[C@H]3C[C@H](C[C@H](C3)C1)C2)c1ccc(Cl)cc1Cl)NCCCCCCNC(=O)c1ccc(-c2c3nc(c(-c4c(F)cc(S(=O)(=O)[O-])cc4F)c4ccc([nH]4)c(-c4c(F)cc(S(=O)(=O)[O-])cc4F)c4nc(c(-c5c(F)cc(S(=O)(=O)[O-])cc5F)c5ccc2[nH]5)C=C4)C=C3)cc1
REMARK SMILES IDX 29 1 28 2 27 3 26 4 1 5 2 6 3 8 4 9 18 10 19 11 24 12 20 13
REMARK SMILES IDX 23 14 25 15 21 16 22 17 5 18 6 19 7 21 8 22 9 23 16 24 17 25
REMARK SMILES IDX 10 26 14 27 12 28 11 29 15 30 13 31 30 32 31 33 32 34 33 35
REMARK SMILES IDX 34 36 35 38 36 39 37 40 101 41 38 42 100 43 39 44 40 45
REMARK SMILES IDX 41 46 94 47 42 48 99 49 93 50 95 51 43 52 98 53 92 54 91 55
REMARK SMILES IDX 44 57 78 58 57 59 77 60 58 61 61 62 76 63 96 64 59 65 60 66
REMARK SMILES IDX 75 68 97 69 62 70 45 71 46 72 55 73 47 74 48 75 54 76 56 77
REMARK SMILES IDX 49 78 50 79 51 80 52 81 53 82 79 83 80 84 89 85 81 86 82 87
REMARK SMILES IDX 88 88 90 89 83 90 84 91 85 92 86 93 87 94 63 95 64 96 73 97
REMARK SMILES IDX 65 98 66 99 72 100 74 101 67 102 68 103 69 104 70 105 71 106
REMARK H PARENT 26 7 5 20 33 37 95 56 61 67
REMARK Flexibility Score: inf
ROOT
ATOM      1  C   UNL A   1      34.882  32.527  28.010  1.00  0.00     0.002 C 
ENDROOT
BRANCH   1   2
ATOM      2  C   UNL A   1      34.822  31.005  27.794  1.00  0.00     0.021 C 
BRANCH   2   3
ATOM      3  C   UNL A   1      33.496  30.483  27.253  1.00  0.00     0.116 C 
BRANCH   3   4
ATOM      4  N   UNL A   1      33.721  29.539  26.188  1.00  0.00    -0.356 N 
ATOM      5  O   UNL A   1      32.089  28.017  26.737  1.00  0.00    -0.275 OA
ATOM      6  C   UNL A   1      32.964  28.420  25.981  1.00  0.00     0.222 C 
ATOM      7  H   UNL A   1      34.468  29.710  25.570  1.00  0.00     0.163 HD
BRANCH   6   8
ATOM      8  C   UNL A   1      33.364  27.682  24.729  1.00  0.00     0.129 C 
BRANCH   8   9
ATOM      9  C   UNL A   1      32.257  26.947  23.933  1.00  0.00     0.123 C 
BRANCH   9  10
ATOM     10  C   UNL A   1      31.134  27.796  23.320  1.00  0.00    -0.006 A 
ATOM     11  C   UNL A   1      31.380  28.906  22.490  1.00  0.00     0.009 A 
ATOM     12  C   UNL A   1      29.777  27.484  23.594  1.00  0.00     0.047 A 
ATOM     13  C   UNL A   1      30.328  29.698  22.012  1.00  0.00     0.021 A 
ATOM     14  C   UNL A   1      28.733  28.306  23.159  1.00  0.00     0.041 A 
ATOM     15  Cl  UNL A   1      29.311  26.064  24.472  1.00  0.00    -0.084 Cl
ATOM     16  C   UNL A   1      29.016  29.417  22.378  1.00  0.00     0.042 A 
ATOM     17  Cl  UNL A   1      27.745  30.456  21.872  1.00  0.00    -0.084 Cl
ENDBRANCH   9  10
BRANCH   9  18
ATOM     18  N   UNL A   1      32.919  26.063  22.956  1.00  0.00    -0.348 N 
ATOM     19  C   UNL A   1      33.299  24.763  22.978  1.00  0.00     0.226 C 
ATOM     20  H   UNL A   1      33.128  26.514  22.107  1.00  0.00     0.164 HD
ATOM     21  O   UNL A   1      33.931  24.397  21.979  1.00  0.00    -0.274 OA
BRANCH  19  22
ATOM     22  C   UNL A   1      33.096  23.795  24.163  1.00  0.00     0.050 C 
ATOM     23  C   UNL A   1      31.645  23.558  24.625  1.00  0.00     0.020 C 
ATOM     24  C   UNL A   1      33.947  24.289  25.360  1.00  0.00     0.020 C 
ATOM     25  C   UNL A   1      33.671  22.407  23.745  1.00  0.00     0.020 C 
ATOM     26  C   UNL A   1      31.564  22.572  25.791  1.00  0.00    -0.010 C 
ATOM     27  C   UNL A   1      33.858  23.299  26.536  1.00  0.00    -0.010 C 
ATOM     28  C   UNL A   1      33.585  21.397  24.904  1.00  0.00    -0.010 C 
ATOM     29  C   UNL A   1      32.122  21.227  25.332  1.00  0.00     0.007 C 
ATOM     30  C   UNL A   1      32.390  23.140  26.959  1.00  0.00     0.007 C 
ATOM     31  C   UNL A   1      34.398  21.928  26.097  1.00  0.00     0.007 C 
ENDBRANCH  19  22
ENDBRANCH   9  18
ENDBRANCH   8   9
ENDBRANCH   6   8
ENDBRANCH   3   4
ENDBRANCH   2   3
ENDBRANCH   1   2
BRANCH   1  32
ATOM     32  C   UNL A   1      36.284  33.129  28.143  1.00  0.00     0.002 C 
BRANCH  32  33
ATOM     33  C   UNL A   1      36.573  33.842  29.461  1.00  0.00     0.021 C 
BRANCH  33  34
ATOM     34  C   UNL A   1      37.359  33.009  30.459  1.00  0.00     0.116 C 
BRANCH  34  35
ATOM     35  N   UNL A   1      36.573  31.925  31.019  1.00  0.00    -0.352 N 
ATOM     36  C   UNL A   1      36.837  30.576  30.978  1.00  0.00     0.251 C 
ATOM     37  H   UNL A   1      35.747  32.188  31.486  1.00  0.00     0.163 HD
ATOM     38  O   UNL A   1      36.006  29.769  31.364  1.00  0.00    -0.269 OA
BRANCH  36  39
ATOM     39  C   UNL A   1      38.134  30.127  30.427  1.00  0.00     0.039 A 
ATOM     40  C   UNL A   1      38.298  30.077  29.043  1.00  0.00     0.014 A 
ATOM     41  C   UNL A   1      39.194  29.801  31.280  1.00  0.00     0.014 A 
ATOM     42  C   UNL A   1      39.546  29.748  28.512  1.00  0.00     0.010 A 
ATOM     43  C   UNL A   1      40.455  29.560  30.750  1.00  0.00     0.010 A 
ATOM     44  C   UNL A   1      40.640  29.516  29.360  1.00  0.00    -0.014 A 
BRANCH  44  45
ATOM     45  C   UNL A   1      41.986  29.203  28.817  1.00  0.00     0.031 A 
ATOM     46  C   UNL A   1      42.292  27.808  28.342  1.00  0.00     0.074 A 
ATOM     47  C   UNL A   1      42.943  30.152  28.808  1.00  0.00     0.049 A 
ATOM     48  N   UNL A   1      43.420  27.314  27.905  1.00  0.00    -0.248 NA
ATOM     49  C   UNL A   1      41.190  26.831  28.391  1.00  0.00     0.031 C 
ATOM     50  C   UNL A   1      42.778  31.526  29.288  1.00  0.00     0.029 A 
ATOM     51  N   UNL A   1      44.249  30.103  28.390  1.00  0.00    -0.354 N 
ATOM     52  C   UNL A   1      43.169  25.972  27.644  1.00  0.00     0.074 A 
ATOM     53  C   UNL A   1      41.799  25.714  28.026  1.00  0.00     0.031 C 
ATOM     54  C   UNL A   1      43.930  32.194  29.115  1.00  0.00     0.029 A 
ATOM     55  C   UNL A   1      44.927  31.289  28.553  1.00  0.00     0.049 A 
ATOM     56  H   UNL A   1      44.661  29.295  28.008  1.00  0.00     0.167 HD
ATOM     57  C   UNL A   1      43.998  25.045  27.108  1.00  0.00     0.037 A 
ATOM     58  C   UNL A   1      46.209  31.606  28.290  1.00  0.00     0.037 A 
ATOM     59  C   UNL A   1      45.352  25.319  26.704  1.00  0.00     0.049 A 
ATOM     60  C   UNL A   1      47.113  30.555  27.698  1.00  0.00     0.074 A 
ATOM     61  C   UNL A   1      46.257  24.466  26.098  1.00  0.00     0.029 A 
ATOM     62  N   UNL A   1      45.995  26.538  26.863  1.00  0.00    -0.354 N 
ATOM     63  N   UNL A   1      46.840  29.307  27.398  1.00  0.00    -0.248 NA
ATOM     64  C   UNL A   1      48.495  30.957  27.402  1.00  0.00     0.031 C 
ATOM     65  C   UNL A   1      47.464  25.154  25.937  1.00  0.00     0.029 A 
ATOM     66  C   UNL A   1      47.292  26.453  26.387  1.00  0.00     0.049 A 
ATOM     67  H   UNL A   1      45.589  27.343  27.257  1.00  0.00     0.167 HD
ATOM     68  C   UNL A   1      48.005  28.786  26.847  1.00  0.00     0.074 A 
ATOM     69  C   UNL A   1      48.982  29.856  26.846  1.00  0.00     0.031 C 
ATOM     70  C   UNL A   1      48.246  27.535  26.381  1.00  0.00     0.037 A 
BRANCH  57  71
ATOM     71  C   UNL A   1      43.465  23.650  26.922  1.00  0.00     0.058 A 
ATOM     72  C   UNL A   1      43.323  22.763  28.003  1.00  0.00     0.135 A 
ATOM     73  C   UNL A   1      43.050  23.207  25.656  1.00  0.00     0.135 A 
ATOM     74  F   UNL A   1      43.719  23.126  29.233  1.00  0.00    -0.206 F 
ATOM     75  C   UNL A   1      42.814  21.481  27.830  1.00  0.00     0.059 A 
ATOM     76  C   UNL A   1      42.509  21.938  25.465  1.00  0.00     0.059 A 
ATOM     77  F   UNL A   1      43.167  24.011  24.587  1.00  0.00    -0.206 F 
ATOM     78  C   UNL A   1      42.406  21.079  26.557  1.00  0.00     0.060 A 
BRANCH  78  79
ATOM     79  S   UNL A   1      41.730  19.417  26.355  1.00  0.00     0.124 S 
ATOM     80  O   UNL A   1      40.311  19.701  26.164  1.00  0.00    -0.237 OA
ATOM     81  O   UNL A   1      42.444  18.932  25.179  1.00  0.00    -0.237 OA
ATOM     82  O   UNL A   1      42.073  18.755  27.610  1.00  0.00    -0.744 OA
ENDBRANCH  78  79
ENDBRANCH  57  71
BRANCH  58  83
ATOM     83  C   UNL A   1      46.713  32.978  28.565  1.00  0.00     0.058 A 
ATOM     84  C   UNL A   1      47.247  33.315  29.819  1.00  0.00     0.135 A 
ATOM     85  C   UNL A   1      46.674  33.981  27.585  1.00  0.00     0.135 A 
ATOM     86  F   UNL A   1      47.303  32.393  30.793  1.00  0.00    -0.206 F 
ATOM     87  C   UNL A   1      47.698  34.601  30.099  1.00  0.00     0.059 A 
ATOM     88  C   UNL A   1      47.145  35.267  27.830  1.00  0.00     0.059 A 
ATOM     89  F   UNL A   1      46.190  33.708  26.362  1.00  0.00    -0.206 F 
ATOM     90  C   UNL A   1      47.644  35.571  29.097  1.00  0.00     0.060 A 
BRANCH  90  91
ATOM     91  S   UNL A   1      48.262  37.228  29.461  1.00  0.00     0.124 S 
ATOM     92  O   UNL A   1      47.207  38.064  28.904  1.00  0.00    -0.237 OA
ATOM     93  O   UNL A   1      48.359  37.205  30.917  1.00  0.00    -0.237 OA
ATOM     94  O   UNL A   1      49.541  37.271  28.757  1.00  0.00    -0.744 OA
ENDBRANCH  90  91
ENDBRANCH  58  83
BRANCH  70  95
ATOM     95  C   UNL A   1      49.600  27.262  25.785  1.00  0.00     0.058 A 
ATOM     96  C   UNL A   1      50.681  26.827  26.568  1.00  0.00     0.135 A 
ATOM     97  C   UNL A   1      49.798  27.379  24.399  1.00  0.00     0.135 A 
ATOM     98  F   UNL A   1      50.546  26.706  27.897  1.00  0.00    -0.206 F 
ATOM     99  C   UNL A   1      51.917  26.538  26.000  1.00  0.00     0.059 A 
ATOM    100  C   UNL A   1      51.017  27.065  23.807  1.00  0.00     0.059 A 
ATOM    101  F   UNL A   1      48.794  27.780  23.604  1.00  0.00    -0.206 F 
ATOM    102  C   UNL A   1      52.074  26.656  24.617  1.00  0.00     0.060 A 
BRANCH 102 103
ATOM    103  S   UNL A   1      53.672  26.238  23.890  1.00  0.00     0.124 S 
ATOM    104  O   UNL A   1      53.297  25.921  22.517  1.00  0.00    -0.237 OA
ATOM    105  O   UNL A   1      54.430  27.471  24.072  1.00  0.00    -0.237 OA
ATOM    106  O   UNL A   1      54.125  25.105  24.694  1.00  0.00    -0.744 OA
ENDBRANCH 102 103
ENDBRANCH  70  95
ENDBRANCH  44  45
ENDBRANCH  36  39
ENDBRANCH  34  35
ENDBRANCH  33  34
ENDBRANCH  32  33
ENDBRANCH   1  32
TORSDOF 20
ENDMDL
MODEL 3
REMARK VINA RESULT:     -11.3      6.015     10.627
REMARK SMILES O=C(C[C@H](NC(=O)[C@]12C[C@H]3C[C@H](C[C@H](C3)C1)C2)c1ccc(Cl)cc1Cl)NCCCCCCNC(=O)c1ccc(-c2c3nc(c(-c4c(F)cc(S(=O)(=O)[O-])cc4F)c4ccc([nH]4)c(-c4c(F)cc(S(=O)(=O)[O-])cc4F)c4nc(c(-c5c(F)cc(S(=O)(=O)[O-])cc5F)c5ccc2[nH]5)C=C4)C=C3)cc1
REMARK SMILES IDX 29 1 28 2 27 3 26 4 1 5 2 6 3 8 4 9 18 10 19 11 24 12 20 13
REMARK SMILES IDX 23 14 25 15 21 16 22 17 5 18 6 19 7 21 8 22 9 23 16 24 17 25
REMARK SMILES IDX 10 26 14 27 12 28 11 29 15 30 13 31 30 32 31 33 32 34 33 35
REMARK SMILES IDX 34 36 35 38 36 39 37 40 101 41 38 42 100 43 39 44 40 45
REMARK SMILES IDX 41 46 94 47 42 48 99 49 93 50 95 51 43 52 98 53 92 54 91 55
REMARK SMILES IDX 44 57 78 58 57 59 77 60 58 61 61 62 76 63 96 64 59 65 60 66
REMARK SMILES IDX 75 68 97 69 62 70 45 71 46 72 55 73 47 74 48 75 54 76 56 77
REMARK SMILES IDX 49 78 50 79 51 80 52 81 53 82 79 83 80 84 89 85 81 86 82 87
REMARK SMILES IDX 88 88 90 89 83 90 84 91 85 92 86 93 87 94 63 95 64 96 73 97
REMARK SMILES IDX 65 98 66 99 72 100 74 101 67 102 68 103 69 104 70 105 71 106
REMARK H PARENT 26 7 5 20 33 37 95 56 61 67
REMARK Flexibility Score: inf
ROOT
ATOM      1  C   UNL A   1      39.353  21.839  26.151  1.00  0.00     0.002 C 
ENDROOT
BRANCH   1   2
ATOM      2  C   UNL A   1      38.264  21.113  25.343  1.00  0.00     0.021 C 
BRANCH   2   3
ATOM      3  C   UNL A   1      37.165  22.013  24.789  1.00  0.00     0.116 C 
BRANCH   3   4
ATOM      4  N   UNL A   1      35.954  21.862  25.555  1.00  0.00    -0.356 N 
ATOM      5  O   UNL A   1      35.406  24.084  25.760  1.00  0.00    -0.275 OA
ATOM      6  C   UNL A   1      35.144  22.899  25.924  1.00  0.00     0.222 C 
ATOM      7  H   UNL A   1      35.693  20.954  25.831  1.00  0.00     0.163 HD
BRANCH   6   8
ATOM      8  C   UNL A   1      33.894  22.429  26.621  1.00  0.00     0.129 C 
BRANCH   8   9
ATOM      9  C   UNL A   1      32.705  21.957  25.746  1.00  0.00     0.123 C 
BRANCH   9  10
ATOM     10  C   UNL A   1      32.704  20.496  25.273  1.00  0.00    -0.006 A 
ATOM     11  C   UNL A   1      32.880  19.409  26.150  1.00  0.00     0.009 A 
ATOM     12  C   UNL A   1      32.533  20.194  23.897  1.00  0.00     0.047 A 
ATOM     13  C   UNL A   1      32.945  18.095  25.667  1.00  0.00     0.021 A 
ATOM     14  C   UNL A   1      32.651  18.888  23.413  1.00  0.00     0.041 A 
ATOM     15  Cl  UNL A   1      32.157  21.410  22.722  1.00  0.00    -0.084 Cl
ATOM     16  C   UNL A   1      32.868  17.845  24.302  1.00  0.00     0.042 A 
ATOM     17  Cl  UNL A   1      33.055  16.242  23.713  1.00  0.00    -0.084 Cl
ENDBRANCH   9  10
BRANCH   9  18
ATOM     18  N   UNL A   1      31.461  22.351  26.429  1.00  0.00    -0.348 N 
ATOM     19  C   UNL A   1      30.723  23.487  26.448  1.00  0.00     0.226 C 
ATOM     20  H   UNL A   1      31.084  21.635  26.990  1.00  0.00     0.164 HD
ATOM     21  O   UNL A   1      29.772  23.467  27.241  1.00  0.00    -0.274 OA
BRANCH  19  22
ATOM     22  C   UNL A   1      31.050  24.775  25.665  1.00  0.00     0.050 C 
ATOM     23  C   UNL A   1      29.911  25.802  25.511  1.00  0.00     0.020 C 
ATOM     24  C   UNL A   1      31.586  24.383  24.264  1.00  0.00     0.020 C 
ATOM     25  C   UNL A   1      32.215  25.500  26.406  1.00  0.00     0.020 C 
ATOM     26  C   UNL A   1      30.351  27.042  24.733  1.00  0.00    -0.010 C 
ATOM     27  C   UNL A   1      32.022  25.634  23.479  1.00  0.00    -0.010 C 
ATOM     28  C   UNL A   1      32.663  26.759  25.642  1.00  0.00    -0.010 C 
ATOM     29  C   UNL A   1      31.480  27.725  25.501  1.00  0.00     0.007 C 
ATOM     30  C   UNL A   1      30.828  26.591  23.340  1.00  0.00     0.007 C 
ATOM     31  C   UNL A   1      33.148  26.353  24.240  1.00  0.00     0.007 C 
ENDBRANCH  19  22
ENDBRANCH   9  18
ENDBRANCH   8   9
ENDBRANCH   6   8
ENDBRANCH   3   4
ENDBRANCH   2   3
ENDBRANCH   1   2
BRANCH   1  32
ATOM     32  C   UNL A   1      40.561  20.990  26.558  1.00  0.00     0.002 C 
BRANCH  32  33
ATOM     33  C   UNL A   1      41.860  21.758  26.785  1.00  0.00     0.021 C 
BRANCH  33  34
ATOM     34  C   UNL A   1      41.669  23.243  27.041  1.00  0.00     0.116 C 
BRANCH  34  35
ATOM     35  N   UNL A   1      42.026  24.055  25.892  1.00  0.00    -0.352 N 
ATOM     36  C   UNL A   1      42.087  25.426  25.807  1.00  0.00     0.251 C 
ATOM     37  H   UNL A   1      42.253  23.562  25.070  1.00  0.00     0.163 HD
ATOM     38  O   UNL A   1      42.259  25.974  24.730  1.00  0.00    -0.269 OA
BRANCH  36  39
ATOM     39  C   UNL A   1      41.909  26.218  27.043  1.00  0.00     0.039 A 
ATOM     40  C   UNL A   1      42.783  27.276  27.297  1.00  0.00     0.014 A 
ATOM     41  C   UNL A   1      40.856  25.941  27.920  1.00  0.00     0.014 A 
ATOM     42  C   UNL A   1      42.567  28.090  28.410  1.00  0.00     0.010 A 
ATOM     43  C   UNL A   1      40.592  26.805  28.976  1.00  0.00     0.010 A 
ATOM     44  C   UNL A   1      41.454  27.880  29.240  1.00  0.00    -0.014 A 
BRANCH  44  45
ATOM     45  C   UNL A   1      41.183  28.757  30.406  1.00  0.00     0.031 A 
ATOM     46  C   UNL A   1      41.991  28.594  31.666  1.00  0.00     0.074 A 
ATOM     47  C   UNL A   1      40.178  29.653  30.351  1.00  0.00     0.049 A 
ATOM     48  N   UNL A   1      41.863  29.206  32.813  1.00  0.00    -0.248 NA
ATOM     49  C   UNL A   1      43.067  27.588  31.641  1.00  0.00     0.031 C 
ATOM     50  C   UNL A   1      39.296  29.868  29.202  1.00  0.00     0.029 A 
ATOM     51  N   UNL A   1      39.721  30.544  31.290  1.00  0.00    -0.354 N 
ATOM     52  C   UNL A   1      42.826  28.651  33.648  1.00  0.00     0.074 A 
ATOM     53  C   UNL A   1      43.492  27.612  32.894  1.00  0.00     0.031 C 
ATOM     54  C   UNL A   1      38.420  30.844  29.495  1.00  0.00     0.029 A 
ATOM     55  C   UNL A   1      38.649  31.295  30.864  1.00  0.00     0.049 A 
ATOM     56  H   UNL A   1      40.122  30.638  32.183  1.00  0.00     0.167 HD
ATOM     57  C   UNL A   1      43.145  28.995  34.918  1.00  0.00     0.037 A 
ATOM     58  C   UNL A   1      37.927  32.232  31.508  1.00  0.00     0.037 A 
ATOM     59  C   UNL A   1      42.495  30.050  35.649  1.00  0.00     0.049 A 
ATOM     60  C   UNL A   1      38.299  32.594  32.922  1.00  0.00     0.074 A 
ATOM     61  C   UNL A   1      42.780  30.517  36.920  1.00  0.00     0.029 A 
ATOM     62  N   UNL A   1      41.431  30.803  35.175  1.00  0.00    -0.354 N 
ATOM     63  N   UNL A   1      39.256  32.103  33.675  1.00  0.00    -0.248 NA
ATOM     64  C   UNL A   1      37.500  33.641  33.573  1.00  0.00     0.031 C 
ATOM     65  C   UNL A   1      41.856  31.518  37.234  1.00  0.00     0.029 A 
ATOM     66  C   UNL A   1      41.034  31.717  36.137  1.00  0.00     0.049 A 
ATOM     67  H   UNL A   1      41.019  30.703  34.287  1.00  0.00     0.167 HD
ATOM     68  C   UNL A   1      39.195  32.805  34.873  1.00  0.00     0.074 A 
ATOM     69  C   UNL A   1      38.114  33.760  34.742  1.00  0.00     0.031 C 
ATOM     70  C   UNL A   1      39.965  32.672  35.982  1.00  0.00     0.037 A 
BRANCH  57  71
ATOM     71  C   UNL A   1      44.248  28.229  35.597  1.00  0.00     0.058 A 
ATOM     72  C   UNL A   1      45.593  28.626  35.498  1.00  0.00     0.135 A 
ATOM     73  C   UNL A   1      43.955  27.108  36.391  1.00  0.00     0.135 A 
ATOM     74  F   UNL A   1      45.933  29.679  34.739  1.00  0.00    -0.206 F 
ATOM     75  C   UNL A   1      46.607  27.925  36.141  1.00  0.00     0.059 A 
ATOM     76  C   UNL A   1      44.951  26.410  37.068  1.00  0.00     0.059 A 
ATOM     77  F   UNL A   1      42.689  26.682  36.517  1.00  0.00    -0.206 F 
ATOM     78  C   UNL A   1      46.276  26.820  36.927  1.00  0.00     0.060 A 
BRANCH  78  79
ATOM     79  S   UNL A   1      47.605  25.934  37.769  1.00  0.00     0.124 S 
ATOM     80  O   UNL A   1      47.914  26.847  38.865  1.00  0.00    -0.237 OA
ATOM     81  O   UNL A   1      46.954  24.685  38.148  1.00  0.00    -0.237 OA
ATOM     82  O   UNL A   1      48.636  25.813  36.743  1.00  0.00    -0.744 OA
ENDBRANCH  78  79
ENDBRANCH  57  71
BRANCH  58  83
ATOM     83  C   UNL A   1      36.793  32.907  30.821  1.00  0.00     0.058 A 
ATOM     84  C   UNL A   1      37.019  33.913  29.868  1.00  0.00     0.135 A 
ATOM     85  C   UNL A   1      35.462  32.561  31.098  1.00  0.00     0.135 A 
ATOM     86  F   UNL A   1      38.274  34.283  29.570  1.00  0.00    -0.206 F 
ATOM     87  C   UNL A   1      35.968  34.568  29.236  1.00  0.00     0.059 A 
ATOM     88  C   UNL A   1      34.394  33.182  30.459  1.00  0.00     0.059 A 
ATOM     89  F   UNL A   1      35.189  31.593  31.988  1.00  0.00    -0.206 F 
ATOM     90  C   UNL A   1      34.657  34.196  29.538  1.00  0.00     0.060 A 
BRANCH  90  91
ATOM     91  S   UNL A   1      33.301  35.032  28.688  1.00  0.00     0.124 S 
ATOM     92  O   UNL A   1      34.011  36.076  27.959  1.00  0.00    -0.237 OA
ATOM     93  O   UNL A   1      32.738  33.957  27.879  1.00  0.00    -0.237 OA
ATOM     94  O   UNL A   1      32.452  35.493  29.783  1.00  0.00    -0.744 OA
ENDBRANCH  90  91
ENDBRANCH  58  83
BRANCH  70  95
ATOM     95  C   UNL A   1      39.704  33.613  37.127  1.00  0.00     0.058 A 
ATOM     96  C   UNL A   1      38.877  33.258  38.205  1.00  0.00     0.135 A 
ATOM     97  C   UNL A   1      40.343  34.863  37.173  1.00  0.00     0.135 A 
ATOM     98  F   UNL A   1      38.238  32.078  38.206  1.00  0.00    -0.206 F 
ATOM     99  C   UNL A   1      38.677  34.119  39.278  1.00  0.00     0.059 A 
ATOM    100  C   UNL A   1      40.180  35.726  38.252  1.00  0.00     0.059 A 
ATOM    101  F   UNL A   1      41.152  35.246  36.174  1.00  0.00    -0.206 F 
ATOM    102  C   UNL A   1      39.336  35.350  39.294  1.00  0.00     0.060 A 
BRANCH 102 103
ATOM    103  S   UNL A   1      39.097  36.439  40.714  1.00  0.00     0.124 S 
ATOM    104  O   UNL A   1      37.976  35.798  41.392  1.00  0.00    -0.237 OA
ATOM    105  O   UNL A   1      40.385  36.350  41.395  1.00  0.00    -0.237 OA
ATOM    106  O   UNL A   1      38.805  37.734  40.104  1.00  0.00    -0.744 OA
ENDBRANCH 102 103
ENDBRANCH  70  95
ENDBRANCH  44  45
ENDBRANCH  36  39
ENDBRANCH  34  35
ENDBRANCH  33  34
ENDBRANCH  32  33
ENDBRANCH   1  32
TORSDOF 20
ENDMDL
