MODEL 1
REMARK VINA RESULT:     -10.3      0.000      0.000
REMARK SMILES COc1ccc(OC)c(C[NH2+][C@@H](C(=O)NCCCCCCNC(=O)c2ccc(-c3c4nc(c(-c5c(F)cc(S(=O)(=O)[O-])cc5F)c5ccc([nH]5)c(-c5c(F)cc(S(=O)(=O)[O-])cc5F)c5nc(c(-c6c(F)cc(S(=O)(=O)[O-])cc6F)c6ccc3[nH]6)C=C5)C=C4)cc2)C(C)C)c1
REMARK SMILES IDX 18 1 17 2 16 3 15 4 13 5 14 6 12 8 11 9 10 12 9 13 3 14 4 15
REMARK SMILES IDX 94 16 5 17 6 18 2 19 1 20 7 21 8 22 91 23 92 24 93 25 19 26
REMARK SMILES IDX 20 27 21 28 22 29 23 30 24 32 25 33 26 34 90 35 27 36 89 37
REMARK SMILES IDX 28 38 29 39 30 40 83 41 31 42 88 43 82 44 84 45 32 46 87 47
REMARK SMILES IDX 81 48 80 49 33 51 67 52 46 53 66 54 47 55 50 56 65 57 85 58
REMARK SMILES IDX 48 59 49 60 64 62 86 63 51 64 34 65 35 66 44 67 36 68 37 69
REMARK SMILES IDX 43 70 45 71 38 72 39 73 40 74 41 75 42 76 68 77 69 78 78 79
REMARK SMILES IDX 70 80 71 81 77 82 79 83 72 84 73 85 74 86 75 87 76 88 52 89
REMARK SMILES IDX 53 90 62 91 54 92 55 93 61 94 63 95 56 96 57 97 58 98 59 99
REMARK SMILES IDX 60 100
REMARK H PARENT 15 7 11 10 11 11 22 31 84 50 50 61
REMARK Flexibility Score: inf
ROOT
ATOM      1  C   UNL A   1      31.014  27.750  24.617  1.00  0.00     0.002 C 
ENDROOT
BRANCH   1   2
ATOM      2  C   UNL A   1      31.338  28.521  23.336  1.00  0.00     0.021 C 
BRANCH   2   3
ATOM      3  C   UNL A   1      32.777  28.345  22.820  1.00  0.00     0.116 C 
BRANCH   3   4
ATOM      4  N   UNL A   1      32.803  27.437  21.682  1.00  0.00    -0.351 N 
ATOM      5  C   UNL A   1      32.948  26.078  21.601  1.00  0.00     0.278 C 
ATOM      6  O   UNL A   1      33.173  25.615  20.478  1.00  0.00    -0.268 OA
ATOM      7  H   UNL A   1      32.700  27.882  20.810  1.00  0.00     0.163 HD
BRANCH   5   8
ATOM      8  C   UNL A   1      32.848  25.157  22.858  1.00  0.00     0.275 C 
BRANCH   8   9
ATOM      9  N   UNL A   1      34.202  24.732  23.321  1.00  0.00    -0.332 N 
ATOM     10  H   UNL A   1      34.275  23.718  23.247  1.00  0.00     0.347 HD
ATOM     11  H   UNL A   1      34.899  25.190  22.735  1.00  0.00     0.347 HD
BRANCH   9  12
ATOM     12  C   UNL A   1      34.438  25.123  24.698  1.00  0.00     0.302 C 
BRANCH  12  13
ATOM     13  C   UNL A   1      34.104  24.140  25.788  1.00  0.00     0.052 A 
ATOM     14  C   UNL A   1      32.276  23.215  27.148  1.00  0.00     0.119 A 
ATOM     15  C   UNL A   1      33.143  22.252  27.644  1.00  0.00     0.050 A 
ATOM     16  C   UNL A   1      32.763  24.160  26.249  1.00  0.00     0.059 A 
ATOM     17  C   UNL A   1      34.474  22.221  27.219  1.00  0.00     0.051 A 
ATOM     18  C   UNL A   1      34.958  23.143  26.279  1.00  0.00     0.127 A 
BRANCH  14  19
ATOM     19  O   UNL A   1      30.994  23.178  27.618  1.00  0.00    -0.497 OA
ATOM     20  C   UNL A   1      30.016  22.697  26.699  1.00  0.00     0.278 C 
ENDBRANCH  14  19
BRANCH  18  21
ATOM     21  O   UNL A   1      36.287  23.002  25.993  1.00  0.00    -0.496 OA
ATOM     22  C   UNL A   1      36.703  21.697  25.610  1.00  0.00     0.278 C 
ENDBRANCH  18  21
ENDBRANCH  12  13
ENDBRANCH   9  12
ENDBRANCH   8   9
BRANCH   8  23
ATOM     23  C   UNL A   1      32.033  23.876  22.498  1.00  0.00     0.051 C 
ATOM     24  C   UNL A   1      32.819  22.580  22.745  1.00  0.00     0.014 C 
ATOM     25  C   UNL A   1      30.720  23.806  23.292  1.00  0.00     0.014 C 
ENDBRANCH   8  23
ENDBRANCH   5   8
ENDBRANCH   3   4
ENDBRANCH   2   3
ENDBRANCH   1   2
BRANCH   1  26
ATOM     26  C   UNL A   1      31.515  28.400  25.906  1.00  0.00     0.002 C 
BRANCH  26  27
ATOM     27  C   UNL A   1      32.760  27.764  26.536  1.00  0.00     0.021 C 
BRANCH  27  28
ATOM     28  C   UNL A   1      34.067  28.536  26.349  1.00  0.00     0.116 C 
BRANCH  28  29
ATOM     29  N   UNL A   1      33.909  29.960  26.594  1.00  0.00    -0.352 N 
ATOM     30  C   UNL A   1      34.602  30.788  27.443  1.00  0.00     0.251 C 
ATOM     31  H   UNL A   1      33.195  30.397  26.074  1.00  0.00     0.163 HD
ATOM     32  O   UNL A   1      34.183  31.919  27.664  1.00  0.00    -0.269 OA
BRANCH  30  33
ATOM     33  C   UNL A   1      35.841  30.317  28.101  1.00  0.00     0.039 A 
ATOM     34  C   UNL A   1      37.060  30.476  27.437  1.00  0.00     0.014 A 
ATOM     35  C   UNL A   1      35.801  29.692  29.351  1.00  0.00     0.014 A 
ATOM     36  C   UNL A   1      38.246  30.063  28.051  1.00  0.00     0.010 A 
ATOM     37  C   UNL A   1      36.989  29.334  29.987  1.00  0.00     0.010 A 
ATOM     38  C   UNL A   1      38.223  29.515  29.344  1.00  0.00    -0.014 A 
BRANCH  38  39
ATOM     39  C   UNL A   1      39.478  29.126  30.038  1.00  0.00     0.031 A 
ATOM     40  C   UNL A   1      39.937  29.882  31.254  1.00  0.00     0.074 A 
ATOM     41  C   UNL A   1      40.237  28.132  29.534  1.00  0.00     0.049 A 
ATOM     42  N   UNL A   1      41.039  29.744  31.946  1.00  0.00    -0.248 NA
ATOM     43  C   UNL A   1      39.053  30.952  31.744  1.00  0.00     0.031 C 
ATOM     44  C   UNL A   1      39.923  27.353  28.335  1.00  0.00     0.029 A 
ATOM     45  N   UNL A   1      41.437  27.618  29.958  1.00  0.00    -0.354 N 
ATOM     46  C   UNL A   1      40.991  30.716  32.938  1.00  0.00     0.074 A 
ATOM     47  C   UNL A   1      39.771  31.467  32.733  1.00  0.00     0.031 C 
ATOM     48  C   UNL A   1      40.898  26.452  28.127  1.00  0.00     0.029 A 
ATOM     49  C   UNL A   1      41.920  26.609  29.157  1.00  0.00     0.049 A 
ATOM     50  H   UNL A   1      41.907  27.940  30.761  1.00  0.00     0.167 HD
ATOM     51  C   UNL A   1      41.873  30.952  33.939  1.00  0.00     0.037 A 
ATOM     52  C   UNL A   1      43.060  25.898  29.239  1.00  0.00     0.037 A 
ATOM     53  C   UNL A   1      43.071  30.184  34.158  1.00  0.00     0.049 A 
ATOM     54  C   UNL A   1      44.016  26.165  30.369  1.00  0.00     0.074 A 
ATOM     55  C   UNL A   1      43.998  30.306  35.179  1.00  0.00     0.029 A 
ATOM     56  N   UNL A   1      43.508  29.149  33.345  1.00  0.00    -0.354 N 
ATOM     57  N   UNL A   1      43.926  27.053  31.331  1.00  0.00    -0.248 NA
ATOM     58  C   UNL A   1      45.225  25.332  30.430  1.00  0.00     0.031 C 
ATOM     59  C   UNL A   1      45.012  29.365  34.965  1.00  0.00     0.029 A 
ATOM     60  C   UNL A   1      44.697  28.632  33.833  1.00  0.00     0.049 A 
ATOM     61  H   UNL A   1      43.041  28.829  32.539  1.00  0.00     0.167 HD
ATOM     62  C   UNL A   1      45.052  26.869  32.125  1.00  0.00     0.074 A 
ATOM     63  C   UNL A   1      45.804  25.779  31.537  1.00  0.00     0.031 C 
ATOM     64  C   UNL A   1      45.429  27.541  33.240  1.00  0.00     0.037 A 
BRANCH  51  65
ATOM     65  C   UNL A   1      41.570  32.083  34.882  1.00  0.00     0.058 A 
ATOM     66  C   UNL A   1      40.735  31.908  35.997  1.00  0.00     0.135 A 
ATOM     67  C   UNL A   1      42.146  33.350  34.687  1.00  0.00     0.135 A 
ATOM     68  F   UNL A   1      40.147  30.722  36.220  1.00  0.00    -0.206 F 
ATOM     69  C   UNL A   1      40.458  32.953  36.870  1.00  0.00     0.059 A 
ATOM     70  C   UNL A   1      41.902  34.405  35.563  1.00  0.00     0.059 A 
ATOM     71  F   UNL A   1      42.952  33.573  33.638  1.00  0.00    -0.206 F 
ATOM     72  C   UNL A   1      41.044  34.200  36.643  1.00  0.00     0.060 A 
BRANCH  72  73
ATOM     73  S   UNL A   1      40.676  35.548  37.786  1.00  0.00     0.124 S 
ATOM     74  O   UNL A   1      39.921  34.851  38.823  1.00  0.00    -0.237 OA
ATOM     75  O   UNL A   1      42.008  36.005  38.172  1.00  0.00    -0.237 OA
ATOM     76  O   UNL A   1      39.908  36.484  36.972  1.00  0.00    -0.744 OA
ENDBRANCH  72  73
ENDBRANCH  51  65
BRANCH  52  77
ATOM     77  C   UNL A   1      43.350  24.844  28.231  1.00  0.00     0.058 A 
ATOM     78  C   UNL A   1      42.899  23.528  28.416  1.00  0.00     0.135 A 
ATOM     79  C   UNL A   1      44.065  25.134  27.060  1.00  0.00     0.135 A 
ATOM     80  F   UNL A   1      42.216  23.203  29.523  1.00  0.00    -0.206 F 
ATOM     81  C   UNL A   1      43.159  22.532  27.480  1.00  0.00     0.059 A 
ATOM     82  C   UNL A   1      44.319  24.159  26.100  1.00  0.00     0.059 A 
ATOM     83  F   UNL A   1      44.502  26.381  26.828  1.00  0.00    -0.206 F 
ATOM     84  C   UNL A   1      43.869  22.858  26.323  1.00  0.00     0.060 A 
BRANCH  84  85
ATOM     85  S   UNL A   1      44.154  21.572  25.088  1.00  0.00     0.124 S 
ATOM     86  O   UNL A   1      43.962  22.312  23.846  1.00  0.00    -0.237 OA
ATOM     87  O   UNL A   1      45.522  21.159  25.382  1.00  0.00    -0.237 OA
ATOM     88  O   UNL A   1      43.129  20.579  25.398  1.00  0.00    -0.744 OA
ENDBRANCH  84  85
ENDBRANCH  52  77
BRANCH  64  89
ATOM     89  C   UNL A   1      46.695  27.099  33.918  1.00  0.00     0.058 A 
ATOM     90  C   UNL A   1      47.940  27.656  33.587  1.00  0.00     0.135 A 
ATOM     91  C   UNL A   1      46.654  26.144  34.946  1.00  0.00     0.135 A 
ATOM     92  F   UNL A   1      48.033  28.567  32.607  1.00  0.00    -0.206 F 
ATOM     93  C   UNL A   1      49.104  27.265  34.240  1.00  0.00     0.059 A 
ATOM     94  C   UNL A   1      47.803  25.756  35.627  1.00  0.00     0.059 A 
ATOM     95  F   UNL A   1      45.485  25.588  35.306  1.00  0.00    -0.206 F 
ATOM     96  C   UNL A   1      49.026  26.314  35.258  1.00  0.00     0.060 A 
BRANCH  96  97
ATOM     97  S   UNL A   1      50.539  25.840  36.122  1.00  0.00     0.124 S 
ATOM     98  O   UNL A   1      51.215  27.126  36.256  1.00  0.00    -0.237 OA
ATOM     99  O   UNL A   1      50.027  25.259  37.359  1.00  0.00    -0.237 OA
ATOM    100  O   UNL A   1      51.169  24.893  35.206  1.00  0.00    -0.744 OA
ENDBRANCH  96  97
ENDBRANCH  64  89
ENDBRANCH  38  39
ENDBRANCH  30  33
ENDBRANCH  28  29
ENDBRANCH  27  28
ENDBRANCH  26  27
ENDBRANCH   1  26
TORSDOF 22
ENDMDL
MODEL 2
REMARK VINA RESULT:      -9.9      2.590      3.788
REMARK SMILES COc1ccc(OC)c(C[NH2+][C@@H](C(=O)NCCCCCCNC(=O)c2ccc(-c3c4nc(c(-c5c(F)cc(S(=O)(=O)[O-])cc5F)c5ccc([nH]5)c(-c5c(F)cc(S(=O)(=O)[O-])cc5F)c5nc(c(-c6c(F)cc(S(=O)(=O)[O-])cc6F)c6ccc3[nH]6)C=C5)C=C4)cc2)C(C)C)c1
REMARK SMILES IDX 18 1 17 2 16 3 15 4 13 5 14 6 12 8 11 9 10 12 9 13 3 14 4 15
REMARK SMILES IDX 94 16 5 17 6 18 2 19 1 20 7 21 8 22 91 23 92 24 93 25 19 26
REMARK SMILES IDX 20 27 21 28 22 29 23 30 24 32 25 33 26 34 90 35 27 36 89 37
REMARK SMILES IDX 28 38 29 39 30 40 83 41 31 42 88 43 82 44 84 45 32 46 87 47
REMARK SMILES IDX 81 48 80 49 33 51 67 52 46 53 66 54 47 55 50 56 65 57 85 58
REMARK SMILES IDX 48 59 49 60 64 62 86 63 51 64 34 65 35 66 44 67 36 68 37 69
REMARK SMILES IDX 43 70 45 71 38 72 39 73 40 74 41 75 42 76 68 77 69 78 78 79
REMARK SMILES IDX 70 80 71 81 77 82 79 83 72 84 73 85 74 86 75 87 76 88 52 89
REMARK SMILES IDX 53 90 62 91 54 92 55 93 61 94 63 95 56 96 57 97 58 98 59 99
REMARK SMILES IDX 60 100
REMARK H PARENT 15 7 11 10 11 11 22 31 84 50 50 61
REMARK Flexibility Score: inf
ROOT
ATOM      1  C   UNL A   1      31.218  27.739  24.507  1.00  0.00     0.002 C 
ENDROOT
BRANCH   1   2
ATOM      2  C   UNL A   1      29.998  26.832  24.347  1.00  0.00     0.021 C 
BRANCH   2   3
ATOM      3  C   UNL A   1      30.303  25.324  24.367  1.00  0.00     0.116 C 
BRANCH   3   4
ATOM      4  N   UNL A   1      30.000  24.759  25.675  1.00  0.00    -0.351 N 
ATOM      5  C   UNL A   1      30.554  23.718  26.370  1.00  0.00     0.278 C 
ATOM      6  O   UNL A   1      29.925  23.319  27.356  1.00  0.00    -0.268 OA
ATOM      7  H   UNL A   1      29.261  25.207  26.145  1.00  0.00     0.163 HD
BRANCH   5   8
ATOM      8  C   UNL A   1      31.902  23.056  25.941  1.00  0.00     0.275 C 
BRANCH   8   9
ATOM      9  N   UNL A   1      31.850  21.574  26.113  1.00  0.00    -0.332 N 
ATOM     10  H   UNL A   1      32.570  21.292  26.778  1.00  0.00     0.347 HD
ATOM     11  H   UNL A   1      30.923  21.323  26.454  1.00  0.00     0.347 HD
BRANCH   9  12
ATOM     12  C   UNL A   1      32.074  20.885  24.856  1.00  0.00     0.302 C 
BRANCH  12  13
ATOM     13  C   UNL A   1      33.333  20.076  24.698  1.00  0.00     0.052 A 
ATOM     14  C   UNL A   1      35.781  20.132  24.929  1.00  0.00     0.119 A 
ATOM     15  C   UNL A   1      35.826  18.763  24.704  1.00  0.00     0.050 A 
ATOM     16  C   UNL A   1      34.549  20.780  24.901  1.00  0.00     0.059 A 
ATOM     17  C   UNL A   1      34.644  18.051  24.484  1.00  0.00     0.051 A 
ATOM     18  C   UNL A   1      33.396  18.691  24.500  1.00  0.00     0.127 A 
BRANCH  14  19
ATOM     19  O   UNL A   1      36.981  20.754  25.130  1.00  0.00    -0.497 OA
ATOM     20  C   UNL A   1      38.134  19.988  24.791  1.00  0.00     0.278 C 
ENDBRANCH  14  19
BRANCH  18  21
ATOM     21  O   UNL A   1      32.341  17.862  24.235  1.00  0.00    -0.496 OA
ATOM     22  C   UNL A   1      32.158  16.783  25.142  1.00  0.00     0.278 C 
ENDBRANCH  18  21
ENDBRANCH  12  13
ENDBRANCH   9  12
ENDBRANCH   8   9
BRANCH   8  23
ATOM     23  C   UNL A   1      33.058  23.610  26.829  1.00  0.00     0.051 C 
ATOM     24  C   UNL A   1      33.655  22.545  27.761  1.00  0.00     0.014 C 
ATOM     25  C   UNL A   1      34.191  24.195  25.974  1.00  0.00     0.014 C 
ENDBRANCH   8  23
ENDBRANCH   5   8
ENDBRANCH   3   4
ENDBRANCH   2   3
ENDBRANCH   1   2
BRANCH   1  26
ATOM     26  C   UNL A   1      31.478  28.227  25.932  1.00  0.00     0.002 C 
BRANCH  26  27
ATOM     27  C   UNL A   1      32.585  27.493  26.699  1.00  0.00     0.021 C 
BRANCH  27  28
ATOM     28  C   UNL A   1      33.919  28.234  26.813  1.00  0.00     0.116 C 
BRANCH  28  29
ATOM     29  N   UNL A   1      33.746  29.632  27.171  1.00  0.00    -0.352 N 
ATOM     30  C   UNL A   1      34.563  30.459  27.902  1.00  0.00     0.251 C 
ATOM     31  H   UNL A   1      32.917  30.049  26.841  1.00  0.00     0.163 HD
ATOM     32  O   UNL A   1      34.146  31.550  28.274  1.00  0.00    -0.269 OA
BRANCH  30  33
ATOM     33  C   UNL A   1      35.937  30.034  28.253  1.00  0.00     0.039 A 
ATOM     34  C   UNL A   1      36.945  30.150  27.293  1.00  0.00     0.014 A 
ATOM     35  C   UNL A   1      36.225  29.493  29.509  1.00  0.00     0.014 A 
ATOM     36  C   UNL A   1      38.255  29.780  27.612  1.00  0.00     0.010 A 
ATOM     37  C   UNL A   1      37.541  29.179  29.846  1.00  0.00     0.010 A 
ATOM     38  C   UNL A   1      38.570  29.319  28.901  1.00  0.00    -0.014 A 
BRANCH  38  39
ATOM     39  C   UNL A   1      39.966  28.978  29.278  1.00  0.00     0.031 A 
ATOM     40  C   UNL A   1      40.824  29.983  29.996  1.00  0.00     0.074 A 
ATOM     41  C   UNL A   1      40.481  27.786  28.914  1.00  0.00     0.049 A 
ATOM     42  N   UNL A   1      42.085  29.899  30.337  1.00  0.00    -0.248 NA
ATOM     43  C   UNL A   1      40.188  31.259  30.359  1.00  0.00     0.031 C 
ATOM     44  C   UNL A   1      39.765  26.744  28.175  1.00  0.00     0.029 A 
ATOM     45  N   UNL A   1      41.733  27.255  29.104  1.00  0.00    -0.354 N 
ATOM     46  C   UNL A   1      42.398  31.114  30.935  1.00  0.00     0.074 A 
ATOM     47  C   UNL A   1      41.207  31.934  30.874  1.00  0.00     0.031 C 
ATOM     48  C   UNL A   1      40.584  25.697  27.986  1.00  0.00     0.029 A 
ATOM     49  C   UNL A   1      41.891  26.003  28.561  1.00  0.00     0.049 A 
ATOM     50  H   UNL A   1      42.450  27.728  29.585  1.00  0.00     0.167 HD
ATOM     51  C   UNL A   1      43.565  31.505  31.501  1.00  0.00     0.037 A 
ATOM     52  C   UNL A   1      42.968  25.194  28.523  1.00  0.00     0.037 A 
ATOM     53  C   UNL A   1      44.739  30.675  31.587  1.00  0.00     0.049 A 
ATOM     54  C   UNL A   1      44.248  25.643  29.172  1.00  0.00     0.074 A 
ATOM     55  C   UNL A   1      45.952  30.958  32.193  1.00  0.00     0.029 A 
ATOM     56  N   UNL A   1      44.849  29.400  31.054  1.00  0.00    -0.354 N 
ATOM     57  N   UNL A   1      44.509  26.775  29.783  1.00  0.00    -0.248 NA
ATOM     58  C   UNL A   1      45.378  24.704  29.133  1.00  0.00     0.031 C 
ATOM     59  C   UNL A   1      46.804  29.865  31.999  1.00  0.00     0.029 A 
ATOM     60  C   UNL A   1      46.111  28.887  31.306  1.00  0.00     0.049 A 
ATOM     61  H   UNL A   1      44.134  28.928  30.568  1.00  0.00     0.167 HD
ATOM     62  C   UNL A   1      45.824  26.674  30.222  1.00  0.00     0.074 A 
ATOM     63  C   UNL A   1      46.302  25.368  29.817  1.00  0.00     0.031 C 
ATOM     64  C   UNL A   1      46.568  27.581  30.901  1.00  0.00     0.037 A 
BRANCH  51  65
ATOM     65  C   UNL A   1      43.629  32.891  32.080  1.00  0.00     0.058 A 
ATOM     66  C   UNL A   1      43.905  34.010  31.278  1.00  0.00     0.135 A 
ATOM     67  C   UNL A   1      43.380  33.108  33.445  1.00  0.00     0.135 A 
ATOM     68  F   UNL A   1      44.166  33.856  29.970  1.00  0.00    -0.206 F 
ATOM     69  C   UNL A   1      43.961  35.292  31.813  1.00  0.00     0.059 A 
ATOM     70  C   UNL A   1      43.407  34.386  33.998  1.00  0.00     0.059 A 
ATOM     71  F   UNL A   1      43.111  32.074  34.257  1.00  0.00    -0.206 F 
ATOM     72  C   UNL A   1      43.713  35.470  33.176  1.00  0.00     0.060 A 
BRANCH  72  73
ATOM     73  S   UNL A   1      43.788  37.140  33.856  1.00  0.00     0.124 S 
ATOM     74  O   UNL A   1      44.633  36.937  35.029  1.00  0.00    -0.237 OA
ATOM     75  O   UNL A   1      44.392  37.897  32.764  1.00  0.00    -0.237 OA
ATOM     76  O   UNL A   1      42.391  37.456  34.135  1.00  0.00    -0.744 OA
ENDBRANCH  72  73
ENDBRANCH  51  65
BRANCH  52  77
ATOM     77  C   UNL A   1      42.874  23.865  27.864  1.00  0.00     0.058 A 
ATOM     78  C   UNL A   1      43.091  23.729  26.484  1.00  0.00     0.135 A 
ATOM     79  C   UNL A   1      42.583  22.706  28.598  1.00  0.00     0.135 A 
ATOM     80  F   UNL A   1      43.367  24.810  25.739  1.00  0.00    -0.206 F 
ATOM     81  C   UNL A   1      43.011  22.492  25.853  1.00  0.00     0.059 A 
ATOM     82  C   UNL A   1      42.519  21.455  27.993  1.00  0.00     0.059 A 
ATOM     83  F   UNL A   1      42.385  22.782  29.924  1.00  0.00    -0.206 F 
ATOM     84  C   UNL A   1      42.725  21.359  26.617  1.00  0.00     0.060 A 
BRANCH  84  85
ATOM     85  S   UNL A   1      42.677  19.750  25.800  1.00  0.00     0.124 S 
ATOM     86  O   UNL A   1      43.114  18.864  26.873  1.00  0.00    -0.237 OA
ATOM     87  O   UNL A   1      41.274  19.641  25.412  1.00  0.00    -0.237 OA
ATOM     88  O   UNL A   1      43.614  19.911  24.691  1.00  0.00    -0.744 OA
ENDBRANCH  84  85
ENDBRANCH  52  77
BRANCH  64  89
ATOM     89  C   UNL A   1      47.967  27.183  31.277  1.00  0.00     0.058 A 
ATOM     90  C   UNL A   1      49.062  27.472  30.448  1.00  0.00     0.135 A 
ATOM     91  C   UNL A   1      48.221  26.552  32.505  1.00  0.00     0.135 A 
ATOM     92  F   UNL A   1      48.872  28.069  29.261  1.00  0.00    -0.206 F 
ATOM     93  C   UNL A   1      50.359  27.130  30.815  1.00  0.00     0.059 A 
ATOM     94  C   UNL A   1      49.513  26.221  32.902  1.00  0.00     0.059 A 
ATOM     95  F   UNL A   1      47.208  26.262  33.338  1.00  0.00    -0.206 F 
ATOM     96  C   UNL A   1      50.575  26.504  32.045  1.00  0.00     0.060 A 
BRANCH  96  97
ATOM     97  S   UNL A   1      52.266  26.096  32.526  1.00  0.00     0.124 S 
ATOM     98  O   UNL A   1      52.156  26.056  33.980  1.00  0.00    -0.237 OA
ATOM     99  O   UNL A   1      52.478  24.809  31.869  1.00  0.00    -0.237 OA
ATOM    100  O   UNL A   1      53.049  27.204  31.985  1.00  0.00    -0.744 OA
ENDBRANCH  96  97
ENDBRANCH  64  89
ENDBRANCH  38  39
ENDBRANCH  30  33
ENDBRANCH  28  29
ENDBRANCH  27  28
ENDBRANCH  26  27
ENDBRANCH   1  26
TORSDOF 22
ENDMDL
MODEL 3
REMARK VINA RESULT:      -9.9      4.370      9.842
REMARK SMILES COc1ccc(OC)c(C[NH2+][C@@H](C(=O)NCCCCCCNC(=O)c2ccc(-c3c4nc(c(-c5c(F)cc(S(=O)(=O)[O-])cc5F)c5ccc([nH]5)c(-c5c(F)cc(S(=O)(=O)[O-])cc5F)c5nc(c(-c6c(F)cc(S(=O)(=O)[O-])cc6F)c6ccc3[nH]6)C=C5)C=C4)cc2)C(C)C)c1
REMARK SMILES IDX 18 1 17 2 16 3 15 4 13 5 14 6 12 8 11 9 10 12 9 13 3 14 4 15
REMARK SMILES IDX 94 16 5 17 6 18 2 19 1 20 7 21 8 22 91 23 92 24 93 25 19 26
REMARK SMILES IDX 20 27 21 28 22 29 23 30 24 32 25 33 26 34 90 35 27 36 89 37
REMARK SMILES IDX 28 38 29 39 30 40 83 41 31 42 88 43 82 44 84 45 32 46 87 47
REMARK SMILES IDX 81 48 80 49 33 51 67 52 46 53 66 54 47 55 50 56 65 57 85 58
REMARK SMILES IDX 48 59 49 60 64 62 86 63 51 64 34 65 35 66 44 67 36 68 37 69
REMARK SMILES IDX 43 70 45 71 38 72 39 73 40 74 41 75 42 76 68 77 69 78 78 79
REMARK SMILES IDX 70 80 71 81 77 82 79 83 72 84 73 85 74 86 75 87 76 88 52 89
REMARK SMILES IDX 53 90 62 91 54 92 55 93 61 94 63 95 56 96 57 97 58 98 59 99
REMARK SMILES IDX 60 100
REMARK H PARENT 15 7 11 10 11 11 22 31 84 50 50 61
REMARK Flexibility Score: inf
ROOT
ATOM      1  C   UNL A   1      34.182  21.231  24.765  1.00  0.00     0.002 C 
ENDROOT
BRANCH   1   2
ATOM      2  C   UNL A   1      33.877  20.794  26.198  1.00  0.00     0.021 C 
BRANCH   2   3
ATOM      3  C   UNL A   1      33.670  21.946  27.197  1.00  0.00     0.116 C 
BRANCH   3   4
ATOM      4  N   UNL A   1      32.256  22.276  27.310  1.00  0.00    -0.351 N 
ATOM      5  C   UNL A   1      31.522  23.326  26.829  1.00  0.00     0.278 C 
ATOM      6  O   UNL A   1      30.384  23.461  27.293  1.00  0.00    -0.268 OA
ATOM      7  H   UNL A   1      31.732  21.625  27.830  1.00  0.00     0.163 HD
BRANCH   5   8
ATOM      8  C   UNL A   1      32.088  24.313  25.760  1.00  0.00     0.275 C 
BRANCH   8   9
ATOM      9  N   UNL A   1      31.604  25.704  26.004  1.00  0.00    -0.332 N 
ATOM     10  H   UNL A   1      31.072  26.018  25.193  1.00  0.00     0.347 HD
ATOM     11  H   UNL A   1      31.021  25.698  26.841  1.00  0.00     0.347 HD
BRANCH   9  12
ATOM     12  C   UNL A   1      32.708  26.619  26.226  1.00  0.00     0.302 C 
BRANCH  12  13
ATOM     13  C   UNL A   1      32.418  28.095  26.263  1.00  0.00     0.052 A 
ATOM     14  C   UNL A   1      33.136  30.246  27.216  1.00  0.00     0.119 A 
ATOM     15  C   UNL A   1      32.255  30.905  26.371  1.00  0.00     0.050 A 
ATOM     16  C   UNL A   1      33.195  28.855  27.175  1.00  0.00     0.059 A 
ATOM     17  C   UNL A   1      31.466  30.178  25.476  1.00  0.00     0.051 A 
ATOM     18  C   UNL A   1      31.554  28.781  25.398  1.00  0.00     0.127 A 
BRANCH  14  19
ATOM     19  O   UNL A   1      33.866  31.029  28.064  1.00  0.00    -0.497 OA
ATOM     20  C   UNL A   1      35.236  31.206  27.710  1.00  0.00     0.278 C 
ENDBRANCH  14  19
BRANCH  18  21
ATOM     21  O   UNL A   1      30.694  28.216  24.498  1.00  0.00    -0.496 OA
ATOM     22  C   UNL A   1      30.713  28.774  23.190  1.00  0.00     0.278 C 
ENDBRANCH  18  21
ENDBRANCH  12  13
ENDBRANCH   9  12
ENDBRANCH   8   9
BRANCH   8  23
ATOM     23  C   UNL A   1      31.609  23.873  24.341  1.00  0.00     0.051 C 
ATOM     24  C   UNL A   1      30.307  24.566  23.912  1.00  0.00     0.014 C 
ATOM     25  C   UNL A   1      32.680  24.151  23.277  1.00  0.00     0.014 C 
ENDBRANCH   8  23
ENDBRANCH   5   8
ENDBRANCH   3   4
ENDBRANCH   2   3
ENDBRANCH   1   2
BRANCH   1  26
ATOM     26  C   UNL A   1      35.614  21.707  24.524  1.00  0.00     0.002 C 
BRANCH  26  27
ATOM     27  C   UNL A   1      35.831  23.225  24.575  1.00  0.00     0.021 C 
BRANCH  27  28
ATOM     28  C   UNL A   1      36.790  23.724  25.656  1.00  0.00     0.116 C 
BRANCH  28  29
ATOM     29  N   UNL A   1      37.726  22.696  26.083  1.00  0.00    -0.352 N 
ATOM     30  C   UNL A   1      38.998  22.819  26.584  1.00  0.00     0.251 C 
ATOM     31  H   UNL A   1      37.397  21.771  25.998  1.00  0.00     0.163 HD
ATOM     32  O   UNL A   1      39.708  21.825  26.691  1.00  0.00    -0.269 OA
BRANCH  30  33
ATOM     33  C   UNL A   1      39.520  24.146  26.981  1.00  0.00     0.039 A 
ATOM     34  C   UNL A   1      39.423  24.536  28.319  1.00  0.00     0.014 A 
ATOM     35  C   UNL A   1      40.073  25.016  26.037  1.00  0.00     0.014 A 
ATOM     36  C   UNL A   1      39.934  25.773  28.722  1.00  0.00     0.010 A 
ATOM     37  C   UNL A   1      40.635  26.223  26.449  1.00  0.00     0.010 A 
ATOM     38  C   UNL A   1      40.571  26.615  27.795  1.00  0.00    -0.014 A 
BRANCH  38  39
ATOM     39  C   UNL A   1      41.174  27.907  28.214  1.00  0.00     0.031 A 
ATOM     40  C   UNL A   1      42.662  28.111  28.132  1.00  0.00     0.074 A 
ATOM     41  C   UNL A   1      40.387  28.873  28.730  1.00  0.00     0.049 A 
ATOM     42  N   UNL A   1      43.379  29.133  28.524  1.00  0.00    -0.248 NA
ATOM     43  C   UNL A   1      43.452  27.010  27.556  1.00  0.00     0.031 C 
ATOM     44  C   UNL A   1      38.936  28.779  28.904  1.00  0.00     0.029 A 
ATOM     45  N   UNL A   1      40.699  30.118  29.217  1.00  0.00    -0.354 N 
ATOM     46  C   UNL A   1      44.700  28.794  28.260  1.00  0.00     0.074 A 
ATOM     47  C   UNL A   1      44.691  27.454  27.714  1.00  0.00     0.031 C 
ATOM     48  C   UNL A   1      38.483  29.921  29.446  1.00  0.00     0.029 A 
ATOM     49  C   UNL A   1      39.611  30.815  29.688  1.00  0.00     0.049 A 
ATOM     50  H   UNL A   1      41.615  30.477  29.228  1.00  0.00     0.167 HD
ATOM     51  C   UNL A   1      45.819  29.538  28.439  1.00  0.00     0.037 A 
ATOM     52  C   UNL A   1      39.532  32.034  30.256  1.00  0.00     0.037 A 
ATOM     53  C   UNL A   1      45.821  30.883  28.954  1.00  0.00     0.049 A 
ATOM     54  C   UNL A   1      40.785  32.848  30.429  1.00  0.00     0.074 A 
ATOM     55  C   UNL A   1      46.895  31.741  29.117  1.00  0.00     0.029 A 
ATOM     56  N   UNL A   1      44.696  31.566  29.388  1.00  0.00    -0.354 N 
ATOM     57  N   UNL A   1      42.022  32.532  30.121  1.00  0.00    -0.248 NA
ATOM     58  C   UNL A   1      40.634  34.185  31.019  1.00  0.00     0.031 C 
ATOM     59  C   UNL A   1      46.423  32.932  29.679  1.00  0.00     0.029 A 
ATOM     60  C   UNL A   1      45.050  32.831  29.830  1.00  0.00     0.049 A 
ATOM     61  H   UNL A   1      43.779  31.207  29.382  1.00  0.00     0.167 HD
ATOM     62  C   UNL A   1      42.791  33.640  30.459  1.00  0.00     0.074 A 
ATOM     63  C   UNL A   1      41.881  34.638  30.983  1.00  0.00     0.031 C 
ATOM     64  C   UNL A   1      44.130  33.815  30.342  1.00  0.00     0.037 A 
BRANCH  51  65
ATOM     65  C   UNL A   1      47.136  28.916  28.066  1.00  0.00     0.058 A 
ATOM     66  C   UNL A   1      47.656  29.021  26.767  1.00  0.00     0.135 A 
ATOM     67  C   UNL A   1      47.902  28.234  29.026  1.00  0.00     0.135 A 
ATOM     68  F   UNL A   1      46.957  29.648  25.808  1.00  0.00    -0.206 F 
ATOM     69  C   UNL A   1      48.876  28.448  26.423  1.00  0.00     0.059 A 
ATOM     70  C   UNL A   1      49.137  27.674  28.711  1.00  0.00     0.059 A 
ATOM     71  F   UNL A   1      47.452  28.104  30.284  1.00  0.00    -0.206 F 
ATOM     72  C   UNL A   1      49.608  27.773  27.402  1.00  0.00     0.060 A 
BRANCH  72  73
ATOM     73  S   UNL A   1      51.190  27.036  26.942  1.00  0.00     0.124 S 
ATOM     74  O   UNL A   1      51.864  28.166  26.311  1.00  0.00    -0.237 OA
ATOM     75  O   UNL A   1      51.729  26.617  28.233  1.00  0.00    -0.237 OA
ATOM     76  O   UNL A   1      50.811  25.950  26.043  1.00  0.00    -0.744 OA
ENDBRANCH  72  73
ENDBRANCH  51  65
BRANCH  52  77
ATOM     77  C   UNL A   1      38.213  32.569  30.682  1.00  0.00     0.058 A 
ATOM     78  C   UNL A   1      37.759  32.399  31.999  1.00  0.00     0.135 A 
ATOM     79  C   UNL A   1      37.389  33.272  29.791  1.00  0.00     0.135 A 
ATOM     80  F   UNL A   1      38.510  31.728  32.886  1.00  0.00    -0.206 F 
ATOM     81  C   UNL A   1      36.529  32.897  32.416  1.00  0.00     0.059 A 
ATOM     82  C   UNL A   1      36.164  33.798  30.190  1.00  0.00     0.059 A 
ATOM     83  F   UNL A   1      37.786  33.477  28.526  1.00  0.00    -0.206 F 
ATOM     84  C   UNL A   1      35.738  33.597  31.503  1.00  0.00     0.060 A 
BRANCH  84  85
ATOM     85  S   UNL A   1      34.167  34.287  32.065  1.00  0.00     0.124 S 
ATOM     86  O   UNL A   1      33.469  34.494  30.802  1.00  0.00    -0.237 OA
ATOM     87  O   UNL A   1      33.648  33.222  32.916  1.00  0.00    -0.237 OA
ATOM     88  O   UNL A   1      34.570  35.500  32.771  1.00  0.00    -0.744 OA
ENDBRANCH  84  85
ENDBRANCH  52  77
BRANCH  64  89
ATOM     89  C   UNL A   1      44.691  35.145  30.761  1.00  0.00     0.058 A 
ATOM     90  C   UNL A   1      45.183  35.361  32.057  1.00  0.00     0.135 A 
ATOM     91  C   UNL A   1      44.784  36.199  29.838  1.00  0.00     0.135 A 
ATOM     92  F   UNL A   1      45.109  34.387  32.978  1.00  0.00    -0.206 F 
ATOM     93  C   UNL A   1      45.730  36.584  32.431  1.00  0.00     0.059 A 
ATOM     94  C   UNL A   1      45.349  37.422  30.184  1.00  0.00     0.059 A 
ATOM     95  F   UNL A   1      44.337  36.039  28.582  1.00  0.00    -0.206 F 
ATOM     96  C   UNL A   1      45.808  37.609  31.486  1.00  0.00     0.060 A 
BRANCH  96  97
ATOM     97  S   UNL A   1      46.552  39.181  31.972  1.00  0.00     0.124 S 
ATOM     98  O   UNL A   1      47.116  39.641  30.709  1.00  0.00    -0.237 OA
ATOM     99  O   UNL A   1      45.402  39.933  32.467  1.00  0.00    -0.237 OA
ATOM    100  O   UNL A   1      47.524  38.795  32.991  1.00  0.00    -0.744 OA
ENDBRANCH  96  97
ENDBRANCH  64  89
ENDBRANCH  38  39
ENDBRANCH  30  33
ENDBRANCH  28  29
ENDBRANCH  27  28
ENDBRANCH  26  27
ENDBRANCH   1  26
TORSDOF 22
ENDMDL
