MODEL 1
REMARK VINA RESULT:     -10.2      0.000      0.000
REMARK SMILES COc1cc(OC)cc(C(=O)C[C@H](C)CC(=O)NCCCCCCNC(=O)c2ccc(-c3c4nc(c(-c5c(F)cc(S(=O)(=O)[O-])cc5F)c5ccc([nH]5)c(-c5c(F)cc(S(=O)(=O)[O-])cc5F)c5nc(c(-c6c(F)cc(S(=O)(=O)[O-])cc6F)c6ccc3[nH]6)C=C5)C=C4)cc2)c1
REMARK SMILES IDX 20 1 19 2 18 3 16 4 17 5 15 7 13 8 14 9 12 10 10 11 11 12
REMARK SMILES IDX 9 13 3 14 4 15 94 16 5 17 8 18 2 19 1 20 6 21 7 22 21 23
REMARK SMILES IDX 22 24 23 25 24 26 25 27 26 28 27 30 28 31 29 32 93 33 30 34
REMARK SMILES IDX 92 35 31 36 32 37 33 38 86 39 34 40 91 41 85 42 87 43 35 44
REMARK SMILES IDX 90 45 84 46 83 47 36 49 70 50 49 51 69 52 50 53 53 54 68 55
REMARK SMILES IDX 88 56 51 57 52 58 67 60 89 61 54 62 37 63 38 64 47 65 39 66
REMARK SMILES IDX 40 67 46 68 48 69 41 70 42 71 43 72 44 73 45 74 71 75 72 76
REMARK SMILES IDX 81 77 73 78 74 79 80 80 82 81 75 82 76 83 77 84 78 85 79 86
REMARK SMILES IDX 55 87 56 88 65 89 57 90 58 91 64 92 66 93 59 94 60 95 61 96
REMARK SMILES IDX 62 97 63 98
REMARK H PARENT 18 6 25 29 87 48 53 59
REMARK Flexibility Score: inf
ROOT
ATOM      1  C   UNL A   1      34.860  30.036  27.825  1.00  0.00     0.021 C 
ENDROOT
BRANCH   1   2
ATOM      2  C   UNL A   1      34.436  28.863  26.945  1.00  0.00     0.116 C 
BRANCH   2   3
ATOM      3  N   UNL A   1      33.219  29.188  26.231  1.00  0.00    -0.356 N 
ATOM      4  C   UNL A   1      32.156  28.389  25.958  1.00  0.00     0.220 C 
ATOM      5  O   UNL A   1      31.281  28.799  25.193  1.00  0.00    -0.275 OA
ATOM      6  H   UNL A   1      33.154  30.113  25.900  1.00  0.00     0.163 HD
BRANCH   4   7
ATOM      7  C   UNL A   1      32.042  27.023  26.602  1.00  0.00     0.103 C 
BRANCH   7   8
ATOM      8  C   UNL A   1      32.235  25.871  25.601  1.00  0.00     0.003 C 
ATOM      9  C   UNL A   1      33.480  26.043  24.724  1.00  0.00     0.008 C 
BRANCH   8  10
ATOM     10  C   UNL A   1      32.314  24.532  26.354  1.00  0.00     0.085 C 
BRANCH  10  11
ATOM     11  C   UNL A   1      31.985  23.368  25.436  1.00  0.00     0.163 C 
ATOM     12  O   UNL A   1      30.908  23.315  24.847  1.00  0.00    -0.294 OA
BRANCH  11  13
ATOM     13  C   UNL A   1      32.986  22.268  25.251  1.00  0.00     0.025 A 
ATOM     14  C   UNL A   1      33.617  20.038  24.545  1.00  0.00     0.123 A 
ATOM     15  C   UNL A   1      34.928  20.292  24.944  1.00  0.00     0.092 A 
ATOM     16  C   UNL A   1      32.640  21.016  24.726  1.00  0.00     0.058 A 
ATOM     17  C   UNL A   1      35.282  21.528  25.487  1.00  0.00     0.123 A 
ATOM     18  C   UNL A   1      34.315  22.522  25.618  1.00  0.00     0.058 A 
BRANCH  14  19
ATOM     19  O   UNL A   1      33.375  18.787  24.042  1.00  0.00    -0.497 OA
ATOM     20  C   UNL A   1      32.373  18.042  24.734  1.00  0.00     0.278 C 
ENDBRANCH  14  19
BRANCH  17  21
ATOM     21  O   UNL A   1      36.599  21.647  25.843  1.00  0.00    -0.497 OA
ATOM     22  C   UNL A   1      37.544  21.042  24.968  1.00  0.00     0.278 C 
ENDBRANCH  17  21
ENDBRANCH  11  13
ENDBRANCH  10  11
ENDBRANCH   8  10
ENDBRANCH   7   8
ENDBRANCH   4   7
ENDBRANCH   2   3
ENDBRANCH   1   2
BRANCH   1  23
ATOM     23  C   UNL A   1      34.052  31.312  27.590  1.00  0.00     0.002 C 
BRANCH  23  24
ATOM     24  C   UNL A   1      34.289  32.422  28.618  1.00  0.00     0.002 C 
BRANCH  24  25
ATOM     25  C   UNL A   1      35.554  33.256  28.393  1.00  0.00     0.021 C 
BRANCH  25  26
ATOM     26  C   UNL A   1      36.682  32.974  29.381  1.00  0.00     0.116 C 
BRANCH  26  27
ATOM     27  N   UNL A   1      36.254  32.073  30.438  1.00  0.00    -0.352 N 
ATOM     28  C   UNL A   1      36.798  30.877  30.823  1.00  0.00     0.251 C 
ATOM     29  H   UNL A   1      35.463  32.362  30.947  1.00  0.00     0.163 HD
ATOM     30  O   UNL A   1      36.162  30.123  31.562  1.00  0.00    -0.269 OA
BRANCH  28  31
ATOM     31  C   UNL A   1      38.142  30.494  30.348  1.00  0.00     0.039 A 
ATOM     32  C   UNL A   1      39.183  30.381  31.273  1.00  0.00     0.014 A 
ATOM     33  C   UNL A   1      38.378  30.266  28.989  1.00  0.00     0.014 A 
ATOM     34  C   UNL A   1      40.453  29.994  30.838  1.00  0.00     0.010 A 
ATOM     35  C   UNL A   1      39.626  29.819  28.567  1.00  0.00     0.010 A 
ATOM     36  C   UNL A   1      40.678  29.688  29.486  1.00  0.00    -0.014 A 
BRANCH  36  37
ATOM     37  C   UNL A   1      42.012  29.241  29.012  1.00  0.00     0.031 A 
ATOM     38  C   UNL A   1      43.141  30.229  28.899  1.00  0.00     0.074 A 
ATOM     39  C   UNL A   1      42.189  27.960  28.631  1.00  0.00     0.049 A 
ATOM     40  N   UNL A   1      44.351  30.051  28.438  1.00  0.00    -0.248 NA
ATOM     41  C   UNL A   1      42.864  31.608  29.338  1.00  0.00     0.031 C 
ATOM     42  C   UNL A   1      41.157  26.921  28.653  1.00  0.00     0.029 A 
ATOM     43  N   UNL A   1      43.296  27.317  28.138  1.00  0.00    -0.354 N 
ATOM     44  C   UNL A   1      44.976  31.290  28.520  1.00  0.00     0.074 A 
ATOM     45  C   UNL A   1      43.995  32.224  29.029  1.00  0.00     0.031 C 
ATOM     46  C   UNL A   1      41.684  25.768  28.209  1.00  0.00     0.029 A 
ATOM     47  C   UNL A   1      43.078  25.992  27.840  1.00  0.00     0.049 A 
ATOM     48  H   UNL A   1      44.165  27.762  28.009  1.00  0.00     0.167 HD
ATOM     49  C   UNL A   1      46.256  31.614  28.220  1.00  0.00     0.037 A 
ATOM     50  C   UNL A   1      43.908  25.066  27.320  1.00  0.00     0.037 A 
ATOM     51  C   UNL A   1      47.235  30.673  27.743  1.00  0.00     0.049 A 
ATOM     52  C   UNL A   1      45.327  25.451  27.002  1.00  0.00     0.074 A 
ATOM     53  C   UNL A   1      48.572  30.891  27.460  1.00  0.00     0.029 A 
ATOM     54  N   UNL A   1      46.984  29.334  27.481  1.00  0.00    -0.354 N 
ATOM     55  N   UNL A   1      45.916  26.616  27.137  1.00  0.00    -0.248 NA
ATOM     56  C   UNL A   1      46.198  24.397  26.465  1.00  0.00     0.031 C 
ATOM     57  C   UNL A   1      49.121  29.692  26.995  1.00  0.00     0.029 A 
ATOM     58  C   UNL A   1      48.137  28.717  27.028  1.00  0.00     0.049 A 
ATOM     59  H   UNL A   1      46.114  28.889  27.600  1.00  0.00     0.167 HD
ATOM     60  C   UNL A   1      47.230  26.427  26.729  1.00  0.00     0.074 A 
ATOM     61  C   UNL A   1      47.355  25.034  26.353  1.00  0.00     0.031 C 
ATOM     62  C   UNL A   1      48.244  27.325  26.669  1.00  0.00     0.037 A 
BRANCH  49  63
ATOM     63  C   UNL A   1      46.679  33.044  28.415  1.00  0.00     0.058 A 
ATOM     64  C   UNL A   1      46.574  33.987  27.381  1.00  0.00     0.135 A 
ATOM     65  C   UNL A   1      47.147  33.489  29.662  1.00  0.00     0.135 A 
ATOM     66  F   UNL A   1      46.148  33.612  26.164  1.00  0.00    -0.206 F 
ATOM     67  C   UNL A   1      46.938  35.317  27.568  1.00  0.00     0.059 A 
ATOM     68  C   UNL A   1      47.494  34.820  29.880  1.00  0.00     0.059 A 
ATOM     69  F   UNL A   1      47.269  32.629  30.684  1.00  0.00    -0.206 F 
ATOM     70  C   UNL A   1      47.395  35.724  28.822  1.00  0.00     0.060 A 
BRANCH  70  71
ATOM     71  S   UNL A   1      47.846  37.456  29.054  1.00  0.00     0.124 S 
ATOM     72  O   UNL A   1      46.820  38.132  28.264  1.00  0.00    -0.237 OA
ATOM     73  O   UNL A   1      47.737  37.616  30.500  1.00  0.00    -0.237 OA
ATOM     74  O   UNL A   1      49.200  37.531  28.517  1.00  0.00    -0.744 OA
ENDBRANCH  70  71
ENDBRANCH  49  63
BRANCH  50  75
ATOM     75  C   UNL A   1      43.423  23.680  27.083  1.00  0.00     0.058 A 
ATOM     76  C   UNL A   1      43.082  23.248  25.793  1.00  0.00     0.135 A 
ATOM     77  C   UNL A   1      43.288  22.765  28.138  1.00  0.00     0.135 A 
ATOM     78  F   UNL A   1      43.190  24.089  24.753  1.00  0.00    -0.206 F 
ATOM     79  C   UNL A   1      42.599  21.964  25.559  1.00  0.00     0.059 A 
ATOM     80  C   UNL A   1      42.832  21.468  27.925  1.00  0.00     0.059 A 
ATOM     81  F   UNL A   1      43.620  23.124  29.387  1.00  0.00    -0.206 F 
ATOM     82  C   UNL A   1      42.476  21.082  26.633  1.00  0.00     0.060 A 
BRANCH  82  83
ATOM     83  S   UNL A   1      41.880  19.406  26.317  1.00  0.00     0.124 S 
ATOM     84  O   UNL A   1      40.443  19.625  26.195  1.00  0.00    -0.237 OA
ATOM     85  O   UNL A   1      42.581  19.056  25.084  1.00  0.00    -0.237 OA
ATOM     86  O   UNL A   1      42.310  18.670  27.502  1.00  0.00    -0.744 OA
ENDBRANCH  82  83
ENDBRANCH  50  75
BRANCH  62  87
ATOM     87  C   UNL A   1      49.585  26.823  26.214  1.00  0.00     0.058 A 
ATOM     88  C   UNL A   1      50.012  26.966  24.885  1.00  0.00     0.135 A 
ATOM     89  C   UNL A   1      50.473  26.237  27.130  1.00  0.00     0.135 A 
ATOM     90  F   UNL A   1      49.198  27.512  23.968  1.00  0.00    -0.206 F 
ATOM     91  C   UNL A   1      51.266  26.524  24.475  1.00  0.00     0.059 A 
ATOM     92  C   UNL A   1      51.741  25.812  26.748  1.00  0.00     0.059 A 
ATOM     93  F   UNL A   1      50.116  26.088  28.416  1.00  0.00    -0.206 F 
ATOM     94  C   UNL A   1      52.124  25.949  25.415  1.00  0.00     0.060 A 
BRANCH  94  95
ATOM     95  S   UNL A   1      53.762  25.412  24.879  1.00  0.00     0.124 S 
ATOM     96  O   UNL A   1      53.561  23.975  24.719  1.00  0.00    -0.237 OA
ATOM     97  O   UNL A   1      53.951  26.166  23.644  1.00  0.00    -0.237 OA
ATOM     98  O   UNL A   1      54.628  25.806  25.985  1.00  0.00    -0.744 OA
ENDBRANCH  94  95
ENDBRANCH  62  87
ENDBRANCH  36  37
ENDBRANCH  28  31
ENDBRANCH  26  27
ENDBRANCH  25  26
ENDBRANCH  24  25
ENDBRANCH  23  24
ENDBRANCH   1  23
TORSDOF 22
ENDMDL
MODEL 2
REMARK VINA RESULT:     -10.1      2.028      4.257
REMARK SMILES COc1cc(OC)cc(C(=O)C[C@H](C)CC(=O)NCCCCCCNC(=O)c2ccc(-c3c4nc(c(-c5c(F)cc(S(=O)(=O)[O-])cc5F)c5ccc([nH]5)c(-c5c(F)cc(S(=O)(=O)[O-])cc5F)c5nc(c(-c6c(F)cc(S(=O)(=O)[O-])cc6F)c6ccc3[nH]6)C=C5)C=C4)cc2)c1
REMARK SMILES IDX 20 1 19 2 18 3 16 4 17 5 15 7 13 8 14 9 12 10 10 11 11 12
REMARK SMILES IDX 9 13 3 14 4 15 94 16 5 17 8 18 2 19 1 20 6 21 7 22 21 23
REMARK SMILES IDX 22 24 23 25 24 26 25 27 26 28 27 30 28 31 29 32 93 33 30 34
REMARK SMILES IDX 92 35 31 36 32 37 33 38 86 39 34 40 91 41 85 42 87 43 35 44
REMARK SMILES IDX 90 45 84 46 83 47 36 49 70 50 49 51 69 52 50 53 53 54 68 55
REMARK SMILES IDX 88 56 51 57 52 58 67 60 89 61 54 62 37 63 38 64 47 65 39 66
REMARK SMILES IDX 40 67 46 68 48 69 41 70 42 71 43 72 44 73 45 74 71 75 72 76
REMARK SMILES IDX 81 77 73 78 74 79 80 80 82 81 75 82 76 83 77 84 78 85 79 86
REMARK SMILES IDX 55 87 56 88 65 89 57 90 58 91 64 92 66 93 59 94 60 95 61 96
REMARK SMILES IDX 62 97 63 98
REMARK H PARENT 18 6 25 29 87 48 53 59
REMARK Flexibility Score: inf
ROOT
ATOM      1  C   UNL A   1      34.731  30.541  27.789  1.00  0.00     0.021 C 
ENDROOT
BRANCH   1   2
ATOM      2  C   UNL A   1      34.190  29.437  26.884  1.00  0.00     0.116 C 
BRANCH   2   3
ATOM      3  N   UNL A   1      32.904  28.981  27.368  1.00  0.00    -0.356 N 
ATOM      4  C   UNL A   1      32.226  27.851  27.040  1.00  0.00     0.220 C 
ATOM      5  O   UNL A   1      31.066  27.714  27.433  1.00  0.00    -0.275 OA
ATOM      6  H   UNL A   1      32.463  29.568  28.025  1.00  0.00     0.163 HD
BRANCH   4   7
ATOM      7  C   UNL A   1      32.897  26.769  26.219  1.00  0.00     0.103 C 
BRANCH   7   8
ATOM      8  C   UNL A   1      32.971  27.114  24.722  1.00  0.00     0.003 C 
ATOM      9  C   UNL A   1      33.731  26.065  23.903  1.00  0.00     0.008 C 
BRANCH   8  10
ATOM     10  C   UNL A   1      31.551  27.284  24.154  1.00  0.00     0.085 C 
BRANCH  10  11
ATOM     11  C   UNL A   1      31.456  28.522  23.281  1.00  0.00     0.163 C 
ATOM     12  O   UNL A   1      32.464  29.026  22.790  1.00  0.00    -0.294 OA
BRANCH  11  13
ATOM     13  C   UNL A   1      30.115  29.139  23.019  1.00  0.00     0.025 A 
ATOM     14  C   UNL A   1      27.697  29.162  23.175  1.00  0.00     0.123 A 
ATOM     15  C   UNL A   1      27.673  30.374  22.487  1.00  0.00     0.092 A 
ATOM     16  C   UNL A   1      28.917  28.530  23.415  1.00  0.00     0.058 A 
ATOM     17  C   UNL A   1      28.859  30.982  22.070  1.00  0.00     0.123 A 
ATOM     18  C   UNL A   1      30.080  30.374  22.357  1.00  0.00     0.058 A 
BRANCH  14  19
ATOM     19  O   UNL A   1      26.477  28.645  23.521  1.00  0.00    -0.497 OA
ATOM     20  C   UNL A   1      26.495  27.278  23.931  1.00  0.00     0.278 C 
ENDBRANCH  14  19
BRANCH  17  21
ATOM     21  O   UNL A   1      28.698  32.165  21.401  1.00  0.00    -0.497 OA
ATOM     22  C   UNL A   1      27.968  32.103  20.180  1.00  0.00     0.278 C 
ENDBRANCH  17  21
ENDBRANCH  11  13
ENDBRANCH  10  11
ENDBRANCH   8  10
ENDBRANCH   7   8
ENDBRANCH   4   7
ENDBRANCH   2   3
ENDBRANCH   1   2
BRANCH   1  23
ATOM     23  C   UNL A   1      33.943  31.849  27.713  1.00  0.00     0.002 C 
BRANCH  23  24
ATOM     24  C   UNL A   1      34.381  32.923  28.713  1.00  0.00     0.002 C 
BRANCH  24  25
ATOM     25  C   UNL A   1      35.819  33.421  28.542  1.00  0.00     0.021 C 
BRANCH  25  26
ATOM     26  C   UNL A   1      36.698  33.255  29.779  1.00  0.00     0.116 C 
BRANCH  26  27
ATOM     27  N   UNL A   1      36.171  32.239  30.676  1.00  0.00    -0.352 N 
ATOM     28  C   UNL A   1      36.637  30.973  30.910  1.00  0.00     0.251 C 
ATOM     29  H   UNL A   1      35.369  32.497  31.184  1.00  0.00     0.163 HD
ATOM     30  O   UNL A   1      35.928  30.158  31.503  1.00  0.00    -0.269 OA
BRANCH  28  31
ATOM     31  C   UNL A   1      37.985  30.588  30.448  1.00  0.00     0.039 A 
ATOM     32  C   UNL A   1      39.013  30.454  31.385  1.00  0.00     0.014 A 
ATOM     33  C   UNL A   1      38.238  30.381  29.088  1.00  0.00     0.014 A 
ATOM     34  C   UNL A   1      40.286  30.064  30.961  1.00  0.00     0.010 A 
ATOM     35  C   UNL A   1      39.489  29.932  28.677  1.00  0.00     0.010 A 
ATOM     36  C   UNL A   1      40.527  29.778  29.608  1.00  0.00    -0.014 A 
BRANCH  36  37
ATOM     37  C   UNL A   1      41.865  29.329  29.145  1.00  0.00     0.031 A 
ATOM     38  C   UNL A   1      43.002  30.311  29.065  1.00  0.00     0.074 A 
ATOM     39  C   UNL A   1      42.038  28.054  28.744  1.00  0.00     0.049 A 
ATOM     40  N   UNL A   1      44.218  30.132  28.618  1.00  0.00    -0.248 NA
ATOM     41  C   UNL A   1      42.729  31.684  29.525  1.00  0.00     0.031 C 
ATOM     42  C   UNL A   1      40.998  27.022  28.733  1.00  0.00     0.029 A 
ATOM     43  N   UNL A   1      43.147  27.411  28.256  1.00  0.00    -0.354 N 
ATOM     44  C   UNL A   1      44.850  31.364  28.731  1.00  0.00     0.074 A 
ATOM     45  C   UNL A   1      43.869  32.297  29.243  1.00  0.00     0.031 C 
ATOM     46  C   UNL A   1      41.523  25.873  28.277  1.00  0.00     0.029 A 
ATOM     47  C   UNL A   1      42.924  26.094  27.932  1.00  0.00     0.049 A 
ATOM     48  H   UNL A   1      44.021  27.852  28.147  1.00  0.00     0.167 HD
ATOM     49  C   UNL A   1      46.137  31.684  28.455  1.00  0.00     0.037 A 
ATOM     50  C   UNL A   1      43.754  25.171  27.408  1.00  0.00     0.037 A 
ATOM     51  C   UNL A   1      47.116  30.744  27.976  1.00  0.00     0.049 A 
ATOM     52  C   UNL A   1      45.181  25.550  27.116  1.00  0.00     0.074 A 
ATOM     53  C   UNL A   1      48.458  30.957  27.716  1.00  0.00     0.029 A 
ATOM     54  N   UNL A   1      46.859  29.412  27.687  1.00  0.00    -0.354 N 
ATOM     55  N   UNL A   1      45.776  26.708  27.280  1.00  0.00    -0.248 NA
ATOM     56  C   UNL A   1      46.051  24.499  26.573  1.00  0.00     0.031 C 
ATOM     57  C   UNL A   1      49.005  29.761  27.237  1.00  0.00     0.029 A 
ATOM     58  C   UNL A   1      48.014  28.794  27.239  1.00  0.00     0.049 A 
ATOM     59  H   UNL A   1      45.984  28.971  27.786  1.00  0.00     0.167 HD
ATOM     60  C   UNL A   1      47.095  26.516  26.888  1.00  0.00     0.074 A 
ATOM     61  C   UNL A   1      47.215  25.129  26.489  1.00  0.00     0.031 C 
ATOM     62  C   UNL A   1      48.116  27.408  26.858  1.00  0.00     0.037 A 
BRANCH  49  63
ATOM     63  C   UNL A   1      46.567  33.107  28.681  1.00  0.00     0.058 A 
ATOM     64  C   UNL A   1      47.109  33.524  29.907  1.00  0.00     0.135 A 
ATOM     65  C   UNL A   1      46.485  34.053  27.646  1.00  0.00     0.135 A 
ATOM     66  F   UNL A   1      47.195  32.664  30.935  1.00  0.00    -0.206 F 
ATOM     67  C   UNL A   1      47.534  34.833  30.109  1.00  0.00     0.059 A 
ATOM     68  C   UNL A   1      46.928  35.362  27.817  1.00  0.00     0.059 A 
ATOM     69  F   UNL A   1      45.974  33.709  26.455  1.00  0.00    -0.206 F 
ATOM     70  C   UNL A   1      47.441  35.744  29.056  1.00  0.00     0.060 A 
BRANCH  70  71
ATOM     71  S   UNL A   1      48.015  37.434  29.327  1.00  0.00     0.124 S 
ATOM     72  O   UNL A   1      49.069  37.548  28.324  1.00  0.00    -0.237 OA
ATOM     73  O   UNL A   1      46.811  38.218  29.071  1.00  0.00    -0.237 OA
ATOM     74  O   UNL A   1      48.468  37.422  30.714  1.00  0.00    -0.744 OA
ENDBRANCH  70  71
ENDBRANCH  49  63
BRANCH  50  75
ATOM     75  C   UNL A   1      43.263  23.793  27.139  1.00  0.00     0.058 A 
ATOM     76  C   UNL A   1      43.179  22.844  28.169  1.00  0.00     0.135 A 
ATOM     77  C   UNL A   1      42.875  23.396  25.850  1.00  0.00     0.135 A 
ATOM     78  F   UNL A   1      43.544  23.176  29.417  1.00  0.00    -0.206 F 
ATOM     79  C   UNL A   1      42.750  21.543  27.928  1.00  0.00     0.059 A 
ATOM     80  C   UNL A   1      42.419  22.108  25.589  1.00  0.00     0.059 A 
ATOM     81  F   UNL A   1      42.918  24.272  24.835  1.00  0.00    -0.206 F 
ATOM     82  C   UNL A   1      42.373  21.184  26.633  1.00  0.00     0.060 A 
BRANCH  82  83
ATOM     83  S   UNL A   1      41.787  19.502  26.333  1.00  0.00     0.124 S 
ATOM     84  O   UNL A   1      42.206  18.824  27.554  1.00  0.00    -0.237 OA
ATOM     85  O   UNL A   1      40.349  19.700  26.174  1.00  0.00    -0.237 OA
ATOM     86  O   UNL A   1      42.496  19.113  25.118  1.00  0.00    -0.744 OA
ENDBRANCH  82  83
ENDBRANCH  50  75
BRANCH  62  87
ATOM     87  C   UNL A   1      49.460  26.904  26.413  1.00  0.00     0.058 A 
ATOM     88  C   UNL A   1      50.312  26.211  27.286  1.00  0.00     0.135 A 
ATOM     89  C   UNL A   1      49.876  27.072  25.083  1.00  0.00     0.135 A 
ATOM     90  F   UNL A   1      49.963  26.030  28.570  1.00  0.00    -0.206 F 
ATOM     91  C   UNL A   1      51.543  25.722  26.861  1.00  0.00     0.059 A 
ATOM     92  C   UNL A   1      51.091  26.569  24.629  1.00  0.00     0.059 A 
ATOM     93  F   UNL A   1      49.092  27.718  24.205  1.00  0.00    -0.206 F 
ATOM     94  C   UNL A   1      51.923  25.905  25.529  1.00  0.00     0.060 A 
BRANCH  94  95
ATOM     95  S   UNL A   1      53.507  25.235  24.980  1.00  0.00     0.124 S 
ATOM     96  O   UNL A   1      54.449  26.047  25.744  1.00  0.00    -0.237 OA
ATOM     97  O   UNL A   1      53.410  23.835  25.377  1.00  0.00    -0.237 OA
ATOM     98  O   UNL A   1      53.496  25.475  23.540  1.00  0.00    -0.744 OA
ENDBRANCH  94  95
ENDBRANCH  62  87
ENDBRANCH  36  37
ENDBRANCH  28  31
ENDBRANCH  26  27
ENDBRANCH  25  26
ENDBRANCH  24  25
ENDBRANCH  23  24
ENDBRANCH   1  23
TORSDOF 22
ENDMDL
MODEL 3
REMARK VINA RESULT:     -10.0      6.586     13.312
REMARK SMILES COc1cc(OC)cc(C(=O)C[C@H](C)CC(=O)NCCCCCCNC(=O)c2ccc(-c3c4nc(c(-c5c(F)cc(S(=O)(=O)[O-])cc5F)c5ccc([nH]5)c(-c5c(F)cc(S(=O)(=O)[O-])cc5F)c5nc(c(-c6c(F)cc(S(=O)(=O)[O-])cc6F)c6ccc3[nH]6)C=C5)C=C4)cc2)c1
REMARK SMILES IDX 20 1 19 2 18 3 16 4 17 5 15 7 13 8 14 9 12 10 10 11 11 12
REMARK SMILES IDX 9 13 3 14 4 15 94 16 5 17 8 18 2 19 1 20 6 21 7 22 21 23
REMARK SMILES IDX 22 24 23 25 24 26 25 27 26 28 27 30 28 31 29 32 93 33 30 34
REMARK SMILES IDX 92 35 31 36 32 37 33 38 86 39 34 40 91 41 85 42 87 43 35 44
REMARK SMILES IDX 90 45 84 46 83 47 36 49 70 50 49 51 69 52 50 53 53 54 68 55
REMARK SMILES IDX 88 56 51 57 52 58 67 60 89 61 54 62 37 63 38 64 47 65 39 66
REMARK SMILES IDX 40 67 46 68 48 69 41 70 42 71 43 72 44 73 45 74 71 75 72 76
REMARK SMILES IDX 81 77 73 78 74 79 80 80 82 81 75 82 76 83 77 84 78 85 79 86
REMARK SMILES IDX 55 87 56 88 65 89 57 90 58 91 64 92 66 93 59 94 60 95 61 96
REMARK SMILES IDX 62 97 63 98
REMARK H PARENT 18 6 25 29 87 48 53 59
REMARK Flexibility Score: inf
ROOT
ATOM      1  C   UNL A   1      42.490  19.963  25.699  1.00  0.00     0.021 C 
ENDROOT
BRANCH   1   2
ATOM      2  C   UNL A   1      43.438  18.808  26.011  1.00  0.00     0.116 C 
BRANCH   2   3
ATOM      3  N   UNL A   1      44.261  18.512  24.857  1.00  0.00    -0.356 N 
ATOM      4  C   UNL A   1      45.415  19.109  24.461  1.00  0.00     0.220 C 
ATOM      5  O   UNL A   1      45.886  18.828  23.358  1.00  0.00    -0.275 OA
ATOM      6  H   UNL A   1      43.942  17.778  24.283  1.00  0.00     0.163 HD
BRANCH   4   7
ATOM      7  C   UNL A   1      46.118  20.092  25.376  1.00  0.00     0.103 C 
BRANCH   7   8
ATOM      8  C   UNL A   1      45.858  21.558  24.990  1.00  0.00     0.003 C 
ATOM      9  C   UNL A   1      44.968  21.703  23.753  1.00  0.00     0.008 C 
BRANCH   8  10
ATOM     10  C   UNL A   1      45.223  22.305  26.176  1.00  0.00     0.085 C 
BRANCH  10  11
ATOM     11  C   UNL A   1      46.069  23.495  26.590  1.00  0.00     0.163 C 
ATOM     12  O   UNL A   1      46.957  23.922  25.856  1.00  0.00    -0.294 OA
BRANCH  11  13
ATOM     13  C   UNL A   1      45.820  24.152  27.914  1.00  0.00     0.025 A 
ATOM     14  C   UNL A   1      46.076  25.981  29.483  1.00  0.00     0.123 A 
ATOM     15  C   UNL A   1      45.291  25.290  30.403  1.00  0.00     0.092 A 
ATOM     16  C   UNL A   1      46.365  25.399  28.249  1.00  0.00     0.058 A 
ATOM     17  C   UNL A   1      44.758  24.038  30.090  1.00  0.00     0.123 A 
ATOM     18  C   UNL A   1      45.005  23.482  28.836  1.00  0.00     0.058 A 
BRANCH  14  19
ATOM     19  O   UNL A   1      46.562  27.192  29.900  1.00  0.00    -0.497 OA
ATOM     20  C   UNL A   1      45.909  28.330  29.337  1.00  0.00     0.278 C 
ENDBRANCH  14  19
BRANCH  17  21
ATOM     21  O   UNL A   1      44.009  23.463  31.081  1.00  0.00    -0.497 OA
ATOM     22  C   UNL A   1      44.255  23.927  32.404  1.00  0.00     0.278 C 
ENDBRANCH  17  21
ENDBRANCH  11  13
ENDBRANCH  10  11
ENDBRANCH   8  10
ENDBRANCH   7   8
ENDBRANCH   4   7
ENDBRANCH   2   3
ENDBRANCH   1   2
BRANCH   1  23
ATOM     23  C   UNL A   1      41.229  19.983  26.562  1.00  0.00     0.002 C 
BRANCH  23  24
ATOM     24  C   UNL A   1      40.400  21.266  26.463  1.00  0.00     0.002 C 
BRANCH  24  25
ATOM     25  C   UNL A   1      40.523  22.212  27.661  1.00  0.00     0.021 C 
BRANCH  25  26
ATOM     26  C   UNL A   1      41.805  23.040  27.687  1.00  0.00     0.116 C 
BRANCH  26  27
ATOM     27  N   UNL A   1      41.928  23.871  26.500  1.00  0.00    -0.352 N 
ATOM     28  C   UNL A   1      41.669  25.208  26.356  1.00  0.00     0.251 C 
ATOM     29  H   UNL A   1      42.239  23.409  25.689  1.00  0.00     0.163 HD
ATOM     30  O   UNL A   1      41.578  25.697  25.228  1.00  0.00    -0.269 OA
BRANCH  28  31
ATOM     31  C   UNL A   1      41.495  26.057  27.551  1.00  0.00     0.039 A 
ATOM     32  C   UNL A   1      42.509  26.950  27.904  1.00  0.00     0.014 A 
ATOM     33  C   UNL A   1      40.340  25.955  28.333  1.00  0.00     0.014 A 
ATOM     34  C   UNL A   1      42.344  27.777  29.018  1.00  0.00     0.010 A 
ATOM     35  C   UNL A   1      40.150  26.823  29.404  1.00  0.00     0.010 A 
ATOM     36  C   UNL A   1      41.154  27.736  29.762  1.00  0.00    -0.014 A 
BRANCH  36  37
ATOM     37  C   UNL A   1      40.946  28.631  30.928  1.00  0.00     0.031 A 
ATOM     38  C   UNL A   1      39.874  29.687  30.884  1.00  0.00     0.074 A 
ATOM     39  C   UNL A   1      41.757  28.530  31.999  1.00  0.00     0.049 A 
ATOM     40  N   UNL A   1      39.588  30.609  31.766  1.00  0.00    -0.248 NA
ATOM     41  C   UNL A   1      39.030  29.728  29.678  1.00  0.00     0.031 C 
ATOM     42  C   UNL A   1      42.860  27.576  32.138  1.00  0.00     0.029 A 
ATOM     43  N   UNL A   1      41.790  29.246  33.169  1.00  0.00    -0.354 N 
ATOM     44  C   UNL A   1      38.542  31.345  31.221  1.00  0.00     0.074 A 
ATOM     45  C   UNL A   1      38.277  30.793  29.909  1.00  0.00     0.031 C 
ATOM     46  C   UNL A   1      43.450  27.755  33.331  1.00  0.00     0.029 A 
ATOM     47  C   UNL A   1      42.792  28.856  34.027  1.00  0.00     0.049 A 
ATOM     48  H   UNL A   1      41.157  29.970  33.375  1.00  0.00     0.167 HD
ATOM     49  C   UNL A   1      37.851  32.371  31.771  1.00  0.00     0.037 A 
ATOM     50  C   UNL A   1      43.144  29.339  35.235  1.00  0.00     0.037 A 
ATOM     51  C   UNL A   1      38.100  32.895  33.089  1.00  0.00     0.049 A 
ATOM     52  C   UNL A   1      42.356  30.476  35.827  1.00  0.00     0.074 A 
ATOM     53  C   UNL A   1      37.422  33.897  33.759  1.00  0.00     0.029 A 
ATOM     54  N   UNL A   1      39.105  32.454  33.939  1.00  0.00    -0.354 N 
ATOM     55  N   UNL A   1      41.335  31.124  35.318  1.00  0.00    -0.248 NA
ATOM     56  C   UNL A   1      42.763  30.945  37.158  1.00  0.00     0.031 C 
ATOM     57  C   UNL A   1      38.038  34.088  35.000  1.00  0.00     0.029 A 
ATOM     58  C   UNL A   1      39.073  33.174  35.121  1.00  0.00     0.049 A 
ATOM     59  H   UNL A   1      39.746  31.737  33.732  1.00  0.00     0.167 HD
ATOM     60  C   UNL A   1      40.961  32.057  36.278  1.00  0.00     0.074 A 
ATOM     61  C   UNL A   1      41.858  31.882  37.403  1.00  0.00     0.031 C 
ATOM     62  C   UNL A   1      39.967  32.977  36.234  1.00  0.00     0.037 A 
BRANCH  49  63
ATOM     63  C   UNL A   1      36.747  32.987  30.958  1.00  0.00     0.058 A 
ATOM     64  C   UNL A   1      35.398  32.692  31.210  1.00  0.00     0.135 A 
ATOM     65  C   UNL A   1      37.036  33.919  29.948  1.00  0.00     0.135 A 
ATOM     66  F   UNL A   1      35.067  31.796  32.153  1.00  0.00    -0.206 F 
ATOM     67  C   UNL A   1      34.374  33.283  30.477  1.00  0.00     0.059 A 
ATOM     68  C   UNL A   1      36.026  34.542  29.219  1.00  0.00     0.059 A 
ATOM     69  F   UNL A   1      38.308  34.236  29.664  1.00  0.00    -0.206 F 
ATOM     70  C   UNL A   1      34.699  34.208  29.484  1.00  0.00     0.060 A 
BRANCH  70  71
ATOM     71  S   UNL A   1      33.357  34.981  28.555  1.00  0.00     0.124 S 
ATOM     72  O   UNL A   1      32.557  35.563  29.629  1.00  0.00    -0.237 OA
ATOM     73  O   UNL A   1      34.070  35.932  27.710  1.00  0.00    -0.237 OA
ATOM     74  O   UNL A   1      32.741  33.860  27.852  1.00  0.00    -0.744 OA
ENDBRANCH  70  71
ENDBRANCH  49  63
BRANCH  50  75
ATOM     75  C   UNL A   1      44.288  28.739  35.973  1.00  0.00     0.058 A 
ATOM     76  C   UNL A   1      45.592  29.226  35.800  1.00  0.00     0.135 A 
ATOM     77  C   UNL A   1      44.101  27.668  36.859  1.00  0.00     0.135 A 
ATOM     78  F   UNL A   1      45.820  30.247  34.959  1.00  0.00    -0.206 F 
ATOM     79  C   UNL A   1      46.676  28.658  36.460  1.00  0.00     0.059 A 
ATOM     80  C   UNL A   1      45.166  27.099  37.550  1.00  0.00     0.059 A 
ATOM     81  F   UNL A   1      42.871  27.178  37.074  1.00  0.00    -0.206 F 
ATOM     82  C   UNL A   1      46.452  27.592  37.333  1.00  0.00     0.060 A 
BRANCH  82  83
ATOM     83  S   UNL A   1      47.860  26.879  38.212  1.00  0.00     0.124 S 
ATOM     84  O   UNL A   1      48.222  25.771  37.337  1.00  0.00    -0.237 OA
ATOM     85  O   UNL A   1      48.799  27.997  38.250  1.00  0.00    -0.237 OA
ATOM     86  O   UNL A   1      47.292  26.506  39.504  1.00  0.00    -0.744 OA
ENDBRANCH  82  83
ENDBRANCH  50  75
BRANCH  62  87
ATOM     87  C   UNL A   1      39.771  33.841  37.447  1.00  0.00     0.058 A 
ATOM     88  C   UNL A   1      38.938  33.448  38.505  1.00  0.00     0.135 A 
ATOM     89  C   UNL A   1      40.466  35.055  37.575  1.00  0.00     0.135 A 
ATOM     90  F   UNL A   1      38.246  32.300  38.429  1.00  0.00    -0.206 F 
ATOM     91  C   UNL A   1      38.783  34.239  39.639  1.00  0.00     0.059 A 
ATOM     92  C   UNL A   1      40.346  35.849  38.710  1.00  0.00     0.059 A 
ATOM     93  F   UNL A   1      41.285  35.471  36.595  1.00  0.00    -0.206 F 
ATOM     94  C   UNL A   1      39.493  35.438  39.732  1.00  0.00     0.060 A 
BRANCH  94  95
ATOM     95  S   UNL A   1      39.310  36.439  41.223  1.00  0.00     0.124 S 
ATOM     96  O   UNL A   1      38.280  35.701  41.948  1.00  0.00    -0.237 OA
ATOM     97  O   UNL A   1      40.650  36.389  41.801  1.00  0.00    -0.237 OA
ATOM     98  O   UNL A   1      38.904  37.743  40.710  1.00  0.00    -0.744 OA
ENDBRANCH  94  95
ENDBRANCH  62  87
ENDBRANCH  36  37
ENDBRANCH  28  31
ENDBRANCH  26  27
ENDBRANCH  25  26
ENDBRANCH  24  25
ENDBRANCH  23  24
ENDBRANCH   1  23
TORSDOF 22
ENDMDL
