MODEL 1
REMARK VINA RESULT:      -8.1      0.000      0.000
REMARK SMILES O=C(CCN1C(=O)S/C(=C\c2ccc(F)cc2)C1=O)Nc1ccc(O)cc1C(=O)NCCCCCCNC(=O)c1ccc(-c2c3nc(c(-c4c(F)cc(S(=O)(=O)[O-])cc4F)c4ccc([nH]4)c(-c4c(F)cc(S(=O)(=O)[O-])cc4F)c4nc(c(-c5c(F)cc(S(=O)(=O)[O-])cc5F)c5ccc2[nH]5)C=C4)C=C3)cc1
REMARK SMILES IDX 32 1 31 2 30 3 28 4 29 5 27 7 21 8 22 9 23 10 26 11 24 12
REMARK SMILES IDX 20 13 1 14 2 15 3 17 4 18 5 19 6 20 18 21 7 22 8 23 9 24
REMARK SMILES IDX 19 25 10 26 11 27 12 28 17 29 13 30 16 31 14 32 15 33 25 34
REMARK SMILES IDX 33 36 34 37 35 38 36 39 37 40 38 41 39 43 40 44 41 45 105 46
REMARK SMILES IDX 42 47 104 48 43 49 44 50 45 51 98 52 46 53 103 54 97 55
REMARK SMILES IDX 99 56 47 57 102 58 96 59 95 60 48 62 82 63 61 64 81 65 62 66
REMARK SMILES IDX 65 67 80 68 100 69 63 70 64 71 79 73 101 74 66 75 49 76
REMARK SMILES IDX 50 77 59 78 51 79 52 80 58 81 60 82 53 83 54 84 55 85 56 86
REMARK SMILES IDX 57 87 83 88 84 89 93 90 85 91 86 92 92 93 94 94 87 95 88 96
REMARK SMILES IDX 89 97 90 98 91 99 67 100 68 101 77 102 69 103 70 104 76 105
REMARK SMILES IDX 78 106 71 107 72 108 73 109 74 110 75 111
REMARK H PARENT 30 6 20 16 25 35 37 42 99 61 65 72
REMARK Flexibility Score: inf
ROOT
ATOM      1  C   UNL A   1      45.136  25.610  32.712  1.00  0.00     0.021 C 
ENDROOT
BRANCH   1   2
ATOM      2  C   UNL A   1      44.503  24.989  31.427  1.00  0.00     0.116 C 
BRANCH   2   3
ATOM      3  N   UNL A   1      44.815  25.558  30.115  1.00  0.00    -0.352 N 
ATOM      4  C   UNL A   1      44.158  25.551  28.894  1.00  0.00     0.253 C 
ATOM      5  O   UNL A   1      44.571  26.308  28.012  1.00  0.00    -0.269 OA
ATOM      6  H   UNL A   1      45.669  26.048  30.095  1.00  0.00     0.163 HD
BRANCH   4   7
ATOM      7  C   UNL A   1      42.992  24.677  28.554  1.00  0.00     0.067 A 
ATOM      8  C   UNL A   1      41.694  25.132  28.279  1.00  0.00     0.054 A 
ATOM      9  C   UNL A   1      40.650  24.212  28.080  1.00  0.00     0.031 A 
ATOM     10  C   UNL A   1      40.912  22.844  28.019  1.00  0.00     0.048 A 
ATOM     11  C   UNL A   1      43.252  23.299  28.432  1.00  0.00     0.062 A 
ATOM     12  C   UNL A   1      42.221  22.403  28.153  1.00  0.00     0.116 A 
BRANCH   8  13
ATOM     13  N   UNL A   1      41.471  26.486  27.988  1.00  0.00    -0.325 N 
ATOM     14  O   UNL A   1      40.766  27.205  30.061  1.00  0.00    -0.275 OA
ATOM     15  C   UNL A   1      40.968  27.415  28.868  1.00  0.00     0.226 C 
ATOM     16  H   UNL A   1      41.692  26.797  27.081  1.00  0.00     0.169 HD
BRANCH  15  17
ATOM     17  C   UNL A   1      40.681  28.764  28.246  1.00  0.00     0.122 C 
BRANCH  17  18
ATOM     18  C   UNL A   1      39.416  29.465  28.728  1.00  0.00     0.140 C 
BRANCH  18  19
ATOM     19  N   UNL A   1      39.460  30.166  30.027  1.00  0.00    -0.268 N 
ATOM     20  C   UNL A   1      40.322  31.191  30.287  1.00  0.00     0.293 C 
ATOM     21  C   UNL A   1      38.429  30.080  30.918  1.00  0.00     0.268 C 
ATOM     22  O   UNL A   1      41.195  31.603  29.538  1.00  0.00    -0.261 OA
ATOM     23  S   UNL A   1      39.977  31.918  31.867  1.00  0.00    -0.022 SA
ATOM     24  C   UNL A   1      38.591  30.952  32.091  1.00  0.00     0.083 C 
ATOM     25  O   UNL A   1      37.440  29.393  30.776  1.00  0.00    -0.268 OA
ATOM     26  C   UNL A   1      37.699  30.854  33.088  1.00  0.00     0.029 C 
BRANCH  26  27
ATOM     27  C   UNL A   1      37.634  31.583  34.352  1.00  0.00    -0.024 A 
ATOM     28  C   UNL A   1      38.169  31.047  35.526  1.00  0.00     0.011 A 
ATOM     29  C   UNL A   1      37.123  32.890  34.351  1.00  0.00     0.011 A 
ATOM     30  C   UNL A   1      38.145  31.794  36.705  1.00  0.00     0.040 A 
ATOM     31  C   UNL A   1      37.096  33.633  35.531  1.00  0.00     0.040 A 
ATOM     32  C   UNL A   1      37.599  33.072  36.699  1.00  0.00     0.123 A 
ATOM     33  F   UNL A   1      37.564  33.780  37.836  1.00  0.00    -0.207 F 
ENDBRANCH  26  27
ENDBRANCH  18  19
ENDBRANCH  17  18
ENDBRANCH  15  17
ENDBRANCH   8  13
BRANCH  12  34
ATOM     34  O   UNL A   1      42.535  21.083  28.008  1.00  0.00    -0.508 OA
ATOM     35  H   UNL A   1      43.272  20.832  27.487  1.00  0.00     0.293 HD
ENDBRANCH  12  34
ENDBRANCH   4   7
ENDBRANCH   2   3
ENDBRANCH   1   2
BRANCH   1  36
ATOM     36  C   UNL A   1      45.656  25.097  34.124  1.00  0.00     0.002 C 
BRANCH  36  37
ATOM     37  C   UNL A   1      45.629  23.791  34.974  1.00  0.00     0.002 C 
BRANCH  37  38
ATOM     38  C   UNL A   1      44.333  23.150  35.507  1.00  0.00     0.021 C 
BRANCH  38  39
ATOM     39  C   UNL A   1      43.032  23.533  34.811  1.00  0.00     0.116 C 
BRANCH  39  40
ATOM     40  N   UNL A   1      42.011  23.849  35.796  1.00  0.00    -0.352 N 
ATOM     41  C   UNL A   1      41.687  25.075  36.320  1.00  0.00     0.251 C 
ATOM     42  H   UNL A   1      41.485  23.087  36.128  1.00  0.00     0.163 HD
ATOM     43  O   UNL A   1      41.119  25.140  37.406  1.00  0.00    -0.269 OA
BRANCH  41  44
ATOM     44  C   UNL A   1      42.000  26.311  35.569  1.00  0.00     0.039 A 
ATOM     45  C   UNL A   1      43.158  27.027  35.885  1.00  0.00     0.014 A 
ATOM     46  C   UNL A   1      41.107  26.810  34.615  1.00  0.00     0.014 A 
ATOM     47  C   UNL A   1      43.420  28.238  35.240  1.00  0.00     0.010 A 
ATOM     48  C   UNL A   1      41.402  27.984  33.926  1.00  0.00     0.010 A 
ATOM     49  C   UNL A   1      42.548  28.721  34.251  1.00  0.00    -0.014 A 
BRANCH  49  50
ATOM     50  C   UNL A   1      42.833  30.004  33.562  1.00  0.00     0.031 A 
ATOM     51  C   UNL A   1      42.539  31.316  34.235  1.00  0.00     0.074 A 
ATOM     52  C   UNL A   1      43.347  29.973  32.319  1.00  0.00     0.049 A 
ATOM     53  N   UNL A   1      42.784  32.530  33.813  1.00  0.00    -0.248 NA
ATOM     54  C   UNL A   1      41.862  31.263  35.540  1.00  0.00     0.031 C 
ATOM     55  C   UNL A   1      43.607  28.753  31.550  1.00  0.00     0.029 A 
ATOM     56  N   UNL A   1      43.756  30.984  31.488  1.00  0.00    -0.354 N 
ATOM     57  C   UNL A   1      42.290  33.381  34.794  1.00  0.00     0.074 A 
ATOM     58  C   UNL A   1      41.675  32.548  35.804  1.00  0.00     0.031 C 
ATOM     59  C   UNL A   1      44.174  29.084  30.381  1.00  0.00     0.029 A 
ATOM     60  C   UNL A   1      44.290  30.537  30.303  1.00  0.00     0.049 A 
ATOM     61  H   UNL A   1      43.674  31.937  31.718  1.00  0.00     0.167 HD
ATOM     62  C   UNL A   1      42.367  34.732  34.857  1.00  0.00     0.037 A 
ATOM     63  C   UNL A   1      44.825  31.222  29.274  1.00  0.00     0.037 A 
ATOM     64  C   UNL A   1      42.997  35.542  33.846  1.00  0.00     0.049 A 
ATOM     65  C   UNL A   1      44.920  32.717  29.372  1.00  0.00     0.074 A 
ATOM     66  C   UNL A   1      43.197  36.911  33.841  1.00  0.00     0.029 A 
ATOM     67  N   UNL A   1      43.518  35.058  32.654  1.00  0.00    -0.354 N 
ATOM     68  N   UNL A   1      44.529  33.502  30.348  1.00  0.00    -0.248 NA
ATOM     69  C   UNL A   1      45.533  33.419  28.238  1.00  0.00     0.031 C 
ATOM     70  C   UNL A   1      43.783  37.261  32.620  1.00  0.00     0.029 A 
ATOM     71  C   UNL A   1      44.004  36.105  31.886  1.00  0.00     0.049 A 
ATOM     72  H   UNL A   1      43.539  34.109  32.391  1.00  0.00     0.167 HD
ATOM     73  C   UNL A   1      44.845  34.794  29.947  1.00  0.00     0.074 A 
ATOM     74  C   UNL A   1      45.494  34.678  28.655  1.00  0.00     0.031 C 
ATOM     75  C   UNL A   1      44.615  35.970  30.584  1.00  0.00     0.037 A 
BRANCH  62  76
ATOM     76  C   UNL A   1      41.757  35.418  36.053  1.00  0.00     0.058 A 
ATOM     77  C   UNL A   1      42.531  35.686  37.194  1.00  0.00     0.135 A 
ATOM     78  C   UNL A   1      40.400  35.779  36.089  1.00  0.00     0.135 A 
ATOM     79  F   UNL A   1      43.835  35.369  37.218  1.00  0.00    -0.206 F 
ATOM     80  C   UNL A   1      41.982  36.281  38.326  1.00  0.00     0.059 A 
ATOM     81  C   UNL A   1      39.836  36.404  37.199  1.00  0.00     0.059 A 
ATOM     82  F   UNL A   1      39.615  35.565  35.021  1.00  0.00    -0.206 F 
ATOM     83  C   UNL A   1      40.633  36.640  38.318  1.00  0.00     0.060 A 
BRANCH  83  84
ATOM     84  S   UNL A   1      39.950  37.459  39.776  1.00  0.00     0.124 S 
ATOM     85  O   UNL A   1      39.922  36.370  40.746  1.00  0.00    -0.237 OA
ATOM     86  O   UNL A   1      40.933  38.510  40.024  1.00  0.00    -0.237 OA
ATOM     87  O   UNL A   1      38.645  37.928  39.319  1.00  0.00    -0.744 OA
ENDBRANCH  83  84
ENDBRANCH  62  76
BRANCH  63  88
ATOM     88  C   UNL A   1      45.344  30.471  28.100  1.00  0.00     0.058 A 
ATOM     89  C   UNL A   1      44.476  30.009  27.097  1.00  0.00     0.135 A 
ATOM     90  C   UNL A   1      46.697  30.114  28.010  1.00  0.00     0.135 A 
ATOM     91  F   UNL A   1      43.170  30.312  27.144  1.00  0.00    -0.206 F 
ATOM     92  C   UNL A   1      44.922  29.180  26.074  1.00  0.00     0.059 A 
ATOM     93  C   UNL A   1      47.173  29.306  26.980  1.00  0.00     0.059 A 
ATOM     94  F   UNL A   1      47.565  30.539  28.940  1.00  0.00    -0.206 F 
ATOM     95  C   UNL A   1      46.272  28.823  26.032  1.00  0.00     0.060 A 
BRANCH  95  96
ATOM     96  S   UNL A   1      46.812  27.689  24.735  1.00  0.00     0.124 S 
ATOM     97  O   UNL A   1      46.894  28.582  23.584  1.00  0.00    -0.237 OA
ATOM     98  O   UNL A   1      48.087  27.211  25.261  1.00  0.00    -0.237 OA
ATOM     99  O   UNL A   1      45.743  26.698  24.686  1.00  0.00    -0.744 OA
ENDBRANCH  95  96
ENDBRANCH  63  88
BRANCH  75 100
ATOM    100  C   UNL A   1      45.040  37.228  29.878  1.00  0.00     0.058 A 
ATOM    101  C   UNL A   1      44.157  37.906  29.023  1.00  0.00     0.135 A 
ATOM    102  C   UNL A   1      46.341  37.740  30.016  1.00  0.00     0.135 A 
ATOM    103  F   UNL A   1      42.906  37.456  28.846  1.00  0.00    -0.206 F 
ATOM    104  C   UNL A   1      44.550  39.044  28.326  1.00  0.00     0.059 A 
ATOM    105  C   UNL A   1      46.745  38.896  29.355  1.00  0.00     0.059 A 
ATOM    106  F   UNL A   1      47.222  37.135  30.829  1.00  0.00    -0.206 F 
ATOM    107  C   UNL A   1      45.844  39.534  28.504  1.00  0.00     0.060 A 
BRANCH 107 108
ATOM    108  S   UNL A   1      46.318  41.043  27.634  1.00  0.00     0.124 S 
ATOM    109  O   UNL A   1      45.050  41.460  27.045  1.00  0.00    -0.237 OA
ATOM    110  O   UNL A   1      46.818  41.880  28.722  1.00  0.00    -0.237 OA
ATOM    111  O   UNL A   1      47.331  40.586  26.689  1.00  0.00    -0.744 OA
ENDBRANCH 107 108
ENDBRANCH  75 100
ENDBRANCH  49  50
ENDBRANCH  41  44
ENDBRANCH  39  40
ENDBRANCH  38  39
ENDBRANCH  37  38
ENDBRANCH  36  37
ENDBRANCH   1  36
TORSDOF 22
ENDMDL
MODEL 2
REMARK VINA RESULT:      -8.0      0.611      7.723
REMARK SMILES O=C(CCN1C(=O)S/C(=C\c2ccc(F)cc2)C1=O)Nc1ccc(O)cc1C(=O)NCCCCCCNC(=O)c1ccc(-c2c3nc(c(-c4c(F)cc(S(=O)(=O)[O-])cc4F)c4ccc([nH]4)c(-c4c(F)cc(S(=O)(=O)[O-])cc4F)c4nc(c(-c5c(F)cc(S(=O)(=O)[O-])cc5F)c5ccc2[nH]5)C=C4)C=C3)cc1
REMARK SMILES IDX 32 1 31 2 30 3 28 4 29 5 27 7 21 8 22 9 23 10 26 11 24 12
REMARK SMILES IDX 20 13 1 14 2 15 3 17 4 18 5 19 6 20 18 21 7 22 8 23 9 24
REMARK SMILES IDX 19 25 10 26 11 27 12 28 17 29 13 30 16 31 14 32 15 33 25 34
REMARK SMILES IDX 33 36 34 37 35 38 36 39 37 40 38 41 39 43 40 44 41 45 105 46
REMARK SMILES IDX 42 47 104 48 43 49 44 50 45 51 98 52 46 53 103 54 97 55
REMARK SMILES IDX 99 56 47 57 102 58 96 59 95 60 48 62 82 63 61 64 81 65 62 66
REMARK SMILES IDX 65 67 80 68 100 69 63 70 64 71 79 73 101 74 66 75 49 76
REMARK SMILES IDX 50 77 59 78 51 79 52 80 58 81 60 82 53 83 54 84 55 85 56 86
REMARK SMILES IDX 57 87 83 88 84 89 93 90 85 91 86 92 92 93 94 94 87 95 88 96
REMARK SMILES IDX 89 97 90 98 91 99 67 100 68 101 77 102 69 103 70 104 76 105
REMARK SMILES IDX 78 106 71 107 72 108 73 109 74 110 75 111
REMARK H PARENT 30 6 20 16 25 35 37 42 99 61 65 72
REMARK Flexibility Score: inf
ROOT
ATOM      1  C   UNL A   1      45.150  25.443  32.610  1.00  0.00     0.021 C 
ENDROOT
BRANCH   1   2
ATOM      2  C   UNL A   1      44.535  24.843  31.305  1.00  0.00     0.116 C 
BRANCH   2   3
ATOM      3  N   UNL A   1      45.008  25.306  30.000  1.00  0.00    -0.352 N 
ATOM      4  C   UNL A   1      44.403  25.425  28.757  1.00  0.00     0.253 C 
ATOM      5  O   UNL A   1      45.002  26.057  27.883  1.00  0.00    -0.269 OA
ATOM      6  H   UNL A   1      45.950  25.593  30.005  1.00  0.00     0.163 HD
BRANCH   4   7
ATOM      7  C   UNL A   1      43.083  24.827  28.386  1.00  0.00     0.067 A 
ATOM      8  C   UNL A   1      41.881  25.539  28.258  1.00  0.00     0.054 A 
ATOM      9  C   UNL A   1      40.678  24.854  28.012  1.00  0.00     0.031 A 
ATOM     10  C   UNL A   1      40.681  23.483  27.758  1.00  0.00     0.048 A 
ATOM     11  C   UNL A   1      43.080  23.455  28.071  1.00  0.00     0.062 A 
ATOM     12  C   UNL A   1      41.890  22.803  27.748  1.00  0.00     0.116 A 
BRANCH   8  13
ATOM     13  N   UNL A   1      41.900  26.938  28.159  1.00  0.00    -0.325 N 
ATOM     14  O   UNL A   1      41.085  27.473  30.247  1.00  0.00    -0.275 OA
ATOM     15  C   UNL A   1      41.449  27.808  29.123  1.00  0.00     0.226 C 
ATOM     16  H   UNL A   1      42.266  27.329  27.333  1.00  0.00     0.169 HD
BRANCH  15  17
ATOM     17  C   UNL A   1      41.441  29.258  28.691  1.00  0.00     0.122 C 
BRANCH  17  18
ATOM     18  C   UNL A   1      40.160  30.033  28.982  1.00  0.00     0.140 C 
BRANCH  18  19
ATOM     19  N   UNL A   1      40.044  30.724  30.281  1.00  0.00    -0.268 N 
ATOM     20  C   UNL A   1      40.665  31.909  30.548  1.00  0.00     0.293 C 
ATOM     21  C   UNL A   1      39.049  30.418  31.164  1.00  0.00     0.268 C 
ATOM     22  O   UNL A   1      41.435  32.500  29.806  1.00  0.00    -0.261 OA
ATOM     23  S   UNL A   1      40.161  32.542  32.126  1.00  0.00    -0.022 SA
ATOM     24  C   UNL A   1      39.012  31.302  32.339  1.00  0.00     0.083 C 
ATOM     25  O   UNL A   1      38.231  29.535  31.014  1.00  0.00    -0.268 OA
ATOM     26  C   UNL A   1      38.155  31.013  33.329  1.00  0.00     0.029 C 
BRANCH  26  27
ATOM     27  C   UNL A   1      37.926  31.709  34.593  1.00  0.00    -0.024 A 
ATOM     28  C   UNL A   1      38.513  31.265  35.780  1.00  0.00     0.011 A 
ATOM     29  C   UNL A   1      37.193  32.905  34.581  1.00  0.00     0.011 A 
ATOM     30  C   UNL A   1      38.324  31.985  36.961  1.00  0.00     0.040 A 
ATOM     31  C   UNL A   1      37.002  33.622  35.762  1.00  0.00     0.040 A 
ATOM     32  C   UNL A   1      37.562  33.148  36.943  1.00  0.00     0.123 A 
ATOM     33  F   UNL A   1      37.370  33.829  38.081  1.00  0.00    -0.207 F 
ENDBRANCH  26  27
ENDBRANCH  18  19
ENDBRANCH  17  18
ENDBRANCH  15  17
ENDBRANCH   8  13
BRANCH  12  34
ATOM     34  O   UNL A   1      41.949  21.482  27.415  1.00  0.00    -0.508 OA
ATOM     35  H   UNL A   1      42.639  21.168  26.863  1.00  0.00     0.293 HD
ENDBRANCH  12  34
ENDBRANCH   4   7
ENDBRANCH   2   3
ENDBRANCH   1   2
BRANCH   1  36
ATOM     36  C   UNL A   1      45.718  24.899  33.991  1.00  0.00     0.002 C 
BRANCH  36  37
ATOM     37  C   UNL A   1      45.584  23.636  34.894  1.00  0.00     0.002 C 
BRANCH  37  38
ATOM     38  C   UNL A   1      44.273  23.228  35.594  1.00  0.00     0.021 C 
BRANCH  38  39
ATOM     39  C   UNL A   1      42.979  23.419  34.811  1.00  0.00     0.116 C 
BRANCH  39  40
ATOM     40  N   UNL A   1      41.897  23.775  35.713  1.00  0.00    -0.352 N 
ATOM     41  C   UNL A   1      41.570  25.017  36.200  1.00  0.00     0.251 C 
ATOM     42  H   UNL A   1      41.324  23.032  36.012  1.00  0.00     0.163 HD
ATOM     43  O   UNL A   1      40.924  25.110  37.239  1.00  0.00    -0.269 OA
BRANCH  41  44
ATOM     44  C   UNL A   1      41.976  26.234  35.463  1.00  0.00     0.039 A 
ATOM     45  C   UNL A   1      43.172  26.871  35.804  1.00  0.00     0.014 A 
ATOM     46  C   UNL A   1      41.134  26.796  34.497  1.00  0.00     0.014 A 
ATOM     47  C   UNL A   1      43.523  28.066  35.172  1.00  0.00     0.010 A 
ATOM     48  C   UNL A   1      41.517  27.952  33.822  1.00  0.00     0.010 A 
ATOM     49  C   UNL A   1      42.702  28.611  34.171  1.00  0.00    -0.014 A 
BRANCH  49  50
ATOM     50  C   UNL A   1      43.082  29.877  33.497  1.00  0.00     0.031 A 
ATOM     51  C   UNL A   1      43.745  29.857  32.147  1.00  0.00     0.074 A 
ATOM     52  C   UNL A   1      42.837  31.043  34.121  1.00  0.00     0.049 A 
ATOM     53  N   UNL A   1      44.085  30.863  31.383  1.00  0.00    -0.248 NA
ATOM     54  C   UNL A   1      44.093  28.540  31.591  1.00  0.00     0.031 C 
ATOM     55  C   UNL A   1      42.260  31.171  35.462  1.00  0.00     0.029 A 
ATOM     56  N   UNL A   1      43.023  32.339  33.715  1.00  0.00    -0.354 N 
ATOM     57  C   UNL A   1      44.687  30.303  30.263  1.00  0.00     0.074 A 
ATOM     58  C   UNL A   1      44.723  28.872  30.473  1.00  0.00     0.031 C 
ATOM     59  C   UNL A   1      42.096  32.471  35.747  1.00  0.00     0.029 A 
ATOM     60  C   UNL A   1      42.584  33.269  34.626  1.00  0.00     0.049 A 
ATOM     61  H   UNL A   1      43.434  32.579  32.853  1.00  0.00     0.167 HD
ATOM     62  C   UNL A   1      45.143  30.926  29.150  1.00  0.00     0.037 A 
ATOM     63  C   UNL A   1      42.564  34.614  34.561  1.00  0.00     0.037 A 
ATOM     64  C   UNL A   1      45.085  32.351  28.954  1.00  0.00     0.049 A 
ATOM     65  C   UNL A   1      43.056  35.283  33.311  1.00  0.00     0.074 A 
ATOM     66  C   UNL A   1      45.450  33.083  27.838  1.00  0.00     0.029 A 
ATOM     67  N   UNL A   1      44.644  33.264  29.902  1.00  0.00    -0.354 N 
ATOM     68  N   UNL A   1      43.540  34.735  32.221  1.00  0.00    -0.248 NA
ATOM     69  C   UNL A   1      42.992  36.749  33.274  1.00  0.00     0.031 C 
ATOM     70  C   UNL A   1      45.288  34.440  28.134  1.00  0.00     0.029 A 
ATOM     71  C   UNL A   1      44.764  34.556  29.413  1.00  0.00     0.049 A 
ATOM     72  H   UNL A   1      44.295  33.029  30.793  1.00  0.00     0.167 HD
ATOM     73  C   UNL A   1      43.843  35.788  31.367  1.00  0.00     0.074 A 
ATOM     74  C   UNL A   1      43.451  37.004  32.056  1.00  0.00     0.031 C 
ATOM     75  C   UNL A   1      44.400  35.755  30.130  1.00  0.00     0.037 A 
BRANCH  62  76
ATOM     76  C   UNL A   1      45.745  30.073  28.062  1.00  0.00     0.058 A 
ATOM     77  C   UNL A   1      47.090  29.676  28.127  1.00  0.00     0.135 A 
ATOM     78  C   UNL A   1      45.004  29.676  26.935  1.00  0.00     0.135 A 
ATOM     79  F   UNL A   1      47.847  30.019  29.181  1.00  0.00    -0.206 F 
ATOM     80  C   UNL A   1      47.680  28.923  27.116  1.00  0.00     0.059 A 
ATOM     81  C   UNL A   1      45.565  28.895  25.926  1.00  0.00     0.059 A 
ATOM     82  F   UNL A   1      43.708  30.009  26.826  1.00  0.00    -0.206 F 
ATOM     83  C   UNL A   1      46.908  28.534  26.020  1.00  0.00     0.060 A 
BRANCH  83  84
ATOM     84  S   UNL A   1      47.676  27.514  24.744  1.00  0.00     0.124 S 
ATOM     85  O   UNL A   1      49.036  28.040  24.715  1.00  0.00    -0.237 OA
ATOM     86  O   UNL A   1      47.524  26.170  25.294  1.00  0.00    -0.237 OA
ATOM     87  O   UNL A   1      46.869  27.791  23.559  1.00  0.00    -0.744 OA
ENDBRANCH  83  84
ENDBRANCH  62  76
BRANCH  63  88
ATOM     88  C   UNL A   1      42.015  35.384  35.708  1.00  0.00     0.058 A 
ATOM     89  C   UNL A   1      42.845  35.801  36.761  1.00  0.00     0.135 A 
ATOM     90  C   UNL A   1      40.639  35.627  35.824  1.00  0.00     0.135 A 
ATOM     91  F   UNL A   1      44.167  35.580  36.706  1.00  0.00    -0.206 F 
ATOM     92  C   UNL A   1      42.325  36.389  37.909  1.00  0.00     0.059 A 
ATOM     93  C   UNL A   1      40.097  36.238  36.952  1.00  0.00     0.059 A 
ATOM     94  F   UNL A   1      39.808  35.255  34.839  1.00  0.00    -0.206 F 
ATOM     95  C   UNL A   1      40.946  36.591  38.000  1.00  0.00     0.060 A 
BRANCH  95  96
ATOM     96  S   UNL A   1      40.287  37.290  39.529  1.00  0.00     0.124 S 
ATOM     97  O   UNL A   1      41.187  38.419  39.744  1.00  0.00    -0.237 OA
ATOM     98  O   UNL A   1      38.921  37.630  39.144  1.00  0.00    -0.237 OA
ATOM     99  O   UNL A   1      40.415  36.195  40.484  1.00  0.00    -0.744 OA
ENDBRANCH  95  96
ENDBRANCH  63  88
BRANCH  75 100
ATOM    100  C   UNL A   1      44.648  37.076  29.454  1.00  0.00     0.058 A 
ATOM    101  C   UNL A   1      43.678  37.646  28.614  1.00  0.00     0.135 A 
ATOM    102  C   UNL A   1      45.867  37.757  29.605  1.00  0.00     0.135 A 
ATOM    103  F   UNL A   1      42.499  37.034  28.426  1.00  0.00    -0.206 F 
ATOM    104  C   UNL A   1      43.910  38.843  27.945  1.00  0.00     0.059 A 
ATOM    105  C   UNL A   1      46.108  38.973  28.971  1.00  0.00     0.059 A 
ATOM    106  F   UNL A   1      46.824  37.259  30.403  1.00  0.00    -0.206 F 
ATOM    107  C   UNL A   1      45.125  39.501  28.135  1.00  0.00     0.060 A 
BRANCH 107 108
ATOM    108  S   UNL A   1      45.387  41.081  27.300  1.00  0.00     0.124 S 
ATOM    109  O   UNL A   1      46.304  40.706  26.229  1.00  0.00    -0.237 OA
ATOM    110  O   UNL A   1      44.033  41.435  26.882  1.00  0.00    -0.237 OA
ATOM    111  O   UNL A   1      45.954  41.927  28.346  1.00  0.00    -0.744 OA
ENDBRANCH 107 108
ENDBRANCH  75 100
ENDBRANCH  49  50
ENDBRANCH  41  44
ENDBRANCH  39  40
ENDBRANCH  38  39
ENDBRANCH  37  38
ENDBRANCH  36  37
ENDBRANCH   1  36
TORSDOF 22
ENDMDL
MODEL 3
REMARK VINA RESULT:      -7.7      3.671      9.037
REMARK SMILES O=C(CCN1C(=O)S/C(=C\c2ccc(F)cc2)C1=O)Nc1ccc(O)cc1C(=O)NCCCCCCNC(=O)c1ccc(-c2c3nc(c(-c4c(F)cc(S(=O)(=O)[O-])cc4F)c4ccc([nH]4)c(-c4c(F)cc(S(=O)(=O)[O-])cc4F)c4nc(c(-c5c(F)cc(S(=O)(=O)[O-])cc5F)c5ccc2[nH]5)C=C4)C=C3)cc1
REMARK SMILES IDX 32 1 31 2 30 3 28 4 29 5 27 7 21 8 22 9 23 10 26 11 24 12
REMARK SMILES IDX 20 13 1 14 2 15 3 17 4 18 5 19 6 20 18 21 7 22 8 23 9 24
REMARK SMILES IDX 19 25 10 26 11 27 12 28 17 29 13 30 16 31 14 32 15 33 25 34
REMARK SMILES IDX 33 36 34 37 35 38 36 39 37 40 38 41 39 43 40 44 41 45 105 46
REMARK SMILES IDX 42 47 104 48 43 49 44 50 45 51 98 52 46 53 103 54 97 55
REMARK SMILES IDX 99 56 47 57 102 58 96 59 95 60 48 62 82 63 61 64 81 65 62 66
REMARK SMILES IDX 65 67 80 68 100 69 63 70 64 71 79 73 101 74 66 75 49 76
REMARK SMILES IDX 50 77 59 78 51 79 52 80 58 81 60 82 53 83 54 84 55 85 56 86
REMARK SMILES IDX 57 87 83 88 84 89 93 90 85 91 86 92 92 93 94 94 87 95 88 96
REMARK SMILES IDX 89 97 90 98 91 99 67 100 68 101 77 102 69 103 70 104 76 105
REMARK SMILES IDX 78 106 71 107 72 108 73 109 74 110 75 111
REMARK H PARENT 30 6 20 16 25 35 37 42 99 61 65 72
REMARK Flexibility Score: inf
ROOT
ATOM      1  C   UNL A   1      43.919  24.189  29.539  1.00  0.00     0.021 C 
ENDROOT
BRANCH   1   2
ATOM      2  C   UNL A   1      44.612  24.035  30.930  1.00  0.00     0.116 C 
BRANCH   2   3
ATOM      3  N   UNL A   1      43.948  24.544  32.132  1.00  0.00    -0.352 N 
ATOM      4  C   UNL A   1      44.201  24.406  33.488  1.00  0.00     0.253 C 
ATOM      5  O   UNL A   1      43.584  25.137  34.267  1.00  0.00    -0.269 OA
ATOM      6  H   UNL A   1      43.158  25.098  31.937  1.00  0.00     0.163 HD
BRANCH   4   7
ATOM      7  C   UNL A   1      45.156  23.422  34.086  1.00  0.00     0.067 A 
ATOM      8  C   UNL A   1      46.467  23.711  34.492  1.00  0.00     0.054 A 
ATOM      9  C   UNL A   1      47.312  22.680  34.939  1.00  0.00     0.031 A 
ATOM     10  C   UNL A   1      46.822  21.387  35.113  1.00  0.00     0.048 A 
ATOM     11  C   UNL A   1      44.658  22.126  34.322  1.00  0.00     0.062 A 
ATOM     12  C   UNL A   1      45.485  21.131  34.843  1.00  0.00     0.116 A 
BRANCH   8  13
ATOM     13  N   UNL A   1      46.872  25.043  34.659  1.00  0.00    -0.325 N 
ATOM     14  O   UNL A   1      47.650  25.470  32.533  1.00  0.00    -0.275 OA
ATOM     15  C   UNL A   1      47.488  25.813  33.701  1.00  0.00     0.226 C 
ATOM     16  H   UNL A   1      46.702  25.462  35.534  1.00  0.00     0.169 HD
BRANCH  15  17
ATOM     17  C   UNL A   1      47.959  27.161  34.200  1.00  0.00     0.122 C 
BRANCH  17  18
ATOM     18  C   UNL A   1      47.188  28.370  33.682  1.00  0.00     0.140 C 
BRANCH  18  19
ATOM     19  N   UNL A   1      45.729  28.416  33.910  1.00  0.00    -0.268 N 
ATOM     20  C   UNL A   1      45.175  28.859  35.075  1.00  0.00     0.293 C 
ATOM     21  C   UNL A   1      44.844  28.355  32.872  1.00  0.00     0.268 C 
ATOM     22  O   UNL A   1      45.786  29.193  36.080  1.00  0.00    -0.261 OA
ATOM     23  S   UNL A   1      43.410  28.953  34.936  1.00  0.00    -0.022 SA
ATOM     24  C   UNL A   1      43.445  28.552  33.280  1.00  0.00     0.083 C 
ATOM     25  O   UNL A   1      45.145  28.194  31.708  1.00  0.00    -0.268 OA
ATOM     26  C   UNL A   1      42.483  28.388  32.360  1.00  0.00     0.029 C 
BRANCH  26  27
ATOM     27  C   UNL A   1      41.034  28.512  32.499  1.00  0.00    -0.024 A 
ATOM     28  C   UNL A   1      40.180  27.469  32.130  1.00  0.00     0.011 A 
ATOM     29  C   UNL A   1      40.511  29.657  33.119  1.00  0.00     0.011 A 
ATOM     30  C   UNL A   1      38.804  27.594  32.330  1.00  0.00     0.040 A 
ATOM     31  C   UNL A   1      39.136  29.781  33.315  1.00  0.00     0.040 A 
ATOM     32  C   UNL A   1      38.295  28.751  32.909  1.00  0.00     0.123 A 
ATOM     33  F   UNL A   1      36.973  28.873  33.087  1.00  0.00    -0.207 F 
ENDBRANCH  26  27
ENDBRANCH  18  19
ENDBRANCH  17  18
ENDBRANCH  15  17
ENDBRANCH   8  13
BRANCH  12  34
ATOM     34  O   UNL A   1      44.942  19.903  35.086  1.00  0.00    -0.508 OA
ATOM     35  H   UNL A   1      45.343  19.329  35.709  1.00  0.00     0.293 HD
ENDBRANCH  12  34
ENDBRANCH   4   7
ENDBRANCH   2   3
ENDBRANCH   1   2
BRANCH   1  36
ATOM     36  C   UNL A   1      43.003  23.306  28.586  1.00  0.00     0.002 C 
BRANCH  36  37
ATOM     37  C   UNL A   1      41.934  22.179  28.709  1.00  0.00     0.002 C 
BRANCH  37  38
ATOM     38  C   UNL A   1      41.428  21.352  27.511  1.00  0.00     0.021 C 
BRANCH  38  39
ATOM     39  C   UNL A   1      41.279  22.080  26.179  1.00  0.00     0.116 C 
BRANCH  39  40
ATOM     40  N   UNL A   1      39.872  22.246  25.854  1.00  0.00    -0.352 N 
ATOM     41  C   UNL A   1      38.998  23.194  26.323  1.00  0.00     0.251 C 
ATOM     42  H   UNL A   1      39.499  21.595  25.216  1.00  0.00     0.163 HD
ATOM     43  O   UNL A   1      37.791  22.972  26.296  1.00  0.00    -0.269 OA
BRANCH  41  44
ATOM     44  C   UNL A   1      39.507  24.485  26.837  1.00  0.00     0.039 A 
ATOM     45  C   UNL A   1      40.109  25.382  25.950  1.00  0.00     0.014 A 
ATOM     46  C   UNL A   1      39.469  24.772  28.205  1.00  0.00     0.014 A 
ATOM     47  C   UNL A   1      40.667  26.566  26.438  1.00  0.00     0.010 A 
ATOM     48  C   UNL A   1      39.967  25.983  28.681  1.00  0.00     0.010 A 
ATOM     49  C   UNL A   1      40.593  26.878  27.805  1.00  0.00    -0.014 A 
BRANCH  49  50
ATOM     50  C   UNL A   1      41.180  28.140  28.318  1.00  0.00     0.031 A 
ATOM     51  C   UNL A   1      42.664  28.378  28.252  1.00  0.00     0.074 A 
ATOM     52  C   UNL A   1      40.363  29.064  28.857  1.00  0.00     0.049 A 
ATOM     53  N   UNL A   1      43.342  29.444  28.591  1.00  0.00    -0.248 NA
ATOM     54  C   UNL A   1      43.498  27.268  27.766  1.00  0.00     0.031 C 
ATOM     55  C   UNL A   1      38.917  28.905  29.031  1.00  0.00     0.029 A 
ATOM     56  N   UNL A   1      40.620  30.319  29.343  1.00  0.00    -0.354 N 
ATOM     57  C   UNL A   1      44.677  29.134  28.362  1.00  0.00     0.074 A 
ATOM     58  C   UNL A   1      44.720  27.759  27.916  1.00  0.00     0.031 C 
ATOM     59  C   UNL A   1      38.409  30.036  29.540  1.00  0.00     0.029 A 
ATOM     60  C   UNL A   1      39.493  30.989  29.758  1.00  0.00     0.049 A 
ATOM     61  H   UNL A   1      41.525  30.704  29.392  1.00  0.00     0.167 HD
ATOM     62  C   UNL A   1      45.763  29.933  28.489  1.00  0.00     0.037 A 
ATOM     63  C   UNL A   1      39.348  32.235  30.247  1.00  0.00     0.037 A 
ATOM     64  C   UNL A   1      45.696  31.306  28.922  1.00  0.00     0.049 A 
ATOM     65  C   UNL A   1      40.562  33.112  30.361  1.00  0.00     0.074 A 
ATOM     66  C   UNL A   1      46.721  32.229  29.017  1.00  0.00     0.029 A 
ATOM     67  N   UNL A   1      44.540  31.948  29.344  1.00  0.00    -0.354 N 
ATOM     68  N   UNL A   1      41.807  32.834  30.056  1.00  0.00    -0.248 NA
ATOM     69  C   UNL A   1      40.352  34.471  30.875  1.00  0.00     0.031 C 
ATOM     70  C   UNL A   1      46.196  33.409  29.554  1.00  0.00     0.029 A 
ATOM     71  C   UNL A   1      44.832  33.244  29.739  1.00  0.00     0.049 A 
ATOM     72  H   UNL A   1      43.642  31.542  29.361  1.00  0.00     0.167 HD
ATOM     73  C   UNL A   1      42.535  33.982  30.343  1.00  0.00     0.074 A 
ATOM     74  C   UNL A   1      41.580  34.969  30.812  1.00  0.00     0.031 C 
ATOM     75  C   UNL A   1      43.870  34.200  30.237  1.00  0.00     0.037 A 
BRANCH  62  76
ATOM     76  C   UNL A   1      47.112  29.347  28.158  1.00  0.00     0.058 A 
ATOM     77  C   UNL A   1      47.972  28.913  29.180  1.00  0.00     0.135 A 
ATOM     78  C   UNL A   1      47.573  29.246  26.834  1.00  0.00     0.135 A 
ATOM     79  F   UNL A   1      47.586  28.979  30.463  1.00  0.00    -0.206 F 
ATOM     80  C   UNL A   1      49.238  28.406  28.903  1.00  0.00     0.059 A 
ATOM     81  C   UNL A   1      48.824  28.713  26.531  1.00  0.00     0.059 A 
ATOM     82  F   UNL A   1      46.788  29.627  25.814  1.00  0.00    -0.206 F 
ATOM     83  C   UNL A   1      49.655  28.307  27.574  1.00  0.00     0.060 A 
BRANCH  83  84
ATOM     84  S   UNL A   1      51.280  27.598  27.231  1.00  0.00     0.124 S 
ATOM     85  O   UNL A   1      51.972  27.806  28.498  1.00  0.00    -0.237 OA
ATOM     86  O   UNL A   1      50.947  26.214  26.905  1.00  0.00    -0.237 OA
ATOM     87  O   UNL A   1      51.766  28.396  26.110  1.00  0.00    -0.744 OA
ENDBRANCH  83  84
ENDBRANCH  62  76
BRANCH  63  88
ATOM     88  C   UNL A   1      37.989  32.713  30.614  1.00  0.00     0.058 A 
ATOM     89  C   UNL A   1      37.119  33.233  29.642  1.00  0.00     0.135 A 
ATOM     90  C   UNL A   1      37.574  32.755  31.953  1.00  0.00     0.135 A 
ATOM     91  F   UNL A   1      37.475  33.229  28.348  1.00  0.00    -0.206 F 
ATOM     92  C   UNL A   1      35.908  33.820  29.988  1.00  0.00     0.059 A 
ATOM     93  C   UNL A   1      36.353  33.314  32.322  1.00  0.00     0.059 A 
ATOM     94  F   UNL A   1      38.367  32.262  32.916  1.00  0.00    -0.206 F 
ATOM     95  C   UNL A   1      35.540  33.868  31.334  1.00  0.00     0.060 A 
BRANCH  95  96
ATOM     96  S   UNL A   1      33.995  34.698  31.766  1.00  0.00     0.124 S 
ATOM     97  O   UNL A   1      33.454  33.797  32.778  1.00  0.00    -0.237 OA
ATOM     98  O   UNL A   1      34.470  35.989  32.252  1.00  0.00    -0.237 OA
ATOM     99  O   UNL A   1      33.266  34.733  30.503  1.00  0.00    -0.744 OA
ENDBRANCH  95  96
ENDBRANCH  63  88
BRANCH  75 100
ATOM    100  C   UNL A   1      44.382  35.548  30.664  1.00  0.00     0.058 A 
ATOM    101  C   UNL A   1      44.783  35.778  31.989  1.00  0.00     0.135 A 
ATOM    102  C   UNL A   1      44.435  36.628  29.767  1.00  0.00     0.135 A 
ATOM    103  F   UNL A   1      44.744  34.786  32.892  1.00  0.00    -0.206 F 
ATOM    104  C   UNL A   1      45.214  37.031  32.412  1.00  0.00     0.059 A 
ATOM    105  C   UNL A   1      44.895  37.881  30.159  1.00  0.00     0.059 A 
ATOM    106  F   UNL A   1      44.071  36.459  28.486  1.00  0.00    -0.206 F 
ATOM    107  C   UNL A   1      45.272  38.074  31.487  1.00  0.00     0.060 A 
BRANCH 107 108
ATOM    108  S   UNL A   1      45.886  39.679  32.040  1.00  0.00     0.124 S 
ATOM    109  O   UNL A   1      44.776  40.561  31.692  1.00  0.00    -0.237 OA
ATOM    110  O   UNL A   1      46.094  39.453  33.468  1.00  0.00    -0.237 OA
ATOM    111  O   UNL A   1      47.105  39.864  31.258  1.00  0.00    -0.744 OA
ENDBRANCH 107 108
ENDBRANCH  75 100
ENDBRANCH  49  50
ENDBRANCH  41  44
ENDBRANCH  39  40
ENDBRANCH  38  39
ENDBRANCH  37  38
ENDBRANCH  36  37
ENDBRANCH   1  36
TORSDOF 22
ENDMDL
