MODEL 1
REMARK VINA RESULT:     -12.0      0.000      0.000
REMARK SMILES Cc1nn(Cc2ccc(C(=O)NCCCCCCNC(=O)c3ccc(-c4c5nc(c(-c6c(F)cc(S(=O)(=O)[O-])cc6F)c6ccc([nH]6)c(-c6c(F)cc(S(=O)(=O)[O-])cc6F)c6nc(c(-c7c(F)cc(S(=O)(=O)[O-])cc7F)c7ccc4[nH]7)C=C6)C=C5)cc3)o2)c(C)c1C
REMARK SMILES IDX 16 1 15 2 14 3 13 4 12 5 10 6 11 7 9 9 6 10 7 11 88 12 8 13
REMARK SMILES IDX 5 14 4 15 1 16 2 17 3 18 91 19 89 20 92 21 90 22 17 23 18 24
REMARK SMILES IDX 19 25 20 26 21 28 22 29 23 30 87 31 24 32 86 33 25 34 26 35
REMARK SMILES IDX 27 36 80 37 28 38 85 39 79 40 81 41 29 42 84 43 78 44 77 45
REMARK SMILES IDX 30 47 64 48 43 49 63 50 44 51 47 52 62 53 82 54 45 55 46 56
REMARK SMILES IDX 61 58 83 59 48 60 31 61 32 62 41 63 33 64 34 65 40 66 42 67
REMARK SMILES IDX 35 68 36 69 37 70 38 71 39 72 65 73 66 74 75 75 67 76 68 77
REMARK SMILES IDX 74 78 76 79 69 80 70 81 71 82 72 83 73 84 49 85 50 86 59 87
REMARK SMILES IDX 51 88 52 89 58 90 60 91 53 92 54 93 55 94 56 95 57 96
REMARK H PARENT 12 8 19 27 81 46 47 57
REMARK Flexibility Score: inf
ROOT
ATOM      1  C   UNL A   1      41.081  21.531  27.776  1.00  0.00     0.002 C 
ENDROOT
BRANCH   1   2
ATOM      2  C   UNL A   1      39.917  21.678  26.781  1.00  0.00     0.002 C 
BRANCH   2   3
ATOM      3  C   UNL A   1      39.479  23.109  26.451  1.00  0.00     0.021 C 
BRANCH   3   4
ATOM      4  C   UNL A   1      37.995  23.273  26.126  1.00  0.00     0.116 C 
BRANCH   4   5
ATOM      5  N   UNL A   1      37.737  23.162  24.702  1.00  0.00    -0.349 N 
ATOM      6  C   UNL A   1      36.579  23.228  23.965  1.00  0.00     0.286 C 
ATOM      7  O   UNL A   1      36.718  23.097  22.744  1.00  0.00    -0.266 OA
ATOM      8  H   UNL A   1      38.546  23.011  24.161  1.00  0.00     0.163 HD
BRANCH   6   9
ATOM      9  C   UNL A   1      35.280  23.462  24.568  1.00  0.00     0.191 A 
ATOM     10  C   UNL A   1      33.151  23.119  25.057  1.00  0.00     0.126 A 
ATOM     11  C   UNL A   1      33.527  24.258  25.737  1.00  0.00     0.048 A 
ATOM     12  O   UNL A   1      34.218  22.626  24.366  1.00  0.00    -0.454 OA
ATOM     13  C   UNL A   1      34.888  24.478  25.425  1.00  0.00     0.056 A 
BRANCH  10  14
ATOM     14  C   UNL A   1      31.887  22.339  24.981  1.00  0.00     0.219 C 
BRANCH  14  15
ATOM     15  N   UNL A   1      32.115  20.941  24.632  1.00  0.00    -0.262 N 
ATOM     16  C   UNL A   1      32.816  17.651  25.745  1.00  0.00     0.069 C 
ATOM     17  C   UNL A   1      32.567  18.897  24.978  1.00  0.00     0.063 A 
ATOM     18  N   UNL A   1      32.413  20.063  25.616  1.00  0.00    -0.177 NA
ATOM     19  C   UNL A   1      32.486  19.048  23.569  1.00  0.00    -0.007 A 
ATOM     20  C   UNL A   1      32.207  20.391  23.376  1.00  0.00     0.039 A 
ATOM     21  C   UNL A   1      32.660  17.999  22.530  1.00  0.00     0.048 C 
ATOM     22  C   UNL A   1      32.016  21.158  22.118  1.00  0.00     0.066 C 
ENDBRANCH  14  15
ENDBRANCH  10  14
ENDBRANCH   6   9
ENDBRANCH   4   5
ENDBRANCH   3   4
ENDBRANCH   2   3
ENDBRANCH   1   2
BRANCH   1  23
ATOM     23  C   UNL A   1      42.146  20.473  27.454  1.00  0.00     0.021 C 
BRANCH  23  24
ATOM     24  C   UNL A   1      42.097  19.962  26.025  1.00  0.00     0.116 C 
BRANCH  24  25
ATOM     25  N   UNL A   1      43.425  19.812  25.414  1.00  0.00    -0.352 N 
ATOM     26  C   UNL A   1      44.257  20.809  24.927  1.00  0.00     0.251 C 
ATOM     27  H   UNL A   1      43.766  18.891  25.341  1.00  0.00     0.163 HD
ATOM     28  O   UNL A   1      45.154  20.553  24.125  1.00  0.00    -0.269 OA
BRANCH  26  29
ATOM     29  C   UNL A   1      44.052  22.183  25.413  1.00  0.00     0.039 A 
ATOM     30  C   UNL A   1      43.070  23.048  24.922  1.00  0.00     0.014 A 
ATOM     31  C   UNL A   1      44.878  22.573  26.457  1.00  0.00     0.014 A 
ATOM     32  C   UNL A   1      42.904  24.288  25.543  1.00  0.00     0.010 A 
ATOM     33  C   UNL A   1      44.516  23.628  27.231  1.00  0.00     0.010 A 
ATOM     34  C   UNL A   1      43.640  24.561  26.703  1.00  0.00    -0.014 A 
BRANCH  34  35
ATOM     35  C   UNL A   1      43.543  25.803  27.454  1.00  0.00     0.031 A 
ATOM     36  C   UNL A   1      44.558  26.825  27.096  1.00  0.00     0.074 A 
ATOM     37  C   UNL A   1      42.417  26.088  28.151  1.00  0.00     0.049 A 
ATOM     38  N   UNL A   1      45.519  27.280  27.828  1.00  0.00    -0.248 NA
ATOM     39  C   UNL A   1      44.615  27.283  25.697  1.00  0.00     0.031 C 
ATOM     40  C   UNL A   1      41.186  25.286  28.273  1.00  0.00     0.029 A 
ATOM     41  N   UNL A   1      42.073  27.235  28.789  1.00  0.00    -0.354 N 
ATOM     42  C   UNL A   1      46.142  28.265  27.066  1.00  0.00     0.074 A 
ATOM     43  C   UNL A   1      45.704  28.053  25.712  1.00  0.00     0.031 C 
ATOM     44  C   UNL A   1      40.174  26.063  28.715  1.00  0.00     0.029 A 
ATOM     45  C   UNL A   1      40.715  27.355  29.082  1.00  0.00     0.049 A 
ATOM     46  H   UNL A   1      42.730  27.928  29.027  1.00  0.00     0.167 HD
ATOM     47  C   UNL A   1      46.750  29.336  27.650  1.00  0.00     0.037 A 
ATOM     48  C   UNL A   1      40.092  28.465  29.554  1.00  0.00     0.037 A 
ATOM     49  C   UNL A   1      46.911  29.122  29.069  1.00  0.00     0.049 A 
ATOM     50  C   UNL A   1      41.157  29.329  30.137  1.00  0.00     0.074 A 
ATOM     51  C   UNL A   1      47.562  28.178  29.840  1.00  0.00     0.029 A 
ATOM     52  N   UNL A   1      46.002  29.727  29.907  1.00  0.00    -0.354 N 
ATOM     53  N   UNL A   1      41.875  28.987  31.175  1.00  0.00    -0.248 NA
ATOM     54  C   UNL A   1      41.764  30.323  29.264  1.00  0.00     0.031 C 
ATOM     55  C   UNL A   1      46.680  27.927  30.932  1.00  0.00     0.029 A 
ATOM     56  C   UNL A   1      45.585  28.785  30.814  1.00  0.00     0.049 A 
ATOM     57  H   UNL A   1      45.706  30.664  29.864  1.00  0.00     0.167 HD
ATOM     58  C   UNL A   1      43.168  29.391  30.869  1.00  0.00     0.074 A 
ATOM     59  C   UNL A   1      43.023  30.268  29.707  1.00  0.00     0.031 C 
ATOM     60  C   UNL A   1      44.257  28.747  31.390  1.00  0.00     0.037 A 
BRANCH  47  61
ATOM     61  C   UNL A   1      46.862  30.715  27.040  1.00  0.00     0.058 A 
ATOM     62  C   UNL A   1      48.118  31.358  27.032  1.00  0.00     0.135 A 
ATOM     63  C   UNL A   1      45.759  31.538  26.721  1.00  0.00     0.135 A 
ATOM     64  F   UNL A   1      49.238  30.674  27.312  1.00  0.00    -0.206 F 
ATOM     65  C   UNL A   1      48.256  32.730  26.819  1.00  0.00     0.059 A 
ATOM     66  C   UNL A   1      45.880  32.895  26.448  1.00  0.00     0.059 A 
ATOM     67  F   UNL A   1      44.497  31.096  26.756  1.00  0.00    -0.206 F 
ATOM     68  C   UNL A   1      47.124  33.493  26.546  1.00  0.00     0.060 A 
BRANCH  68  69
ATOM     69  S   UNL A   1      47.278  35.280  26.394  1.00  0.00     0.124 S 
ATOM     70  O   UNL A   1      47.879  35.629  27.677  1.00  0.00    -0.237 OA
ATOM     71  O   UNL A   1      48.141  35.411  25.225  1.00  0.00    -0.237 OA
ATOM     72  O   UNL A   1      45.899  35.719  26.202  1.00  0.00    -0.744 OA
ENDBRANCH  68  69
ENDBRANCH  47  61
BRANCH  48  73
ATOM     73  C   UNL A   1      38.741  28.971  29.184  1.00  0.00     0.058 A 
ATOM     74  C   UNL A   1      37.756  29.221  30.156  1.00  0.00     0.135 A 
ATOM     75  C   UNL A   1      38.480  29.484  27.896  1.00  0.00     0.135 A 
ATOM     76  F   UNL A   1      37.929  28.791  31.414  1.00  0.00    -0.206 F 
ATOM     77  C   UNL A   1      36.603  29.970  29.879  1.00  0.00     0.059 A 
ATOM     78  C   UNL A   1      37.338  30.226  27.595  1.00  0.00     0.059 A 
ATOM     79  F   UNL A   1      39.380  29.358  26.908  1.00  0.00    -0.206 F 
ATOM     80  C   UNL A   1      36.413  30.488  28.597  1.00  0.00     0.060 A 
BRANCH  80  81
ATOM     81  S   UNL A   1      35.025  31.603  28.277  1.00  0.00     0.124 S 
ATOM     82  O   UNL A   1      35.676  32.702  27.571  1.00  0.00    -0.237 OA
ATOM     83  O   UNL A   1      34.135  30.769  27.477  1.00  0.00    -0.237 OA
ATOM     84  O   UNL A   1      34.532  31.924  29.614  1.00  0.00    -0.744 OA
ENDBRANCH  80  81
ENDBRANCH  48  73
BRANCH  60  85
ATOM     85  C   UNL A   1      44.038  27.754  32.507  1.00  0.00     0.058 A 
ATOM     86  C   UNL A   1      43.936  26.361  32.330  1.00  0.00     0.135 A 
ATOM     87  C   UNL A   1      44.108  28.221  33.827  1.00  0.00     0.135 A 
ATOM     88  F   UNL A   1      43.970  25.817  31.108  1.00  0.00    -0.206 F 
ATOM     89  C   UNL A   1      43.866  25.480  33.413  1.00  0.00     0.059 A 
ATOM     90  C   UNL A   1      44.070  27.361  34.922  1.00  0.00     0.059 A 
ATOM     91  F   UNL A   1      44.273  29.533  34.065  1.00  0.00    -0.206 F 
ATOM     92  C   UNL A   1      43.935  25.992  34.708  1.00  0.00     0.060 A 
BRANCH  92  93
ATOM     93  S   UNL A   1      43.909  24.851  36.108  1.00  0.00     0.124 S 
ATOM     94  O   UNL A   1      42.867  23.908  35.716  1.00  0.00    -0.237 OA
ATOM     95  O   UNL A   1      45.271  24.325  36.115  1.00  0.00    -0.237 OA
ATOM     96  O   UNL A   1      43.577  25.711  37.242  1.00  0.00    -0.744 OA
ENDBRANCH  92  93
ENDBRANCH  60  85
ENDBRANCH  34  35
ENDBRANCH  26  29
ENDBRANCH  24  25
ENDBRANCH  23  24
ENDBRANCH   1  23
TORSDOF 18
ENDMDL
MODEL 2
REMARK VINA RESULT:     -11.7      1.462      2.492
REMARK SMILES Cc1nn(Cc2ccc(C(=O)NCCCCCCNC(=O)c3ccc(-c4c5nc(c(-c6c(F)cc(S(=O)(=O)[O-])cc6F)c6ccc([nH]6)c(-c6c(F)cc(S(=O)(=O)[O-])cc6F)c6nc(c(-c7c(F)cc(S(=O)(=O)[O-])cc7F)c7ccc4[nH]7)C=C6)C=C5)cc3)o2)c(C)c1C
REMARK SMILES IDX 16 1 15 2 14 3 13 4 12 5 10 6 11 7 9 9 6 10 7 11 88 12 8 13
REMARK SMILES IDX 5 14 4 15 1 16 2 17 3 18 91 19 89 20 92 21 90 22 17 23 18 24
REMARK SMILES IDX 19 25 20 26 21 28 22 29 23 30 87 31 24 32 86 33 25 34 26 35
REMARK SMILES IDX 27 36 80 37 28 38 85 39 79 40 81 41 29 42 84 43 78 44 77 45
REMARK SMILES IDX 30 47 64 48 43 49 63 50 44 51 47 52 62 53 82 54 45 55 46 56
REMARK SMILES IDX 61 58 83 59 48 60 31 61 32 62 41 63 33 64 34 65 40 66 42 67
REMARK SMILES IDX 35 68 36 69 37 70 38 71 39 72 65 73 66 74 75 75 67 76 68 77
REMARK SMILES IDX 74 78 76 79 69 80 70 81 71 82 72 83 73 84 49 85 50 86 59 87
REMARK SMILES IDX 51 88 52 89 58 90 60 91 53 92 54 93 55 94 56 95 57 96
REMARK H PARENT 12 8 19 27 81 46 47 57
REMARK Flexibility Score: inf
ROOT
ATOM      1  C   UNL A   1      40.803  21.487  27.619  1.00  0.00     0.002 C 
ENDROOT
BRANCH   1   2
ATOM      2  C   UNL A   1      39.785  21.761  26.498  1.00  0.00     0.002 C 
BRANCH   2   3
ATOM      3  C   UNL A   1      39.104  23.135  26.517  1.00  0.00     0.021 C 
BRANCH   3   4
ATOM      4  C   UNL A   1      37.778  23.210  25.763  1.00  0.00     0.116 C 
BRANCH   4   5
ATOM      5  N   UNL A   1      37.189  21.898  25.570  1.00  0.00    -0.349 N 
ATOM      6  C   UNL A   1      35.998  21.491  25.018  1.00  0.00     0.286 C 
ATOM      7  O   UNL A   1      35.807  20.271  25.005  1.00  0.00    -0.266 OA
ATOM      8  H   UNL A   1      37.750  21.158  25.896  1.00  0.00     0.163 HD
BRANCH   6   9
ATOM      9  C   UNL A   1      35.035  22.423  24.463  1.00  0.00     0.191 A 
ATOM     10  C   UNL A   1      33.147  23.560  24.280  1.00  0.00     0.126 A 
ATOM     11  C   UNL A   1      33.946  23.965  23.233  1.00  0.00     0.048 A 
ATOM     12  O   UNL A   1      33.813  22.642  25.036  1.00  0.00    -0.454 OA
ATOM     13  C   UNL A   1      35.153  23.239  23.348  1.00  0.00     0.056 A 
BRANCH  10  14
ATOM     14  C   UNL A   1      31.790  23.952  24.746  1.00  0.00     0.219 C 
BRANCH  14  15
ATOM     15  N   UNL A   1      31.694  25.377  25.043  1.00  0.00    -0.262 N 
ATOM     16  C   UNL A   1      31.796  27.943  27.485  1.00  0.00     0.069 C 
ATOM     17  C   UNL A   1      31.656  27.114  26.262  1.00  0.00     0.063 A 
ATOM     18  N   UNL A   1      31.787  25.785  26.329  1.00  0.00    -0.177 NA
ATOM     19  C   UNL A   1      31.357  27.552  24.945  1.00  0.00    -0.007 A 
ATOM     20  C   UNL A   1      31.374  26.398  24.179  1.00  0.00     0.039 A 
ATOM     21  C   UNL A   1      31.088  28.940  24.487  1.00  0.00     0.048 C 
ATOM     22  C   UNL A   1      31.127  26.209  22.726  1.00  0.00     0.066 C 
ENDBRANCH  14  15
ENDBRANCH  10  14
ENDBRANCH   6   9
ENDBRANCH   4   5
ENDBRANCH   3   4
ENDBRANCH   2   3
ENDBRANCH   1   2
BRANCH   1  23
ATOM     23  C   UNL A   1      41.855  20.400  27.356  1.00  0.00     0.021 C 
BRANCH  23  24
ATOM     24  C   UNL A   1      41.906  19.925  25.914  1.00  0.00     0.116 C 
BRANCH  24  25
ATOM     25  N   UNL A   1      43.274  19.727  25.415  1.00  0.00    -0.352 N 
ATOM     26  C   UNL A   1      44.180  20.693  25.004  1.00  0.00     0.251 C 
ATOM     27  H   UNL A   1      43.585  18.794  25.365  1.00  0.00     0.163 HD
ATOM     28  O   UNL A   1      45.130  20.406  24.277  1.00  0.00    -0.269 OA
BRANCH  26  29
ATOM     29  C   UNL A   1      43.987  22.073  25.480  1.00  0.00     0.039 A 
ATOM     30  C   UNL A   1      43.030  22.952  24.962  1.00  0.00     0.014 A 
ATOM     31  C   UNL A   1      44.794  22.454  26.540  1.00  0.00     0.014 A 
ATOM     32  C   UNL A   1      42.871  24.197  25.574  1.00  0.00     0.010 A 
ATOM     33  C   UNL A   1      44.432  23.519  27.302  1.00  0.00     0.010 A 
ATOM     34  C   UNL A   1      43.584  24.463  26.750  1.00  0.00    -0.014 A 
BRANCH  34  35
ATOM     35  C   UNL A   1      43.491  25.710  27.493  1.00  0.00     0.031 A 
ATOM     36  C   UNL A   1      44.506  26.729  27.126  1.00  0.00     0.074 A 
ATOM     37  C   UNL A   1      42.367  26.001  28.191  1.00  0.00     0.049 A 
ATOM     38  N   UNL A   1      45.469  27.188  27.852  1.00  0.00    -0.248 NA
ATOM     39  C   UNL A   1      44.559  27.178  25.723  1.00  0.00     0.031 C 
ATOM     40  C   UNL A   1      41.135  25.201  28.321  1.00  0.00     0.029 A 
ATOM     41  N   UNL A   1      42.025  27.152  28.822  1.00  0.00    -0.354 N 
ATOM     42  C   UNL A   1      46.091  28.168  27.082  1.00  0.00     0.074 A 
ATOM     43  C   UNL A   1      45.649  27.947  25.730  1.00  0.00     0.031 C 
ATOM     44  C   UNL A   1      40.125  25.982  28.761  1.00  0.00     0.029 A 
ATOM     45  C   UNL A   1      40.669  27.276  29.118  1.00  0.00     0.049 A 
ATOM     46  H   UNL A   1      42.684  27.846  29.055  1.00  0.00     0.167 HD
ATOM     47  C   UNL A   1      46.702  29.241  27.658  1.00  0.00     0.037 A 
ATOM     48  C   UNL A   1      40.047  28.389  29.585  1.00  0.00     0.037 A 
ATOM     49  C   UNL A   1      46.866  29.036  29.078  1.00  0.00     0.049 A 
ATOM     50  C   UNL A   1      41.115  29.255  30.159  1.00  0.00     0.074 A 
ATOM     51  C   UNL A   1      47.518  28.096  29.853  1.00  0.00     0.029 A 
ATOM     52  N   UNL A   1      45.960  29.647  29.914  1.00  0.00    -0.354 N 
ATOM     53  N   UNL A   1      41.836  28.920  31.198  1.00  0.00    -0.248 NA
ATOM     54  C   UNL A   1      41.720  30.243  29.279  1.00  0.00     0.031 C 
ATOM     55  C   UNL A   1      46.639  27.853  30.949  1.00  0.00     0.029 A 
ATOM     56  C   UNL A   1      45.545  28.712  30.828  1.00  0.00     0.049 A 
ATOM     57  H   UNL A   1      45.664  30.585  29.866  1.00  0.00     0.167 HD
ATOM     58  C   UNL A   1      43.129  29.321  30.886  1.00  0.00     0.074 A 
ATOM     59  C   UNL A   1      42.981  30.190  29.719  1.00  0.00     0.031 C 
ATOM     60  C   UNL A   1      44.218  28.678  31.408  1.00  0.00     0.037 A 
BRANCH  47  61
ATOM     61  C   UNL A   1      46.813  30.616  27.039  1.00  0.00     0.058 A 
ATOM     62  C   UNL A   1      48.070  31.258  27.023  1.00  0.00     0.135 A 
ATOM     63  C   UNL A   1      45.710  31.438  26.718  1.00  0.00     0.135 A 
ATOM     64  F   UNL A   1      49.190  30.574  27.304  1.00  0.00    -0.206 F 
ATOM     65  C   UNL A   1      48.209  32.628  26.801  1.00  0.00     0.059 A 
ATOM     66  C   UNL A   1      45.832  32.793  26.436  1.00  0.00     0.059 A 
ATOM     67  F   UNL A   1      44.448  30.998  26.759  1.00  0.00    -0.206 F 
ATOM     68  C   UNL A   1      47.077  33.391  26.526  1.00  0.00     0.060 A 
BRANCH  68  69
ATOM     69  S   UNL A   1      47.233  35.176  26.363  1.00  0.00     0.124 S 
ATOM     70  O   UNL A   1      45.865  35.557  26.029  1.00  0.00    -0.237 OA
ATOM     71  O   UNL A   1      47.699  35.562  27.691  1.00  0.00    -0.237 OA
ATOM     72  O   UNL A   1      48.211  35.330  25.291  1.00  0.00    -0.744 OA
ENDBRANCH  68  69
ENDBRANCH  47  61
BRANCH  48  73
ATOM     73  C   UNL A   1      38.696  28.894  29.216  1.00  0.00     0.058 A 
ATOM     74  C   UNL A   1      37.703  29.121  30.185  1.00  0.00     0.135 A 
ATOM     75  C   UNL A   1      38.441  29.429  27.935  1.00  0.00     0.135 A 
ATOM     76  F   UNL A   1      37.871  28.668  31.437  1.00  0.00    -0.206 F 
ATOM     77  C   UNL A   1      36.548  29.868  29.915  1.00  0.00     0.059 A 
ATOM     78  C   UNL A   1      37.296  30.170  27.640  1.00  0.00     0.059 A 
ATOM     79  F   UNL A   1      39.348  29.326  26.952  1.00  0.00    -0.206 F 
ATOM     80  C   UNL A   1      36.364  30.408  28.641  1.00  0.00     0.060 A 
BRANCH  80  81
ATOM     81  S   UNL A   1      34.971  31.522  28.333  1.00  0.00     0.124 S 
ATOM     82  O   UNL A   1      35.584  32.550  27.498  1.00  0.00    -0.237 OA
ATOM     83  O   UNL A   1      34.015  30.644  27.665  1.00  0.00    -0.237 OA
ATOM     84  O   UNL A   1      34.579  31.955  29.671  1.00  0.00    -0.744 OA
ENDBRANCH  80  81
ENDBRANCH  48  73
BRANCH  60  85
ATOM     85  C   UNL A   1      44.001  27.692  32.532  1.00  0.00     0.058 A 
ATOM     86  C   UNL A   1      43.906  26.298  32.366  1.00  0.00     0.135 A 
ATOM     87  C   UNL A   1      44.064  28.170  33.848  1.00  0.00     0.135 A 
ATOM     88  F   UNL A   1      43.947  25.745  31.148  1.00  0.00    -0.206 F 
ATOM     89  C   UNL A   1      43.838  25.425  33.454  1.00  0.00     0.059 A 
ATOM     90  C   UNL A   1      44.028  27.318  34.950  1.00  0.00     0.059 A 
ATOM     91  F   UNL A   1      44.222  29.484  34.077  1.00  0.00    -0.206 F 
ATOM     92  C   UNL A   1      43.901  25.947  34.746  1.00  0.00     0.060 A 
BRANCH  92  93
ATOM     93  S   UNL A   1      43.877  24.817  36.154  1.00  0.00     0.124 S 
ATOM     94  O   UNL A   1      42.904  25.449  37.039  1.00  0.00    -0.237 OA
ATOM     95  O   UNL A   1      43.456  23.558  35.546  1.00  0.00    -0.237 OA
ATOM     96  O   UNL A   1      45.258  24.837  36.631  1.00  0.00    -0.744 OA
ENDBRANCH  92  93
ENDBRANCH  60  85
ENDBRANCH  34  35
ENDBRANCH  26  29
ENDBRANCH  24  25
ENDBRANCH  23  24
ENDBRANCH   1  23
TORSDOF 18
ENDMDL
MODEL 3
REMARK VINA RESULT:     -11.6      2.614      3.984
REMARK SMILES Cc1nn(Cc2ccc(C(=O)NCCCCCCNC(=O)c3ccc(-c4c5nc(c(-c6c(F)cc(S(=O)(=O)[O-])cc6F)c6ccc([nH]6)c(-c6c(F)cc(S(=O)(=O)[O-])cc6F)c6nc(c(-c7c(F)cc(S(=O)(=O)[O-])cc7F)c7ccc4[nH]7)C=C6)C=C5)cc3)o2)c(C)c1C
REMARK SMILES IDX 16 1 15 2 14 3 13 4 12 5 10 6 11 7 9 9 6 10 7 11 88 12 8 13
REMARK SMILES IDX 5 14 4 15 1 16 2 17 3 18 91 19 89 20 92 21 90 22 17 23 18 24
REMARK SMILES IDX 19 25 20 26 21 28 22 29 23 30 87 31 24 32 86 33 25 34 26 35
REMARK SMILES IDX 27 36 80 37 28 38 85 39 79 40 81 41 29 42 84 43 78 44 77 45
REMARK SMILES IDX 30 47 64 48 43 49 63 50 44 51 47 52 62 53 82 54 45 55 46 56
REMARK SMILES IDX 61 58 83 59 48 60 31 61 32 62 41 63 33 64 34 65 40 66 42 67
REMARK SMILES IDX 35 68 36 69 37 70 38 71 39 72 65 73 66 74 75 75 67 76 68 77
REMARK SMILES IDX 74 78 76 79 69 80 70 81 71 82 72 83 73 84 49 85 50 86 59 87
REMARK SMILES IDX 51 88 52 89 58 90 60 91 53 92 54 93 55 94 56 95 57 96
REMARK H PARENT 12 8 19 27 81 46 47 57
REMARK Flexibility Score: inf
ROOT
ATOM      1  C   UNL A   1      37.726  23.514  25.908  1.00  0.00     0.002 C 
ENDROOT
BRANCH   1   2
ATOM      2  C   UNL A   1      36.209  23.258  25.927  1.00  0.00     0.002 C 
BRANCH   2   3
ATOM      3  C   UNL A   1      35.765  21.791  25.905  1.00  0.00     0.021 C 
BRANCH   3   4
ATOM      4  C   UNL A   1      34.561  21.465  26.788  1.00  0.00     0.116 C 
BRANCH   4   5
ATOM      5  N   UNL A   1      33.723  20.435  26.203  1.00  0.00    -0.349 N 
ATOM      6  C   UNL A   1      32.594  20.495  25.421  1.00  0.00     0.286 C 
ATOM      7  O   UNL A   1      32.123  19.405  25.082  1.00  0.00    -0.266 OA
ATOM      8  H   UNL A   1      34.020  19.518  26.404  1.00  0.00     0.163 HD
BRANCH   6   9
ATOM      9  C   UNL A   1      32.004  21.750  24.996  1.00  0.00     0.191 A 
ATOM     10  C   UNL A   1      30.896  23.658  25.156  1.00  0.00     0.126 A 
ATOM     11  C   UNL A   1      31.316  23.562  23.846  1.00  0.00     0.048 A 
ATOM     12  O   UNL A   1      31.331  22.572  25.856  1.00  0.00    -0.454 OA
ATOM     13  C   UNL A   1      32.024  22.343  23.743  1.00  0.00     0.056 A 
BRANCH  10  14
ATOM     14  C   UNL A   1      30.148  24.691  25.920  1.00  0.00     0.219 C 
BRANCH  14  15
ATOM     15  N   UNL A   1      30.762  26.010  25.822  1.00  0.00    -0.262 N 
ATOM     16  C   UNL A   1      32.991  28.388  27.212  1.00  0.00     0.069 C 
ATOM     17  C   UNL A   1      31.980  27.641  26.424  1.00  0.00     0.063 A 
ATOM     18  N   UNL A   1      31.603  26.413  26.801  1.00  0.00    -0.177 NA
ATOM     19  C   UNL A   1      31.287  28.075  25.263  1.00  0.00    -0.007 A 
ATOM     20  C   UNL A   1      30.492  26.999  24.906  1.00  0.00     0.039 A 
ATOM     21  C   UNL A   1      31.392  29.392  24.582  1.00  0.00     0.048 C 
ATOM     22  C   UNL A   1      29.534  26.848  23.780  1.00  0.00     0.066 C 
ENDBRANCH  14  15
ENDBRANCH  10  14
ENDBRANCH   6   9
ENDBRANCH   4   5
ENDBRANCH   3   4
ENDBRANCH   2   3
ENDBRANCH   1   2
BRANCH   1  23
ATOM     23  C   UNL A   1      38.640  22.285  25.796  1.00  0.00     0.021 C 
BRANCH  23  24
ATOM     24  C   UNL A   1      39.775  22.266  26.804  1.00  0.00     0.116 C 
BRANCH  24  25
ATOM     25  N   UNL A   1      41.087  21.996  26.198  1.00  0.00    -0.352 N 
ATOM     26  C   UNL A   1      42.030  22.915  25.764  1.00  0.00     0.251 C 
ATOM     27  H   UNL A   1      41.324  21.047  26.087  1.00  0.00     0.163 HD
ATOM     28  O   UNL A   1      42.904  22.596  24.958  1.00  0.00    -0.269 OA
BRANCH  26  29
ATOM     29  C   UNL A   1      41.973  24.280  26.311  1.00  0.00     0.039 A 
ATOM     30  C   UNL A   1      41.225  25.318  25.745  1.00  0.00     0.014 A 
ATOM     31  C   UNL A   1      42.680  24.480  27.486  1.00  0.00     0.014 A 
ATOM     32  C   UNL A   1      41.164  26.539  26.421  1.00  0.00     0.010 A 
ATOM     33  C   UNL A   1      42.375  25.544  28.273  1.00  0.00     0.010 A 
ATOM     34  C   UNL A   1      41.748  26.633  27.691  1.00  0.00    -0.014 A 
BRANCH  34  35
ATOM     35  C   UNL A   1      41.734  27.838  28.505  1.00  0.00     0.031 A 
ATOM     36  C   UNL A   1      42.846  28.783  28.233  1.00  0.00     0.074 A 
ATOM     37  C   UNL A   1      40.614  28.185  29.183  1.00  0.00     0.049 A 
ATOM     38  N   UNL A   1      43.817  29.113  29.016  1.00  0.00    -0.248 NA
ATOM     39  C   UNL A   1      42.990  29.305  26.863  1.00  0.00     0.031 C 
ATOM     40  C   UNL A   1      39.314  27.491  29.225  1.00  0.00     0.029 A 
ATOM     41  N   UNL A   1      40.350  29.324  29.872  1.00  0.00    -0.354 N 
ATOM     42  C   UNL A   1      44.549  30.077  28.327  1.00  0.00     0.074 A 
ATOM     43  C   UNL A   1      44.141  29.974  26.951  1.00  0.00     0.031 C 
ATOM     44  C   UNL A   1      38.359  28.331  29.679  1.00  0.00     0.029 A 
ATOM     45  C   UNL A   1      38.998  29.549  30.131  1.00  0.00     0.049 A 
ATOM     46  H   UNL A   1      41.056  29.943  30.167  1.00  0.00     0.167 HD
ATOM     47  C   UNL A   1      45.228  31.057  28.986  1.00  0.00     0.037 A 
ATOM     48  C   UNL A   1      38.458  30.684  30.645  1.00  0.00     0.037 A 
ATOM     49  C   UNL A   1      45.321  30.757  30.396  1.00  0.00     0.049 A 
ATOM     50  C   UNL A   1      39.574  31.419  31.304  1.00  0.00     0.074 A 
ATOM     51  C   UNL A   1      45.861  29.721  31.133  1.00  0.00     0.029 A 
ATOM     52  N   UNL A   1      44.441  31.396  31.238  1.00  0.00    -0.354 N 
ATOM     53  N   UNL A   1      40.224  30.962  32.343  1.00  0.00    -0.248 NA
ATOM     54  C   UNL A   1      40.294  32.399  30.505  1.00  0.00     0.031 C 
ATOM     55  C   UNL A   1      44.924  29.493  32.184  1.00  0.00     0.029 A 
ATOM     56  C   UNL A   1      43.913  30.450  32.080  1.00  0.00     0.049 A 
ATOM     57  H   UNL A   1      44.228  32.358  31.237  1.00  0.00     0.167 HD
ATOM     58  C   UNL A   1      41.557  31.265  32.097  1.00  0.00     0.074 A 
ATOM     59  C   UNL A   1      41.529  32.210  30.981  1.00  0.00     0.031 C 
ATOM     60  C   UNL A   1      42.568  30.500  32.614  1.00  0.00     0.037 A 
BRANCH  47  61
ATOM     61  C   UNL A   1      45.480  32.450  28.455  1.00  0.00     0.058 A 
ATOM     62  C   UNL A   1      46.806  32.929  28.395  1.00  0.00     0.135 A 
ATOM     63  C   UNL A   1      44.476  33.428  28.270  1.00  0.00     0.135 A 
ATOM     64  F   UNL A   1      47.843  32.090  28.549  1.00  0.00    -0.206 F 
ATOM     65  C   UNL A   1      47.109  34.284  28.256  1.00  0.00     0.059 A 
ATOM     66  C   UNL A   1      44.757  34.774  28.072  1.00  0.00     0.059 A 
ATOM     67  F   UNL A   1      43.172  33.148  28.370  1.00  0.00    -0.206 F 
ATOM     68  C   UNL A   1      46.072  35.201  28.115  1.00  0.00     0.060 A 
BRANCH  68  69
ATOM     69  S   UNL A   1      46.449  36.960  28.062  1.00  0.00     0.124 S 
ATOM     70  O   UNL A   1      46.116  37.287  26.681  1.00  0.00    -0.237 OA
ATOM     71  O   UNL A   1      45.551  37.492  29.081  1.00  0.00    -0.237 OA
ATOM     72  O   UNL A   1      47.869  37.008  28.399  1.00  0.00    -0.744 OA
ENDBRANCH  68  69
ENDBRANCH  47  61
BRANCH  48  73
ATOM     73  C   UNL A   1      37.170  31.327  30.264  1.00  0.00     0.058 A 
ATOM     74  C   UNL A   1      36.337  31.934  31.220  1.00  0.00     0.135 A 
ATOM     75  C   UNL A   1      36.862  31.603  28.915  1.00  0.00     0.135 A 
ATOM     76  F   UNL A   1      36.569  31.746  32.528  1.00  0.00    -0.206 F 
ATOM     77  C   UNL A   1      35.290  32.795  30.864  1.00  0.00     0.059 A 
ATOM     78  C   UNL A   1      35.821  32.451  28.535  1.00  0.00     0.059 A 
ATOM     79  F   UNL A   1      37.628  31.126  27.921  1.00  0.00    -0.206 F 
ATOM     80  C   UNL A   1      35.053  33.065  29.516  1.00  0.00     0.060 A 
BRANCH  80  81
ATOM     81  S   UNL A   1      33.826  34.312  29.053  1.00  0.00     0.124 S 
ATOM     82  O   UNL A   1      33.156  34.564  30.325  1.00  0.00    -0.237 OA
ATOM     83  O   UNL A   1      34.661  35.395  28.546  1.00  0.00    -0.237 OA
ATOM     84  O   UNL A   1      33.016  33.634  28.044  1.00  0.00    -0.744 OA
ENDBRANCH  80  81
ENDBRANCH  48  73
BRANCH  60  85
ATOM     85  C   UNL A   1      42.225  29.474  33.669  1.00  0.00     0.058 A 
ATOM     86  C   UNL A   1      41.785  28.166  33.398  1.00  0.00     0.135 A 
ATOM     87  C   UNL A   1      42.522  29.778  35.005  1.00  0.00     0.135 A 
ATOM     88  F   UNL A   1      41.579  27.753  32.141  1.00  0.00    -0.206 F 
ATOM     89  C   UNL A   1      41.609  27.218  34.410  1.00  0.00     0.059 A 
ATOM     90  C   UNL A   1      42.385  28.843  36.027  1.00  0.00     0.059 A 
ATOM     91  F   UNL A   1      43.010  30.989  35.323  1.00  0.00    -0.206 F 
ATOM     92  C   UNL A   1      41.914  27.568  35.725  1.00  0.00     0.060 A 
BRANCH  92  93
ATOM     93  S   UNL A   1      41.750  26.327  37.026  1.00  0.00     0.124 S 
ATOM     94  O   UNL A   1      42.891  26.629  37.884  1.00  0.00    -0.237 OA
ATOM     95  O   UNL A   1      40.437  26.627  37.590  1.00  0.00    -0.237 OA
ATOM     96  O   UNL A   1      41.832  25.060  36.302  1.00  0.00    -0.744 OA
ENDBRANCH  92  93
ENDBRANCH  60  85
ENDBRANCH  34  35
ENDBRANCH  26  29
ENDBRANCH  24  25
ENDBRANCH  23  24
ENDBRANCH   1  23
TORSDOF 18
ENDMDL
