MODEL 1
REMARK VINA RESULT:     -10.9      0.000      0.000
REMARK SMILES Cn1cc2cc(C(=O)NCCCCCCNC(=O)c3ccc(-c4c5nc(c(-c6c(F)cc(S(=O)(=O)[O-])cc6F)c6ccc([nH]6)c(-c6c(F)cc(S(=O)(=O)[O-])cc6F)c6nc(c(-c7c(F)cc(S(=O)(=O)[O-])cc7F)c7ccc4[nH]7)C=C6)C=C5)cc3)ccc2n1
REMARK SMILES IDX 14 1 13 2 12 3 11 4 10 5 9 6 7 7 8 8 6 10 1 11 2 12 3 13
REMARK SMILES IDX 88 14 4 15 87 16 5 17 86 18 85 19 15 20 16 21 17 22 18 24
REMARK SMILES IDX 19 25 20 26 84 27 21 28 83 29 22 30 23 31 24 32 77 33 25 34
REMARK SMILES IDX 82 35 76 36 78 37 26 38 81 39 75 40 74 41 27 43 61 44 40 45
REMARK SMILES IDX 60 46 41 47 44 48 59 49 79 50 42 51 43 52 58 54 80 55 45 56
REMARK SMILES IDX 28 57 29 58 38 59 30 60 31 61 37 62 39 63 32 64 33 65 34 66
REMARK SMILES IDX 35 67 36 68 62 69 63 70 72 71 64 72 65 73 71 74 73 75 66 76
REMARK SMILES IDX 67 77 68 78 69 79 70 80 46 81 47 82 56 83 48 84 49 85 55 86
REMARK SMILES IDX 57 87 50 88 51 89 52 90 53 91 54 92
REMARK H PARENT 9 9 16 23 78 42 44 53
REMARK Flexibility Score: inf
ROOT
ATOM      1  C   UNL A   1      33.828  28.232  25.420  1.00  0.00     0.021 C 
ENDROOT
BRANCH   1   2
ATOM      2  C   UNL A   1      33.522  26.823  24.904  1.00  0.00     0.002 C 
BRANCH   2   3
ATOM      3  C   UNL A   1      32.081  26.614  24.421  1.00  0.00     0.002 C 
BRANCH   3   4
ATOM      4  C   UNL A   1      31.011  26.754  25.514  1.00  0.00     0.021 C 
BRANCH   4   5
ATOM      5  C   UNL A   1      29.803  25.841  25.289  1.00  0.00     0.116 C 
BRANCH   5   6
ATOM      6  N   UNL A   1      29.749  24.835  26.330  1.00  0.00    -0.352 N 
ATOM      7  C   UNL A   1      30.494  23.722  26.616  1.00  0.00     0.251 C 
ATOM      8  O   UNL A   1      30.128  23.057  27.588  1.00  0.00    -0.269 OA
ATOM      9  H   UNL A   1      29.018  24.984  26.973  1.00  0.00     0.163 HD
BRANCH   7  10
ATOM     10  C   UNL A   1      31.725  23.298  25.875  1.00  0.00     0.040 A 
ATOM     11  C   UNL A   1      37.488  22.323  25.295  1.00  0.00     0.173 C 
ATOM     12  N   UNL A   1      36.070  22.586  25.300  1.00  0.00    -0.275 N 
ATOM     13  C   UNL A   1      35.338  23.096  26.334  1.00  0.00     0.117 A 
ATOM     14  N   UNL A   1      35.345  22.275  24.204  1.00  0.00    -0.173 NA
ATOM     15  C   UNL A   1      34.051  23.088  25.877  1.00  0.00     0.021 A 
ATOM     16  C   UNL A   1      34.075  22.544  24.547  1.00  0.00     0.092 A 
ATOM     17  C   UNL A   1      32.934  23.495  26.596  1.00  0.00     0.025 A 
ATOM     18  C   UNL A   1      32.884  22.351  23.838  1.00  0.00     0.032 A 
ATOM     19  C   UNL A   1      31.718  22.703  24.568  1.00  0.00     0.016 A 
ENDBRANCH   7  10
ENDBRANCH   5   6
ENDBRANCH   4   5
ENDBRANCH   3   4
ENDBRANCH   2   3
ENDBRANCH   1   2
BRANCH   1  20
ATOM     20  C   UNL A   1      33.808  28.352  26.940  1.00  0.00     0.116 C 
BRANCH  20  21
ATOM     21  N   UNL A   1      33.659  29.735  27.363  1.00  0.00    -0.352 N 
ATOM     22  C   UNL A   1      34.511  30.508  28.112  1.00  0.00     0.251 C 
ATOM     23  H   UNL A   1      32.831  30.181  27.069  1.00  0.00     0.163 HD
ATOM     24  O   UNL A   1      34.119  31.566  28.593  1.00  0.00    -0.269 OA
BRANCH  22  25
ATOM     25  C   UNL A   1      35.897  30.051  28.341  1.00  0.00     0.039 A 
ATOM     26  C   UNL A   1      36.813  30.099  27.289  1.00  0.00     0.014 A 
ATOM     27  C   UNL A   1      36.287  29.572  29.596  1.00  0.00     0.014 A 
ATOM     28  C   UNL A   1      38.136  29.713  27.510  1.00  0.00     0.010 A 
ATOM     29  C   UNL A   1      37.622  29.261  29.833  1.00  0.00     0.010 A 
ATOM     30  C   UNL A   1      38.559  29.320  28.792  1.00  0.00    -0.014 A 
BRANCH  30  31
ATOM     31  C   UNL A   1      39.975  28.964  29.062  1.00  0.00     0.031 A 
ATOM     32  C   UNL A   1      40.914  29.992  29.634  1.00  0.00     0.074 A 
ATOM     33  C   UNL A   1      40.427  27.739  28.733  1.00  0.00     0.049 A 
ATOM     34  N   UNL A   1      42.196  29.895  29.875  1.00  0.00    -0.248 NA
ATOM     35  C   UNL A   1      40.344  31.313  29.948  1.00  0.00     0.031 C 
ATOM     36  C   UNL A   1      39.622  26.675  28.128  1.00  0.00     0.029 A 
ATOM     37  N   UNL A   1      41.676  27.183  28.848  1.00  0.00    -0.354 N 
ATOM     38  C   UNL A   1      42.587  31.139  30.356  1.00  0.00     0.074 A 
ATOM     39  C   UNL A   1      41.420  31.992  30.318  1.00  0.00     0.031 C 
ATOM     40  C   UNL A   1      40.391  25.589  27.947  1.00  0.00     0.029 A 
ATOM     41  C   UNL A   1      41.750  25.891  28.383  1.00  0.00     0.049 A 
ATOM     42  H   UNL A   1      42.447  27.664  29.229  1.00  0.00     0.167 HD
ATOM     43  C   UNL A   1      43.803  31.527  30.810  1.00  0.00     0.037 A 
ATOM     44  C   UNL A   1      42.798  25.047  28.307  1.00  0.00     0.037 A 
ATOM     45  C   UNL A   1      44.954  30.663  30.862  1.00  0.00     0.049 A 
ATOM     46  C   UNL A   1      44.141  25.503  28.811  1.00  0.00     0.074 A 
ATOM     47  C   UNL A   1      46.216  30.941  31.355  1.00  0.00     0.029 A 
ATOM     48  N   UNL A   1      44.985  29.355  30.400  1.00  0.00    -0.354 N 
ATOM     49  N   UNL A   1      44.479  26.663  29.324  1.00  0.00    -0.248 NA
ATOM     50  C   UNL A   1      45.245  24.536  28.734  1.00  0.00     0.031 C 
ATOM     51  C   UNL A   1      47.024  29.820  31.145  1.00  0.00     0.029 A 
ATOM     52  C   UNL A   1      46.251  28.820  30.575  1.00  0.00     0.049 A 
ATOM     53  H   UNL A   1      44.220  28.877  30.005  1.00  0.00     0.167 HD
ATOM     54  C   UNL A   1      45.823  26.553  29.661  1.00  0.00     0.074 A 
ATOM     55  C   UNL A   1      46.235  25.211  29.301  1.00  0.00     0.031 C 
ATOM     56  C   UNL A   1      46.642  27.478  30.220  1.00  0.00     0.037 A 
BRANCH  43  57
ATOM     57  C   UNL A   1      43.950  32.948  31.287  1.00  0.00     0.058 A 
ATOM     58  C   UNL A   1      44.251  33.998  30.403  1.00  0.00     0.135 A 
ATOM     59  C   UNL A   1      43.755  33.270  32.640  1.00  0.00     0.135 A 
ATOM     60  F   UNL A   1      44.461  33.747  29.101  1.00  0.00    -0.206 F 
ATOM     61  C   UNL A   1      44.386  35.308  30.849  1.00  0.00     0.059 A 
ATOM     62  C   UNL A   1      43.854  34.579  33.103  1.00  0.00     0.059 A 
ATOM     63  F   UNL A   1      43.466  32.307  33.530  1.00  0.00    -0.206 F 
ATOM     64  C   UNL A   1      44.186  35.589  32.201  1.00  0.00     0.060 A 
BRANCH  64  65
ATOM     65  S   UNL A   1      44.364  37.296  32.761  1.00  0.00     0.124 S 
ATOM     66  O   UNL A   1      43.209  37.435  33.641  1.00  0.00    -0.237 OA
ATOM     67  O   UNL A   1      45.665  37.274  33.421  1.00  0.00    -0.237 OA
ATOM     68  O   UNL A   1      44.306  38.068  31.523  1.00  0.00    -0.744 OA
ENDBRANCH  64  65
ENDBRANCH  43  57
BRANCH  44  69
ATOM     69  C   UNL A   1      42.611  23.680  27.751  1.00  0.00     0.058 A 
ATOM     70  C   UNL A   1      42.633  23.453  26.367  1.00  0.00     0.135 A 
ATOM     71  C   UNL A   1      42.426  22.570  28.591  1.00  0.00     0.135 A 
ATOM     72  F   UNL A   1      42.800  24.483  25.522  1.00  0.00    -0.206 F 
ATOM     73  C   UNL A   1      42.463  22.181  25.833  1.00  0.00     0.059 A 
ATOM     74  C   UNL A   1      42.282  21.283  28.083  1.00  0.00     0.059 A 
ATOM     75  F   UNL A   1      42.416  22.729  29.924  1.00  0.00    -0.206 F 
ATOM     76  C   UNL A   1      42.292  21.100  26.700  1.00  0.00     0.060 A 
BRANCH  76  77
ATOM     77  S   UNL A   1      42.124  19.444  25.997  1.00  0.00     0.124 S 
ATOM     78  O   UNL A   1      40.688  19.373  25.756  1.00  0.00    -0.237 OA
ATOM     79  O   UNL A   1      42.969  19.529  24.811  1.00  0.00    -0.237 OA
ATOM     80  O   UNL A   1      42.630  18.577  27.058  1.00  0.00    -0.744 OA
ENDBRANCH  76  77
ENDBRANCH  44  69
BRANCH  56  81
ATOM     81  C   UNL A   1      48.056  27.064  30.522  1.00  0.00     0.058 A 
ATOM     82  C   UNL A   1      49.103  27.281  29.613  1.00  0.00     0.135 A 
ATOM     83  C   UNL A   1      48.376  26.498  31.768  1.00  0.00     0.135 A 
ATOM     84  F   UNL A   1      48.852  27.811  28.406  1.00  0.00    -0.206 F 
ATOM     85  C   UNL A   1      50.415  26.932  29.919  1.00  0.00     0.059 A 
ATOM     86  C   UNL A   1      49.685  26.169  32.107  1.00  0.00     0.059 A 
ATOM     87  F   UNL A   1      47.414  26.279  32.678  1.00  0.00    -0.206 F 
ATOM     88  C   UNL A   1      50.696  26.381  31.172  1.00  0.00     0.060 A 
BRANCH  88  89
ATOM     89  S   UNL A   1      52.408  25.972  31.571  1.00  0.00     0.124 S 
ATOM     90  O   UNL A   1      53.057  26.120  30.272  1.00  0.00    -0.237 OA
ATOM     91  O   UNL A   1      52.746  26.982  32.568  1.00  0.00    -0.237 OA
ATOM     92  O   UNL A   1      52.322  24.604  32.076  1.00  0.00    -0.744 OA
ENDBRANCH  88  89
ENDBRANCH  56  81
ENDBRANCH  30  31
ENDBRANCH  22  25
ENDBRANCH  20  21
ENDBRANCH   1  20
TORSDOF 16
ENDMDL
MODEL 2
REMARK VINA RESULT:     -10.8      1.426      2.133
REMARK SMILES Cn1cc2cc(C(=O)NCCCCCCNC(=O)c3ccc(-c4c5nc(c(-c6c(F)cc(S(=O)(=O)[O-])cc6F)c6ccc([nH]6)c(-c6c(F)cc(S(=O)(=O)[O-])cc6F)c6nc(c(-c7c(F)cc(S(=O)(=O)[O-])cc7F)c7ccc4[nH]7)C=C6)C=C5)cc3)ccc2n1
REMARK SMILES IDX 14 1 13 2 12 3 11 4 10 5 9 6 7 7 8 8 6 10 1 11 2 12 3 13
REMARK SMILES IDX 88 14 4 15 87 16 5 17 86 18 85 19 15 20 16 21 17 22 18 24
REMARK SMILES IDX 19 25 20 26 84 27 21 28 83 29 22 30 23 31 24 32 77 33 25 34
REMARK SMILES IDX 82 35 76 36 78 37 26 38 81 39 75 40 74 41 27 43 61 44 40 45
REMARK SMILES IDX 60 46 41 47 44 48 59 49 79 50 42 51 43 52 58 54 80 55 45 56
REMARK SMILES IDX 28 57 29 58 38 59 30 60 31 61 37 62 39 63 32 64 33 65 34 66
REMARK SMILES IDX 35 67 36 68 62 69 63 70 72 71 64 72 65 73 71 74 73 75 66 76
REMARK SMILES IDX 67 77 68 78 69 79 70 80 46 81 47 82 56 83 48 84 49 85 55 86
REMARK SMILES IDX 57 87 50 88 51 89 52 90 53 91 54 92
REMARK H PARENT 9 9 16 23 78 42 44 53
REMARK Flexibility Score: inf
ROOT
ATOM      1  C   UNL A   1      32.464  27.720  26.412  1.00  0.00     0.021 C 
ENDROOT
BRANCH   1   2
ATOM      2  C   UNL A   1      31.696  28.756  25.586  1.00  0.00     0.002 C 
BRANCH   2   3
ATOM      3  C   UNL A   1      30.767  28.164  24.518  1.00  0.00     0.002 C 
BRANCH   3   4
ATOM      4  C   UNL A   1      31.098  28.581  23.077  1.00  0.00     0.021 C 
BRANCH   4   5
ATOM      5  C   UNL A   1      32.603  28.628  22.800  1.00  0.00     0.116 C 
BRANCH   5   6
ATOM      6  N   UNL A   1      32.941  27.667  21.770  1.00  0.00    -0.352 N 
ATOM      7  C   UNL A   1      32.975  26.300  21.719  1.00  0.00     0.251 C 
ATOM      8  O   UNL A   1      33.359  25.803  20.657  1.00  0.00    -0.269 OA
ATOM      9  H   UNL A   1      33.201  28.090  20.919  1.00  0.00     0.163 HD
BRANCH   7  10
ATOM     10  C   UNL A   1      32.539  25.387  22.825  1.00  0.00     0.040 A 
ATOM     11  C   UNL A   1      33.229  22.484  27.883  1.00  0.00     0.173 C 
ATOM     12  N   UNL A   1      32.972  23.095  26.602  1.00  0.00    -0.275 N 
ATOM     13  C   UNL A   1      33.824  23.892  25.894  1.00  0.00     0.117 A 
ATOM     14  N   UNL A   1      31.764  22.919  26.026  1.00  0.00    -0.173 NA
ATOM     15  C   UNL A   1      33.102  24.274  24.798  1.00  0.00     0.021 A 
ATOM     16  C   UNL A   1      31.803  23.672  24.915  1.00  0.00     0.092 A 
ATOM     17  C   UNL A   1      33.546  25.120  23.791  1.00  0.00     0.025 A 
ATOM     18  C   UNL A   1      30.811  23.935  23.963  1.00  0.00     0.032 A 
ATOM     19  C   UNL A   1      31.215  24.844  22.950  1.00  0.00     0.016 A 
ENDBRANCH   7  10
ENDBRANCH   5   6
ENDBRANCH   4   5
ENDBRANCH   3   4
ENDBRANCH   2   3
ENDBRANCH   1   2
BRANCH   1  20
ATOM     20  C   UNL A   1      33.738  28.261  27.052  1.00  0.00     0.116 C 
BRANCH  20  21
ATOM     21  N   UNL A   1      33.603  29.667  27.400  1.00  0.00    -0.352 N 
ATOM     22  C   UNL A   1      34.473  30.475  28.089  1.00  0.00     0.251 C 
ATOM     23  H   UNL A   1      32.771  30.099  27.100  1.00  0.00     0.163 HD
ATOM     24  O   UNL A   1      34.095  31.560  28.518  1.00  0.00    -0.269 OA
BRANCH  22  25
ATOM     25  C   UNL A   1      35.863  30.025  28.314  1.00  0.00     0.039 A 
ATOM     26  C   UNL A   1      36.787  30.118  27.271  1.00  0.00     0.014 A 
ATOM     27  C   UNL A   1      36.247  29.508  29.554  1.00  0.00     0.014 A 
ATOM     28  C   UNL A   1      38.112  29.738  27.490  1.00  0.00     0.010 A 
ATOM     29  C   UNL A   1      37.583  29.204  29.793  1.00  0.00     0.010 A 
ATOM     30  C   UNL A   1      38.528  29.307  28.762  1.00  0.00    -0.014 A 
BRANCH  30  31
ATOM     31  C   UNL A   1      39.945  28.957  29.032  1.00  0.00     0.031 A 
ATOM     32  C   UNL A   1      40.881  29.988  29.604  1.00  0.00     0.074 A 
ATOM     33  C   UNL A   1      40.403  27.733  28.703  1.00  0.00     0.049 A 
ATOM     34  N   UNL A   1      42.163  29.896  29.846  1.00  0.00    -0.248 NA
ATOM     35  C   UNL A   1      40.305  31.307  29.919  1.00  0.00     0.031 C 
ATOM     36  C   UNL A   1      39.602  26.667  28.098  1.00  0.00     0.029 A 
ATOM     37  N   UNL A   1      41.653  27.183  28.818  1.00  0.00    -0.354 N 
ATOM     38  C   UNL A   1      42.548  31.142  30.327  1.00  0.00     0.074 A 
ATOM     39  C   UNL A   1      41.378  31.990  30.289  1.00  0.00     0.031 C 
ATOM     40  C   UNL A   1      40.375  25.584  27.917  1.00  0.00     0.029 A 
ATOM     41  C   UNL A   1      41.733  25.891  28.353  1.00  0.00     0.049 A 
ATOM     42  H   UNL A   1      42.422  27.666  29.199  1.00  0.00     0.167 HD
ATOM     43  C   UNL A   1      43.763  31.535  30.781  1.00  0.00     0.037 A 
ATOM     44  C   UNL A   1      42.785  25.051  28.276  1.00  0.00     0.037 A 
ATOM     45  C   UNL A   1      44.917  30.675  30.833  1.00  0.00     0.049 A 
ATOM     46  C   UNL A   1      44.125  25.512  28.781  1.00  0.00     0.074 A 
ATOM     47  C   UNL A   1      46.179  30.959  31.327  1.00  0.00     0.029 A 
ATOM     48  N   UNL A   1      44.953  29.367  30.371  1.00  0.00    -0.354 N 
ATOM     49  N   UNL A   1      44.458  26.674  29.294  1.00  0.00    -0.248 NA
ATOM     50  C   UNL A   1      45.233  24.550  28.703  1.00  0.00     0.031 C 
ATOM     51  C   UNL A   1      46.991  29.841  31.116  1.00  0.00     0.029 A 
ATOM     52  C   UNL A   1      46.221  28.838  30.546  1.00  0.00     0.049 A 
ATOM     53  H   UNL A   1      44.190  28.887  29.976  1.00  0.00     0.167 HD
ATOM     54  C   UNL A   1      45.803  26.569  29.631  1.00  0.00     0.074 A 
ATOM     55  C   UNL A   1      46.220  25.229  29.270  1.00  0.00     0.031 C 
ATOM     56  C   UNL A   1      46.618  27.498  30.191  1.00  0.00     0.037 A 
BRANCH  43  57
ATOM     57  C   UNL A   1      43.904  32.956  31.259  1.00  0.00     0.058 A 
ATOM     58  C   UNL A   1      43.669  33.313  32.597  1.00  0.00     0.135 A 
ATOM     59  C   UNL A   1      44.313  33.968  30.376  1.00  0.00     0.135 A 
ATOM     60  F   UNL A   1      43.262  32.390  33.482  1.00  0.00    -0.206 F 
ATOM     61  C   UNL A   1      43.800  34.627  33.034  1.00  0.00     0.059 A 
ATOM     62  C   UNL A   1      44.482  35.284  30.798  1.00  0.00     0.059 A 
ATOM     63  F   UNL A   1      44.553  33.685  29.086  1.00  0.00    -0.206 F 
ATOM     64  C   UNL A   1      44.207  35.606  32.127  1.00  0.00     0.060 A 
BRANCH  64  65
ATOM     65  S   UNL A   1      44.375  37.305  32.712  1.00  0.00     0.124 S 
ATOM     66  O   UNL A   1      45.743  37.305  33.220  1.00  0.00    -0.237 OA
ATOM     67  O   UNL A   1      44.150  38.078  31.495  1.00  0.00    -0.237 OA
ATOM     68  O   UNL A   1      43.330  37.421  33.725  1.00  0.00    -0.744 OA
ENDBRANCH  64  65
ENDBRANCH  43  57
BRANCH  44  69
ATOM     69  C   UNL A   1      42.603  23.684  27.721  1.00  0.00     0.058 A 
ATOM     70  C   UNL A   1      42.649  23.454  26.337  1.00  0.00     0.135 A 
ATOM     71  C   UNL A   1      42.400  22.576  28.559  1.00  0.00     0.135 A 
ATOM     72  F   UNL A   1      42.833  24.481  25.493  1.00  0.00    -0.206 F 
ATOM     73  C   UNL A   1      42.484  22.180  25.804  1.00  0.00     0.059 A 
ATOM     74  C   UNL A   1      42.261  21.289  28.051  1.00  0.00     0.059 A 
ATOM     75  F   UNL A   1      42.367  22.738  29.892  1.00  0.00    -0.206 F 
ATOM     76  C   UNL A   1      42.295  21.102  26.669  1.00  0.00     0.060 A 
BRANCH  76  77
ATOM     77  S   UNL A   1      42.133  19.446  25.967  1.00  0.00     0.124 S 
ATOM     78  O   UNL A   1      40.695  19.359  25.746  1.00  0.00    -0.237 OA
ATOM     79  O   UNL A   1      42.960  19.541  24.769  1.00  0.00    -0.237 OA
ATOM     80  O   UNL A   1      42.663  18.583  27.019  1.00  0.00    -0.744 OA
ENDBRANCH  76  77
ENDBRANCH  44  69
BRANCH  56  81
ATOM     81  C   UNL A   1      48.034  27.089  30.493  1.00  0.00     0.058 A 
ATOM     82  C   UNL A   1      49.092  27.380  29.619  1.00  0.00     0.135 A 
ATOM     83  C   UNL A   1      48.342  26.452  31.706  1.00  0.00     0.135 A 
ATOM     84  F   UNL A   1      48.853  27.981  28.442  1.00  0.00    -0.206 F 
ATOM     85  C   UNL A   1      50.405  27.034  29.927  1.00  0.00     0.059 A 
ATOM     86  C   UNL A   1      49.651  26.124  32.048  1.00  0.00     0.059 A 
ATOM     87  F   UNL A   1      47.368  26.159  32.583  1.00  0.00    -0.206 F 
ATOM     88  C   UNL A   1      50.674  26.411  31.147  1.00  0.00     0.060 A 
BRANCH  88  89
ATOM     89  S   UNL A   1      52.386  26.006  31.552  1.00  0.00     0.124 S 
ATOM     90  O   UNL A   1      52.251  24.655  32.086  1.00  0.00    -0.237 OA
ATOM     91  O   UNL A   1      53.047  26.113  30.255  1.00  0.00    -0.237 OA
ATOM     92  O   UNL A   1      52.757  27.031  32.525  1.00  0.00    -0.744 OA
ENDBRANCH  88  89
ENDBRANCH  56  81
ENDBRANCH  30  31
ENDBRANCH  22  25
ENDBRANCH  20  21
ENDBRANCH   1  20
TORSDOF 16
ENDMDL
MODEL 3
REMARK VINA RESULT:     -10.6      3.179      5.623
REMARK SMILES Cn1cc2cc(C(=O)NCCCCCCNC(=O)c3ccc(-c4c5nc(c(-c6c(F)cc(S(=O)(=O)[O-])cc6F)c6ccc([nH]6)c(-c6c(F)cc(S(=O)(=O)[O-])cc6F)c6nc(c(-c7c(F)cc(S(=O)(=O)[O-])cc7F)c7ccc4[nH]7)C=C6)C=C5)cc3)ccc2n1
REMARK SMILES IDX 14 1 13 2 12 3 11 4 10 5 9 6 7 7 8 8 6 10 1 11 2 12 3 13
REMARK SMILES IDX 88 14 4 15 87 16 5 17 86 18 85 19 15 20 16 21 17 22 18 24
REMARK SMILES IDX 19 25 20 26 84 27 21 28 83 29 22 30 23 31 24 32 77 33 25 34
REMARK SMILES IDX 82 35 76 36 78 37 26 38 81 39 75 40 74 41 27 43 61 44 40 45
REMARK SMILES IDX 60 46 41 47 44 48 59 49 79 50 42 51 43 52 58 54 80 55 45 56
REMARK SMILES IDX 28 57 29 58 38 59 30 60 31 61 37 62 39 63 32 64 33 65 34 66
REMARK SMILES IDX 35 67 36 68 62 69 63 70 72 71 64 72 65 73 71 74 73 75 66 76
REMARK SMILES IDX 67 77 68 78 69 79 70 80 46 81 47 82 56 83 48 84 49 85 55 86
REMARK SMILES IDX 57 87 50 88 51 89 52 90 53 91 54 92
REMARK H PARENT 9 9 16 23 78 42 44 53
REMARK Flexibility Score: inf
ROOT
ATOM      1  C   UNL A   1      35.080  32.790  29.441  1.00  0.00     0.021 C 
ENDROOT
BRANCH   1   2
ATOM      2  C   UNL A   1      36.562  33.170  29.496  1.00  0.00     0.002 C 
BRANCH   2   3
ATOM      3  C   UNL A   1      37.215  33.013  30.877  1.00  0.00     0.002 C 
BRANCH   3   4
ATOM      4  C   UNL A   1      36.898  34.142  31.868  1.00  0.00     0.021 C 
BRANCH   4   5
ATOM      5  C   UNL A   1      38.028  34.393  32.870  1.00  0.00     0.116 C 
BRANCH   5   6
ATOM      6  N   UNL A   1      37.647  33.888  34.174  1.00  0.00    -0.352 N 
ATOM      7  C   UNL A   1      37.691  32.655  34.765  1.00  0.00     0.251 C 
ATOM      8  O   UNL A   1      37.233  32.581  35.909  1.00  0.00    -0.269 OA
ATOM      9  H   UNL A   1      37.277  34.584  34.764  1.00  0.00     0.163 HD
BRANCH   7  10
ATOM     10  C   UNL A   1      38.291  31.427  34.151  1.00  0.00     0.040 A 
ATOM     11  C   UNL A   1      42.694  27.764  32.849  1.00  0.00     0.173 C 
ATOM     12  N   UNL A   1      41.551  28.620  33.051  1.00  0.00    -0.275 N 
ATOM     13  C   UNL A   1      41.534  29.816  33.710  1.00  0.00     0.117 A 
ATOM     14  N   UNL A   1      40.347  28.220  32.592  1.00  0.00    -0.173 NA
ATOM     15  C   UNL A   1      40.222  30.196  33.693  1.00  0.00     0.021 A 
ATOM     16  C   UNL A   1      39.491  29.166  33.009  1.00  0.00     0.092 A 
ATOM     17  C   UNL A   1      39.705  31.347  34.273  1.00  0.00     0.025 A 
ATOM     18  C   UNL A   1      38.098  29.245  32.888  1.00  0.00     0.032 A 
ATOM     19  C   UNL A   1      37.531  30.383  33.522  1.00  0.00     0.016 A 
ENDBRANCH   7  10
ENDBRANCH   5   6
ENDBRANCH   4   5
ENDBRANCH   3   4
ENDBRANCH   2   3
ENDBRANCH   1   2
BRANCH   1  20
ATOM     20  C   UNL A   1      34.555  32.550  28.030  1.00  0.00     0.116 C 
BRANCH  20  21
ATOM     21  N   UNL A   1      33.870  31.271  27.927  1.00  0.00    -0.352 N 
ATOM     22  C   UNL A   1      34.403  30.008  27.856  1.00  0.00     0.251 C 
ATOM     23  H   UNL A   1      32.887  31.318  27.906  1.00  0.00     0.163 HD
ATOM     24  O   UNL A   1      33.699  29.063  27.515  1.00  0.00    -0.269 OA
BRANCH  22  25
ATOM     25  C   UNL A   1      35.828  29.799  28.185  1.00  0.00     0.039 A 
ATOM     26  C   UNL A   1      36.176  29.378  29.471  1.00  0.00     0.014 A 
ATOM     27  C   UNL A   1      36.817  30.023  27.223  1.00  0.00     0.014 A 
ATOM     28  C   UNL A   1      37.516  29.134  29.775  1.00  0.00     0.010 A 
ATOM     29  C   UNL A   1      38.141  29.705  27.505  1.00  0.00     0.010 A 
ATOM     30  C   UNL A   1      38.507  29.265  28.786  1.00  0.00    -0.014 A 
BRANCH  30  31
ATOM     31  C   UNL A   1      39.929  28.951  29.072  1.00  0.00     0.031 A 
ATOM     32  C   UNL A   1      40.827  30.000  29.671  1.00  0.00     0.074 A 
ATOM     33  C   UNL A   1      40.426  27.745  28.732  1.00  0.00     0.049 A 
ATOM     34  N   UNL A   1      42.108  29.940  29.930  1.00  0.00    -0.248 NA
ATOM     35  C   UNL A   1      40.210  31.297  29.996  1.00  0.00     0.031 C 
ATOM     36  C   UNL A   1      39.664  26.665  28.101  1.00  0.00     0.029 A 
ATOM     37  N   UNL A   1      41.690  27.228  28.858  1.00  0.00    -0.354 N 
ATOM     38  C   UNL A   1      42.451  31.189  30.434  1.00  0.00     0.074 A 
ATOM     39  C   UNL A   1      41.258  32.005  30.391  1.00  0.00     0.031 C 
ATOM     40  C   UNL A   1      40.469  25.607  27.917  1.00  0.00     0.029 A 
ATOM     41  C   UNL A   1      41.812  25.945  28.377  1.00  0.00     0.049 A 
ATOM     42  H   UNL A   1      42.439  27.728  29.257  1.00  0.00     0.167 HD
ATOM     43  C   UNL A   1      43.648  31.610  30.911  1.00  0.00     0.037 A 
ATOM     44  C   UNL A   1      42.888  25.137  28.304  1.00  0.00     0.037 A 
ATOM     45  C   UNL A   1      44.825  30.782  30.968  1.00  0.00     0.049 A 
ATOM     46  C   UNL A   1      44.208  25.628  28.834  1.00  0.00     0.074 A 
ATOM     47  C   UNL A   1      46.071  31.094  31.483  1.00  0.00     0.029 A 
ATOM     48  N   UNL A   1      44.904  29.482  30.488  1.00  0.00    -0.354 N 
ATOM     49  N   UNL A   1      44.501  26.791  29.368  1.00  0.00    -0.248 NA
ATOM     50  C   UNL A   1      45.343  24.698  28.760  1.00  0.00     0.031 C 
ATOM     51  C   UNL A   1      46.917  30.002  31.269  1.00  0.00     0.029 A 
ATOM     52  C   UNL A   1      46.184  28.986  30.675  1.00  0.00     0.049 A 
ATOM     53  H   UNL A   1      44.161  28.986  30.076  1.00  0.00     0.167 HD
ATOM     54  C   UNL A   1      45.843  26.720  29.723  1.00  0.00     0.074 A 
ATOM     55  C   UNL A   1      46.303  25.397  29.350  1.00  0.00     0.031 C 
ATOM     56  C   UNL A   1      46.624  27.662  30.307  1.00  0.00     0.037 A 
BRANCH  43  57
ATOM     57  C   UNL A   1      43.742  33.027  31.410  1.00  0.00     0.058 A 
ATOM     58  C   UNL A   1      44.010  34.100  30.543  1.00  0.00     0.135 A 
ATOM     59  C   UNL A   1      43.529  33.322  32.766  1.00  0.00     0.135 A 
ATOM     60  F   UNL A   1      44.236  33.877  29.239  1.00  0.00    -0.206 F 
ATOM     61  C   UNL A   1      44.097  35.408  31.009  1.00  0.00     0.059 A 
ATOM     62  C   UNL A   1      43.580  34.626  33.248  1.00  0.00     0.059 A 
ATOM     63  F   UNL A   1      43.269  32.336  33.640  1.00  0.00    -0.206 F 
ATOM     64  C   UNL A   1      43.880  35.661  32.363  1.00  0.00     0.060 A 
BRANCH  64  65
ATOM     65  S   UNL A   1      43.995  37.365  32.949  1.00  0.00     0.124 S 
ATOM     66  O   UNL A   1      42.850  37.440  33.850  1.00  0.00    -0.237 OA
ATOM     67  O   UNL A   1      45.307  37.387  33.588  1.00  0.00    -0.237 OA
ATOM     68  O   UNL A   1      43.884  38.154  31.726  1.00  0.00    -0.744 OA
ENDBRANCH  64  65
ENDBRANCH  43  57
BRANCH  44  69
ATOM     69  C   UNL A   1      42.752  23.773  27.727  1.00  0.00     0.058 A 
ATOM     70  C   UNL A   1      42.897  23.553  26.349  1.00  0.00     0.135 A 
ATOM     71  C   UNL A   1      42.496  22.658  28.541  1.00  0.00     0.135 A 
ATOM     72  F   UNL A   1      43.135  24.587  25.527  1.00  0.00    -0.206 F 
ATOM     73  C   UNL A   1      42.776  22.283  25.796  1.00  0.00     0.059 A 
ATOM     74  C   UNL A   1      42.400  21.374  28.016  1.00  0.00     0.059 A 
ATOM     75  F   UNL A   1      42.369  22.810  29.869  1.00  0.00    -0.206 F 
ATOM     76  C   UNL A   1      42.532  21.197  26.638  1.00  0.00     0.060 A 
BRANCH  76  77
ATOM     77  S   UNL A   1      42.428  19.546  25.915  1.00  0.00     0.124 S 
ATOM     78  O   UNL A   1      40.992  19.405  25.708  1.00  0.00    -0.237 OA
ATOM     79  O   UNL A   1      43.238  19.690  24.709  1.00  0.00    -0.237 OA
ATOM     80  O   UNL A   1      43.004  18.691  26.949  1.00  0.00    -0.744 OA
ENDBRANCH  76  77
ENDBRANCH  44  69
BRANCH  56  81
ATOM     81  C   UNL A   1      48.046  27.289  30.624  1.00  0.00     0.058 A 
ATOM     82  C   UNL A   1      48.393  26.637  31.817  1.00  0.00     0.135 A 
ATOM     83  C   UNL A   1      49.067  27.534  29.690  1.00  0.00     0.135 A 
ATOM     84  F   UNL A   1      47.459  26.385  32.747  1.00  0.00    -0.206 F 
ATOM     85  C   UNL A   1      49.706  26.258  32.082  1.00  0.00     0.059 A 
ATOM     86  C   UNL A   1      50.380  27.138  29.921  1.00  0.00     0.059 A 
ATOM     87  F   UNL A   1      48.787  28.147  28.528  1.00  0.00    -0.206 F 
ATOM     88  C   UNL A   1      50.692  26.509  31.125  1.00  0.00     0.060 A 
BRANCH  88  89
ATOM     89  S   UNL A   1      52.382  25.976  31.465  1.00  0.00     0.124 S 
ATOM     90  O   UNL A   1      52.165  24.640  32.010  1.00  0.00    -0.237 OA
ATOM     91  O   UNL A   1      52.998  26.030  30.143  1.00  0.00    -0.237 OA
ATOM     92  O   UNL A   1      52.867  26.970  32.419  1.00  0.00    -0.744 OA
ENDBRANCH  88  89
ENDBRANCH  56  81
ENDBRANCH  30  31
ENDBRANCH  22  25
ENDBRANCH  20  21
ENDBRANCH   1  20
TORSDOF 16
ENDMDL
