MODEL 1
REMARK VINA RESULT:     -10.8      0.000      0.000
REMARK SMILES C[C@@H]1[C@H](C)CC[C@@H]1NC(=O)N1CCO[C@H](CC(=O)NCCCCCCNC(=O)c2ccc(-c3c4nc(c(-c5c(F)cc(S(=O)(=O)[O-])cc5F)c5ccc([nH]5)c(-c5c(F)cc(S(=O)(=O)[O-])cc5F)c5nc(c(-c6c(F)cc(S(=O)(=O)[O-])cc6F)c6ccc3[nH]6)C=C5)C=C4)cc2)C1
REMARK SMILES IDX 22 1 21 2 20 3 19 4 17 5 18 6 16 8 15 9 11 10 12 11 95 12
REMARK SMILES IDX 13 13 14 14 9 15 8 16 10 18 7 19 1 20 2 21 3 22 4 23 5 24
REMARK SMILES IDX 6 25 23 26 24 27 25 28 26 29 27 30 28 32 29 33 30 34 94 35
REMARK SMILES IDX 31 36 93 37 32 38 33 39 34 40 87 41 35 42 92 43 86 44 88 45
REMARK SMILES IDX 36 46 91 47 85 48 84 49 37 51 71 52 50 53 70 54 51 55 54 56
REMARK SMILES IDX 69 57 89 58 52 59 53 60 68 62 90 63 55 64 38 65 39 66 48 67
REMARK SMILES IDX 40 68 41 69 47 70 49 71 42 72 43 73 44 74 45 75 46 76 72 77
REMARK SMILES IDX 73 78 82 79 74 80 75 81 81 82 83 83 76 84 77 85 78 86 79 87
REMARK SMILES IDX 80 88 56 89 57 90 66 91 58 92 59 93 65 94 67 95 60 96 61 97
REMARK SMILES IDX 62 98 63 99 64 100
REMARK H PARENT 19 7 8 17 26 31 88 50 54 61
REMARK Flexibility Score: inf
ROOT
ATOM      1  C   UNL A   1      33.228  27.548  23.010  1.00  0.00     0.002 C 
ENDROOT
BRANCH   1   2
ATOM      2  C   UNL A   1      31.783  27.321  22.566  1.00  0.00     0.021 C 
BRANCH   2   3
ATOM      3  C   UNL A   1      31.314  25.878  22.780  1.00  0.00     0.116 C 
BRANCH   3   4
ATOM      4  N   UNL A   1      32.096  24.951  21.982  1.00  0.00    -0.356 N 
ATOM      5  C   UNL A   1      32.920  23.935  22.360  1.00  0.00     0.222 C 
ATOM      6  O   UNL A   1      33.534  23.320  21.486  1.00  0.00    -0.275 OA
ATOM      7  H   UNL A   1      32.018  25.077  21.010  1.00  0.00     0.163 HD
BRANCH   5   8
ATOM      8  C   UNL A   1      33.040  23.547  23.811  1.00  0.00     0.133 C 
BRANCH   8   9
ATOM      9  C   UNL A   1      31.913  22.600  24.236  1.00  0.00     0.147 C 
ATOM     10  N   UNL A   1      33.120  21.493  26.051  1.00  0.00    -0.320 N 
ATOM     11  C   UNL A   1      33.037  20.208  25.374  1.00  0.00     0.150 C 
ATOM     12  C   UNL A   1      31.975  22.349  25.760  1.00  0.00     0.154 C 
ATOM     13  C   UNL A   1      32.947  20.426  23.867  1.00  0.00     0.182 C 
ATOM     14  O   UNL A   1      31.913  21.353  23.499  1.00  0.00    -0.374 OA
BRANCH  10  15
ATOM     15  C   UNL A   1      34.079  21.862  26.954  1.00  0.00     0.317 C 
ATOM     16  N   UNL A   1      35.381  21.890  26.539  1.00  0.00    -0.335 N 
ATOM     17  H   UNL A   1      36.052  21.432  27.095  1.00  0.00     0.165 HD
ATOM     18  O   UNL A   1      33.815  22.207  28.104  1.00  0.00    -0.249 OA
BRANCH  16  19
ATOM     19  C   UNL A   1      35.839  22.557  25.322  1.00  0.00     0.087 C 
ATOM     20  C   UNL A   1      37.381  20.561  24.703  1.00  0.00     0.010 C 
ATOM     21  C   UNL A   1      37.179  22.067  24.748  1.00  0.00     0.011 C 
ATOM     22  C   UNL A   1      38.275  22.885  25.468  1.00  0.00    -0.009 C 
ATOM     23  C   UNL A   1      39.109  22.126  26.493  1.00  0.00     0.008 C 
ATOM     24  C   UNL A   1      37.550  24.078  26.111  1.00  0.00     0.006 C 
ATOM     25  C   UNL A   1      36.120  24.042  25.584  1.00  0.00     0.025 C 
ENDBRANCH  16  19
ENDBRANCH  10  15
ENDBRANCH   8   9
ENDBRANCH   5   8
ENDBRANCH   3   4
ENDBRANCH   2   3
ENDBRANCH   1   2
BRANCH   1  26
ATOM     26  C   UNL A   1      33.382  28.374  24.292  1.00  0.00     0.002 C 
BRANCH  26  27
ATOM     27  C   UNL A   1      33.045  27.645  25.597  1.00  0.00     0.021 C 
BRANCH  27  28
ATOM     28  C   UNL A   1      33.913  28.012  26.801  1.00  0.00     0.116 C 
BRANCH  28  29
ATOM     29  N   UNL A   1      33.703  29.383  27.234  1.00  0.00    -0.352 N 
ATOM     30  C   UNL A   1      34.504  30.231  27.955  1.00  0.00     0.251 C 
ATOM     31  H   UNL A   1      32.838  29.768  26.965  1.00  0.00     0.163 HD
ATOM     32  O   UNL A   1      34.026  31.283  28.376  1.00  0.00    -0.269 OA
BRANCH  30  33
ATOM     33  C   UNL A   1      35.918  29.902  28.239  1.00  0.00     0.039 A 
ATOM     34  C   UNL A   1      36.853  30.039  27.207  1.00  0.00     0.014 A 
ATOM     35  C   UNL A   1      36.322  29.391  29.476  1.00  0.00     0.014 A 
ATOM     36  C   UNL A   1      38.191  29.704  27.427  1.00  0.00     0.010 A 
ATOM     37  C   UNL A   1      37.670  29.117  29.714  1.00  0.00     0.010 A 
ATOM     38  C   UNL A   1      38.616  29.259  28.688  1.00  0.00    -0.014 A 
BRANCH  38  39
ATOM     39  C   UNL A   1      40.042  28.929  28.937  1.00  0.00     0.031 A 
ATOM     40  C   UNL A   1      40.963  29.945  29.560  1.00  0.00     0.074 A 
ATOM     41  C   UNL A   1      40.520  27.725  28.568  1.00  0.00     0.049 A 
ATOM     42  N   UNL A   1      42.239  29.846  29.832  1.00  0.00    -0.248 NA
ATOM     43  C   UNL A   1      40.377  31.251  29.900  1.00  0.00     0.031 C 
ATOM     44  C   UNL A   1      39.741  26.672  27.914  1.00  0.00     0.029 A 
ATOM     45  N   UNL A   1      41.776  27.184  28.685  1.00  0.00    -0.354 N 
ATOM     46  C   UNL A   1      42.611  31.076  30.361  1.00  0.00     0.074 A 
ATOM     47  C   UNL A   1      41.437  31.921  30.326  1.00  0.00     0.031 C 
ATOM     48  C   UNL A   1      40.529  25.604  27.713  1.00  0.00     0.029 A 
ATOM     49  C   UNL A   1      41.873  25.904  28.196  1.00  0.00     0.049 A 
ATOM     50  H   UNL A   1      42.536  27.669  29.082  1.00  0.00     0.167 HD
ATOM     51  C   UNL A   1      43.815  31.460  30.850  1.00  0.00     0.037 A 
ATOM     52  C   UNL A   1      42.925  25.064  28.147  1.00  0.00     0.037 A 
ATOM     53  C   UNL A   1      44.974  30.608  30.908  1.00  0.00     0.049 A 
ATOM     54  C   UNL A   1      44.245  25.502  28.714  1.00  0.00     0.074 A 
ATOM     55  C   UNL A   1      46.223  30.885  31.435  1.00  0.00     0.029 A 
ATOM     56  N   UNL A   1      45.025  29.309  30.424  1.00  0.00    -0.354 N 
ATOM     57  N   UNL A   1      44.565  26.651  29.261  1.00  0.00    -0.248 NA
ATOM     58  C   UNL A   1      45.346  24.530  28.665  1.00  0.00     0.031 C 
ATOM     59  C   UNL A   1      47.040  29.766  31.240  1.00  0.00     0.029 A 
ATOM     60  C   UNL A   1      46.288  28.776  30.627  1.00  0.00     0.049 A 
ATOM     61  H   UNL A   1      44.275  28.835  29.997  1.00  0.00     0.167 HD
ATOM     62  C   UNL A   1      45.895  26.530  29.647  1.00  0.00     0.074 A 
ATOM     63  C   UNL A   1      46.318  25.195  29.275  1.00  0.00     0.031 C 
ATOM     64  C   UNL A   1      46.693  27.443  30.256  1.00  0.00     0.037 A 
BRANCH  51  65
ATOM     65  C   UNL A   1      43.935  32.869  31.365  1.00  0.00     0.058 A 
ATOM     66  C   UNL A   1      43.687  33.183  32.711  1.00  0.00     0.135 A 
ATOM     67  C   UNL A   1      44.310  33.915  30.507  1.00  0.00     0.135 A 
ATOM     68  F   UNL A   1      43.312  32.223  33.571  1.00  0.00    -0.206 F 
ATOM     69  C   UNL A   1      43.767  34.491  33.180  1.00  0.00     0.059 A 
ATOM     70  C   UNL A   1      44.423  35.227  30.961  1.00  0.00     0.059 A 
ATOM     71  F   UNL A   1      44.562  33.670  29.212  1.00  0.00    -0.206 F 
ATOM     72  C   UNL A   1      44.129  35.507  32.294  1.00  0.00     0.060 A 
BRANCH  72  73
ATOM     73  S   UNL A   1      44.207  37.203  32.910  1.00  0.00     0.124 S 
ATOM     74  O   UNL A   1      44.144  37.965  31.666  1.00  0.00    -0.237 OA
ATOM     75  O   UNL A   1      43.028  37.284  33.763  1.00  0.00    -0.237 OA
ATOM     76  O   UNL A   1      45.488  37.249  33.610  1.00  0.00    -0.744 OA
ENDBRANCH  72  73
ENDBRANCH  51  65
BRANCH  52  77
ATOM     77  C   UNL A   1      42.750  23.703  27.574  1.00  0.00     0.058 A 
ATOM     78  C   UNL A   1      42.931  23.475  26.202  1.00  0.00     0.135 A 
ATOM     79  C   UNL A   1      42.442  22.603  28.388  1.00  0.00     0.135 A 
ATOM     80  F   UNL A   1      43.223  24.498  25.385  1.00  0.00    -0.206 F 
ATOM     81  C   UNL A   1      42.809  22.202  25.654  1.00  0.00     0.059 A 
ATOM     82  C   UNL A   1      42.335  21.318  27.866  1.00  0.00     0.059 A 
ATOM     83  F   UNL A   1      42.278  22.769  29.710  1.00  0.00    -0.206 F 
ATOM     84  C   UNL A   1      42.515  21.129  26.496  1.00  0.00     0.060 A 
BRANCH  84  85
ATOM     85  S   UNL A   1      42.433  19.469  25.789  1.00  0.00     0.124 S 
ATOM     86  O   UNL A   1      41.033  19.390  25.388  1.00  0.00    -0.237 OA
ATOM     87  O   UNL A   1      43.406  19.548  24.703  1.00  0.00    -0.237 OA
ATOM     88  O   UNL A   1      42.822  18.611  26.905  1.00  0.00    -0.744 OA
ENDBRANCH  84  85
ENDBRANCH  52  77
BRANCH  64  89
ATOM     89  C   UNL A   1      48.096  27.020  30.586  1.00  0.00     0.058 A 
ATOM     90  C   UNL A   1      49.152  27.201  29.680  1.00  0.00     0.135 A 
ATOM     91  C   UNL A   1      48.395  26.475  31.845  1.00  0.00     0.135 A 
ATOM     92  F   UNL A   1      48.915  27.711  28.461  1.00  0.00    -0.206 F 
ATOM     93  C   UNL A   1      50.454  26.836  30.002  1.00  0.00     0.059 A 
ATOM     94  C   UNL A   1      49.694  26.124  32.197  1.00  0.00     0.059 A 
ATOM     95  F   UNL A   1      47.422  26.291  32.751  1.00  0.00    -0.206 F 
ATOM     96  C   UNL A   1      50.717  26.298  31.264  1.00  0.00     0.060 A 
BRANCH  96  97
ATOM     97  S   UNL A   1      52.417  25.861  31.686  1.00  0.00     0.124 S 
ATOM     98  O   UNL A   1      52.718  26.831  32.733  1.00  0.00    -0.237 OA
ATOM     99  O   UNL A   1      52.286  24.475  32.124  1.00  0.00    -0.237 OA
ATOM    100  O   UNL A   1      53.136  26.048  30.429  1.00  0.00    -0.744 OA
ENDBRANCH  96  97
ENDBRANCH  64  89
ENDBRANCH  38  39
ENDBRANCH  30  33
ENDBRANCH  28  29
ENDBRANCH  27  28
ENDBRANCH  26  27
ENDBRANCH   1  26
TORSDOF 19
ENDMDL
MODEL 2
REMARK VINA RESULT:     -10.7      4.610     10.500
REMARK SMILES C[C@@H]1[C@H](C)CC[C@@H]1NC(=O)N1CCO[C@H](CC(=O)NCCCCCCNC(=O)c2ccc(-c3c4nc(c(-c5c(F)cc(S(=O)(=O)[O-])cc5F)c5ccc([nH]5)c(-c5c(F)cc(S(=O)(=O)[O-])cc5F)c5nc(c(-c6c(F)cc(S(=O)(=O)[O-])cc6F)c6ccc3[nH]6)C=C5)C=C4)cc2)C1
REMARK SMILES IDX 22 1 21 2 20 3 19 4 17 5 18 6 16 8 15 9 11 10 12 11 95 12
REMARK SMILES IDX 13 13 14 14 9 15 8 16 10 18 7 19 1 20 2 21 3 22 4 23 5 24
REMARK SMILES IDX 6 25 23 26 24 27 25 28 26 29 27 30 28 32 29 33 30 34 94 35
REMARK SMILES IDX 31 36 93 37 32 38 33 39 34 40 87 41 35 42 92 43 86 44 88 45
REMARK SMILES IDX 36 46 91 47 85 48 84 49 37 51 71 52 50 53 70 54 51 55 54 56
REMARK SMILES IDX 69 57 89 58 52 59 53 60 68 62 90 63 55 64 38 65 39 66 48 67
REMARK SMILES IDX 40 68 41 69 47 70 49 71 42 72 43 73 44 74 45 75 46 76 72 77
REMARK SMILES IDX 73 78 82 79 74 80 75 81 81 82 83 83 76 84 77 85 78 86 79 87
REMARK SMILES IDX 80 88 56 89 57 90 66 91 58 92 59 93 65 94 67 95 60 96 61 97
REMARK SMILES IDX 62 98 63 99 64 100
REMARK H PARENT 19 7 8 17 26 31 88 50 54 61
REMARK Flexibility Score: inf
ROOT
ATOM      1  C   UNL A   1      39.697  22.162  26.454  1.00  0.00     0.002 C 
ENDROOT
BRANCH   1   2
ATOM      2  C   UNL A   1      38.751  23.362  26.395  1.00  0.00     0.021 C 
BRANCH   2   3
ATOM      3  C   UNL A   1      37.463  23.067  25.618  1.00  0.00     0.116 C 
BRANCH   3   4
ATOM      4  N   UNL A   1      36.353  22.823  26.519  1.00  0.00    -0.356 N 
ATOM      5  C   UNL A   1      35.031  23.126  26.399  1.00  0.00     0.222 C 
ATOM      6  O   UNL A   1      34.280  22.870  27.342  1.00  0.00    -0.275 OA
ATOM      7  H   UNL A   1      36.594  22.362  27.354  1.00  0.00     0.163 HD
BRANCH   5   8
ATOM      8  C   UNL A   1      34.496  23.721  25.121  1.00  0.00     0.133 C 
BRANCH   8   9
ATOM      9  C   UNL A   1      34.065  22.634  24.131  1.00  0.00     0.147 C 
ATOM     10  N   UNL A   1      32.823  24.089  22.610  1.00  0.00    -0.320 N 
ATOM     11  C   UNL A   1      31.581  23.386  22.890  1.00  0.00     0.150 C 
ATOM     12  C   UNL A   1      33.989  23.217  22.701  1.00  0.00     0.154 C 
ATOM     13  C   UNL A   1      31.638  22.777  24.287  1.00  0.00     0.182 C 
ATOM     14  O   UNL A   1      32.822  21.990  24.502  1.00  0.00    -0.374 OA
BRANCH  10  15
ATOM     15  C   UNL A   1      32.933  25.388  22.193  1.00  0.00     0.317 C 
ATOM     16  N   UNL A   1      32.251  26.349  22.887  1.00  0.00    -0.335 N 
ATOM     17  H   UNL A   1      31.699  26.983  22.374  1.00  0.00     0.165 HD
ATOM     18  O   UNL A   1      33.647  25.729  21.252  1.00  0.00    -0.249 OA
BRANCH  16  19
ATOM     19  C   UNL A   1      32.290  26.493  24.340  1.00  0.00     0.087 C 
ATOM     20  C   UNL A   1      29.712  26.780  24.469  1.00  0.00     0.010 C 
ATOM     21  C   UNL A   1      31.082  27.196  24.981  1.00  0.00     0.011 C 
ATOM     22  C   UNL A   1      31.398  28.708  24.940  1.00  0.00    -0.009 C 
ATOM     23  C   UNL A   1      30.600  29.531  23.936  1.00  0.00     0.008 C 
ATOM     24  C   UNL A   1      32.908  28.811  24.671  1.00  0.00     0.006 C 
ATOM     25  C   UNL A   1      33.456  27.391  24.771  1.00  0.00     0.025 C 
ENDBRANCH  16  19
ENDBRANCH  10  15
ENDBRANCH   8   9
ENDBRANCH   5   8
ENDBRANCH   3   4
ENDBRANCH   2   3
ENDBRANCH   1   2
BRANCH   1  26
ATOM     26  C   UNL A   1      40.600  22.121  27.691  1.00  0.00     0.002 C 
BRANCH  26  27
ATOM     27  C   UNL A   1      42.096  21.933  27.417  1.00  0.00     0.021 C 
BRANCH  27  28
ATOM     28  C   UNL A   1      42.938  23.209  27.450  1.00  0.00     0.116 C 
BRANCH  28  29
ATOM     29  N   UNL A   1      42.775  24.008  26.247  1.00  0.00    -0.352 N 
ATOM     30  C   UNL A   1      42.291  25.278  26.070  1.00  0.00     0.251 C 
ATOM     31  H   UNL A   1      43.062  23.561  25.418  1.00  0.00     0.163 HD
ATOM     32  O   UNL A   1      42.060  25.672  24.928  1.00  0.00    -0.269 OA
BRANCH  30  33
ATOM     33  C   UNL A   1      42.036  26.174  27.220  1.00  0.00     0.039 A 
ATOM     34  C   UNL A   1      40.976  25.866  28.080  1.00  0.00     0.014 A 
ATOM     35  C   UNL A   1      42.771  27.346  27.419  1.00  0.00     0.014 A 
ATOM     36  C   UNL A   1      40.682  26.708  29.156  1.00  0.00     0.010 A 
ATOM     37  C   UNL A   1      42.518  28.152  28.530  1.00  0.00     0.010 A 
ATOM     38  C   UNL A   1      41.462  27.847  29.403  1.00  0.00    -0.014 A 
BRANCH  38  39
ATOM     39  C   UNL A   1      41.174  28.731  30.561  1.00  0.00     0.031 A 
ATOM     40  C   UNL A   1      41.988  28.623  31.823  1.00  0.00     0.074 A 
ATOM     41  C   UNL A   1      40.152  29.606  30.492  1.00  0.00     0.049 A 
ATOM     42  N   UNL A   1      41.870  29.292  32.942  1.00  0.00    -0.248 NA
ATOM     43  C   UNL A   1      43.062  27.617  31.837  1.00  0.00     0.031 C 
ATOM     44  C   UNL A   1      39.261  29.774  29.342  1.00  0.00     0.029 A 
ATOM     45  N   UNL A   1      39.688  30.517  31.407  1.00  0.00    -0.354 N 
ATOM     46  C   UNL A   1      42.839  28.780  33.795  1.00  0.00     0.074 A 
ATOM     47  C   UNL A   1      43.506  27.712  33.081  1.00  0.00     0.031 C 
ATOM     48  C   UNL A   1      38.376  30.747  29.612  1.00  0.00     0.029 A 
ATOM     49  C   UNL A   1      38.618  31.252  30.959  1.00  0.00     0.049 A 
ATOM     50  H   UNL A   1      40.085  30.632  32.301  1.00  0.00     0.167 HD
ATOM     51  C   UNL A   1      43.160  29.176  35.051  1.00  0.00     0.037 A 
ATOM     52  C   UNL A   1      37.912  32.227  31.564  1.00  0.00     0.037 A 
ATOM     53  C   UNL A   1      42.514  30.257  35.748  1.00  0.00     0.049 A 
ATOM     54  C   UNL A   1      38.298  32.666  32.948  1.00  0.00     0.074 A 
ATOM     55  C   UNL A   1      42.802  30.771  37.000  1.00  0.00     0.029 A 
ATOM     56  N   UNL A   1      41.448  30.993  35.251  1.00  0.00    -0.354 N 
ATOM     57  N   UNL A   1      39.255  32.208  33.720  1.00  0.00    -0.248 NA
ATOM     58  C   UNL A   1      37.515  33.759  33.542  1.00  0.00     0.031 C 
ATOM     59  C   UNL A   1      41.889  31.796  37.274  1.00  0.00     0.029 A 
ATOM     60  C   UNL A   1      41.057  31.947  36.176  1.00  0.00     0.049 A 
ATOM     61  H   UNL A   1      41.029  30.857  34.370  1.00  0.00     0.167 HD
ATOM     62  C   UNL A   1      39.207  32.974  34.879  1.00  0.00     0.074 A 
ATOM     63  C   UNL A   1      38.131  33.928  34.705  1.00  0.00     0.031 C 
ATOM     64  C   UNL A   1      39.987  32.895  35.986  1.00  0.00     0.037 A 
BRANCH  51  65
ATOM     65  C   UNL A   1      44.267  28.433  35.749  1.00  0.00     0.058 A 
ATOM     66  C   UNL A   1      45.617  28.741  35.519  1.00  0.00     0.135 A 
ATOM     67  C   UNL A   1      43.975  27.410  36.665  1.00  0.00     0.135 A 
ATOM     68  F   UNL A   1      45.953  29.701  34.643  1.00  0.00    -0.206 F 
ATOM     69  C   UNL A   1      46.642  28.032  36.141  1.00  0.00     0.059 A 
ATOM     70  C   UNL A   1      44.983  26.707  37.320  1.00  0.00     0.059 A 
ATOM     71  F   UNL A   1      42.701  27.078  36.925  1.00  0.00    -0.206 F 
ATOM     72  C   UNL A   1      46.313  27.012  37.034  1.00  0.00     0.060 A 
BRANCH  72  73
ATOM     73  S   UNL A   1      47.651  26.086  37.818  1.00  0.00     0.124 S 
ATOM     74  O   UNL A   1      48.826  26.774  37.291  1.00  0.00    -0.237 OA
ATOM     75  O   UNL A   1      47.384  26.286  39.237  1.00  0.00    -0.237 OA
ATOM     76  O   UNL A   1      47.450  24.724  37.331  1.00  0.00    -0.744 OA
ENDBRANCH  72  73
ENDBRANCH  51  65
BRANCH  52  77
ATOM     77  C   UNL A   1      36.794  32.883  30.836  1.00  0.00     0.058 A 
ATOM     78  C   UNL A   1      35.460  32.612  31.177  1.00  0.00     0.135 A 
ATOM     79  C   UNL A   1      37.034  33.818  29.819  1.00  0.00     0.135 A 
ATOM     80  F   UNL A   1      35.183  31.721  32.141  1.00  0.00    -0.206 F 
ATOM     81  C   UNL A   1      34.402  33.244  30.532  1.00  0.00     0.059 A 
ATOM     82  C   UNL A   1      35.993  34.477  29.174  1.00  0.00     0.059 A 
ATOM     83  F   UNL A   1      38.294  34.124  29.469  1.00  0.00    -0.206 F 
ATOM     84  C   UNL A   1      34.679  34.179  29.535  1.00  0.00     0.060 A 
BRANCH  84  85
ATOM     85  S   UNL A   1      33.302  35.050  28.755  1.00  0.00     0.124 S 
ATOM     86  O   UNL A   1      33.982  36.185  28.141  1.00  0.00    -0.237 OA
ATOM     87  O   UNL A   1      32.782  34.043  27.835  1.00  0.00    -0.237 OA
ATOM     88  O   UNL A   1      32.429  35.369  29.881  1.00  0.00    -0.744 OA
ENDBRANCH  84  85
ENDBRANCH  52  77
BRANCH  64  89
ATOM     89  C   UNL A   1      39.725  33.885  37.085  1.00  0.00     0.058 A 
ATOM     90  C   UNL A   1      38.861  33.591  38.150  1.00  0.00     0.135 A 
ATOM     91  C   UNL A   1      40.388  35.123  37.098  1.00  0.00     0.135 A 
ATOM     92  F   UNL A   1      38.199  32.424  38.180  1.00  0.00    -0.206 F 
ATOM     93  C   UNL A   1      38.645  34.499  39.181  1.00  0.00     0.059 A 
ATOM     94  C   UNL A   1      40.205  36.037  38.130  1.00  0.00     0.059 A 
ATOM     95  F   UNL A   1      41.233  35.448  36.107  1.00  0.00    -0.206 F 
ATOM     96  C   UNL A   1      39.323  35.720  39.163  1.00  0.00     0.060 A 
BRANCH  96  97
ATOM     97  S   UNL A   1      39.064  36.877  40.525  1.00  0.00     0.124 S 
ATOM     98  O   UNL A   1      38.328  37.949  39.863  1.00  0.00    -0.237 OA
ATOM     99  O   UNL A   1      38.300  36.077  41.477  1.00  0.00    -0.237 OA
ATOM    100  O   UNL A   1      40.421  37.213  40.946  1.00  0.00    -0.744 OA
ENDBRANCH  96  97
ENDBRANCH  64  89
ENDBRANCH  38  39
ENDBRANCH  30  33
ENDBRANCH  28  29
ENDBRANCH  27  28
ENDBRANCH  26  27
ENDBRANCH   1  26
TORSDOF 19
ENDMDL
MODEL 3
REMARK VINA RESULT:     -10.6      2.948      4.092
REMARK SMILES C[C@@H]1[C@H](C)CC[C@@H]1NC(=O)N1CCO[C@H](CC(=O)NCCCCCCNC(=O)c2ccc(-c3c4nc(c(-c5c(F)cc(S(=O)(=O)[O-])cc5F)c5ccc([nH]5)c(-c5c(F)cc(S(=O)(=O)[O-])cc5F)c5nc(c(-c6c(F)cc(S(=O)(=O)[O-])cc6F)c6ccc3[nH]6)C=C5)C=C4)cc2)C1
REMARK SMILES IDX 22 1 21 2 20 3 19 4 17 5 18 6 16 8 15 9 11 10 12 11 95 12
REMARK SMILES IDX 13 13 14 14 9 15 8 16 10 18 7 19 1 20 2 21 3 22 4 23 5 24
REMARK SMILES IDX 6 25 23 26 24 27 25 28 26 29 27 30 28 32 29 33 30 34 94 35
REMARK SMILES IDX 31 36 93 37 32 38 33 39 34 40 87 41 35 42 92 43 86 44 88 45
REMARK SMILES IDX 36 46 91 47 85 48 84 49 37 51 71 52 50 53 70 54 51 55 54 56
REMARK SMILES IDX 69 57 89 58 52 59 53 60 68 62 90 63 55 64 38 65 39 66 48 67
REMARK SMILES IDX 40 68 41 69 47 70 49 71 42 72 43 73 44 74 45 75 46 76 72 77
REMARK SMILES IDX 73 78 82 79 74 80 75 81 81 82 83 83 76 84 77 85 78 86 79 87
REMARK SMILES IDX 80 88 56 89 57 90 66 91 58 92 59 93 65 94 67 95 60 96 61 97
REMARK SMILES IDX 62 98 63 99 64 100
REMARK H PARENT 19 7 8 17 26 31 88 50 54 61
REMARK Flexibility Score: inf
ROOT
ATOM      1  C   UNL A   1      34.524  31.391  27.628  1.00  0.00     0.002 C 
ENDROOT
BRANCH   1   2
ATOM      2  C   UNL A   1      33.261  30.578  27.343  1.00  0.00     0.021 C 
BRANCH   2   3
ATOM      3  C   UNL A   1      33.564  29.182  26.790  1.00  0.00     0.116 C 
BRANCH   3   4
ATOM      4  N   UNL A   1      33.988  29.249  25.403  1.00  0.00    -0.356 N 
ATOM      5  C   UNL A   1      33.893  28.331  24.402  1.00  0.00     0.222 C 
ATOM      6  O   UNL A   1      34.392  28.601  23.308  1.00  0.00    -0.275 OA
ATOM      7  H   UNL A   1      34.413  30.098  25.144  1.00  0.00     0.163 HD
BRANCH   5   8
ATOM      8  C   UNL A   1      33.156  27.035  24.620  1.00  0.00     0.133 C 
BRANCH   8   9
ATOM      9  C   UNL A   1      31.666  27.173  24.291  1.00  0.00     0.147 C 
ATOM     10  N   UNL A   1      30.980  24.962  25.076  1.00  0.00    -0.320 N 
ATOM     11  C   UNL A   1      30.554  24.577  23.739  1.00  0.00     0.150 C 
ATOM     12  C   UNL A   1      30.819  26.390  25.321  1.00  0.00     0.154 C 
ATOM     13  C   UNL A   1      31.356  25.354  22.701  1.00  0.00     0.182 C 
ATOM     14  O   UNL A   1      31.346  26.771  22.936  1.00  0.00    -0.374 OA
BRANCH  10  15
ATOM     15  C   UNL A   1      31.385  24.107  26.065  1.00  0.00     0.317 C 
ATOM     16  N   UNL A   1      32.310  23.150  25.753  1.00  0.00    -0.335 N 
ATOM     17  H   UNL A   1      32.118  22.221  26.016  1.00  0.00     0.165 HD
ATOM     18  O   UNL A   1      30.985  24.190  27.224  1.00  0.00    -0.249 OA
BRANCH  16  19
ATOM     19  C   UNL A   1      33.564  23.419  25.054  1.00  0.00     0.087 C 
ATOM     20  C   UNL A   1      32.879  21.907  23.057  1.00  0.00     0.010 C 
ATOM     21  C   UNL A   1      33.978  22.389  23.990  1.00  0.00     0.011 C 
ATOM     22  C   UNL A   1      34.769  21.295  24.741  1.00  0.00    -0.009 C 
ATOM     23  C   UNL A   1      34.059  19.957  24.914  1.00  0.00     0.008 C 
ATOM     24  C   UNL A   1      35.141  21.908  26.101  1.00  0.00     0.006 C 
ATOM     25  C   UNL A   1      34.752  23.381  26.024  1.00  0.00     0.025 C 
ENDBRANCH  16  19
ENDBRANCH  10  15
ENDBRANCH   8   9
ENDBRANCH   5   8
ENDBRANCH   3   4
ENDBRANCH   2   3
ENDBRANCH   1   2
BRANCH   1  26
ATOM     26  C   UNL A   1      34.296  32.651  28.470  1.00  0.00     0.002 C 
BRANCH  26  27
ATOM     27  C   UNL A   1      35.502  33.587  28.606  1.00  0.00     0.021 C 
BRANCH  27  28
ATOM     28  C   UNL A   1      36.578  33.138  29.595  1.00  0.00     0.116 C 
BRANCH  28  29
ATOM     29  N   UNL A   1      36.106  32.094  30.487  1.00  0.00    -0.352 N 
ATOM     30  C   UNL A   1      36.583  30.831  30.726  1.00  0.00     0.251 C 
ATOM     31  H   UNL A   1      35.307  32.334  31.010  1.00  0.00     0.163 HD
ATOM     32  O   UNL A   1      35.894  30.051  31.381  1.00  0.00    -0.269 OA
BRANCH  30  33
ATOM     33  C   UNL A   1      37.897  30.392  30.208  1.00  0.00     0.039 A 
ATOM     34  C   UNL A   1      38.956  30.255  31.112  1.00  0.00     0.014 A 
ATOM     35  C   UNL A   1      38.120  30.186  28.843  1.00  0.00     0.014 A 
ATOM     36  C   UNL A   1      40.221  29.877  30.655  1.00  0.00     0.010 A 
ATOM     37  C   UNL A   1      39.367  29.747  28.396  1.00  0.00     0.010 A 
ATOM     38  C   UNL A   1      40.434  29.600  29.296  1.00  0.00    -0.014 A 
BRANCH  38  39
ATOM     39  C   UNL A   1      41.768  29.169  28.807  1.00  0.00     0.031 A 
ATOM     40  C   UNL A   1      42.903  30.154  28.719  1.00  0.00     0.074 A 
ATOM     41  C   UNL A   1      41.949  27.896  28.405  1.00  0.00     0.049 A 
ATOM     42  N   UNL A   1      44.128  29.968  28.297  1.00  0.00    -0.248 NA
ATOM     43  C   UNL A   1      42.617  31.535  29.139  1.00  0.00     0.031 C 
ATOM     44  C   UNL A   1      40.917  26.857  28.398  1.00  0.00     0.029 A 
ATOM     45  N   UNL A   1      43.064  27.258  27.921  1.00  0.00    -0.354 N 
ATOM     46  C   UNL A   1      44.753  31.206  28.387  1.00  0.00     0.074 A 
ATOM     47  C   UNL A   1      43.758  32.146  28.858  1.00  0.00     0.031 C 
ATOM     48  C   UNL A   1      41.453  25.708  27.959  1.00  0.00     0.029 A 
ATOM     49  C   UNL A   1      42.857  25.933  27.627  1.00  0.00     0.049 A 
ATOM     50  H   UNL A   1      43.930  27.709  27.796  1.00  0.00     0.167 HD
ATOM     51  C   UNL A   1      46.043  31.526  28.122  1.00  0.00     0.037 A 
ATOM     52  C   UNL A   1      43.703  25.000  27.148  1.00  0.00     0.037 A 
ATOM     53  C   UNL A   1      47.036  30.583  27.679  1.00  0.00     0.049 A 
ATOM     54  C   UNL A   1      45.134  25.372  26.880  1.00  0.00     0.074 A 
ATOM     55  C   UNL A   1      48.381  30.798  27.436  1.00  0.00     0.029 A 
ATOM     56  N   UNL A   1      46.792  29.243  27.415  1.00  0.00    -0.354 N 
ATOM     57  N   UNL A   1      45.723  26.535  27.024  1.00  0.00    -0.248 NA
ATOM     58  C   UNL A   1      46.019  24.304  26.394  1.00  0.00     0.031 C 
ATOM     59  C   UNL A   1      48.944  29.595  26.994  1.00  0.00     0.029 A 
ATOM     60  C   UNL A   1      47.958  28.622  26.999  1.00  0.00     0.049 A 
ATOM     61  H   UNL A   1      45.918  28.799  27.509  1.00  0.00     0.167 HD
ATOM     62  C   UNL A   1      47.052  26.334  26.672  1.00  0.00     0.074 A 
ATOM     63  C   UNL A   1      47.182  24.936  26.314  1.00  0.00     0.031 C 
ATOM     64  C   UNL A   1      48.073  27.227  26.650  1.00  0.00     0.037 A 
BRANCH  51  65
ATOM     65  C   UNL A   1      46.451  32.963  28.308  1.00  0.00     0.058 A 
ATOM     66  C   UNL A   1      47.029  33.412  29.506  1.00  0.00     0.135 A 
ATOM     67  C   UNL A   1      46.270  33.898  27.276  1.00  0.00     0.135 A 
ATOM     68  F   UNL A   1      47.212  32.563  30.529  1.00  0.00    -0.206 F 
ATOM     69  C   UNL A   1      47.378  34.748  29.689  1.00  0.00     0.059 A 
ATOM     70  C   UNL A   1      46.637  35.232  27.429  1.00  0.00     0.059 A 
ATOM     71  F   UNL A   1      45.724  33.521  26.110  1.00  0.00    -0.206 F 
ATOM     72  C   UNL A   1      47.170  35.651  28.647  1.00  0.00     0.060 A 
BRANCH  72  73
ATOM     73  S   UNL A   1      47.605  37.385  28.905  1.00  0.00     0.124 S 
ATOM     74  O   UNL A   1      46.660  38.056  28.017  1.00  0.00    -0.237 OA
ATOM     75  O   UNL A   1      47.366  37.561  30.333  1.00  0.00    -0.237 OA
ATOM     76  O   UNL A   1      49.005  37.446  28.494  1.00  0.00    -0.744 OA
ENDBRANCH  72  73
ENDBRANCH  51  65
BRANCH  52  77
ATOM     77  C   UNL A   1      43.219  23.611  26.934  1.00  0.00     0.058 A 
ATOM     78  C   UNL A   1      42.976  23.127  25.640  1.00  0.00     0.135 A 
ATOM     79  C   UNL A   1      43.031  22.730  28.010  1.00  0.00     0.135 A 
ATOM     80  F   UNL A   1      43.140  23.935  24.582  1.00  0.00    -0.206 F 
ATOM     81  C   UNL A   1      42.559  21.819  25.419  1.00  0.00     0.059 A 
ATOM     82  C   UNL A   1      42.634  21.412  27.813  1.00  0.00     0.059 A 
ATOM     83  F   UNL A   1      43.268  23.142  29.266  1.00  0.00    -0.206 F 
ATOM     84  C   UNL A   1      42.396  20.967  26.512  1.00  0.00     0.060 A 
BRANCH  84  85
ATOM     85  S   UNL A   1      41.928  19.249  26.211  1.00  0.00     0.124 S 
ATOM     86  O   UNL A   1      40.500  19.377  25.939  1.00  0.00    -0.237 OA
ATOM     87  O   UNL A   1      42.766  18.897  25.069  1.00  0.00    -0.237 OA
ATOM     88  O   UNL A   1      42.277  18.583  27.463  1.00  0.00    -0.744 OA
ENDBRANCH  84  85
ENDBRANCH  52  77
BRANCH  64  89
ATOM     89  C   UNL A   1      49.428  26.714  26.254  1.00  0.00     0.058 A 
ATOM     90  C   UNL A   1      49.934  26.897  24.957  1.00  0.00     0.135 A 
ATOM     91  C   UNL A   1      50.250  26.078  27.197  1.00  0.00     0.135 A 
ATOM     92  F   UNL A   1      49.184  27.493  24.018  1.00  0.00    -0.206 F 
ATOM     93  C   UNL A   1      51.202  26.448  24.603  1.00  0.00     0.059 A 
ATOM     94  C   UNL A   1      51.530  25.641  26.871  1.00  0.00     0.059 A 
ATOM     95  F   UNL A   1      49.817  25.888  28.453  1.00  0.00    -0.206 F 
ATOM     96  C   UNL A   1      51.994  25.820  25.568  1.00  0.00     0.060 A 
BRANCH  96  97
ATOM     97  S   UNL A   1      53.651  25.273  25.108  1.00  0.00     0.124 S 
ATOM     98  O   UNL A   1      54.486  26.230  25.827  1.00  0.00    -0.237 OA
ATOM     99  O   UNL A   1      53.681  23.903  25.611  1.00  0.00    -0.237 OA
ATOM    100  O   UNL A   1      53.658  25.399  23.654  1.00  0.00    -0.744 OA
ENDBRANCH  96  97
ENDBRANCH  64  89
ENDBRANCH  38  39
ENDBRANCH  30  33
ENDBRANCH  28  29
ENDBRANCH  27  28
ENDBRANCH  26  27
ENDBRANCH   1  26
TORSDOF 19
ENDMDL
