MODEL 1
REMARK VINA RESULT:     -11.6      0.000      0.000
REMARK SMILES O=C(CC(=O)c1ccccc1)Nc1cccc(C(=O)NCCCCCCNC(=O)c2ccc(-c3c4nc(c(-c5c(F)cc(S(=O)(=O)[O-])cc5F)c5ccc([nH]5)c(-c5c(F)cc(S(=O)(=O)[O-])cc5F)c5nc(c(-c6c(F)cc(S(=O)(=O)[O-])cc6F)c6ccc3[nH]6)C=C5)C=C4)cc2)c1
REMARK SMILES IDX 23 1 22 2 21 3 20 4 18 5 19 6 17 8 13 9 14 10 96 11 15 12
REMARK SMILES IDX 16 13 12 14 1 15 2 16 3 18 4 19 5 20 6 21 7 22 11 23 8 24
REMARK SMILES IDX 10 25 9 26 24 27 25 28 26 29 27 30 28 31 29 33 30 34 31 35
REMARK SMILES IDX 95 36 32 37 94 38 33 39 34 40 35 41 88 42 36 43 93 44 87 45
REMARK SMILES IDX 89 46 37 47 92 48 86 49 85 50 38 52 72 53 51 54 71 55 52 56
REMARK SMILES IDX 55 57 70 58 90 59 53 60 54 61 69 63 91 64 56 65 39 66 40 67
REMARK SMILES IDX 49 68 41 69 42 70 48 71 50 72 43 73 44 74 45 75 46 76 47 77
REMARK SMILES IDX 73 78 74 79 83 80 75 81 76 82 82 83 84 84 77 85 78 86 79 87
REMARK SMILES IDX 80 88 81 89 57 90 58 91 67 92 59 93 60 94 66 95 68 96 61 97
REMARK SMILES IDX 62 98 63 99 64 100 65 101
REMARK H PARENT 20 7 12 17 27 32 89 51 55 62
REMARK Flexibility Score: inf
ROOT
ATOM      1  C   UNL A   1      34.237  25.437  25.526  1.00  0.00     0.002 C 
ENDROOT
BRANCH   1   2
ATOM      2  C   UNL A   1      35.377  24.519  25.097  1.00  0.00     0.021 C 
BRANCH   2   3
ATOM      3  C   UNL A   1      35.151  23.713  23.824  1.00  0.00     0.116 C 
BRANCH   3   4
ATOM      4  N   UNL A   1      35.138  22.265  24.007  1.00  0.00    -0.352 N 
ATOM      5  C   UNL A   1      34.222  21.459  24.658  1.00  0.00     0.251 C 
ATOM      6  O   UNL A   1      34.411  20.247  24.718  1.00  0.00    -0.269 OA
ATOM      7  H   UNL A   1      35.901  21.788  23.607  1.00  0.00     0.163 HD
BRANCH   5   8
ATOM      8  C   UNL A   1      33.045  22.048  25.353  1.00  0.00     0.041 A 
ATOM      9  C   UNL A   1      31.106  23.488  25.231  1.00  0.00     0.041 A 
ATOM     10  C   UNL A   1      31.104  23.588  26.625  1.00  0.00     0.026 A 
ATOM     11  C   UNL A   1      31.988  22.596  24.630  1.00  0.00     0.040 A 
ATOM     12  C   UNL A   1      32.036  22.870  27.384  1.00  0.00     0.003 A 
ATOM     13  C   UNL A   1      33.034  22.132  26.747  1.00  0.00     0.014 A 
BRANCH   9  14
ATOM     14  N   UNL A   1      30.275  24.354  24.485  1.00  0.00    -0.326 N 
ATOM     15  O   UNL A   1      30.576  26.358  25.639  1.00  0.00    -0.274 OA
ATOM     16  C   UNL A   1      30.085  25.710  24.716  1.00  0.00     0.232 C 
ATOM     17  H   UNL A   1      29.785  23.959  23.728  1.00  0.00     0.169 HD
BRANCH  16  18
ATOM     18  C   UNL A   1      29.158  26.403  23.760  1.00  0.00     0.181 C 
BRANCH  18  19
ATOM     19  C   UNL A   1      29.696  27.566  22.981  1.00  0.00     0.172 C 
ATOM     20  O   UNL A   1      30.643  27.409  22.208  1.00  0.00    -0.294 OA
BRANCH  19  21
ATOM     21  C   UNL A   1      29.105  28.931  23.098  1.00  0.00     0.018 A 
ATOM     22  C   UNL A   1      29.940  29.946  23.582  1.00  0.00     0.012 A 
ATOM     23  C   UNL A   1      27.754  29.215  22.866  1.00  0.00     0.012 A 
ATOM     24  C   UNL A   1      29.426  31.213  23.860  1.00  0.00     0.001 A 
ATOM     25  C   UNL A   1      27.236  30.475  23.175  1.00  0.00     0.001 A 
ATOM     26  C   UNL A   1      28.070  31.470  23.676  1.00  0.00     0.000 A 
ENDBRANCH  19  21
ENDBRANCH  18  19
ENDBRANCH  16  18
ENDBRANCH   9  14
ENDBRANCH   5   8
ENDBRANCH   3   4
ENDBRANCH   2   3
ENDBRANCH   1   2
BRANCH   1  27
ATOM     27  C   UNL A   1      33.819  26.515  24.522  1.00  0.00     0.002 C 
BRANCH  27  28
ATOM     28  C   UNL A   1      33.648  27.934  25.074  1.00  0.00     0.021 C 
BRANCH  28  29
ATOM     29  C   UNL A   1      33.929  28.111  26.563  1.00  0.00     0.116 C 
BRANCH  29  30
ATOM     30  N   UNL A   1      33.639  29.454  27.033  1.00  0.00    -0.352 N 
ATOM     31  C   UNL A   1      34.413  30.313  27.776  1.00  0.00     0.251 C 
ATOM     32  H   UNL A   1      32.753  29.802  26.784  1.00  0.00     0.163 HD
ATOM     33  O   UNL A   1      33.919  31.351  28.207  1.00  0.00    -0.269 OA
BRANCH  31  34
ATOM     34  C   UNL A   1      35.828  29.990  28.074  1.00  0.00     0.039 A 
ATOM     35  C   UNL A   1      36.156  29.535  29.355  1.00  0.00     0.014 A 
ATOM     36  C   UNL A   1      36.835  30.166  27.120  1.00  0.00     0.014 A 
ATOM     37  C   UNL A   1      37.481  29.218  29.664  1.00  0.00     0.010 A 
ATOM     38  C   UNL A   1      38.143  29.780  27.407  1.00  0.00     0.010 A 
ATOM     39  C   UNL A   1      38.485  29.313  28.686  1.00  0.00    -0.014 A 
BRANCH  39  40
ATOM     40  C   UNL A   1      39.894  28.948  28.993  1.00  0.00     0.031 A 
ATOM     41  C   UNL A   1      40.821  29.962  29.614  1.00  0.00     0.074 A 
ATOM     42  C   UNL A   1      40.353  27.721  28.673  1.00  0.00     0.049 A 
ATOM     43  N   UNL A   1      42.090  29.848  29.910  1.00  0.00    -0.248 NA
ATOM     44  C   UNL A   1      40.253  31.285  29.920  1.00  0.00     0.031 C 
ATOM     45  C   UNL A   1      39.569  26.668  28.023  1.00  0.00     0.029 A 
ATOM     46  N   UNL A   1      41.591  27.154  28.841  1.00  0.00    -0.354 N 
ATOM     47  C   UNL A   1      42.475  31.084  30.419  1.00  0.00     0.074 A 
ATOM     48  C   UNL A   1      41.318  31.949  30.346  1.00  0.00     0.031 C 
ATOM     49  C   UNL A   1      40.339  25.579  27.865  1.00  0.00     0.029 A 
ATOM     50  C   UNL A   1      41.679  25.865  28.368  1.00  0.00     0.049 A 
ATOM     51  H   UNL A   1      42.347  27.626  29.260  1.00  0.00     0.167 HD
ATOM     52  C   UNL A   1      43.676  31.458  30.921  1.00  0.00     0.037 A 
ATOM     53  C   UNL A   1      42.722  25.012  28.336  1.00  0.00     0.037 A 
ATOM     54  C   UNL A   1      44.815  30.581  31.023  1.00  0.00     0.049 A 
ATOM     55  C   UNL A   1      44.041  25.446  28.920  1.00  0.00     0.074 A 
ATOM     56  C   UNL A   1      46.057  30.846  31.573  1.00  0.00     0.029 A 
ATOM     57  N   UNL A   1      44.852  29.271  30.567  1.00  0.00    -0.354 N 
ATOM     58  N   UNL A   1      44.367  26.598  29.456  1.00  0.00    -0.248 NA
ATOM     59  C   UNL A   1      45.131  24.460  28.906  1.00  0.00     0.031 C 
ATOM     60  C   UNL A   1      46.859  29.713  31.410  1.00  0.00     0.029 A 
ATOM     61  C   UNL A   1      46.100  28.722  30.810  1.00  0.00     0.049 A 
ATOM     62  H   UNL A   1      44.103  28.802  30.135  1.00  0.00     0.167 HD
ATOM     63  C   UNL A   1      45.686  26.462  29.876  1.00  0.00     0.074 A 
ATOM     64  C   UNL A   1      46.093  25.114  29.543  1.00  0.00     0.031 C 
ATOM     65  C   UNL A   1      46.487  27.371  30.487  1.00  0.00     0.037 A 
BRANCH  52  66
ATOM     66  C   UNL A   1      43.828  32.872  31.412  1.00  0.00     0.058 A 
ATOM     67  C   UNL A   1      44.263  33.906  30.567  1.00  0.00     0.135 A 
ATOM     68  C   UNL A   1      43.471  33.212  32.728  1.00  0.00     0.135 A 
ATOM     69  F   UNL A   1      44.632  33.637  29.304  1.00  0.00    -0.206 F 
ATOM     70  C   UNL A   1      44.355  35.221  31.011  1.00  0.00     0.059 A 
ATOM     71  C   UNL A   1      43.528  34.525  33.186  1.00  0.00     0.059 A 
ATOM     72  F   UNL A   1      43.051  32.264  33.581  1.00  0.00    -0.206 F 
ATOM     73  C   UNL A   1      43.979  35.521  32.322  1.00  0.00     0.060 A 
BRANCH  73  74
ATOM     74  S   UNL A   1      44.073  37.238  32.873  1.00  0.00     0.124 S 
ATOM     75  O   UNL A   1      42.919  37.323  33.763  1.00  0.00    -0.237 OA
ATOM     76  O   UNL A   1      45.380  37.285  33.522  1.00  0.00    -0.237 OA
ATOM     77  O   UNL A   1      43.966  38.001  31.633  1.00  0.00    -0.744 OA
ENDBRANCH  73  74
ENDBRANCH  52  66
BRANCH  53  78
ATOM     78  C   UNL A   1      42.562  23.654  27.747  1.00  0.00     0.058 A 
ATOM     79  C   UNL A   1      42.368  22.527  28.560  1.00  0.00     0.135 A 
ATOM     80  C   UNL A   1      42.615  23.454  26.358  1.00  0.00     0.135 A 
ATOM     81  F   UNL A   1      42.314  22.664  29.894  1.00  0.00    -0.206 F 
ATOM     82  C   UNL A   1      42.264  21.248  28.022  1.00  0.00     0.059 A 
ATOM     83  C   UNL A   1      42.483  22.189  25.795  1.00  0.00     0.059 A 
ATOM     84  F   UNL A   1      42.780  24.500  25.533  1.00  0.00    -0.206 F 
ATOM     85  C   UNL A   1      42.325  21.088  26.637  1.00  0.00     0.060 A 
BRANCH  85  86
ATOM     86  S   UNL A   1      42.169  19.427  25.945  1.00  0.00     0.124 S 
ATOM     87  O   UNL A   1      42.989  19.532  24.744  1.00  0.00    -0.237 OA
ATOM     88  O   UNL A   1      42.709  18.597  27.018  1.00  0.00    -0.237 OA
ATOM     89  O   UNL A   1      40.733  19.292  25.721  1.00  0.00    -0.744 OA
ENDBRANCH  85  86
ENDBRANCH  53  78
BRANCH  65  90
ATOM     90  C   UNL A   1      47.865  26.922  30.888  1.00  0.00     0.058 A 
ATOM     91  C   UNL A   1      48.108  26.244  32.093  1.00  0.00     0.135 A 
ATOM     92  C   UNL A   1      48.956  27.139  30.028  1.00  0.00     0.135 A 
ATOM     93  F   UNL A   1      47.102  26.012  32.951  1.00  0.00    -0.206 F 
ATOM     94  C   UNL A   1      49.387  25.830  32.449  1.00  0.00     0.059 A 
ATOM     95  C   UNL A   1      50.238  26.706  30.350  1.00  0.00     0.059 A 
ATOM     96  F   UNL A   1      48.778  27.770  28.857  1.00  0.00    -0.206 F 
ATOM     97  C   UNL A   1      50.446  26.067  31.571  1.00  0.00     0.060 A 
BRANCH  97  98
ATOM     98  S   UNL A   1      52.099  25.511  32.037  1.00  0.00     0.124 S 
ATOM     99  O   UNL A   1      51.874  24.090  32.280  1.00  0.00    -0.237 OA
ATOM    100  O   UNL A   1      52.885  25.835  30.851  1.00  0.00    -0.237 OA
ATOM    101  O   UNL A   1      52.404  26.309  33.221  1.00  0.00    -0.744 OA
ENDBRANCH  97  98
ENDBRANCH  65  90
ENDBRANCH  39  40
ENDBRANCH  31  34
ENDBRANCH  29  30
ENDBRANCH  28  29
ENDBRANCH  27  28
ENDBRANCH   1  27
TORSDOF 20
ENDMDL
MODEL 2
REMARK VINA RESULT:     -11.2      2.599      3.336
REMARK SMILES O=C(CC(=O)c1ccccc1)Nc1cccc(C(=O)NCCCCCCNC(=O)c2ccc(-c3c4nc(c(-c5c(F)cc(S(=O)(=O)[O-])cc5F)c5ccc([nH]5)c(-c5c(F)cc(S(=O)(=O)[O-])cc5F)c5nc(c(-c6c(F)cc(S(=O)(=O)[O-])cc6F)c6ccc3[nH]6)C=C5)C=C4)cc2)c1
REMARK SMILES IDX 23 1 22 2 21 3 20 4 18 5 19 6 17 8 13 9 14 10 96 11 15 12
REMARK SMILES IDX 16 13 12 14 1 15 2 16 3 18 4 19 5 20 6 21 7 22 11 23 8 24
REMARK SMILES IDX 10 25 9 26 24 27 25 28 26 29 27 30 28 31 29 33 30 34 31 35
REMARK SMILES IDX 95 36 32 37 94 38 33 39 34 40 35 41 88 42 36 43 93 44 87 45
REMARK SMILES IDX 89 46 37 47 92 48 86 49 85 50 38 52 72 53 51 54 71 55 52 56
REMARK SMILES IDX 55 57 70 58 90 59 53 60 54 61 69 63 91 64 56 65 39 66 40 67
REMARK SMILES IDX 49 68 41 69 42 70 48 71 50 72 43 73 44 74 45 75 46 76 47 77
REMARK SMILES IDX 73 78 74 79 83 80 75 81 76 82 82 83 84 84 77 85 78 86 79 87
REMARK SMILES IDX 80 88 81 89 57 90 58 91 67 92 59 93 60 94 66 95 68 96 61 97
REMARK SMILES IDX 62 98 63 99 64 100 65 101
REMARK H PARENT 20 7 12 17 27 32 89 51 55 62
REMARK Flexibility Score: inf
ROOT
ATOM      1  C   UNL A   1      34.083  26.009  24.700  1.00  0.00     0.002 C 
ENDROOT
BRANCH   1   2
ATOM      2  C   UNL A   1      34.568  24.595  24.391  1.00  0.00     0.021 C 
BRANCH   2   3
ATOM      3  C   UNL A   1      34.110  24.001  23.065  1.00  0.00     0.116 C 
BRANCH   3   4
ATOM      4  N   UNL A   1      33.734  22.592  23.119  1.00  0.00    -0.352 N 
ATOM      5  C   UNL A   1      32.680  21.978  23.772  1.00  0.00     0.251 C 
ATOM      6  O   UNL A   1      32.553  20.757  23.708  1.00  0.00    -0.269 OA
ATOM      7  H   UNL A   1      34.322  21.984  22.615  1.00  0.00     0.163 HD
BRANCH   5   8
ATOM      8  C   UNL A   1      31.739  22.766  24.613  1.00  0.00     0.041 A 
ATOM      9  C   UNL A   1      30.284  24.687  24.806  1.00  0.00     0.041 A 
ATOM     10  C   UNL A   1      30.353  24.589  26.198  1.00  0.00     0.026 A 
ATOM     11  C   UNL A   1      30.859  23.679  24.039  1.00  0.00     0.040 A 
ATOM     12  C   UNL A   1      31.066  23.543  26.796  1.00  0.00     0.003 A 
ATOM     13  C   UNL A   1      31.795  22.654  26.005  1.00  0.00     0.014 A 
BRANCH   9  14
ATOM     14  N   UNL A   1      29.710  25.845  24.232  1.00  0.00    -0.326 N 
ATOM     15  O   UNL A   1      31.537  26.716  23.073  1.00  0.00    -0.274 OA
ATOM     16  C   UNL A   1      30.352  26.754  23.401  1.00  0.00     0.232 C 
ATOM     17  H   UNL A   1      28.765  26.023  24.441  1.00  0.00     0.169 HD
BRANCH  16  18
ATOM     18  C   UNL A   1      29.503  27.891  22.915  1.00  0.00     0.181 C 
BRANCH  18  19
ATOM     19  C   UNL A   1      29.810  29.266  23.431  1.00  0.00     0.172 C 
ATOM     20  O   UNL A   1      30.653  29.421  24.317  1.00  0.00    -0.294 OA
BRANCH  19  21
ATOM     21  C   UNL A   1      29.129  30.478  22.890  1.00  0.00     0.018 A 
ATOM     22  C   UNL A   1      28.638  30.400  21.581  1.00  0.00     0.012 A 
ATOM     23  C   UNL A   1      29.063  31.701  23.569  1.00  0.00     0.012 A 
ATOM     24  C   UNL A   1      28.121  31.532  20.950  1.00  0.00     0.001 A 
ATOM     25  C   UNL A   1      28.575  32.839  22.924  1.00  0.00     0.001 A 
ATOM     26  C   UNL A   1      28.109  32.756  21.615  1.00  0.00     0.000 A 
ENDBRANCH  19  21
ENDBRANCH  18  19
ENDBRANCH  16  18
ENDBRANCH   9  14
ENDBRANCH   5   8
ENDBRANCH   3   4
ENDBRANCH   2   3
ENDBRANCH   1   2
BRANCH   1  27
ATOM     27  C   UNL A   1      33.495  26.234  26.096  1.00  0.00     0.002 C 
BRANCH  27  28
ATOM     28  C   UNL A   1      33.123  27.676  26.456  1.00  0.00     0.021 C 
BRANCH  28  29
ATOM     29  C   UNL A   1      34.062  28.759  25.935  1.00  0.00     0.116 C 
BRANCH  29  30
ATOM     30  N   UNL A   1      33.708  30.085  26.410  1.00  0.00    -0.352 N 
ATOM     31  C   UNL A   1      34.272  30.843  27.408  1.00  0.00     0.251 C 
ATOM     32  H   UNL A   1      32.947  30.505  25.947  1.00  0.00     0.163 HD
ATOM     33  O   UNL A   1      33.721  31.881  27.763  1.00  0.00    -0.269 OA
BRANCH  31  34
ATOM     34  C   UNL A   1      35.525  30.410  28.069  1.00  0.00     0.039 A 
ATOM     35  C   UNL A   1      36.746  30.821  27.526  1.00  0.00     0.014 A 
ATOM     36  C   UNL A   1      35.509  29.576  29.191  1.00  0.00     0.014 A 
ATOM     37  C   UNL A   1      37.944  30.433  28.131  1.00  0.00     0.010 A 
ATOM     38  C   UNL A   1      36.702  29.251  29.836  1.00  0.00     0.010 A 
ATOM     39  C   UNL A   1      37.935  29.665  29.307  1.00  0.00    -0.014 A 
BRANCH  39  40
ATOM     40  C   UNL A   1      39.202  29.271  29.978  1.00  0.00     0.031 A 
ATOM     41  C   UNL A   1      39.660  29.994  31.218  1.00  0.00     0.074 A 
ATOM     42  C   UNL A   1      39.965  28.293  29.446  1.00  0.00     0.049 A 
ATOM     43  N   UNL A   1      40.755  29.828  31.915  1.00  0.00    -0.248 NA
ATOM     44  C   UNL A   1      38.783  31.060  31.730  1.00  0.00     0.031 C 
ATOM     45  C   UNL A   1      39.657  27.551  28.222  1.00  0.00     0.029 A 
ATOM     46  N   UNL A   1      41.160  27.761  29.862  1.00  0.00    -0.354 N 
ATOM     47  C   UNL A   1      40.707  30.776  32.932  1.00  0.00     0.074 A 
ATOM     48  C   UNL A   1      39.499  31.546  32.734  1.00  0.00     0.031 C 
ATOM     49  C   UNL A   1      40.626  26.650  27.996  1.00  0.00     0.029 A 
ATOM     50  C   UNL A   1      41.642  26.770  29.037  1.00  0.00     0.049 A 
ATOM     51  H   UNL A   1      41.628  28.060  30.674  1.00  0.00     0.167 HD
ATOM     52  C   UNL A   1      41.578  30.971  33.950  1.00  0.00     0.037 A 
ATOM     53  C   UNL A   1      42.777  26.047  29.106  1.00  0.00     0.037 A 
ATOM     54  C   UNL A   1      42.762  30.177  34.163  1.00  0.00     0.049 A 
ATOM     55  C   UNL A   1      43.718  26.271  30.261  1.00  0.00     0.074 A 
ATOM     56  C   UNL A   1      43.675  30.256  35.199  1.00  0.00     0.029 A 
ATOM     57  N   UNL A   1      43.195  29.159  33.325  1.00  0.00    -0.354 N 
ATOM     58  N   UNL A   1      43.623  27.129  31.249  1.00  0.00    -0.248 NA
ATOM     59  C   UNL A   1      44.915  25.421  30.317  1.00  0.00     0.031 C 
ATOM     60  C   UNL A   1      44.685  29.317  34.965  1.00  0.00     0.029 A 
ATOM     61  C   UNL A   1      44.371  28.614  33.814  1.00  0.00     0.049 A 
ATOM     62  H   UNL A   1      42.736  28.867  32.505  1.00  0.00     0.167 HD
ATOM     63  C   UNL A   1      44.727  26.895  32.063  1.00  0.00     0.074 A 
ATOM     64  C   UNL A   1      45.468  25.810  31.458  1.00  0.00     0.031 C 
ATOM     65  C   UNL A   1      45.091  27.520  33.210  1.00  0.00     0.037 A 
BRANCH  52  66
ATOM     66  C   UNL A   1      41.288  32.079  34.926  1.00  0.00     0.058 A 
ATOM     67  C   UNL A   1      41.865  33.352  34.793  1.00  0.00     0.135 A 
ATOM     68  C   UNL A   1      40.368  31.885  35.971  1.00  0.00     0.135 A 
ATOM     69  F   UNL A   1      42.762  33.590  33.822  1.00  0.00    -0.206 F 
ATOM     70  C   UNL A   1      41.556  34.388  35.668  1.00  0.00     0.059 A 
ATOM     71  C   UNL A   1      40.022  32.916  36.842  1.00  0.00     0.059 A 
ATOM     72  F   UNL A   1      39.787  30.688  36.147  1.00  0.00    -0.206 F 
ATOM     73  C   UNL A   1      40.628  34.161  36.687  1.00  0.00     0.060 A 
BRANCH  73  74
ATOM     74  S   UNL A   1      40.213  35.526  37.794  1.00  0.00     0.124 S 
ATOM     75  O   UNL A   1      41.476  35.725  38.499  1.00  0.00    -0.237 OA
ATOM     76  O   UNL A   1      39.836  36.581  36.859  1.00  0.00    -0.237 OA
ATOM     77  O   UNL A   1      39.123  34.989  38.603  1.00  0.00    -0.744 OA
ENDBRANCH  73  74
ENDBRANCH  52  66
BRANCH  53  78
ATOM     78  C   UNL A   1      43.082  25.030  28.064  1.00  0.00     0.058 A 
ATOM     79  C   UNL A   1      42.691  23.691  28.217  1.00  0.00     0.135 A 
ATOM     80  C   UNL A   1      43.785  25.373  26.898  1.00  0.00     0.135 A 
ATOM     81  F   UNL A   1      42.020  23.311  29.315  1.00  0.00    -0.206 F 
ATOM     82  C   UNL A   1      43.012  22.723  27.270  1.00  0.00     0.059 A 
ATOM     83  C   UNL A   1      44.091  24.429  25.923  1.00  0.00     0.059 A 
ATOM     84  F   UNL A   1      44.167  26.644  26.691  1.00  0.00    -0.206 F 
ATOM     85  C   UNL A   1      43.715  23.102  26.126  1.00  0.00     0.060 A 
BRANCH  85  86
ATOM     86  S   UNL A   1      44.110  21.843  24.893  1.00  0.00     0.124 S 
ATOM     87  O   UNL A   1      43.262  20.738  25.321  1.00  0.00    -0.237 OA
ATOM     88  O   UNL A   1      43.724  22.502  23.648  1.00  0.00    -0.237 OA
ATOM     89  O   UNL A   1      45.545  21.643  25.067  1.00  0.00    -0.744 OA
ENDBRANCH  85  86
ENDBRANCH  53  78
BRANCH  65  90
ATOM     90  C   UNL A   1      46.315  27.010  33.919  1.00  0.00     0.058 A 
ATOM     91  C   UNL A   1      47.593  27.535  33.671  1.00  0.00     0.135 A 
ATOM     92  C   UNL A   1      46.198  26.005  34.895  1.00  0.00     0.135 A 
ATOM     93  F   UNL A   1      47.761  28.495  32.748  1.00  0.00    -0.206 F 
ATOM     94  C   UNL A   1      48.717  27.057  34.337  1.00  0.00     0.059 A 
ATOM     95  C   UNL A   1      47.304  25.534  35.595  1.00  0.00     0.059 A 
ATOM     96  F   UNL A   1      44.998  25.478  35.182  1.00  0.00    -0.206 F 
ATOM     97  C   UNL A   1      48.562  26.055  35.297  1.00  0.00     0.060 A 
BRANCH  97  98
ATOM     98  S   UNL A   1      50.026  25.454  36.166  1.00  0.00     0.124 S 
ATOM     99  O   UNL A   1      50.190  26.469  37.201  1.00  0.00    -0.237 OA
ATOM    100  O   UNL A   1      49.597  24.139  36.630  1.00  0.00    -0.237 OA
ATOM    101  O   UNL A   1      51.054  25.442  35.130  1.00  0.00    -0.744 OA
ENDBRANCH  97  98
ENDBRANCH  65  90
ENDBRANCH  39  40
ENDBRANCH  31  34
ENDBRANCH  29  30
ENDBRANCH  28  29
ENDBRANCH  27  28
ENDBRANCH   1  27
TORSDOF 20
ENDMDL
MODEL 3
REMARK VINA RESULT:     -11.1      3.081      9.606
REMARK SMILES O=C(CC(=O)c1ccccc1)Nc1cccc(C(=O)NCCCCCCNC(=O)c2ccc(-c3c4nc(c(-c5c(F)cc(S(=O)(=O)[O-])cc5F)c5ccc([nH]5)c(-c5c(F)cc(S(=O)(=O)[O-])cc5F)c5nc(c(-c6c(F)cc(S(=O)(=O)[O-])cc6F)c6ccc3[nH]6)C=C5)C=C4)cc2)c1
REMARK SMILES IDX 23 1 22 2 21 3 20 4 18 5 19 6 17 8 13 9 14 10 96 11 15 12
REMARK SMILES IDX 16 13 12 14 1 15 2 16 3 18 4 19 5 20 6 21 7 22 11 23 8 24
REMARK SMILES IDX 10 25 9 26 24 27 25 28 26 29 27 30 28 31 29 33 30 34 31 35
REMARK SMILES IDX 95 36 32 37 94 38 33 39 34 40 35 41 88 42 36 43 93 44 87 45
REMARK SMILES IDX 89 46 37 47 92 48 86 49 85 50 38 52 72 53 51 54 71 55 52 56
REMARK SMILES IDX 55 57 70 58 90 59 53 60 54 61 69 63 91 64 56 65 39 66 40 67
REMARK SMILES IDX 49 68 41 69 42 70 48 71 50 72 43 73 44 74 45 75 46 76 47 77
REMARK SMILES IDX 73 78 74 79 83 80 75 81 76 82 82 83 84 84 77 85 78 86 79 87
REMARK SMILES IDX 80 88 81 89 57 90 58 91 67 92 59 93 60 94 66 95 68 96 61 97
REMARK SMILES IDX 62 98 63 99 64 100 65 101
REMARK H PARENT 20 7 12 17 27 32 89 51 55 62
REMARK Flexibility Score: inf
ROOT
ATOM      1  C   UNL A   1      33.860  25.793  26.070  1.00  0.00     0.002 C 
ENDROOT
BRANCH   1   2
ATOM      2  C   UNL A   1      32.792  26.874  25.937  1.00  0.00     0.021 C 
BRANCH   2   3
ATOM      3  C   UNL A   1      31.345  26.400  25.974  1.00  0.00     0.116 C 
BRANCH   3   4
ATOM      4  N   UNL A   1      30.454  27.067  25.030  1.00  0.00    -0.352 N 
ATOM      5  C   UNL A   1      30.261  26.842  23.679  1.00  0.00     0.251 C 
ATOM      6  O   UNL A   1      29.469  27.541  23.052  1.00  0.00    -0.269 OA
ATOM      7  H   UNL A   1      29.907  27.790  25.413  1.00  0.00     0.163 HD
BRANCH   5   8
ATOM      8  C   UNL A   1      31.056  25.813  22.955  1.00  0.00     0.041 A 
ATOM      9  C   UNL A   1      31.945  23.565  22.919  1.00  0.00     0.041 A 
ATOM     10  C   UNL A   1      32.890  23.963  21.969  1.00  0.00     0.026 A 
ATOM     11  C   UNL A   1      30.948  24.464  23.282  1.00  0.00     0.040 A 
ATOM     12  C   UNL A   1      32.878  25.270  21.469  1.00  0.00     0.003 A 
ATOM     13  C   UNL A   1      31.988  26.209  21.992  1.00  0.00     0.014 A 
BRANCH   9  14
ATOM     14  N   UNL A   1      32.089  22.300  23.535  1.00  0.00    -0.326 N 
ATOM     15  O   UNL A   1      32.067  22.901  25.788  1.00  0.00    -0.274 OA
ATOM     16  C   UNL A   1      32.117  22.051  24.901  1.00  0.00     0.232 C 
ATOM     17  H   UNL A   1      32.177  21.523  22.938  1.00  0.00     0.169 HD
BRANCH  16  18
ATOM     18  C   UNL A   1      32.263  20.608  25.288  1.00  0.00     0.181 C 
BRANCH  18  19
ATOM     19  C   UNL A   1      33.527  19.902  24.897  1.00  0.00     0.172 C 
ATOM     20  O   UNL A   1      34.533  20.551  24.603  1.00  0.00    -0.294 OA
BRANCH  19  21
ATOM     21  C   UNL A   1      33.617  18.413  24.865  1.00  0.00     0.018 A 
ATOM     22  C   UNL A   1      32.612  17.701  25.531  1.00  0.00     0.012 A 
ATOM     23  C   UNL A   1      34.696  17.712  24.314  1.00  0.00     0.012 A 
ATOM     24  C   UNL A   1      32.701  16.316  25.673  1.00  0.00     0.001 A 
ATOM     25  C   UNL A   1      34.799  16.329  24.486  1.00  0.00     0.001 A 
ATOM     26  C   UNL A   1      33.805  15.634  25.169  1.00  0.00     0.000 A 
ENDBRANCH  19  21
ENDBRANCH  18  19
ENDBRANCH  16  18
ENDBRANCH   9  14
ENDBRANCH   5   8
ENDBRANCH   3   4
ENDBRANCH   2   3
ENDBRANCH   1   2
BRANCH   1  27
ATOM     27  C   UNL A   1      34.524  25.330  24.771  1.00  0.00     0.002 C 
BRANCH  27  28
ATOM     28  C   UNL A   1      35.360  24.049  24.849  1.00  0.00     0.021 C 
BRANCH  28  29
ATOM     29  C   UNL A   1      36.116  23.821  26.153  1.00  0.00     0.116 C 
BRANCH  29  30
ATOM     30  N   UNL A   1      37.082  22.740  26.062  1.00  0.00    -0.352 N 
ATOM     31  C   UNL A   1      38.445  22.761  26.233  1.00  0.00     0.251 C 
ATOM     32  H   UNL A   1      36.703  21.859  25.843  1.00  0.00     0.163 HD
ATOM     33  O   UNL A   1      39.104  21.762  25.955  1.00  0.00    -0.269 OA
BRANCH  31  34
ATOM     34  C   UNL A   1      39.126  23.978  26.732  1.00  0.00     0.039 A 
ATOM     35  C   UNL A   1      39.776  24.807  25.812  1.00  0.00     0.014 A 
ATOM     36  C   UNL A   1      39.163  24.290  28.094  1.00  0.00     0.014 A 
ATOM     37  C   UNL A   1      40.423  25.965  26.252  1.00  0.00     0.010 A 
ATOM     38  C   UNL A   1      39.745  25.483  28.523  1.00  0.00     0.010 A 
ATOM     39  C   UNL A   1      40.392  26.328  27.608  1.00  0.00    -0.014 A 
BRANCH  39  40
ATOM     40  C   UNL A   1      41.050  27.574  28.085  1.00  0.00     0.031 A 
ATOM     41  C   UNL A   1      42.551  27.707  28.032  1.00  0.00     0.074 A 
ATOM     42  C   UNL A   1      40.302  28.568  28.607  1.00  0.00     0.049 A 
ATOM     43  N   UNL A   1      43.308  28.692  28.444  1.00  0.00    -0.248 NA
ATOM     44  C   UNL A   1      43.301  26.574  27.465  1.00  0.00     0.031 C 
ATOM     45  C   UNL A   1      38.846  28.541  28.759  1.00  0.00     0.029 A 
ATOM     46  N   UNL A   1      40.664  29.791  29.115  1.00  0.00    -0.354 N 
ATOM     47  C   UNL A   1      44.618  28.291  28.202  1.00  0.00     0.074 A 
ATOM     48  C   UNL A   1      44.556  26.955  27.653  1.00  0.00     0.031 C 
ATOM     49  C   UNL A   1      38.438  29.698  29.304  1.00  0.00     0.029 A 
ATOM     50  C   UNL A   1      39.602  30.536  29.573  1.00  0.00     0.049 A 
ATOM     51  H   UNL A   1      41.596  30.106  29.148  1.00  0.00     0.167 HD
ATOM     52  C   UNL A   1      45.766  28.983  28.399  1.00  0.00     0.037 A 
ATOM     53  C   UNL A   1      39.569  31.753  30.152  1.00  0.00     0.037 A 
ATOM     54  C   UNL A   1      45.818  30.329  28.913  1.00  0.00     0.049 A 
ATOM     55  C   UNL A   1      40.858  32.509  30.340  1.00  0.00     0.074 A 
ATOM     56  C   UNL A   1      46.927  31.138  29.090  1.00  0.00     0.029 A 
ATOM     57  N   UNL A   1      44.717  31.062  29.331  1.00  0.00    -0.354 N 
ATOM     58  N   UNL A   1      42.082  32.139  30.045  1.00  0.00    -0.248 NA
ATOM     59  C   UNL A   1      40.762  33.852  30.928  1.00  0.00     0.031 C 
ATOM     60  C   UNL A   1      46.502  32.344  29.658  1.00  0.00     0.029 A 
ATOM     61  C   UNL A   1      45.123  32.308  29.780  1.00  0.00     0.049 A 
ATOM     62  H   UNL A   1      43.786  30.745  29.311  1.00  0.00     0.167 HD
ATOM     63  C   UNL A   1      42.895  33.219  30.376  1.00  0.00     0.074 A 
ATOM     64  C   UNL A   1      42.024  34.257  30.883  1.00  0.00     0.031 C 
ATOM     65  C   UNL A   1      44.242  33.340  30.267  1.00  0.00     0.037 A 
BRANCH  52  66
ATOM     66  C   UNL A   1      47.065  28.310  28.049  1.00  0.00     0.058 A 
ATOM     67  C   UNL A   1      47.796  27.576  28.996  1.00  0.00     0.135 A 
ATOM     68  C   UNL A   1      47.554  28.345  26.731  1.00  0.00     0.135 A 
ATOM     69  F   UNL A   1      47.385  27.521  30.273  1.00  0.00    -0.206 F 
ATOM     70  C   UNL A   1      48.971  26.914  28.656  1.00  0.00     0.059 A 
ATOM     71  C   UNL A   1      48.713  27.667  26.362  1.00  0.00     0.059 A 
ATOM     72  F   UNL A   1      46.897  29.034  25.785  1.00  0.00    -0.206 F 
ATOM     73  C   UNL A   1      49.419  26.961  27.335  1.00  0.00     0.060 A 
BRANCH  73  74
ATOM     74  S   UNL A   1      50.929  26.070  26.904  1.00  0.00     0.124 S 
ATOM     75  O   UNL A   1      51.923  26.774  27.708  1.00  0.00    -0.237 OA
ATOM     76  O   UNL A   1      50.618  24.708  27.329  1.00  0.00    -0.237 OA
ATOM     77  O   UNL A   1      51.039  26.263  25.461  1.00  0.00    -0.744 OA
ENDBRANCH  73  74
ENDBRANCH  52  66
BRANCH  53  78
ATOM     78  C   UNL A   1      38.272  32.344  30.581  1.00  0.00     0.058 A 
ATOM     79  C   UNL A   1      37.535  33.178  29.726  1.00  0.00     0.135 A 
ATOM     80  C   UNL A   1      37.750  32.100  31.861  1.00  0.00     0.135 A 
ATOM     81  F   UNL A   1      37.992  33.445  28.493  1.00  0.00    -0.206 F 
ATOM     82  C   UNL A   1      36.345  33.773  30.134  1.00  0.00     0.059 A 
ATOM     83  C   UNL A   1      36.547  32.660  32.281  1.00  0.00     0.059 A 
ATOM     84  F   UNL A   1      38.405  31.295  32.713  1.00  0.00    -0.206 F 
ATOM     85  C   UNL A   1      35.860  33.509  31.415  1.00  0.00     0.060 A 
BRANCH  85  86
ATOM     86  S   UNL A   1      34.305  34.269  31.930  1.00  0.00     0.124 S 
ATOM     87  O   UNL A   1      33.746  33.237  32.794  1.00  0.00    -0.237 OA
ATOM     88  O   UNL A   1      34.763  35.484  32.596  1.00  0.00    -0.237 OA
ATOM     89  O   UNL A   1      33.604  34.484  30.667  1.00  0.00    -0.744 OA
ENDBRANCH  85  86
ENDBRANCH  53  78
BRANCH  65  90
ATOM     90  C   UNL A   1      44.852  34.660  30.649  1.00  0.00     0.058 A 
ATOM     91  C   UNL A   1      44.966  35.721  29.736  1.00  0.00     0.135 A 
ATOM     92  C   UNL A   1      45.293  34.879  31.965  1.00  0.00     0.135 A 
ATOM     93  F   UNL A   1      44.561  35.564  28.466  1.00  0.00    -0.206 F 
ATOM     94  C   UNL A   1      45.529  36.939  30.104  1.00  0.00     0.059 A 
ATOM     95  C   UNL A   1      45.830  36.100  32.362  1.00  0.00     0.059 A 
ATOM     96  F   UNL A   1      45.195  33.904  32.882  1.00  0.00    -0.206 F 
ATOM     97  C   UNL A   1      45.959  37.118  31.420  1.00  0.00     0.060 A 
BRANCH  97  98
ATOM     98  S   UNL A   1      46.673  38.709  31.889  1.00  0.00     0.124 S 
ATOM     99  O   UNL A   1      46.468  39.491  30.675  1.00  0.00    -0.237 OA
ATOM    100  O   UNL A   1      45.856  39.093  33.036  1.00  0.00    -0.237 OA
ATOM    101  O   UNL A   1      48.061  38.379  32.198  1.00  0.00    -0.744 OA
ENDBRANCH  97  98
ENDBRANCH  65  90
ENDBRANCH  39  40
ENDBRANCH  31  34
ENDBRANCH  29  30
ENDBRANCH  28  29
ENDBRANCH  27  28
ENDBRANCH   1  27
TORSDOF 20
ENDMDL
