MODEL 1
REMARK VINA RESULT:     -11.4      0.000      0.000
REMARK SMILES CS(=O)(=O)Nc1cc(C(=O)NCCCCCCNC(=O)c2ccc(-c3c4nc(c(-c5c(F)cc(S(=O)(=O)[O-])cc5F)c5ccc([nH]5)c(-c5c(F)cc(S(=O)(=O)[O-])cc5F)c5nc(c(-c6c(F)cc(S(=O)(=O)[O-])cc6F)c6ccc3[nH]6)C=C5)C=C4)cc2)ccc1N1CC[NH+](CC(=O)N2CCCC2)CC1
REMARK SMILES IDX 14 1 13 2 12 3 11 4 9 5 10 6 8 8 6 9 7 10 89 11 88 12 87 13
REMARK SMILES IDX 5 14 2 16 1 17 3 18 4 19 90 20 91 21 103 22 92 23 102 24
REMARK SMILES IDX 93 25 94 27 95 28 96 29 97 30 98 31 101 32 99 33 100 34
REMARK SMILES IDX 15 35 16 36 17 37 18 38 19 39 20 41 21 42 22 43 86 44 23 45
REMARK SMILES IDX 85 46 24 47 25 48 26 49 79 50 27 51 84 52 78 53 80 54 28 55
REMARK SMILES IDX 83 56 77 57 76 58 29 60 63 61 42 62 62 63 43 64 46 65 61 66
REMARK SMILES IDX 81 67 44 68 45 69 60 71 82 72 47 73 30 74 31 75 40 76 32 77
REMARK SMILES IDX 33 78 39 79 41 80 34 81 35 82 36 83 37 84 38 85 64 86 65 87
REMARK SMILES IDX 74 88 66 89 67 90 73 91 75 92 68 93 69 94 70 95 71 96 72 97
REMARK SMILES IDX 48 98 49 99 58 100 50 101 51 102 57 103 59 104 52 105 53 106
REMARK SMILES IDX 54 107 55 108 56 109
REMARK H PARENT 11 7 5 15 93 26 18 40 80 59 46 70
REMARK Flexibility Score: inf
ROOT
ATOM      1  C   UNL A   1      39.893  26.325  27.527  1.00  0.00     0.002 C 
ENDROOT
BRANCH   1   2
ATOM      2  C   UNL A   1      39.999  24.797  27.535  1.00  0.00     0.021 C 
BRANCH   2   3
ATOM      3  C   UNL A   1      38.739  24.031  27.136  1.00  0.00     0.116 C 
BRANCH   3   4
ATOM      4  N   UNL A   1      39.018  22.735  26.548  1.00  0.00    -0.352 N 
ATOM      5  C   UNL A   1      38.242  21.899  25.784  1.00  0.00     0.251 C 
ATOM      6  O   UNL A   1      38.699  20.798  25.482  1.00  0.00    -0.269 OA
ATOM      7  H   UNL A   1      39.924  22.394  26.728  1.00  0.00     0.163 HD
BRANCH   5   8
ATOM      8  C   UNL A   1      36.864  22.252  25.346  1.00  0.00     0.042 A 
ATOM      9  C   UNL A   1      34.507  21.596  25.251  1.00  0.00     0.073 A 
ATOM     10  C   UNL A   1      35.844  21.330  25.596  1.00  0.00     0.042 A 
ATOM     11  C   UNL A   1      34.137  22.875  24.749  1.00  0.00     0.062 A 
ATOM     12  C   UNL A   1      35.200  23.733  24.405  1.00  0.00     0.029 A 
ATOM     13  C   UNL A   1      36.539  23.420  24.671  1.00  0.00     0.016 A 
BRANCH   9  14
ATOM     14  N   UNL A   1      33.604  20.576  25.686  1.00  0.00    -0.282 N 
ATOM     15  H   UNL A   1      33.301  20.620  26.622  1.00  0.00     0.180 HD
BRANCH  14  16
ATOM     16  S   UNL A   1      33.018  19.326  24.769  1.00  0.00     0.229 S 
ATOM     17  C   UNL A   1      34.339  18.209  24.334  1.00  0.00     0.183 C 
ATOM     18  O   UNL A   1      32.522  19.946  23.552  1.00  0.00    -0.207 OA
ATOM     19  O   UNL A   1      32.094  18.598  25.610  1.00  0.00    -0.207 OA
ENDBRANCH  14  16
ENDBRANCH   9  14
BRANCH  11  20
ATOM     20  N   UNL A   1      32.805  23.312  24.621  1.00  0.00    -0.359 N 
ATOM     21  C   UNL A   1      32.268  23.715  23.284  1.00  0.00     0.178 C 
ATOM     22  C   UNL A   1      32.351  24.246  25.653  1.00  0.00     0.178 C 
ATOM     23  C   UNL A   1      30.743  24.039  23.320  1.00  0.00     0.284 C 
ATOM     24  C   UNL A   1      30.821  24.301  25.717  1.00  0.00     0.284 C 
ATOM     25  N   UNL A   1      30.220  24.788  24.478  1.00  0.00    -0.324 N 
ATOM     26  H   UNL A   1      29.223  24.577  24.489  1.00  0.00     0.348 HD
BRANCH  25  27
ATOM     27  C   UNL A   1      30.174  26.257  24.376  1.00  0.00     0.363 C 
BRANCH  27  28
ATOM     28  C   UNL A   1      28.901  26.900  23.817  1.00  0.00     0.277 C 
ATOM     29  O   UNL A   1      27.803  26.404  24.088  1.00  0.00    -0.268 OA
ATOM     30  N   UNL A   1      28.988  28.076  23.089  1.00  0.00    -0.338 N 
ATOM     31  C   UNL A   1      30.122  28.665  22.381  1.00  0.00     0.119 C 
ATOM     32  C   UNL A   1      27.797  28.892  22.907  1.00  0.00     0.119 C 
ATOM     33  C   UNL A   1      29.688  30.079  22.037  1.00  0.00     0.023 C 
ATOM     34  C   UNL A   1      28.178  29.944  21.877  1.00  0.00     0.023 C 
ENDBRANCH  27  28
ENDBRANCH  25  27
ENDBRANCH  11  20
ENDBRANCH   5   8
ENDBRANCH   3   4
ENDBRANCH   2   3
ENDBRANCH   1   2
BRANCH   1  35
ATOM     35  C   UNL A   1      40.852  27.064  26.591  1.00  0.00     0.002 C 
BRANCH  35  36
ATOM     36  C   UNL A   1      41.430  26.240  25.439  1.00  0.00     0.021 C 
BRANCH  36  37
ATOM     37  C   UNL A   1      42.904  26.482  25.132  1.00  0.00     0.116 C 
BRANCH  37  38
ATOM     38  N   UNL A   1      43.757  25.402  25.596  1.00  0.00    -0.352 N 
ATOM     39  C   UNL A   1      44.353  25.228  26.822  1.00  0.00     0.251 C 
ATOM     40  H   UNL A   1      43.932  24.692  24.938  1.00  0.00     0.163 HD
ATOM     41  O   UNL A   1      45.175  24.331  26.979  1.00  0.00    -0.269 OA
BRANCH  39  42
ATOM     42  C   UNL A   1      44.023  26.137  27.942  1.00  0.00     0.039 A 
ATOM     43  C   UNL A   1      44.496  27.451  27.906  1.00  0.00     0.014 A 
ATOM     44  C   UNL A   1      43.254  25.699  29.024  1.00  0.00     0.014 A 
ATOM     45  C   UNL A   1      44.146  28.342  28.924  1.00  0.00     0.010 A 
ATOM     46  C   UNL A   1      42.842  26.608  29.996  1.00  0.00     0.010 A 
ATOM     47  C   UNL A   1      43.287  27.938  29.959  1.00  0.00    -0.014 A 
BRANCH  47  48
ATOM     48  C   UNL A   1      42.844  28.894  31.009  1.00  0.00     0.031 A 
ATOM     49  C   UNL A   1      43.630  29.034  32.286  1.00  0.00     0.074 A 
ATOM     50  C   UNL A   1      41.709  29.601  30.833  1.00  0.00     0.049 A 
ATOM     51  N   UNL A   1      43.370  29.764  33.339  1.00  0.00    -0.248 NA
ATOM     52  C   UNL A   1      44.857  28.229  32.404  1.00  0.00     0.031 C 
ATOM     53  C   UNL A   1      40.841  29.527  29.654  1.00  0.00     0.029 A 
ATOM     54  N   UNL A   1      41.086  30.517  31.643  1.00  0.00    -0.354 N 
ATOM     55  C   UNL A   1      44.395  29.508  34.242  1.00  0.00     0.074 A 
ATOM     56  C   UNL A   1      45.246  28.506  33.640  1.00  0.00     0.031 C 
ATOM     57  C   UNL A   1      39.815  30.381  29.809  1.00  0.00     0.029 A 
ATOM     58  C   UNL A   1      39.925  31.029  31.111  1.00  0.00     0.049 A 
ATOM     59  H   UNL A   1      41.436  30.781  32.524  1.00  0.00     0.167 HD
ATOM     60  C   UNL A   1      44.623  30.076  35.451  1.00  0.00     0.037 A 
ATOM     61  C   UNL A   1      39.044  31.914  31.619  1.00  0.00     0.037 A 
ATOM     62  C   UNL A   1      43.779  31.083  36.040  1.00  0.00     0.049 A 
ATOM     63  C   UNL A   1      39.301  32.502  32.981  1.00  0.00     0.074 A 
ATOM     64  C   UNL A   1      43.942  31.745  37.245  1.00  0.00     0.029 A 
ATOM     65  N   UNL A   1      42.615  31.577  35.468  1.00  0.00    -0.354 N 
ATOM     66  N   UNL A   1      40.304  32.285  33.798  1.00  0.00    -0.248 NA
ATOM     67  C   UNL A   1      38.310  33.461  33.488  1.00  0.00     0.031 C 
ATOM     68  C   UNL A   1      42.851  32.602  37.425  1.00  0.00     0.029 A 
ATOM     69  C   UNL A   1      42.039  32.519  36.306  1.00  0.00     0.049 A 
ATOM     70  H   UNL A   1      42.251  31.299  34.597  1.00  0.00     0.167 HD
ATOM     71  C   UNL A   1      40.084  33.107  34.898  1.00  0.00     0.074 A 
ATOM     72  C   UNL A   1      38.859  33.833  34.637  1.00  0.00     0.031 C 
ATOM     73  C   UNL A   1      40.828  33.248  36.023  1.00  0.00     0.037 A 
BRANCH  60  74
ATOM     74  C   UNL A   1      45.840  29.631  36.216  1.00  0.00     0.058 A 
ATOM     75  C   UNL A   1      45.788  28.560  37.124  1.00  0.00     0.135 A 
ATOM     76  C   UNL A   1      47.086  30.245  36.005  1.00  0.00     0.135 A 
ATOM     77  F   UNL A   1      44.621  27.946  37.378  1.00  0.00    -0.206 F 
ATOM     78  C   UNL A   1      46.919  28.129  37.809  1.00  0.00     0.059 A 
ATOM     79  C   UNL A   1      48.237  29.810  36.657  1.00  0.00     0.059 A 
ATOM     80  F   UNL A   1      47.196  31.275  35.150  1.00  0.00    -0.206 F 
ATOM     81  C   UNL A   1      48.140  28.759  37.567  1.00  0.00     0.060 A 
BRANCH  81  82
ATOM     82  S   UNL A   1      49.599  28.175  38.454  1.00  0.00     0.124 S 
ATOM     83  O   UNL A   1      49.461  28.870  39.731  1.00  0.00    -0.237 OA
ATOM     84  O   UNL A   1      49.383  26.733  38.491  1.00  0.00    -0.237 OA
ATOM     85  O   UNL A   1      50.708  28.620  37.617  1.00  0.00    -0.744 OA
ENDBRANCH  81  82
ENDBRANCH  60  74
BRANCH  61  86
ATOM     86  C   UNL A   1      37.842  32.313  30.835  1.00  0.00     0.058 A 
ATOM     87  C   UNL A   1      37.928  33.285  29.827  1.00  0.00     0.135 A 
ATOM     88  C   UNL A   1      36.583  31.748  31.090  1.00  0.00     0.135 A 
ATOM     89  F   UNL A   1      39.108  33.860  29.548  1.00  0.00    -0.206 F 
ATOM     90  C   UNL A   1      36.805  33.707  29.122  1.00  0.00     0.059 A 
ATOM     91  C   UNL A   1      35.451  32.130  30.376  1.00  0.00     0.059 A 
ATOM     92  F   UNL A   1      36.448  30.800  32.030  1.00  0.00    -0.206 F 
ATOM     93  C   UNL A   1      35.570  33.123  29.405  1.00  0.00     0.060 A 
BRANCH  93  94
ATOM     94  S   UNL A   1      34.122  33.664  28.471  1.00  0.00     0.124 S 
ATOM     95  O   UNL A   1      33.289  34.232  29.524  1.00  0.00    -0.237 OA
ATOM     96  O   UNL A   1      34.703  34.617  27.530  1.00  0.00    -0.237 OA
ATOM     97  O   UNL A   1      33.628  32.427  27.874  1.00  0.00    -0.744 OA
ENDBRANCH  93  94
ENDBRANCH  61  86
BRANCH  73  98
ATOM     98  C   UNL A   1      40.368  34.259  37.038  1.00  0.00     0.058 A 
ATOM     99  C   UNL A   1      39.501  33.918  38.087  1.00  0.00     0.135 A 
ATOM    100  C   UNL A   1      40.844  35.581  36.986  1.00  0.00     0.135 A 
ATOM    101  F   UNL A   1      39.011  32.671  38.181  1.00  0.00    -0.206 F 
ATOM    102  C   UNL A   1      39.102  34.856  39.034  1.00  0.00     0.059 A 
ATOM    103  C   UNL A   1      40.484  36.526  37.940  1.00  0.00     0.059 A 
ATOM    104  F   UNL A   1      41.683  35.960  36.009  1.00  0.00    -0.206 F 
ATOM    105  C   UNL A   1      39.602  36.157  38.955  1.00  0.00     0.060 A 
BRANCH 105 106
ATOM    106  S   UNL A   1      39.103  37.353  40.212  1.00  0.00     0.124 S 
ATOM    107  O   UNL A   1      40.396  37.839  40.685  1.00  0.00    -0.237 OA
ATOM    108  O   UNL A   1      38.312  38.305  39.439  1.00  0.00    -0.237 OA
ATOM    109  O   UNL A   1      38.349  36.548  41.168  1.00  0.00    -0.744 OA
ENDBRANCH 105 106
ENDBRANCH  73  98
ENDBRANCH  47  48
ENDBRANCH  39  42
ENDBRANCH  37  38
ENDBRANCH  36  37
ENDBRANCH  35  36
ENDBRANCH   1  35
TORSDOF 21
ENDMDL
MODEL 2
REMARK VINA RESULT:     -11.2      2.253      3.476
REMARK SMILES CS(=O)(=O)Nc1cc(C(=O)NCCCCCCNC(=O)c2ccc(-c3c4nc(c(-c5c(F)cc(S(=O)(=O)[O-])cc5F)c5ccc([nH]5)c(-c5c(F)cc(S(=O)(=O)[O-])cc5F)c5nc(c(-c6c(F)cc(S(=O)(=O)[O-])cc6F)c6ccc3[nH]6)C=C5)C=C4)cc2)ccc1N1CC[NH+](CC(=O)N2CCCC2)CC1
REMARK SMILES IDX 14 1 13 2 12 3 11 4 9 5 10 6 8 8 6 9 7 10 89 11 88 12 87 13
REMARK SMILES IDX 5 14 2 16 1 17 3 18 4 19 90 20 91 21 103 22 92 23 102 24
REMARK SMILES IDX 93 25 94 27 95 28 96 29 97 30 98 31 101 32 99 33 100 34
REMARK SMILES IDX 15 35 16 36 17 37 18 38 19 39 20 41 21 42 22 43 86 44 23 45
REMARK SMILES IDX 85 46 24 47 25 48 26 49 79 50 27 51 84 52 78 53 80 54 28 55
REMARK SMILES IDX 83 56 77 57 76 58 29 60 63 61 42 62 62 63 43 64 46 65 61 66
REMARK SMILES IDX 81 67 44 68 45 69 60 71 82 72 47 73 30 74 31 75 40 76 32 77
REMARK SMILES IDX 33 78 39 79 41 80 34 81 35 82 36 83 37 84 38 85 64 86 65 87
REMARK SMILES IDX 74 88 66 89 67 90 73 91 75 92 68 93 69 94 70 95 71 96 72 97
REMARK SMILES IDX 48 98 49 99 58 100 50 101 51 102 57 103 59 104 52 105 53 106
REMARK SMILES IDX 54 107 55 108 56 109
REMARK H PARENT 11 7 5 15 93 26 18 40 80 59 46 70
REMARK Flexibility Score: inf
ROOT
ATOM      1  C   UNL A   1      38.160  23.006  26.016  1.00  0.00     0.002 C 
ENDROOT
BRANCH   1   2
ATOM      2  C   UNL A   1      38.117  21.485  25.851  1.00  0.00     0.021 C 
BRANCH   2   3
ATOM      3  C   UNL A   1      37.436  20.962  24.587  1.00  0.00     0.116 C 
BRANCH   3   4
ATOM      4  N   UNL A   1      36.239  20.189  24.858  1.00  0.00    -0.352 N 
ATOM      5  C   UNL A   1      34.936  20.573  25.056  1.00  0.00     0.251 C 
ATOM      6  O   UNL A   1      34.116  19.708  25.361  1.00  0.00    -0.269 OA
ATOM      7  H   UNL A   1      36.388  19.217  24.911  1.00  0.00     0.163 HD
BRANCH   5   8
ATOM      8  C   UNL A   1      34.488  21.989  24.957  1.00  0.00     0.042 A 
ATOM      9  C   UNL A   1      33.415  23.712  23.589  1.00  0.00     0.073 A 
ATOM     10  C   UNL A   1      33.901  22.404  23.758  1.00  0.00     0.042 A 
ATOM     11  C   UNL A   1      33.393  24.617  24.686  1.00  0.00     0.062 A 
ATOM     12  C   UNL A   1      34.092  24.205  25.838  1.00  0.00     0.029 A 
ATOM     13  C   UNL A   1      34.654  22.928  25.964  1.00  0.00     0.016 A 
BRANCH   9  14
ATOM     14  N   UNL A   1      32.758  23.906  22.333  1.00  0.00    -0.282 N 
ATOM     15  H   UNL A   1      32.154  23.189  22.033  1.00  0.00     0.180 HD
BRANCH  14  16
ATOM     16  S   UNL A   1      32.913  25.220  21.335  1.00  0.00     0.229 S 
ATOM     17  C   UNL A   1      31.490  26.284  21.491  1.00  0.00     0.183 C 
ATOM     18  O   UNL A   1      32.934  24.676  19.988  1.00  0.00    -0.207 OA
ATOM     19  O   UNL A   1      34.061  25.961  21.809  1.00  0.00    -0.207 OA
ENDBRANCH  14  16
ENDBRANCH   9  14
BRANCH  11  20
ATOM     20  N   UNL A   1      32.700  25.842  24.680  1.00  0.00    -0.359 N 
ATOM     21  C   UNL A   1      33.449  27.133  24.572  1.00  0.00     0.178 C 
ATOM     22  C   UNL A   1      31.627  25.960  25.670  1.00  0.00     0.178 C 
ATOM     23  C   UNL A   1      32.506  28.369  24.446  1.00  0.00     0.284 C 
ATOM     24  C   UNL A   1      30.652  27.082  25.299  1.00  0.00     0.284 C 
ATOM     25  N   UNL A   1      31.286  28.397  25.275  1.00  0.00    -0.324 N 
ATOM     26  H   UNL A   1      30.669  29.053  24.797  1.00  0.00     0.348 HD
BRANCH  25  27
ATOM     27  C   UNL A   1      31.376  29.039  26.598  1.00  0.00     0.363 C 
BRANCH  27  28
ATOM     28  C   UNL A   1      32.127  30.370  26.702  1.00  0.00     0.277 C 
ATOM     29  O   UNL A   1      31.540  31.420  26.419  1.00  0.00    -0.268 OA
ATOM     30  N   UNL A   1      33.423  30.392  27.193  1.00  0.00    -0.338 N 
ATOM     31  C   UNL A   1      34.414  29.322  27.286  1.00  0.00     0.119 C 
ATOM     32  C   UNL A   1      33.985  31.646  27.668  1.00  0.00     0.119 C 
ATOM     33  C   UNL A   1      35.516  29.874  28.173  1.00  0.00     0.023 C 
ATOM     34  C   UNL A   1      35.464  31.371  27.892  1.00  0.00     0.023 C 
ENDBRANCH  27  28
ENDBRANCH  25  27
ENDBRANCH  11  20
ENDBRANCH   5   8
ENDBRANCH   3   4
ENDBRANCH   2   3
ENDBRANCH   1   2
BRANCH   1  35
ATOM     35  C   UNL A   1      39.200  23.550  26.998  1.00  0.00     0.002 C 
BRANCH  35  36
ATOM     36  C   UNL A   1      40.483  22.728  27.137  1.00  0.00     0.021 C 
BRANCH  36  37
ATOM     37  C   UNL A   1      41.766  23.534  27.314  1.00  0.00     0.116 C 
BRANCH  37  38
ATOM     38  N   UNL A   1      42.128  24.278  26.119  1.00  0.00    -0.352 N 
ATOM     39  C   UNL A   1      42.078  25.630  25.886  1.00  0.00     0.251 C 
ATOM     40  H   UNL A   1      42.459  23.733  25.369  1.00  0.00     0.163 HD
ATOM     41  O   UNL A   1      42.272  26.063  24.755  1.00  0.00    -0.269 OA
BRANCH  39  42
ATOM     42  C   UNL A   1      41.764  26.561  26.994  1.00  0.00     0.039 A 
ATOM     43  C   UNL A   1      40.655  26.299  27.801  1.00  0.00     0.014 A 
ATOM     44  C   UNL A   1      42.554  27.689  27.235  1.00  0.00     0.014 A 
ATOM     45  C   UNL A   1      40.376  27.132  28.888  1.00  0.00     0.010 A 
ATOM     46  C   UNL A   1      42.321  28.473  28.362  1.00  0.00     0.010 A 
ATOM     47  C   UNL A   1      41.227  28.206  29.199  1.00  0.00    -0.014 A 
BRANCH  47  48
ATOM     48  C   UNL A   1      40.988  29.057  30.395  1.00  0.00     0.031 A 
ATOM     49  C   UNL A   1      41.822  28.873  31.635  1.00  0.00     0.074 A 
ATOM     50  C   UNL A   1      39.988  29.961  30.381  1.00  0.00     0.049 A 
ATOM     51  N   UNL A   1      41.723  29.472  32.793  1.00  0.00    -0.248 NA
ATOM     52  C   UNL A   1      42.894  27.865  31.573  1.00  0.00     0.031 C 
ATOM     53  C   UNL A   1      39.086  30.209  29.252  1.00  0.00     0.029 A 
ATOM     54  N   UNL A   1      39.556  30.838  31.345  1.00  0.00    -0.354 N 
ATOM     55  C   UNL A   1      42.715  28.917  33.595  1.00  0.00     0.074 A 
ATOM     56  C   UNL A   1      43.362  27.888  32.812  1.00  0.00     0.031 C 
ATOM     57  C   UNL A   1      38.229  31.190  29.581  1.00  0.00     0.029 A 
ATOM     58  C   UNL A   1      38.487  31.610  30.954  1.00  0.00     0.049 A 
ATOM     59  H   UNL A   1      39.972  30.907  32.235  1.00  0.00     0.167 HD
ATOM     60  C   UNL A   1      43.072  29.254  34.858  1.00  0.00     0.037 A 
ATOM     61  C   UNL A   1      37.787  32.545  31.628  1.00  0.00     0.037 A 
ATOM     62  C   UNL A   1      42.432  30.290  35.627  1.00  0.00     0.049 A 
ATOM     63  C   UNL A   1      38.182  32.874  33.043  1.00  0.00     0.074 A 
ATOM     64  C   UNL A   1      42.742  30.729  36.902  1.00  0.00     0.029 A 
ATOM     65  N   UNL A   1      41.356  31.050  35.193  1.00  0.00    -0.354 N 
ATOM     66  N   UNL A   1      39.155  32.374  33.766  1.00  0.00    -0.248 NA
ATOM     67  C   UNL A   1      37.387  33.900  33.733  1.00  0.00     0.031 C 
ATOM     68  C   UNL A   1      41.822  31.720  37.260  1.00  0.00     0.029 A 
ATOM     69  C   UNL A   1      40.976  31.940  36.185  1.00  0.00     0.049 A 
ATOM     70  H   UNL A   1      40.924  30.969  34.313  1.00  0.00     0.167 HD
ATOM     71  C   UNL A   1      39.112  33.049  34.982  1.00  0.00     0.074 A 
ATOM     72  C   UNL A   1      38.025  34.001  34.891  1.00  0.00     0.031 C 
ATOM     73  C   UNL A   1      39.901  32.895  36.074  1.00  0.00     0.037 A 
BRANCH  60  74
ATOM     74  C   UNL A   1      44.215  28.504  35.485  1.00  0.00     0.058 A 
ATOM     75  C   UNL A   1      44.017  27.283  36.153  1.00  0.00     0.135 A 
ATOM     76  C   UNL A   1      45.533  28.979  35.377  1.00  0.00     0.135 A 
ATOM     77  F   UNL A   1      42.777  26.788  36.301  1.00  0.00    -0.206 F 
ATOM     78  C   UNL A   1      45.076  26.575  36.708  1.00  0.00     0.059 A 
ATOM     79  C   UNL A   1      46.612  28.271  35.898  1.00  0.00     0.059 A 
ATOM     80  F   UNL A   1      45.783  30.141  34.752  1.00  0.00    -0.206 F 
ATOM     81  C   UNL A   1      46.371  27.076  36.573  1.00  0.00     0.060 A 
BRANCH  81  82
ATOM     82  S   UNL A   1      47.736  26.133  37.287  1.00  0.00     0.124 S 
ATOM     83  O   UNL A   1      47.029  25.253  38.212  1.00  0.00    -0.237 OA
ATOM     84  O   UNL A   1      48.314  25.487  36.113  1.00  0.00    -0.237 OA
ATOM     85  O   UNL A   1      48.569  27.157  37.909  1.00  0.00    -0.744 OA
ENDBRANCH  81  82
ENDBRANCH  60  74
BRANCH  61  86
ATOM     86  C   UNL A   1      36.651  33.251  30.974  1.00  0.00     0.058 A 
ATOM     87  C   UNL A   1      36.874  34.193  29.958  1.00  0.00     0.135 A 
ATOM     88  C   UNL A   1      35.322  33.014  31.362  1.00  0.00     0.135 A 
ATOM     89  F   UNL A   1      38.125  34.460  29.554  1.00  0.00    -0.206 F 
ATOM     90  C   UNL A   1      35.828  34.899  29.374  1.00  0.00     0.059 A 
ATOM     91  C   UNL A   1      34.256  33.685  30.770  1.00  0.00     0.059 A 
ATOM     92  F   UNL A   1      35.051  32.110  32.316  1.00  0.00    -0.206 F 
ATOM     93  C   UNL A   1      34.521  34.638  29.789  1.00  0.00     0.060 A 
BRANCH  93  94
ATOM     94  S   UNL A   1      33.167  35.546  29.011  1.00  0.00     0.124 S 
ATOM     95  O   UNL A   1      33.890  36.580  28.280  1.00  0.00    -0.237 OA
ATOM     96  O   UNL A   1      32.532  34.513  28.199  1.00  0.00    -0.237 OA
ATOM     97  O   UNL A   1      32.379  36.011  30.149  1.00  0.00    -0.744 OA
ENDBRANCH  93  94
ENDBRANCH  61  86
BRANCH  73  98
ATOM     98  C   UNL A   1      39.653  33.808  37.244  1.00  0.00     0.058 A 
ATOM     99  C   UNL A   1      38.754  33.475  38.268  1.00  0.00     0.135 A 
ATOM    100  C   UNL A   1      40.366  35.013  37.365  1.00  0.00     0.135 A 
ATOM    101  F   UNL A   1      38.042  32.339  38.200  1.00  0.00    -0.206 F 
ATOM    102  C   UNL A   1      38.551  34.316  39.358  1.00  0.00     0.059 A 
ATOM    103  C   UNL A   1      40.203  35.853  38.462  1.00  0.00     0.059 A 
ATOM    104  F   UNL A   1      41.247  35.377  36.419  1.00  0.00    -0.206 F 
ATOM    105  C   UNL A   1      39.283  35.501  39.449  1.00  0.00     0.060 A 
BRANCH 105 106
ATOM    106  S   UNL A   1      39.035  36.563  40.887  1.00  0.00     0.124 S 
ATOM    107  O   UNL A   1      38.072  35.787  41.663  1.00  0.00    -0.237 OA
ATOM    108  O   UNL A   1      40.380  36.648  41.447  1.00  0.00    -0.237 OA
ATOM    109  O   UNL A   1      38.521  37.802  40.311  1.00  0.00    -0.744 OA
ENDBRANCH 105 106
ENDBRANCH  73  98
ENDBRANCH  47  48
ENDBRANCH  39  42
ENDBRANCH  37  38
ENDBRANCH  36  37
ENDBRANCH  35  36
ENDBRANCH   1  35
TORSDOF 21
ENDMDL
MODEL 3
REMARK VINA RESULT:     -11.2      5.994     11.565
REMARK SMILES CS(=O)(=O)Nc1cc(C(=O)NCCCCCCNC(=O)c2ccc(-c3c4nc(c(-c5c(F)cc(S(=O)(=O)[O-])cc5F)c5ccc([nH]5)c(-c5c(F)cc(S(=O)(=O)[O-])cc5F)c5nc(c(-c6c(F)cc(S(=O)(=O)[O-])cc6F)c6ccc3[nH]6)C=C5)C=C4)cc2)ccc1N1CC[NH+](CC(=O)N2CCCC2)CC1
REMARK SMILES IDX 14 1 13 2 12 3 11 4 9 5 10 6 8 8 6 9 7 10 89 11 88 12 87 13
REMARK SMILES IDX 5 14 2 16 1 17 3 18 4 19 90 20 91 21 103 22 92 23 102 24
REMARK SMILES IDX 93 25 94 27 95 28 96 29 97 30 98 31 101 32 99 33 100 34
REMARK SMILES IDX 15 35 16 36 17 37 18 38 19 39 20 41 21 42 22 43 86 44 23 45
REMARK SMILES IDX 85 46 24 47 25 48 26 49 79 50 27 51 84 52 78 53 80 54 28 55
REMARK SMILES IDX 83 56 77 57 76 58 29 60 63 61 42 62 62 63 43 64 46 65 61 66
REMARK SMILES IDX 81 67 44 68 45 69 60 71 82 72 47 73 30 74 31 75 40 76 32 77
REMARK SMILES IDX 33 78 39 79 41 80 34 81 35 82 36 83 37 84 38 85 64 86 65 87
REMARK SMILES IDX 74 88 66 89 67 90 73 91 75 92 68 93 69 94 70 95 71 96 72 97
REMARK SMILES IDX 48 98 49 99 58 100 50 101 51 102 57 103 59 104 52 105 53 106
REMARK SMILES IDX 54 107 55 108 56 109
REMARK H PARENT 11 7 5 15 93 26 18 40 80 59 46 70
REMARK Flexibility Score: inf
ROOT
ATOM      1  C   UNL A   1      32.289  29.519  27.264  1.00  0.00     0.002 C 
ENDROOT
BRANCH   1   2
ATOM      2  C   UNL A   1      31.394  30.620  26.690  1.00  0.00     0.021 C 
BRANCH   2   3
ATOM      3  C   UNL A   1      31.450  30.815  25.176  1.00  0.00     0.116 C 
BRANCH   3   4
ATOM      4  N   UNL A   1      30.449  30.045  24.461  1.00  0.00    -0.352 N 
ATOM      5  C   UNL A   1      30.479  28.773  23.947  1.00  0.00     0.251 C 
ATOM      6  O   UNL A   1      29.509  28.386  23.298  1.00  0.00    -0.269 OA
ATOM      7  H   UNL A   1      29.598  30.519  24.319  1.00  0.00     0.163 HD
BRANCH   5   8
ATOM      8  C   UNL A   1      31.648  27.865  24.107  1.00  0.00     0.042 A 
ATOM      9  C   UNL A   1      32.641  25.992  25.331  1.00  0.00     0.073 A 
ATOM     10  C   UNL A   1      31.600  26.915  25.131  1.00  0.00     0.042 A 
ATOM     11  C   UNL A   1      33.723  25.920  24.410  1.00  0.00     0.062 A 
ATOM     12  C   UNL A   1      33.796  26.960  23.463  1.00  0.00     0.029 A 
ATOM     13  C   UNL A   1      32.795  27.932  23.329  1.00  0.00     0.016 A 
BRANCH   9  14
ATOM     14  N   UNL A   1      32.354  25.039  26.358  1.00  0.00    -0.282 N 
ATOM     15  H   UNL A   1      32.670  25.255  27.266  1.00  0.00     0.180 HD
BRANCH  14  16
ATOM     16  S   UNL A   1      31.541  23.608  26.171  1.00  0.00     0.229 S 
ATOM     17  C   UNL A   1      30.900  23.476  24.511  1.00  0.00     0.183 C 
ATOM     18  O   UNL A   1      30.420  23.682  27.092  1.00  0.00    -0.207 OA
ATOM     19  O   UNL A   1      32.518  22.555  26.341  1.00  0.00    -0.207 OA
ENDBRANCH  14  16
ENDBRANCH   9  14
BRANCH  11  20
ATOM     20  N   UNL A   1      34.664  24.874  24.385  1.00  0.00    -0.359 N 
ATOM     21  C   UNL A   1      34.442  23.680  23.510  1.00  0.00     0.178 C 
ATOM     22  C   UNL A   1      35.174  24.457  25.693  1.00  0.00     0.178 C 
ATOM     23  C   UNL A   1      35.652  22.696  23.516  1.00  0.00     0.284 C 
ATOM     24  C   UNL A   1      36.486  23.679  25.555  1.00  0.00     0.284 C 
ATOM     25  N   UNL A   1      36.331  22.439  24.800  1.00  0.00    -0.324 N 
ATOM     26  H   UNL A   1      37.254  22.096  24.535  1.00  0.00     0.348 HD
BRANCH  25  27
ATOM     27  C   UNL A   1      35.854  21.305  25.609  1.00  0.00     0.363 C 
BRANCH  27  28
ATOM     28  C   UNL A   1      35.919  19.903  24.994  1.00  0.00     0.277 C 
ATOM     29  O   UNL A   1      37.012  19.334  24.898  1.00  0.00    -0.268 OA
ATOM     30  N   UNL A   1      34.748  19.256  24.631  1.00  0.00    -0.338 N 
ATOM     31  C   UNL A   1      33.422  19.797  24.346  1.00  0.00     0.119 C 
ATOM     32  C   UNL A   1      34.762  17.815  24.434  1.00  0.00     0.119 C 
ATOM     33  C   UNL A   1      32.499  18.592  24.304  1.00  0.00     0.023 C 
ATOM     34  C   UNL A   1      33.415  17.476  23.814  1.00  0.00     0.023 C 
ENDBRANCH  27  28
ENDBRANCH  25  27
ENDBRANCH  11  20
ENDBRANCH   5   8
ENDBRANCH   3   4
ENDBRANCH   2   3
ENDBRANCH   1   2
BRANCH   1  35
ATOM     35  C   UNL A   1      33.798  29.747  27.148  1.00  0.00     0.002 C 
BRANCH  35  36
ATOM     36  C   UNL A   1      34.310  31.102  27.639  1.00  0.00     0.021 C 
BRANCH  36  37
ATOM     37  C   UNL A   1      35.673  31.082  28.324  1.00  0.00     0.116 C 
BRANCH  37  38
ATOM     38  N   UNL A   1      35.574  30.881  29.760  1.00  0.00    -0.352 N 
ATOM     39  C   UNL A   1      36.508  30.384  30.636  1.00  0.00     0.251 C 
ATOM     40  H   UNL A   1      34.714  31.141  30.163  1.00  0.00     0.163 HD
ATOM     41  O   UNL A   1      36.187  30.135  31.794  1.00  0.00    -0.269 OA
BRANCH  39  42
ATOM     42  C   UNL A   1      37.891  30.125  30.176  1.00  0.00     0.039 A 
ATOM     43  C   UNL A   1      38.892  29.927  31.130  1.00  0.00     0.014 A 
ATOM     44  C   UNL A   1      38.202  30.080  28.814  1.00  0.00     0.014 A 
ATOM     45  C   UNL A   1      40.192  29.622  30.717  1.00  0.00     0.010 A 
ATOM     46  C   UNL A   1      39.479  29.701  28.406  1.00  0.00     0.010 A 
ATOM     47  C   UNL A   1      40.489  29.472  29.352  1.00  0.00    -0.014 A 
BRANCH  47  48
ATOM     48  C   UNL A   1      41.848  29.074  28.899  1.00  0.00     0.031 A 
ATOM     49  C   UNL A   1      42.954  30.094  28.837  1.00  0.00     0.074 A 
ATOM     50  C   UNL A   1      42.075  27.807  28.498  1.00  0.00     0.049 A 
ATOM     51  N   UNL A   1      44.183  29.955  28.412  1.00  0.00    -0.248 NA
ATOM     52  C   UNL A   1      42.629  31.457  29.291  1.00  0.00     0.031 C 
ATOM     53  C   UNL A   1      41.075  26.734  28.478  1.00  0.00     0.029 A 
ATOM     54  N   UNL A   1      43.214  27.203  28.027  1.00  0.00    -0.354 N 
ATOM     55  C   UNL A   1      44.776  31.206  28.546  1.00  0.00     0.074 A 
ATOM     56  C   UNL A   1      43.754  32.106  29.030  1.00  0.00     0.031 C 
ATOM     57  C   UNL A   1      41.653  25.602  28.043  1.00  0.00     0.029 A 
ATOM     58  C   UNL A   1      43.048  25.875  27.712  1.00  0.00     0.049 A 
ATOM     59  H   UNL A   1      44.070  27.678  27.922  1.00  0.00     0.167 HD
ATOM     60  C   UNL A   1      46.062  31.564  28.313  1.00  0.00     0.037 A 
ATOM     61  C   UNL A   1      43.918  24.978  27.205  1.00  0.00     0.037 A 
ATOM     62  C   UNL A   1      47.078  30.658  27.844  1.00  0.00     0.049 A 
ATOM     63  C   UNL A   1      45.331  25.413  26.920  1.00  0.00     0.074 A 
ATOM     64  C   UNL A   1      48.418  30.916  27.609  1.00  0.00     0.029 A 
ATOM     65  N   UNL A   1      46.871  29.321  27.540  1.00  0.00    -0.354 N 
ATOM     66  N   UNL A   1      45.887  26.587  27.101  1.00  0.00    -0.248 NA
ATOM     67  C   UNL A   1      46.240  24.398  26.368  1.00  0.00     0.031 C 
ATOM     68  C   UNL A   1      49.009  29.749  27.115  1.00  0.00     0.029 A 
ATOM     69  C   UNL A   1      48.052  28.747  27.099  1.00  0.00     0.049 A 
ATOM     70  H   UNL A   1      46.011  28.849  27.623  1.00  0.00     0.167 HD
ATOM     71  C   UNL A   1      47.217  26.443  26.720  1.00  0.00     0.074 A 
ATOM     72  C   UNL A   1      47.385  25.065  26.310  1.00  0.00     0.031 C 
ATOM     73  C   UNL A   1      48.209  27.367  26.710  1.00  0.00     0.037 A 
BRANCH  60  74
ATOM     74  C   UNL A   1      46.448  32.995  28.574  1.00  0.00     0.058 A 
ATOM     75  C   UNL A   1      46.921  33.412  29.829  1.00  0.00     0.135 A 
ATOM     76  C   UNL A   1      46.396  33.952  27.546  1.00  0.00     0.135 A 
ATOM     77  F   UNL A   1      46.978  32.545  30.853  1.00  0.00    -0.206 F 
ATOM     78  C   UNL A   1      47.306  34.728  30.063  1.00  0.00     0.059 A 
ATOM     79  C   UNL A   1      46.805  35.267  27.750  1.00  0.00     0.059 A 
ATOM     80  F   UNL A   1      45.951  33.611  26.327  1.00  0.00    -0.206 F 
ATOM     81  C   UNL A   1      47.247  35.648  29.016  1.00  0.00     0.060 A 
BRANCH  81  82
ATOM     82  S   UNL A   1      47.766  37.347  29.334  1.00  0.00     0.124 S 
ATOM     83  O   UNL A   1      48.346  37.229  30.668  1.00  0.00    -0.237 OA
ATOM     84  O   UNL A   1      48.712  37.591  28.251  1.00  0.00    -0.237 OA
ATOM     85  O   UNL A   1      46.520  38.104  29.259  1.00  0.00    -0.744 OA
ENDBRANCH  81  82
ENDBRANCH  60  74
BRANCH  61  86
ATOM     86  C   UNL A   1      43.489  23.576  26.945  1.00  0.00     0.058 A 
ATOM     87  C   UNL A   1      43.219  23.134  25.641  1.00  0.00     0.135 A 
ATOM     88  C   UNL A   1      43.321  22.657  27.993  1.00  0.00     0.135 A 
ATOM     89  F   UNL A   1      43.358  23.975  24.606  1.00  0.00    -0.206 F 
ATOM     90  C   UNL A   1      42.766  21.843  25.387  1.00  0.00     0.059 A 
ATOM     91  C   UNL A   1      42.901  21.351  27.760  1.00  0.00     0.059 A 
ATOM     92  F   UNL A   1      43.584  23.022  29.257  1.00  0.00    -0.206 F 
ATOM     93  C   UNL A   1      42.609  20.959  26.455  1.00  0.00     0.060 A 
BRANCH  93  94
ATOM     94  S   UNL A   1      42.040  19.280  26.113  1.00  0.00     0.124 S 
ATOM     95  O   UNL A   1      42.773  18.964  24.892  1.00  0.00    -0.237 OA
ATOM     96  O   UNL A   1      42.459  18.564  27.314  1.00  0.00    -0.237 OA
ATOM     97  O   UNL A   1      40.597  19.440  25.959  1.00  0.00    -0.744 OA
ENDBRANCH  93  94
ENDBRANCH  61  86
BRANCH  73  98
ATOM     98  C   UNL A   1      49.580  26.911  26.289  1.00  0.00     0.058 A 
ATOM     99  C   UNL A   1      50.500  26.379  27.205  1.00  0.00     0.135 A 
ATOM    100  C   UNL A   1      49.957  26.961  24.936  1.00  0.00     0.135 A 
ATOM    101  F   UNL A   1      50.193  26.313  28.511  1.00  0.00    -0.206 F 
ATOM    102  C   UNL A   1      51.755  25.937  26.800  1.00  0.00     0.059 A 
ATOM    103  C   UNL A   1      51.195  26.495  24.505  1.00  0.00     0.059 A 
ATOM    104  F   UNL A   1      49.113  27.451  24.015  1.00  0.00    -0.206 F 
ATOM    105  C   UNL A   1      52.093  25.995  25.446  1.00  0.00     0.060 A 
BRANCH 105 106
ATOM    106  S   UNL A   1      53.711  25.385  24.932  1.00  0.00     0.124 S 
ATOM    107  O   UNL A   1      53.934  26.141  23.703  1.00  0.00    -0.237 OA
ATOM    108  O   UNL A   1      54.556  25.752  26.064  1.00  0.00    -0.237 OA
ATOM    109  O   UNL A   1      53.495  23.952  24.755  1.00  0.00    -0.744 OA
ENDBRANCH 105 106
ENDBRANCH  73  98
ENDBRANCH  47  48
ENDBRANCH  39  42
ENDBRANCH  37  38
ENDBRANCH  36  37
ENDBRANCH  35  36
ENDBRANCH   1  35
TORSDOF 21
ENDMDL
