MODEL 1
REMARK VINA RESULT:     -13.2      0.000      0.000
REMARK SMILES O=C(NCCCCCCNC(=O)[C@H]1[C@H]2CC[C@H](CC2)[C@@H]1C(=O)Nc1sc2c(c1C(=O)N1CCCCC1)CCCC2)c1ccc(-c2c3nc(c(-c4c(F)cc(S(=O)(=O)[O-])cc4F)c4ccc([nH]4)c(-c4c(F)cc(S(=O)(=O)[O-])cc4F)c4nc(c(-c5c(F)cc(S(=O)(=O)[O-])cc5F)c5ccc2[nH]5)C=C4)C=C3)cc1
REMARK SMILES IDX 6 1 5 2 4 3 3 4 1 5 2 6 41 8 42 9 106 10 43 11 105 12 44 13
REMARK SMILES IDX 45 14 46 15 99 16 47 17 104 18 98 19 100 20 48 21 103 22
REMARK SMILES IDX 97 23 96 24 49 26 83 27 62 28 82 29 63 30 66 31 81 32 101 33
REMARK SMILES IDX 64 34 65 35 80 37 102 38 67 39 50 40 51 41 60 42 52 43 53 44
REMARK SMILES IDX 59 45 61 46 54 47 55 48 56 49 57 50 58 51 84 52 85 53 94 54
REMARK SMILES IDX 86 55 87 56 93 57 95 58 88 59 89 60 90 61 91 62 92 63 68 64
REMARK SMILES IDX 69 65 78 66 70 67 71 68 77 69 79 70 72 71 73 72 74 73 75 74
REMARK SMILES IDX 76 75 7 76 8 77 9 78 10 79 11 80 12 82 13 83 14 84 20 85
REMARK SMILES IDX 15 86 19 87 17 88 16 89 18 90 21 91 22 92 23 93 24 95 25 96
REMARK SMILES IDX 28 97 26 98 27 99 40 100 37 101 39 102 38 103 29 104 30 105
REMARK SMILES IDX 31 106 32 107 36 108 33 109 35 110 34 111
REMARK H PARENT 3 7 100 25 66 36 10 81 23 94
REMARK Flexibility Score: inf
ROOT
ATOM      1  C   UNL A   1      40.045  21.662  26.425  1.00  0.00     0.002 C 
ENDROOT
BRANCH   1   2
ATOM      2  C   UNL A   1      40.708  21.972  27.767  1.00  0.00     0.021 C 
BRANCH   2   3
ATOM      3  C   UNL A   1      41.823  23.007  27.691  1.00  0.00     0.116 C 
BRANCH   3   4
ATOM      4  N   UNL A   1      41.821  23.714  26.419  1.00  0.00    -0.352 N 
ATOM      5  O   UNL A   1      41.355  25.409  25.007  1.00  0.00    -0.269 OA
ATOM      6  C   UNL A   1      41.507  25.025  26.164  1.00  0.00     0.251 C 
ATOM      7  H   UNL A   1      42.079  23.177  25.635  1.00  0.00     0.163 HD
BRANCH   6   8
ATOM      8  C   UNL A   1      41.340  25.966  27.291  1.00  0.00     0.039 A 
ATOM      9  C   UNL A   1      42.280  26.974  27.518  1.00  0.00     0.014 A 
ATOM     10  C   UNL A   1      40.225  25.841  28.124  1.00  0.00     0.014 A 
ATOM     11  C   UNL A   1      42.171  27.781  28.645  1.00  0.00     0.010 A 
ATOM     12  C   UNL A   1      40.074  26.706  29.210  1.00  0.00     0.010 A 
ATOM     13  C   UNL A   1      41.056  27.670  29.490  1.00  0.00    -0.014 A 
BRANCH  13  14
ATOM     14  C   UNL A   1      40.890  28.624  30.614  1.00  0.00     0.031 A 
ATOM     15  C   UNL A   1      41.717  28.509  31.862  1.00  0.00     0.074 A 
ATOM     16  C   UNL A   1      39.962  29.594  30.501  1.00  0.00     0.049 A 
ATOM     17  N   UNL A   1      41.670  29.234  32.950  1.00  0.00    -0.248 NA
ATOM     18  C   UNL A   1      42.721  27.434  31.900  1.00  0.00     0.031 C 
ATOM     19  C   UNL A   1      39.086  29.786  29.341  1.00  0.00     0.029 A 
ATOM     20  N   UNL A   1      39.592  30.593  31.364  1.00  0.00    -0.354 N 
ATOM     21  C   UNL A   1      42.618  28.695  33.811  1.00  0.00     0.074 A 
ATOM     22  C   UNL A   1      43.208  27.564  33.126  1.00  0.00     0.031 C 
ATOM     23  C   UNL A   1      38.293  30.843  29.559  1.00  0.00     0.029 A 
ATOM     24  C   UNL A   1      38.557  31.365  30.895  1.00  0.00     0.049 A 
ATOM     25  H   UNL A   1      40.026  30.742  32.235  1.00  0.00     0.167 HD
ATOM     26  C   UNL A   1      42.961  29.110  35.055  1.00  0.00     0.037 A 
ATOM     27  C   UNL A   1      37.869  32.361  31.482  1.00  0.00     0.037 A 
ATOM     28  C   UNL A   1      42.364  30.241  35.721  1.00  0.00     0.049 A 
ATOM     29  C   UNL A   1      38.254  32.792  32.868  1.00  0.00     0.074 A 
ATOM     30  C   UNL A   1      42.677  30.775  36.958  1.00  0.00     0.029 A 
ATOM     31  N   UNL A   1      41.320  31.001  35.212  1.00  0.00    -0.354 N 
ATOM     32  N   UNL A   1      39.191  32.308  33.647  1.00  0.00    -0.248 NA
ATOM     33  C   UNL A   1      37.494  33.902  33.454  1.00  0.00     0.031 C 
ATOM     34  C   UNL A   1      41.786  31.821  37.222  1.00  0.00     0.029 A 
ATOM     35  C   UNL A   1      40.955  31.980  36.124  1.00  0.00     0.049 A 
ATOM     36  H   UNL A   1      40.899  30.866  34.332  1.00  0.00     0.167 HD
ATOM     37  C   UNL A   1      39.144  33.062  34.812  1.00  0.00     0.074 A 
ATOM     38  C   UNL A   1      38.094  34.045  34.628  1.00  0.00     0.031 C 
ATOM     39  C   UNL A   1      39.904  32.950  35.929  1.00  0.00     0.037 A 
BRANCH  26  40
ATOM     40  C   UNL A   1      44.009  28.316  35.790  1.00  0.00     0.058 A 
ATOM     41  C   UNL A   1      43.674  27.262  36.654  1.00  0.00     0.135 A 
ATOM     42  C   UNL A   1      45.373  28.607  35.615  1.00  0.00     0.135 A 
ATOM     43  F   UNL A   1      42.388  26.944  36.868  1.00  0.00    -0.206 F 
ATOM     44  C   UNL A   1      44.649  26.553  37.352  1.00  0.00     0.059 A 
ATOM     45  C   UNL A   1      46.367  27.892  36.280  1.00  0.00     0.059 A 
ATOM     46  F   UNL A   1      45.753  29.600  34.796  1.00  0.00    -0.206 F 
ATOM     47  C   UNL A   1      45.994  26.881  37.163  1.00  0.00     0.060 A 
BRANCH  47  48
ATOM     48  S   UNL A   1      47.244  25.976  38.100  1.00  0.00     0.124 S 
ATOM     49  O   UNL A   1      46.687  24.626  38.098  1.00  0.00    -0.237 OA
ATOM     50  O   UNL A   1      48.442  26.166  37.289  1.00  0.00    -0.237 OA
ATOM     51  O   UNL A   1      47.253  26.649  39.395  1.00  0.00    -0.744 OA
ENDBRANCH  47  48
ENDBRANCH  26  40
BRANCH  27  52
ATOM     52  C   UNL A   1      36.739  32.988  30.751  1.00  0.00     0.058 A 
ATOM     53  C   UNL A   1      35.410  32.646  31.035  1.00  0.00     0.135 A 
ATOM     54  C   UNL A   1      36.968  34.004  29.808  1.00  0.00     0.135 A 
ATOM     55  F   UNL A   1      35.141  31.680  31.925  1.00  0.00    -0.206 F 
ATOM     56  C   UNL A   1      34.347  33.290  30.411  1.00  0.00     0.059 A 
ATOM     57  C   UNL A   1      35.922  34.680  29.192  1.00  0.00     0.059 A 
ATOM     58  F   UNL A   1      38.224  34.381  29.517  1.00  0.00    -0.206 F 
ATOM     59  C   UNL A   1      34.612  34.314  29.499  1.00  0.00     0.060 A 
BRANCH  59  60
ATOM     60  S   UNL A   1      33.223  35.201  28.761  1.00  0.00     0.124 S 
ATOM     61  O   UNL A   1      33.910  36.195  27.946  1.00  0.00    -0.237 OA
ATOM     62  O   UNL A   1      32.536  34.140  28.031  1.00  0.00    -0.237 OA
ATOM     63  O   UNL A   1      32.503  35.721  29.920  1.00  0.00    -0.744 OA
ENDBRANCH  59  60
ENDBRANCH  27  52
BRANCH  39  64
ATOM     64  C   UNL A   1      39.648  33.931  37.040  1.00  0.00     0.058 A 
ATOM     65  C   UNL A   1      38.901  33.581  38.175  1.00  0.00     0.135 A 
ATOM     66  C   UNL A   1      40.215  35.215  36.997  1.00  0.00     0.135 A 
ATOM     67  F   UNL A   1      38.328  32.370  38.261  1.00  0.00    -0.206 F 
ATOM     68  C   UNL A   1      38.719  34.474  39.227  1.00  0.00     0.059 A 
ATOM     69  C   UNL A   1      40.067  36.115  38.048  1.00  0.00     0.059 A 
ATOM     70  F   UNL A   1      40.943  35.598  35.935  1.00  0.00    -0.206 F 
ATOM     71  C   UNL A   1      39.311  35.736  39.157  1.00  0.00     0.060 A 
BRANCH  71  72
ATOM     72  S   UNL A   1      39.115  36.864  40.553  1.00  0.00     0.124 S 
ATOM     73  O   UNL A   1      38.586  38.055  39.896  1.00  0.00    -0.237 OA
ATOM     74  O   UNL A   1      38.176  36.143  41.408  1.00  0.00    -0.237 OA
ATOM     75  O   UNL A   1      40.468  36.989  41.083  1.00  0.00    -0.744 OA
ENDBRANCH  71  72
ENDBRANCH  39  64
ENDBRANCH  13  14
ENDBRANCH   6   8
ENDBRANCH   3   4
ENDBRANCH   2   3
ENDBRANCH   1   2
BRANCH   1  76
ATOM     76  C   UNL A   1      38.757  22.447  26.148  1.00  0.00     0.002 C 
BRANCH  76  77
ATOM     77  C   UNL A   1      37.857  21.848  25.059  1.00  0.00     0.021 C 
BRANCH  77  78
ATOM     78  C   UNL A   1      37.032  22.889  24.301  1.00  0.00     0.116 C 
BRANCH  78  79
ATOM     79  N   UNL A   1      36.256  23.687  25.233  1.00  0.00    -0.356 N 
ATOM     80  C   UNL A   1      35.060  24.311  25.045  1.00  0.00     0.224 C 
ATOM     81  H   UNL A   1      36.650  23.793  26.129  1.00  0.00     0.163 HD
ATOM     82  O   UNL A   1      34.735  25.197  25.837  1.00  0.00    -0.275 OA
BRANCH  80  83
ATOM     83  C   UNL A   1      34.119  23.800  23.964  1.00  0.00     0.094 C 
ATOM     84  C   UNL A   1      33.667  22.358  24.329  1.00  0.00     0.002 C 
ATOM     85  C   UNL A   1      32.891  24.747  23.742  1.00  0.00     0.094 C 
ATOM     86  C   UNL A   1      32.774  22.363  25.581  1.00  0.00     0.005 C 
ATOM     87  C   UNL A   1      32.831  21.817  23.157  1.00  0.00     0.005 C 
ATOM     88  C   UNL A   1      31.613  23.879  23.938  1.00  0.00     0.002 C 
ATOM     89  C   UNL A   1      31.612  23.336  25.381  1.00  0.00     0.005 C 
ATOM     90  C   UNL A   1      31.601  22.702  22.950  1.00  0.00     0.005 C 
BRANCH  85  91
ATOM     91  C   UNL A   1      33.045  25.450  22.366  1.00  0.00     0.229 C 
ATOM     92  O   UNL A   1      33.341  24.798  21.356  1.00  0.00    -0.274 OA
ATOM     93  N   UNL A   1      32.832  26.786  22.183  1.00  0.00    -0.317 N 
ATOM     94  H   UNL A   1      32.716  27.069  21.247  1.00  0.00     0.170 HD
BRANCH  93  95
ATOM     95  C   UNL A   1      32.755  27.794  23.115  1.00  0.00     0.108 A 
ATOM     96  S   UNL A   1      34.170  28.224  23.950  1.00  0.00    -0.122 S 
ATOM     97  C   UNL A   1      31.657  28.599  23.415  1.00  0.00     0.078 A 
ATOM     98  C   UNL A   1      33.271  29.150  25.043  1.00  0.00     0.011 A 
ATOM     99  C   UNL A   1      31.978  29.386  24.601  1.00  0.00    -0.019 A 
ATOM    100  C   UNL A   1      33.870  29.635  26.324  1.00  0.00     0.047 C 
ATOM    101  C   UNL A   1      31.068  30.270  25.401  1.00  0.00     0.037 C 
ATOM    102  C   UNL A   1      32.766  30.102  27.280  1.00  0.00     0.006 C 
ATOM    103  C   UNL A   1      31.769  31.001  26.553  1.00  0.00     0.005 C 
BRANCH  97 104
ATOM    104  C   UNL A   1      30.376  28.413  22.692  1.00  0.00     0.257 C 
ATOM    105  O   UNL A   1      30.034  27.307  22.269  1.00  0.00    -0.269 OA
ATOM    106  N   UNL A   1      29.495  29.492  22.624  1.00  0.00    -0.339 N 
ATOM    107  C   UNL A   1      28.095  29.207  22.908  1.00  0.00     0.120 C 
ATOM    108  C   UNL A   1      29.684  30.512  21.600  1.00  0.00     0.120 C 
ATOM    109  C   UNL A   1      27.413  30.462  23.435  1.00  0.00     0.022 C 
ATOM    110  C   UNL A   1      29.002  31.824  22.000  1.00  0.00     0.022 C 
ATOM    111  C   UNL A   1      27.553  31.622  22.448  1.00  0.00     0.004 C 
ENDBRANCH  97 104
ENDBRANCH  93  95
ENDBRANCH  85  91
ENDBRANCH  80  83
ENDBRANCH  78  79
ENDBRANCH  77  78
ENDBRANCH  76  77
ENDBRANCH   1  76
TORSDOF 19
ENDMDL
MODEL 2
REMARK VINA RESULT:     -12.7      0.578      7.716
REMARK SMILES O=C(NCCCCCCNC(=O)[C@H]1[C@H]2CC[C@H](CC2)[C@@H]1C(=O)Nc1sc2c(c1C(=O)N1CCCCC1)CCCC2)c1ccc(-c2c3nc(c(-c4c(F)cc(S(=O)(=O)[O-])cc4F)c4ccc([nH]4)c(-c4c(F)cc(S(=O)(=O)[O-])cc4F)c4nc(c(-c5c(F)cc(S(=O)(=O)[O-])cc5F)c5ccc2[nH]5)C=C4)C=C3)cc1
REMARK SMILES IDX 6 1 5 2 4 3 3 4 1 5 2 6 41 8 42 9 106 10 43 11 105 12 44 13
REMARK SMILES IDX 45 14 46 15 99 16 47 17 104 18 98 19 100 20 48 21 103 22
REMARK SMILES IDX 97 23 96 24 49 26 83 27 62 28 82 29 63 30 66 31 81 32 101 33
REMARK SMILES IDX 64 34 65 35 80 37 102 38 67 39 50 40 51 41 60 42 52 43 53 44
REMARK SMILES IDX 59 45 61 46 54 47 55 48 56 49 57 50 58 51 84 52 85 53 94 54
REMARK SMILES IDX 86 55 87 56 93 57 95 58 88 59 89 60 90 61 91 62 92 63 68 64
REMARK SMILES IDX 69 65 78 66 70 67 71 68 77 69 79 70 72 71 73 72 74 73 75 74
REMARK SMILES IDX 76 75 7 76 8 77 9 78 10 79 11 80 12 82 13 83 14 84 20 85
REMARK SMILES IDX 15 86 19 87 17 88 16 89 18 90 21 91 22 92 23 93 24 95 25 96
REMARK SMILES IDX 28 97 26 98 27 99 40 100 37 101 39 102 38 103 29 104 30 105
REMARK SMILES IDX 31 106 32 107 36 108 33 109 35 110 34 111
REMARK H PARENT 3 7 100 25 66 36 10 81 23 94
REMARK Flexibility Score: inf
ROOT
ATOM      1  C   UNL A   1      39.636  21.216  26.394  1.00  0.00     0.002 C 
ENDROOT
BRANCH   1   2
ATOM      2  C   UNL A   1      40.630  22.030  27.222  1.00  0.00     0.021 C 
BRANCH   2   3
ATOM      3  C   UNL A   1      40.328  23.522  27.276  1.00  0.00     0.116 C 
BRANCH   3   4
ATOM      4  N   UNL A   1      41.003  24.251  26.212  1.00  0.00    -0.352 N 
ATOM      5  O   UNL A   1      41.672  26.078  25.072  1.00  0.00    -0.269 OA
ATOM      6  C   UNL A   1      41.281  25.592  26.131  1.00  0.00     0.251 C 
ATOM      7  H   UNL A   1      41.300  23.707  25.447  1.00  0.00     0.163 HD
BRANCH   6   8
ATOM      8  C   UNL A   1      41.092  26.448  27.321  1.00  0.00     0.039 A 
ATOM      9  C   UNL A   1      41.918  27.554  27.537  1.00  0.00     0.014 A 
ATOM     10  C   UNL A   1      40.072  26.143  28.225  1.00  0.00     0.014 A 
ATOM     11  C   UNL A   1      41.804  28.284  28.714  1.00  0.00     0.010 A 
ATOM     12  C   UNL A   1      39.905  26.928  29.369  1.00  0.00     0.010 A 
ATOM     13  C   UNL A   1      40.782  27.992  29.632  1.00  0.00    -0.014 A 
BRANCH  13  14
ATOM     14  C   UNL A   1      40.593  28.862  30.819  1.00  0.00     0.031 A 
ATOM     15  C   UNL A   1      39.532  29.925  30.845  1.00  0.00     0.074 A 
ATOM     16  C   UNL A   1      41.411  28.691  31.876  1.00  0.00     0.049 A 
ATOM     17  N   UNL A   1      39.262  30.793  31.785  1.00  0.00    -0.248 NA
ATOM     18  C   UNL A   1      38.670  30.035  29.659  1.00  0.00     0.031 C 
ATOM     19  C   UNL A   1      42.491  27.703  31.950  1.00  0.00     0.029 A 
ATOM     20  N   UNL A   1      41.472  29.339  33.082  1.00  0.00    -0.354 N 
ATOM     21  C   UNL A   1      38.215  31.568  31.301  1.00  0.00     0.074 A 
ATOM     22  C   UNL A   1      37.916  31.080  29.970  1.00  0.00     0.031 C 
ATOM     23  C   UNL A   1      43.097  27.802  33.141  1.00  0.00     0.029 A 
ATOM     24  C   UNL A   1      42.492  28.898  33.889  1.00  0.00     0.049 A 
ATOM     25  H   UNL A   1      40.845  30.052  33.344  1.00  0.00     0.167 HD
ATOM     26  C   UNL A   1      37.566  32.588  31.913  1.00  0.00     0.037 A 
ATOM     27  C   UNL A   1      42.922  29.344  35.084  1.00  0.00     0.037 A 
ATOM     28  C   UNL A   1      37.875  33.058  33.240  1.00  0.00     0.049 A 
ATOM     29  C   UNL A   1      42.200  30.487  35.736  1.00  0.00     0.074 A 
ATOM     30  C   UNL A   1      37.244  34.050  33.971  1.00  0.00     0.029 A 
ATOM     31  N   UNL A   1      38.915  32.584  34.029  1.00  0.00    -0.354 N 
ATOM     32  N   UNL A   1      41.175  31.172  35.288  1.00  0.00    -0.248 NA
ATOM     33  C   UNL A   1      42.687  30.918  37.052  1.00  0.00     0.031 C 
ATOM     34  C   UNL A   1      37.935  34.212  35.177  1.00  0.00     0.029 A 
ATOM     35  C   UNL A   1      38.963  33.283  35.225  1.00  0.00     0.049 A 
ATOM     36  H   UNL A   1      39.529  31.857  33.776  1.00  0.00     0.167 HD
ATOM     37  C   UNL A   1      40.884  32.107  36.273  1.00  0.00     0.074 A 
ATOM     38  C   UNL A   1      41.835  31.889  37.346  1.00  0.00     0.031 C 
ATOM     39  C   UNL A   1      39.917  33.058  36.285  1.00  0.00     0.037 A 
BRANCH  26  40
ATOM     40  C   UNL A   1      36.477  33.286  31.141  1.00  0.00     0.058 A 
ATOM     41  C   UNL A   1      36.756  34.105  30.036  1.00  0.00     0.135 A 
ATOM     42  C   UNL A   1      35.130  33.119  31.504  1.00  0.00     0.135 A 
ATOM     43  F   UNL A   1      38.025  34.309  29.648  1.00  0.00    -0.206 F 
ATOM     44  C   UNL A   1      35.745  34.769  29.346  1.00  0.00     0.059 A 
ATOM     45  C   UNL A   1      34.099  33.750  30.811  1.00  0.00     0.059 A 
ATOM     46  F   UNL A   1      34.802  32.342  32.548  1.00  0.00    -0.206 F 
ATOM     47  C   UNL A   1      34.419  34.590  29.747  1.00  0.00     0.060 A 
BRANCH  47  48
ATOM     48  S   UNL A   1      33.122  35.484  28.864  1.00  0.00     0.124 S 
ATOM     49  O   UNL A   1      32.327  36.009  29.970  1.00  0.00    -0.237 OA
ATOM     50  O   UNL A   1      33.883  36.474  28.107  1.00  0.00    -0.237 OA
ATOM     51  O   UNL A   1      32.477  34.447  28.065  1.00  0.00    -0.744 OA
ENDBRANCH  47  48
ENDBRANCH  26  40
BRANCH  27  52
ATOM     52  C   UNL A   1      44.108  28.705  35.710  1.00  0.00     0.058 A 
ATOM     53  C   UNL A   1      45.404  29.168  35.449  1.00  0.00     0.135 A 
ATOM     54  C   UNL A   1      43.956  27.668  36.645  1.00  0.00     0.135 A 
ATOM     55  F   UNL A   1      45.600  30.154  34.561  1.00  0.00    -0.206 F 
ATOM     56  C   UNL A   1      46.511  28.627  36.097  1.00  0.00     0.059 A 
ATOM     57  C   UNL A   1      45.043  27.131  37.325  1.00  0.00     0.059 A 
ATOM     58  F   UNL A   1      42.732  27.205  36.943  1.00  0.00    -0.206 F 
ATOM     59  C   UNL A   1      46.319  27.616  37.041  1.00  0.00     0.060 A 
BRANCH  59  60
ATOM     60  S   UNL A   1      47.753  26.983  37.937  1.00  0.00     0.124 S 
ATOM     61  O   UNL A   1      48.841  27.324  37.027  1.00  0.00    -0.237 OA
ATOM     62  O   UNL A   1      47.698  27.745  39.181  1.00  0.00    -0.237 OA
ATOM     63  O   UNL A   1      47.464  25.558  38.070  1.00  0.00    -0.744 OA
ENDBRANCH  59  60
ENDBRANCH  27  52
BRANCH  39  64
ATOM     64  C   UNL A   1      39.815  33.925  37.509  1.00  0.00     0.058 A 
ATOM     65  C   UNL A   1      39.046  33.545  38.620  1.00  0.00     0.135 A 
ATOM     66  C   UNL A   1      40.552  35.117  37.597  1.00  0.00     0.135 A 
ATOM     67  F   UNL A   1      38.314  32.420  38.582  1.00  0.00    -0.206 F 
ATOM     68  C   UNL A   1      39.004  34.323  39.773  1.00  0.00     0.059 A 
ATOM     69  C   UNL A   1      40.544  35.897  38.749  1.00  0.00     0.059 A 
ATOM     70  F   UNL A   1      41.308  35.523  36.564  1.00  0.00    -0.206 F 
ATOM     71  C   UNL A   1      39.762  35.493  39.830  1.00  0.00     0.060 A 
BRANCH  71  72
ATOM     72  S   UNL A   1      39.744  36.463  41.353  1.00  0.00     0.124 S 
ATOM     73  O   UNL A   1      38.573  35.920  42.034  1.00  0.00    -0.237 OA
ATOM     74  O   UNL A   1      41.034  36.132  41.950  1.00  0.00    -0.237 OA
ATOM     75  O   UNL A   1      39.612  37.837  40.881  1.00  0.00    -0.744 OA
ENDBRANCH  71  72
ENDBRANCH  39  64
ENDBRANCH  13  14
ENDBRANCH   6   8
ENDBRANCH   3   4
ENDBRANCH   2   3
ENDBRANCH   1   2
BRANCH   1  76
ATOM     76  C   UNL A   1      38.462  22.022  25.825  1.00  0.00     0.002 C 
BRANCH  76  77
ATOM     77  C   UNL A   1      37.651  21.303  24.738  1.00  0.00     0.021 C 
BRANCH  77  78
ATOM     78  C   UNL A   1      36.664  22.211  24.004  1.00  0.00     0.116 C 
BRANCH  78  79
ATOM     79  N   UNL A   1      36.113  23.195  24.920  1.00  0.00    -0.356 N 
ATOM     80  C   UNL A   1      35.058  24.038  24.746  1.00  0.00     0.224 C 
ATOM     81  H   UNL A   1      36.567  23.261  25.791  1.00  0.00     0.163 HD
ATOM     82  O   UNL A   1      34.959  25.009  25.498  1.00  0.00    -0.275 OA
BRANCH  80  83
ATOM     83  C   UNL A   1      33.979  23.676  23.737  1.00  0.00     0.094 C 
ATOM     84  C   UNL A   1      33.383  22.289  24.111  1.00  0.00     0.002 C 
ATOM     85  C   UNL A   1      32.863  24.770  23.636  1.00  0.00     0.094 C 
ATOM     86  C   UNL A   1      32.600  22.365  25.432  1.00  0.00     0.005 C 
ATOM     87  C   UNL A   1      32.396  21.887  23.002  1.00  0.00     0.005 C 
ATOM     88  C   UNL A   1      31.507  24.058  23.920  1.00  0.00     0.002 C 
ATOM     89  C   UNL A   1      31.555  23.477  25.347  1.00  0.00     0.005 C 
ATOM     90  C   UNL A   1      31.271  22.920  22.914  1.00  0.00     0.005 C 
BRANCH  85  91
ATOM     91  C   UNL A   1      32.991  25.489  22.265  1.00  0.00     0.229 C 
ATOM     92  O   UNL A   1      33.267  24.849  21.243  1.00  0.00    -0.274 OA
ATOM     93  N   UNL A   1      32.777  26.828  22.102  1.00  0.00    -0.317 N 
ATOM     94  H   UNL A   1      32.644  27.122  21.172  1.00  0.00     0.170 HD
BRANCH  93  95
ATOM     95  C   UNL A   1      32.719  27.825  23.047  1.00  0.00     0.108 A 
ATOM     96  S   UNL A   1      34.151  28.245  23.858  1.00  0.00    -0.122 S 
ATOM     97  C   UNL A   1      31.628  28.626  23.379  1.00  0.00     0.078 A 
ATOM     98  C   UNL A   1      33.274  29.158  24.980  1.00  0.00     0.011 A 
ATOM     99  C   UNL A   1      31.973  29.400  24.567  1.00  0.00    -0.019 A 
ATOM    100  C   UNL A   1      33.900  29.629  26.254  1.00  0.00     0.047 C 
ATOM    101  C   UNL A   1      31.079  30.274  25.395  1.00  0.00     0.037 C 
ATOM    102  C   UNL A   1      32.815  30.084  27.238  1.00  0.00     0.006 C 
ATOM    103  C   UNL A   1      31.804  30.991  26.542  1.00  0.00     0.005 C 
BRANCH  97 104
ATOM    104  C   UNL A   1      30.332  28.449  22.680  1.00  0.00     0.257 C 
ATOM    105  O   UNL A   1      29.972  27.344  22.269  1.00  0.00    -0.269 OA
ATOM    106  N   UNL A   1      29.460  29.535  22.622  1.00  0.00    -0.339 N 
ATOM    107  C   UNL A   1      28.063  29.264  22.933  1.00  0.00     0.120 C 
ATOM    108  C   UNL A   1      29.639  30.548  21.591  1.00  0.00     0.120 C 
ATOM    109  C   UNL A   1      27.401  30.528  23.466  1.00  0.00     0.022 C 
ATOM    110  C   UNL A   1      28.977  31.869  21.996  1.00  0.00     0.022 C 
ATOM    111  C   UNL A   1      27.534  31.682  22.471  1.00  0.00     0.004 C 
ENDBRANCH  97 104
ENDBRANCH  93  95
ENDBRANCH  85  91
ENDBRANCH  80  83
ENDBRANCH  78  79
ENDBRANCH  77  78
ENDBRANCH  76  77
ENDBRANCH   1  76
TORSDOF 19
ENDMDL
MODEL 3
REMARK VINA RESULT:     -12.0      6.070      8.031
REMARK SMILES O=C(NCCCCCCNC(=O)[C@H]1[C@H]2CC[C@H](CC2)[C@@H]1C(=O)Nc1sc2c(c1C(=O)N1CCCCC1)CCCC2)c1ccc(-c2c3nc(c(-c4c(F)cc(S(=O)(=O)[O-])cc4F)c4ccc([nH]4)c(-c4c(F)cc(S(=O)(=O)[O-])cc4F)c4nc(c(-c5c(F)cc(S(=O)(=O)[O-])cc5F)c5ccc2[nH]5)C=C4)C=C3)cc1
REMARK SMILES IDX 6 1 5 2 4 3 3 4 1 5 2 6 41 8 42 9 106 10 43 11 105 12 44 13
REMARK SMILES IDX 45 14 46 15 99 16 47 17 104 18 98 19 100 20 48 21 103 22
REMARK SMILES IDX 97 23 96 24 49 26 83 27 62 28 82 29 63 30 66 31 81 32 101 33
REMARK SMILES IDX 64 34 65 35 80 37 102 38 67 39 50 40 51 41 60 42 52 43 53 44
REMARK SMILES IDX 59 45 61 46 54 47 55 48 56 49 57 50 58 51 84 52 85 53 94 54
REMARK SMILES IDX 86 55 87 56 93 57 95 58 88 59 89 60 90 61 91 62 92 63 68 64
REMARK SMILES IDX 69 65 78 66 70 67 71 68 77 69 79 70 72 71 73 72 74 73 75 74
REMARK SMILES IDX 76 75 7 76 8 77 9 78 10 79 11 80 12 82 13 83 14 84 20 85
REMARK SMILES IDX 15 86 19 87 17 88 16 89 18 90 21 91 22 92 23 93 24 95 25 96
REMARK SMILES IDX 28 97 26 98 27 99 40 100 37 101 39 102 38 103 29 104 30 105
REMARK SMILES IDX 31 106 32 107 36 108 33 109 35 110 34 111
REMARK H PARENT 3 7 100 25 66 36 10 81 23 94
REMARK Flexibility Score: inf
ROOT
ATOM      1  C   UNL A   1      39.777  20.191  25.803  1.00  0.00     0.002 C 
ENDROOT
BRANCH   1   2
ATOM      2  C   UNL A   1      41.202  20.653  26.107  1.00  0.00     0.021 C 
BRANCH   2   3
ATOM      3  C   UNL A   1      42.128  19.549  26.601  1.00  0.00     0.116 C 
BRANCH   3   4
ATOM      4  N   UNL A   1      43.026  19.085  25.554  1.00  0.00    -0.352 N 
ATOM      5  O   UNL A   1      44.450  19.300  23.819  1.00  0.00    -0.269 OA
ATOM      6  C   UNL A   1      43.918  19.808  24.803  1.00  0.00     0.251 C 
ATOM      7  H   UNL A   1      42.988  18.121  25.359  1.00  0.00     0.163 HD
BRANCH   6   8
ATOM      8  C   UNL A   1      44.220  21.206  25.178  1.00  0.00     0.039 A 
ATOM      9  C   UNL A   1      44.850  21.493  26.392  1.00  0.00     0.014 A 
ATOM     10  C   UNL A   1      43.875  22.237  24.301  1.00  0.00     0.014 A 
ATOM     11  C   UNL A   1      45.028  22.815  26.783  1.00  0.00     0.010 A 
ATOM     12  C   UNL A   1      44.130  23.563  24.661  1.00  0.00     0.010 A 
ATOM     13  C   UNL A   1      44.690  23.863  25.913  1.00  0.00    -0.014 A 
BRANCH  13  14
ATOM     14  C   UNL A   1      45.005  25.262  26.293  1.00  0.00     0.031 A 
ATOM     15  C   UNL A   1      46.398  25.807  26.169  1.00  0.00     0.074 A 
ATOM     16  C   UNL A   1      44.012  26.035  26.773  1.00  0.00     0.049 A 
ATOM     17  N   UNL A   1      46.850  26.992  26.493  1.00  0.00    -0.248 NA
ATOM     18  C   UNL A   1      47.421  24.904  25.619  1.00  0.00     0.031 C 
ATOM     19  C   UNL A   1      42.624  25.602  26.957  1.00  0.00     0.029 A 
ATOM     20  N   UNL A   1      44.011  27.338  27.200  1.00  0.00    -0.354 N 
ATOM     21  C   UNL A   1      48.210  26.974  26.210  1.00  0.00     0.074 A 
ATOM     22  C   UNL A   1      48.514  25.649  25.709  1.00  0.00     0.031 C 
ATOM     23  C   UNL A   1      41.905  26.621  27.446  1.00  0.00     0.029 A 
ATOM     24  C   UNL A   1      42.790  27.759  27.668  1.00  0.00     0.049 A 
ATOM     25  H   UNL A   1      44.808  27.915  27.174  1.00  0.00     0.167 HD
ATOM     26  C   UNL A   1      49.116  27.971  26.354  1.00  0.00     0.037 A 
ATOM     27  C   UNL A   1      42.423  28.917  28.247  1.00  0.00     0.037 A 
ATOM     28  C   UNL A   1      48.794  29.286  26.853  1.00  0.00     0.049 A 
ATOM     29  C   UNL A   1      43.447  30.002  28.414  1.00  0.00     0.074 A 
ATOM     30  C   UNL A   1      49.627  30.383  26.988  1.00  0.00     0.029 A 
ATOM     31  N   UNL A   1      47.544  29.675  27.314  1.00  0.00    -0.354 N 
ATOM     32  N   UNL A   1      44.717  29.989  28.088  1.00  0.00    -0.248 NA
ATOM     33  C   UNL A   1      42.992  31.258  29.022  1.00  0.00     0.031 C 
ATOM     34  C   UNL A   1      48.895  31.417  27.582  1.00  0.00     0.029 A 
ATOM     35  C   UNL A   1      47.590  30.986  27.765  1.00  0.00     0.049 A 
ATOM     36  H   UNL A   1      46.741  29.106  27.321  1.00  0.00     0.167 HD
ATOM     37  C   UNL A   1      45.213  31.238  28.439  1.00  0.00     0.074 A 
ATOM     38  C   UNL A   1      44.099  31.986  28.990  1.00  0.00     0.031 C 
ATOM     39  C   UNL A   1      46.474  31.719  28.314  1.00  0.00     0.037 A 
BRANCH  26  40
ATOM     40  C   UNL A   1      50.548  27.671  25.998  1.00  0.00     0.058 A 
ATOM     41  C   UNL A   1      51.492  27.292  26.966  1.00  0.00     0.135 A 
ATOM     42  C   UNL A   1      50.980  27.748  24.663  1.00  0.00     0.135 A 
ATOM     43  F   UNL A   1      51.140  27.210  28.259  1.00  0.00    -0.206 F 
ATOM     44  C   UNL A   1      52.820  27.044  26.631  1.00  0.00     0.059 A 
ATOM     45  C   UNL A   1      52.297  27.476  24.300  1.00  0.00     0.059 A 
ATOM     46  F   UNL A   1      50.120  28.098  23.694  1.00  0.00    -0.206 F 
ATOM     47  C   UNL A   1      53.215  27.146  25.295  1.00  0.00     0.060 A 
BRANCH  47  48
ATOM     48  S   UNL A   1      54.948  26.855  24.881  1.00  0.00     0.124 S 
ATOM     49  O   UNL A   1      54.852  26.496  23.469  1.00  0.00    -0.237 OA
ATOM     50  O   UNL A   1      55.560  28.149  25.164  1.00  0.00    -0.237 OA
ATOM     51  O   UNL A   1      55.335  25.771  25.779  1.00  0.00    -0.744 OA
ENDBRANCH  47  48
ENDBRANCH  26  40
BRANCH  27  52
ATOM     52  C   UNL A   1      41.025  29.078  28.719  1.00  0.00     0.058 A 
ATOM     53  C   UNL A   1      40.714  29.071  30.086  1.00  0.00     0.135 A 
ATOM     54  C   UNL A   1      39.982  29.323  27.811  1.00  0.00     0.135 A 
ATOM     55  F   UNL A   1      41.675  28.838  30.992  1.00  0.00    -0.206 F 
ATOM     56  C   UNL A   1      39.419  29.304  30.536  1.00  0.00     0.059 A 
ATOM     57  C   UNL A   1      38.685  29.585  28.238  1.00  0.00     0.059 A 
ATOM     58  F   UNL A   1      40.234  29.360  26.492  1.00  0.00    -0.206 F 
ATOM     59  C   UNL A   1      38.413  29.571  29.604  1.00  0.00     0.060 A 
BRANCH  59  60
ATOM     60  S   UNL A   1      36.754  29.957  30.205  1.00  0.00     0.124 S 
ATOM     61  O   UNL A   1      35.928  29.517  29.088  1.00  0.00    -0.237 OA
ATOM     62  O   UNL A   1      36.672  29.149  31.418  1.00  0.00    -0.237 OA
ATOM     63  O   UNL A   1      36.803  31.400  30.424  1.00  0.00    -0.744 OA
ENDBRANCH  59  60
ENDBRANCH  27  52
BRANCH  39  64
ATOM     64  C   UNL A   1      46.721  33.134  28.758  1.00  0.00     0.058 A 
ATOM     65  C   UNL A   1      47.142  33.434  30.063  1.00  0.00     0.135 A 
ATOM     66  C   UNL A   1      46.601  34.195  27.846  1.00  0.00     0.135 A 
ATOM     67  F   UNL A   1      47.262  32.458  30.977  1.00  0.00    -0.206 F 
ATOM     68  C   UNL A   1      47.427  34.740  30.450  1.00  0.00     0.059 A 
ATOM     69  C   UNL A   1      46.905  35.504  28.205  1.00  0.00     0.059 A 
ATOM     70  F   UNL A   1      46.207  33.961  26.584  1.00  0.00    -0.206 F 
ATOM     71  C   UNL A   1      47.312  35.767  29.512  1.00  0.00     0.060 A 
BRANCH  71  72
ATOM     72  S   UNL A   1      47.740  37.449  30.012  1.00  0.00     0.124 S 
ATOM     73  O   UNL A   1      47.840  38.122  28.721  1.00  0.00    -0.237 OA
ATOM     74  O   UNL A   1      46.598  37.829  30.839  1.00  0.00    -0.237 OA
ATOM     75  O   UNL A   1      48.999  37.281  30.730  1.00  0.00    -0.744 OA
ENDBRANCH  71  72
ENDBRANCH  39  64
ENDBRANCH  13  14
ENDBRANCH   6   8
ENDBRANCH   3   4
ENDBRANCH   2   3
ENDBRANCH   1   2
BRANCH   1  76
ATOM     76  C   UNL A   1      38.736  21.314  25.743  1.00  0.00     0.002 C 
BRANCH  76  77
ATOM     77  C   UNL A   1      37.499  21.004  24.887  1.00  0.00     0.021 C 
BRANCH  77  78
ATOM     78  C   UNL A   1      36.956  22.215  24.128  1.00  0.00     0.116 C 
BRANCH  78  79
ATOM     79  N   UNL A   1      36.379  23.170  25.057  1.00  0.00    -0.356 N 
ATOM     80  C   UNL A   1      35.280  23.960  24.909  1.00  0.00     0.224 C 
ATOM     81  H   UNL A   1      36.849  23.259  25.918  1.00  0.00     0.163 HD
ATOM     82  O   UNL A   1      35.150  24.925  25.664  1.00  0.00    -0.275 OA
BRANCH  80  83
ATOM     83  C   UNL A   1      34.197  23.546  23.923  1.00  0.00     0.094 C 
ATOM     84  C   UNL A   1      33.628  22.164  24.352  1.00  0.00     0.002 C 
ATOM     85  C   UNL A   1      33.063  24.618  23.795  1.00  0.00     0.094 C 
ATOM     86  C   UNL A   1      32.856  22.275  25.677  1.00  0.00     0.005 C 
ATOM     87  C   UNL A   1      32.636  21.708  23.267  1.00  0.00     0.005 C 
ATOM     88  C   UNL A   1      31.722  23.896  24.118  1.00  0.00     0.002 C 
ATOM     89  C   UNL A   1      31.792  23.366  25.564  1.00  0.00     0.005 C 
ATOM     90  C   UNL A   1      31.495  22.719  23.154  1.00  0.00     0.005 C 
BRANCH  85  91
ATOM     91  C   UNL A   1      33.167  25.291  22.398  1.00  0.00     0.229 C 
ATOM     92  O   UNL A   1      33.461  24.622  21.399  1.00  0.00    -0.274 OA
ATOM     93  N   UNL A   1      32.911  26.615  22.187  1.00  0.00    -0.317 N 
ATOM     94  H   UNL A   1      32.768  26.871  21.247  1.00  0.00     0.170 HD
BRANCH  93  95
ATOM     95  C   UNL A   1      32.823  27.644  23.096  1.00  0.00     0.108 A 
ATOM     96  S   UNL A   1      34.216  28.057  23.975  1.00  0.00    -0.122 S 
ATOM     97  C   UNL A   1      31.736  28.480  23.338  1.00  0.00     0.078 A 
ATOM     98  C   UNL A   1      33.300  29.026  25.015  1.00  0.00     0.011 A 
ATOM     99  C   UNL A   1      32.031  29.284  24.519  1.00  0.00    -0.019 A 
ATOM    100  C   UNL A   1      33.863  29.524  26.308  1.00  0.00     0.047 C 
ATOM    101  C   UNL A   1      31.113  30.206  25.266  1.00  0.00     0.037 C 
ATOM    102  C   UNL A   1      32.735  30.037  27.212  1.00  0.00     0.006 C 
ATOM    103  C   UNL A   1      31.788  30.943  26.429  1.00  0.00     0.005 C 
BRANCH  97 104
ATOM    104  C   UNL A   1      30.479  28.310  22.570  1.00  0.00     0.257 C 
ATOM    105  O   UNL A   1      30.191  27.234  22.042  1.00  0.00    -0.269 OA
ATOM    106  N   UNL A   1      29.555  29.355  22.578  1.00  0.00    -0.339 N 
ATOM    107  C   UNL A   1      28.162  28.990  22.801  1.00  0.00     0.120 C 
ATOM    108  C   UNL A   1      29.722  30.470  21.654  1.00  0.00     0.120 C 
ATOM    109  C   UNL A   1      27.417  30.165  23.422  1.00  0.00     0.022 C 
ATOM    110  C   UNL A   1      28.978  31.713  22.154  1.00  0.00     0.022 C 
ATOM    111  C   UNL A   1      27.530  31.414  22.546  1.00  0.00     0.004 C 
ENDBRANCH  97 104
ENDBRANCH  93  95
ENDBRANCH  85  91
ENDBRANCH  80  83
ENDBRANCH  78  79
ENDBRANCH  77  78
ENDBRANCH  76  77
ENDBRANCH   1  76
TORSDOF 19
ENDMDL
