MODEL 1
REMARK VINA RESULT:     -14.3      0.000      0.000
REMARK SMILES O=C1C[C@H](c2cn[nH]c2C(=O)NCCCCCCNC(=O)c2ccc(-c3c4nc(c(-c5c(F)cc(S(=O)(=O)[O-])cc5F)c5ccc([nH]5)c(-c5c(F)cc(S(=O)(=O)[O-])cc5F)c5nc(c(-c6c(F)cc(S(=O)(=O)[O-])cc6F)c6ccc3[nH]6)C=C5)C=C4)cc2)c2c(-c3cccs3)n[nH]c2N1
REMARK SMILES IDX 16 1 15 2 14 3 13 4 12 5 10 6 11 7 9 9 5 10 6 11 7 12 8 13
REMARK SMILES IDX 4 15 1 16 2 17 3 18 98 19 97 20 88 22 96 23 89 24 95 25
REMARK SMILES IDX 90 27 91 28 94 29 92 30 93 31 17 32 18 33 19 34 20 35 21 37
REMARK SMILES IDX 22 38 23 39 87 40 24 41 86 42 25 43 26 44 27 45 80 46 28 47
REMARK SMILES IDX 85 48 79 49 81 50 29 51 84 52 78 53 77 54 30 56 64 57 43 58
REMARK SMILES IDX 63 59 44 60 47 61 62 62 82 63 45 64 46 65 61 67 83 68 48 69
REMARK SMILES IDX 31 70 32 71 41 72 33 73 34 74 40 75 42 76 35 77 36 78 37 79
REMARK SMILES IDX 38 80 39 81 65 82 66 83 75 84 67 85 68 86 74 87 76 88 69 89
REMARK SMILES IDX 70 90 71 91 72 92 73 93 49 94 50 95 59 96 51 97 52 98 58 99
REMARK SMILES IDX 60 100 53 101 54 102 55 103 56 104 57 105
REMARK H PARENT 12 8 8 14 98 21 96 26 19 36 81 55 47 66
REMARK Flexibility Score: inf
ROOT
ATOM      1  C   UNL A   1      39.928  21.744  26.644  1.00  0.00     0.002 C 
ENDROOT
BRANCH   1   2
ATOM      2  C   UNL A   1      38.636  22.216  25.966  1.00  0.00     0.002 C 
BRANCH   2   3
ATOM      3  C   UNL A   1      38.241  23.672  26.229  1.00  0.00     0.021 C 
BRANCH   3   4
ATOM      4  C   UNL A   1      36.607  24.054  25.748  1.00  0.00     0.116 C 
BRANCH   4   5
ATOM      5  N   UNL A   1      34.775  23.039  26.278  1.00  0.00    -0.351 N 
ATOM      6  C   UNL A   1      33.385  22.883  26.519  1.00  0.00     0.269 C 
ATOM      7  O   UNL A   1      33.022  21.741  26.821  1.00  0.00    -0.268 OA
ATOM      8  H   UNL A   1      35.107  22.132  26.471  1.00  0.00     0.163 HD
BRANCH   6   9
ATOM      9  C   UNL A   1      32.412  23.930  26.327  1.00  0.00     0.126 A 
ATOM     10  C   UNL A   1      32.372  25.022  25.473  1.00  0.00     0.011 A 
ATOM     11  C   UNL A   1      31.106  25.598  25.686  1.00  0.00     0.140 A 
ATOM     12  N   UNL A   1      30.393  24.936  26.601  1.00  0.00    -0.183 NA
ATOM     13  N   UNL A   1      31.224  23.956  26.999  1.00  0.00    -0.273 N 
ATOM     14  H   UNL A   1      30.997  23.316  27.712  1.00  0.00     0.190 HD
BRANCH  10  15
ATOM     15  C   UNL A   1      33.454  25.401  24.526  1.00  0.00     0.069 C 
ATOM     16  O   UNL A   1      33.422  23.290  21.344  1.00  0.00    -0.275 OA
ATOM     17  C   UNL A   1      33.031  24.132  22.158  1.00  0.00     0.226 C 
ATOM     18  C   UNL A   1      33.791  24.289  23.507  1.00  0.00     0.114 C 
ATOM     19  N   UNL A   1      31.987  24.943  21.786  1.00  0.00    -0.311 N 
ATOM     20  C   UNL A   1      31.875  26.143  22.419  1.00  0.00     0.132 A 
ATOM     21  H   UNL A   1      31.346  24.669  21.090  1.00  0.00     0.171 HD
ATOM     22  C   UNL A   1      32.899  26.542  23.801  1.00  0.00     0.031 A 
ATOM     23  N   UNL A   1      30.926  27.660  21.953  1.00  0.00    -0.262 N 
ATOM     24  C   UNL A   1      32.609  28.416  24.231  1.00  0.00     0.108 A 
ATOM     25  N   UNL A   1      31.431  29.081  23.090  1.00  0.00    -0.173 NA
ATOM     26  H   UNL A   1      30.263  27.719  21.228  1.00  0.00     0.192 HD
BRANCH  24  27
ATOM     27  C   UNL A   1      33.038  29.019  25.517  1.00  0.00     0.055 A 
ATOM     28  C   UNL A   1      34.229  28.714  26.130  1.00  0.00     0.022 A 
ATOM     29  S   UNL A   1      32.191  30.271  26.295  1.00  0.00    -0.142 S 
ATOM     30  C   UNL A   1      34.488  29.595  27.222  1.00  0.00     0.012 A 
ATOM     31  C   UNL A   1      33.433  30.450  27.460  1.00  0.00     0.065 A 
ENDBRANCH  24  27
ENDBRANCH  10  15
ENDBRANCH   6   9
ENDBRANCH   4   5
ENDBRANCH   3   4
ENDBRANCH   2   3
ENDBRANCH   1   2
BRANCH   1  32
ATOM     32  C   UNL A   1      40.441  22.637  27.788  1.00  0.00     0.021 C 
BRANCH  32  33
ATOM     33  C   UNL A   1      41.838  22.259  28.238  1.00  0.00     0.116 C 
BRANCH  33  34
ATOM     34  N   UNL A   1      42.820  22.494  27.175  1.00  0.00    -0.352 N 
ATOM     35  C   UNL A   1      42.936  23.559  26.312  1.00  0.00     0.251 C 
ATOM     36  H   UNL A   1      43.494  21.786  27.062  1.00  0.00     0.163 HD
ATOM     37  O   UNL A   1      43.570  23.471  25.270  1.00  0.00    -0.269 OA
BRANCH  35  38
ATOM     38  C   UNL A   1      42.385  24.838  26.756  1.00  0.00     0.039 A 
ATOM     39  C   UNL A   1      41.333  25.522  26.149  1.00  0.00     0.014 A 
ATOM     40  C   UNL A   1      43.079  25.448  27.781  1.00  0.00     0.014 A 
ATOM     41  C   UNL A   1      41.076  26.820  26.605  1.00  0.00     0.010 A 
ATOM     42  C   UNL A   1      42.405  26.343  28.526  1.00  0.00     0.010 A 
ATOM     43  C   UNL A   1      41.750  27.263  27.753  1.00  0.00    -0.014 A 
BRANCH  43  44
ATOM     44  C   UNL A   1      41.522  28.494  28.478  1.00  0.00     0.031 A 
ATOM     45  C   UNL A   1      42.589  29.474  28.140  1.00  0.00     0.074 A 
ATOM     46  C   UNL A   1      40.357  28.727  29.139  1.00  0.00     0.049 A 
ATOM     47  N   UNL A   1      43.677  29.648  28.814  1.00  0.00    -0.248 NA
ATOM     48  C   UNL A   1      42.679  30.039  26.772  1.00  0.00     0.031 C 
ATOM     49  C   UNL A   1      39.153  27.890  29.293  1.00  0.00     0.029 A 
ATOM     50  N   UNL A   1      40.006  29.839  29.851  1.00  0.00    -0.354 N 
ATOM     51  C   UNL A   1      44.385  30.622  28.123  1.00  0.00     0.074 A 
ATOM     52  C   UNL A   1      43.912  30.554  26.773  1.00  0.00     0.031 C 
ATOM     53  C   UNL A   1      38.139  28.617  29.834  1.00  0.00     0.029 A 
ATOM     54  C   UNL A   1      38.642  29.927  30.198  1.00  0.00     0.049 A 
ATOM     55  H   UNL A   1      40.659  30.531  30.103  1.00  0.00     0.167 HD
ATOM     56  C   UNL A   1      45.014  31.617  28.806  1.00  0.00     0.037 A 
ATOM     57  C   UNL A   1      38.041  31.016  30.776  1.00  0.00     0.037 A 
ATOM     58  C   UNL A   1      45.058  31.278  30.213  1.00  0.00     0.049 A 
ATOM     59  C   UNL A   1      39.162  31.795  31.397  1.00  0.00     0.074 A 
ATOM     60  C   UNL A   1      45.632  30.248  30.931  1.00  0.00     0.029 A 
ATOM     61  N   UNL A   1      44.024  31.761  30.985  1.00  0.00    -0.354 N 
ATOM     62  N   UNL A   1      39.891  31.305  32.371  1.00  0.00    -0.248 NA
ATOM     63  C   UNL A   1      39.833  32.758  30.528  1.00  0.00     0.031 C 
ATOM     64  C   UNL A   1      44.632  29.851  31.867  1.00  0.00     0.029 A 
ATOM     65  C   UNL A   1      43.566  30.749  31.795  1.00  0.00     0.049 A 
ATOM     66  H   UNL A   1      43.671  32.679  30.961  1.00  0.00     0.167 HD
ATOM     67  C   UNL A   1      41.205  31.539  31.981  1.00  0.00     0.074 A 
ATOM     68  C   UNL A   1      41.098  32.438  30.822  1.00  0.00     0.031 C 
ATOM     69  C   UNL A   1      42.236  30.729  32.376  1.00  0.00     0.037 A 
BRANCH  56  70
ATOM     70  C   UNL A   1      45.195  33.037  28.321  1.00  0.00     0.058 A 
ATOM     71  C   UNL A   1      46.508  33.511  28.120  1.00  0.00     0.135 A 
ATOM     72  C   UNL A   1      44.185  34.025  28.283  1.00  0.00     0.135 A 
ATOM     73  F   UNL A   1      47.549  32.663  28.123  1.00  0.00    -0.206 F 
ATOM     74  C   UNL A   1      46.802  34.865  27.966  1.00  0.00     0.059 A 
ATOM     75  C   UNL A   1      44.452  35.377  28.088  1.00  0.00     0.059 A 
ATOM     76  F   UNL A   1      42.896  33.750  28.506  1.00  0.00    -0.206 F 
ATOM     77  C   UNL A   1      45.766  35.793  27.959  1.00  0.00     0.060 A 
BRANCH  77  78
ATOM     78  S   UNL A   1      46.157  37.541  27.787  1.00  0.00     0.124 S 
ATOM     79  O   UNL A   1      46.270  37.679  26.339  1.00  0.00    -0.237 OA
ATOM     80  O   UNL A   1      44.991  38.167  28.401  1.00  0.00    -0.237 OA
ATOM     81  O   UNL A   1      47.403  37.683  28.533  1.00  0.00    -0.744 OA
ENDBRANCH  77  78
ENDBRANCH  56  70
BRANCH  57  82
ATOM     82  C   UNL A   1      36.737  31.658  30.385  1.00  0.00     0.058 A 
ATOM     83  C   UNL A   1      35.768  32.099  31.318  1.00  0.00     0.135 A 
ATOM     84  C   UNL A   1      36.552  32.121  29.070  1.00  0.00     0.135 A 
ATOM     85  F   UNL A   1      35.851  31.725  32.605  1.00  0.00    -0.206 F 
ATOM     86  C   UNL A   1      34.722  32.981  30.972  1.00  0.00     0.059 A 
ATOM     87  C   UNL A   1      35.531  33.002  28.705  1.00  0.00     0.059 A 
ATOM     88  F   UNL A   1      37.419  31.795  28.101  1.00  0.00    -0.206 F 
ATOM     89  C   UNL A   1      34.631  33.451  29.661  1.00  0.00     0.060 A 
BRANCH  89  90
ATOM     90  S   UNL A   1      33.425  34.734  29.215  1.00  0.00     0.124 S 
ATOM     91  O   UNL A   1      32.821  35.051  30.505  1.00  0.00    -0.237 OA
ATOM     92  O   UNL A   1      34.270  35.772  28.637  1.00  0.00    -0.237 OA
ATOM     93  O   UNL A   1      32.541  34.056  28.269  1.00  0.00    -0.744 OA
ENDBRANCH  89  90
ENDBRANCH  57  82
BRANCH  69  94
ATOM     94  C   UNL A   1      41.970  29.648  33.408  1.00  0.00     0.058 A 
ATOM     95  C   UNL A   1      41.695  28.293  33.132  1.00  0.00     0.135 A 
ATOM     96  C   UNL A   1      42.193  29.977  34.750  1.00  0.00     0.135 A 
ATOM     97  F   UNL A   1      41.579  27.857  31.872  1.00  0.00    -0.206 F 
ATOM     98  C   UNL A   1      41.601  27.327  34.143  1.00  0.00     0.059 A 
ATOM     99  C   UNL A   1      42.134  29.033  35.771  1.00  0.00     0.059 A 
ATOM    100  F   UNL A   1      42.535  31.233  35.080  1.00  0.00    -0.206 F 
ATOM    101  C   UNL A   1      41.817  27.712  35.466  1.00  0.00     0.060 A 
BRANCH 101 102
ATOM    102  S   UNL A   1      41.713  26.481  36.786  1.00  0.00     0.124 S 
ATOM    103  O   UNL A   1      40.460  26.839  37.440  1.00  0.00    -0.237 OA
ATOM    104  O   UNL A   1      41.706  25.222  36.046  1.00  0.00    -0.237 OA
ATOM    105  O   UNL A   1      42.919  26.725  37.573  1.00  0.00    -0.744 OA
ENDBRANCH 101 102
ENDBRANCH  69  94
ENDBRANCH  43  44
ENDBRANCH  35  38
ENDBRANCH  33  34
ENDBRANCH  32  33
ENDBRANCH   1  32
TORSDOF 18
ENDMDL
MODEL 2
REMARK VINA RESULT:     -13.9      1.528      3.094
REMARK SMILES O=C1C[C@H](c2cn[nH]c2C(=O)NCCCCCCNC(=O)c2ccc(-c3c4nc(c(-c5c(F)cc(S(=O)(=O)[O-])cc5F)c5ccc([nH]5)c(-c5c(F)cc(S(=O)(=O)[O-])cc5F)c5nc(c(-c6c(F)cc(S(=O)(=O)[O-])cc6F)c6ccc3[nH]6)C=C5)C=C4)cc2)c2c(-c3cccs3)n[nH]c2N1
REMARK SMILES IDX 16 1 15 2 14 3 13 4 12 5 10 6 11 7 9 9 5 10 6 11 7 12 8 13
REMARK SMILES IDX 4 15 1 16 2 17 3 18 98 19 97 20 88 22 96 23 89 24 95 25
REMARK SMILES IDX 90 27 91 28 94 29 92 30 93 31 17 32 18 33 19 34 20 35 21 37
REMARK SMILES IDX 22 38 23 39 87 40 24 41 86 42 25 43 26 44 27 45 80 46 28 47
REMARK SMILES IDX 85 48 79 49 81 50 29 51 84 52 78 53 77 54 30 56 64 57 43 58
REMARK SMILES IDX 63 59 44 60 47 61 62 62 82 63 45 64 46 65 61 67 83 68 48 69
REMARK SMILES IDX 31 70 32 71 41 72 33 73 34 74 40 75 42 76 35 77 36 78 37 79
REMARK SMILES IDX 38 80 39 81 65 82 66 83 75 84 67 85 68 86 74 87 76 88 69 89
REMARK SMILES IDX 70 90 71 91 72 92 73 93 49 94 50 95 59 96 51 97 52 98 58 99
REMARK SMILES IDX 60 100 53 101 54 102 55 103 56 104 57 105
REMARK H PARENT 12 8 8 14 98 21 96 26 19 36 81 55 47 66
REMARK Flexibility Score: inf
ROOT
ATOM      1  C   UNL A   1      39.756  21.360  26.223  1.00  0.00     0.002 C 
ENDROOT
BRANCH   1   2
ATOM      2  C   UNL A   1      38.446  22.006  25.759  1.00  0.00     0.002 C 
BRANCH   2   3
ATOM      3  C   UNL A   1      38.220  23.451  26.214  1.00  0.00     0.021 C 
BRANCH   3   4
ATOM      4  C   UNL A   1      36.674  24.104  25.736  1.00  0.00     0.116 C 
BRANCH   4   5
ATOM      5  N   UNL A   1      35.530  23.690  23.951  1.00  0.00    -0.351 N 
ATOM      6  C   UNL A   1      34.513  23.862  22.976  1.00  0.00     0.269 C 
ATOM      7  O   UNL A   1      34.545  23.071  22.028  1.00  0.00    -0.268 OA
ATOM      8  H   UNL A   1      36.000  22.898  23.602  1.00  0.00     0.163 HD
BRANCH   6   9
ATOM      9  C   UNL A   1      33.556  24.942  22.993  1.00  0.00     0.126 A 
ATOM     10  C   UNL A   1      33.090  25.760  24.010  1.00  0.00     0.011 A 
ATOM     11  C   UNL A   1      32.256  26.694  23.367  1.00  0.00     0.140 A 
ATOM     12  N   UNL A   1      32.189  26.491  22.048  1.00  0.00    -0.183 NA
ATOM     13  N   UNL A   1      32.953  25.401  21.857  1.00  0.00    -0.273 N 
ATOM     14  H   UNL A   1      33.067  24.972  20.978  1.00  0.00     0.190 HD
BRANCH  10  15
ATOM     15  C   UNL A   1      33.481  25.646  25.440  1.00  0.00     0.069 C 
ATOM     16  O   UNL A   1      32.508  28.728  27.475  1.00  0.00    -0.275 OA
ATOM     17  C   UNL A   1      32.342  27.691  26.826  1.00  0.00     0.226 C 
ATOM     18  C   UNL A   1      33.573  27.012  26.159  1.00  0.00     0.114 C 
ATOM     19  N   UNL A   1      31.080  27.150  26.798  1.00  0.00    -0.311 N 
ATOM     20  C   UNL A   1      30.978  25.819  26.534  1.00  0.00     0.132 A 
ATOM     21  H   UNL A   1      30.281  27.702  26.964  1.00  0.00     0.171 HD
ATOM     22  C   UNL A   1      32.390  24.880  26.040  1.00  0.00     0.031 A 
ATOM     23  N   UNL A   1      29.579  24.643  26.815  1.00  0.00    -0.262 N 
ATOM     24  C   UNL A   1      31.877  23.004  26.023  1.00  0.00     0.108 A 
ATOM     25  N   UNL A   1      30.182  22.879  26.516  1.00  0.00    -0.173 NA
ATOM     26  H   UNL A   1      28.666  24.896  27.079  1.00  0.00     0.192 HD
BRANCH  24  27
ATOM     27  C   UNL A   1      32.686  21.958  25.351  1.00  0.00     0.055 A 
ATOM     28  C   UNL A   1      33.846  21.448  25.883  1.00  0.00     0.022 A 
ATOM     29  S   UNL A   1      32.192  21.153  23.938  1.00  0.00    -0.142 S 
ATOM     30  C   UNL A   1      34.292  20.308  25.150  1.00  0.00     0.012 A 
ATOM     31  C   UNL A   1      33.520  20.076  24.032  1.00  0.00     0.065 A 
ENDBRANCH  24  27
ENDBRANCH  10  15
ENDBRANCH   6   9
ENDBRANCH   4   5
ENDBRANCH   3   4
ENDBRANCH   2   3
ENDBRANCH   1   2
BRANCH   1  32
ATOM     32  C   UNL A   1      40.390  21.974  27.484  1.00  0.00     0.021 C 
BRANCH  32  33
ATOM     33  C   UNL A   1      41.870  21.673  27.596  1.00  0.00     0.116 C 
BRANCH  33  34
ATOM     34  N   UNL A   1      42.562  21.933  26.330  1.00  0.00    -0.352 N 
ATOM     35  C   UNL A   1      42.803  23.130  25.695  1.00  0.00     0.251 C 
ATOM     36  H   UNL A   1      42.906  21.135  25.866  1.00  0.00     0.163 HD
ATOM     37  O   UNL A   1      43.076  23.178  24.504  1.00  0.00    -0.269 OA
BRANCH  35  38
ATOM     38  C   UNL A   1      42.849  24.328  26.530  1.00  0.00     0.039 A 
ATOM     39  C   UNL A   1      43.838  24.627  27.467  1.00  0.00     0.014 A 
ATOM     40  C   UNL A   1      41.734  25.137  26.452  1.00  0.00     0.014 A 
ATOM     41  C   UNL A   1      43.607  25.724  28.303  1.00  0.00     0.010 A 
ATOM     42  C   UNL A   1      41.889  26.426  26.805  1.00  0.00     0.010 A 
ATOM     43  C   UNL A   1      42.512  26.553  28.017  1.00  0.00    -0.014 A 
BRANCH  43  44
ATOM     44  C   UNL A   1      42.183  27.813  28.649  1.00  0.00     0.031 A 
ATOM     45  C   UNL A   1      43.224  28.822  28.313  1.00  0.00     0.074 A 
ATOM     46  C   UNL A   1      40.970  28.028  29.222  1.00  0.00     0.049 A 
ATOM     47  N   UNL A   1      44.258  29.091  29.038  1.00  0.00    -0.248 NA
ATOM     48  C   UNL A   1      43.373  29.307  26.920  1.00  0.00     0.031 C 
ATOM     49  C   UNL A   1      39.798  27.143  29.358  1.00  0.00     0.029 A 
ATOM     50  N   UNL A   1      40.525  29.162  29.840  1.00  0.00    -0.354 N 
ATOM     51  C   UNL A   1      44.963  30.054  28.331  1.00  0.00     0.074 A 
ATOM     52  C   UNL A   1      44.579  29.882  26.963  1.00  0.00     0.031 C 
ATOM     53  C   UNL A   1      38.720  27.851  29.790  1.00  0.00     0.029 A 
ATOM     54  C   UNL A   1      39.139  29.204  30.099  1.00  0.00     0.049 A 
ATOM     55  H   UNL A   1      41.129  29.899  30.087  1.00  0.00     0.167 HD
ATOM     56  C   UNL A   1      45.502  31.119  28.986  1.00  0.00     0.037 A 
ATOM     57  C   UNL A   1      38.454  30.294  30.571  1.00  0.00     0.037 A 
ATOM     58  C   UNL A   1      45.473  30.868  30.412  1.00  0.00     0.049 A 
ATOM     59  C   UNL A   1      39.497  31.164  31.206  1.00  0.00     0.074 A 
ATOM     60  C   UNL A   1      46.048  29.913  31.227  1.00  0.00     0.029 A 
ATOM     61  N   UNL A   1      44.372  31.345  31.088  1.00  0.00    -0.354 N 
ATOM     62  N   UNL A   1      40.185  30.771  32.252  1.00  0.00    -0.248 NA
ATOM     63  C   UNL A   1      40.177  32.105  30.320  1.00  0.00     0.031 C 
ATOM     64  C   UNL A   1      45.010  29.524  32.125  1.00  0.00     0.029 A 
ATOM     65  C   UNL A   1      43.910  30.362  31.932  1.00  0.00     0.049 A 
ATOM     66  H   UNL A   1      43.980  32.242  30.985  1.00  0.00     0.167 HD
ATOM     67  C   UNL A   1      41.510  31.045  31.926  1.00  0.00     0.074 A 
ATOM     68  C   UNL A   1      41.434  31.866  30.709  1.00  0.00     0.031 C 
ATOM     69  C   UNL A   1      42.549  30.312  32.433  1.00  0.00     0.037 A 
BRANCH  56  70
ATOM     70  C   UNL A   1      45.648  32.514  28.424  1.00  0.00     0.058 A 
ATOM     71  C   UNL A   1      46.946  33.053  28.306  1.00  0.00     0.135 A 
ATOM     72  C   UNL A   1      44.593  33.435  28.231  1.00  0.00     0.135 A 
ATOM     73  F   UNL A   1      48.028  32.272  28.458  1.00  0.00    -0.206 F 
ATOM     74  C   UNL A   1      47.178  34.411  28.088  1.00  0.00     0.059 A 
ATOM     75  C   UNL A   1      44.802  34.786  27.969  1.00  0.00     0.059 A 
ATOM     76  F   UNL A   1      43.306  33.097  28.358  1.00  0.00    -0.206 F 
ATOM     77  C   UNL A   1      46.097  35.271  27.927  1.00  0.00     0.060 A 
BRANCH  77  78
ATOM     78  S   UNL A   1      46.407  37.026  27.672  1.00  0.00     0.124 S 
ATOM     79  O   UNL A   1      47.567  37.251  28.527  1.00  0.00    -0.237 OA
ATOM     80  O   UNL A   1      46.652  37.077  26.235  1.00  0.00    -0.237 OA
ATOM     81  O   UNL A   1      45.166  37.655  28.113  1.00  0.00    -0.744 OA
ENDBRANCH  77  78
ENDBRANCH  56  70
BRANCH  57  82
ATOM     82  C   UNL A   1      37.149  30.847  30.062  1.00  0.00     0.058 A 
ATOM     83  C   UNL A   1      36.185  31.470  30.890  1.00  0.00     0.135 A 
ATOM     84  C   UNL A   1      36.959  31.034  28.681  1.00  0.00     0.135 A 
ATOM     85  F   UNL A   1      36.273  31.364  32.226  1.00  0.00    -0.206 F 
ATOM     86  C   UNL A   1      35.138  32.266  30.376  1.00  0.00     0.059 A 
ATOM     87  C   UNL A   1      35.938  31.825  28.149  1.00  0.00     0.059 A 
ATOM     88  F   UNL A   1      37.822  30.516  27.796  1.00  0.00    -0.206 F 
ATOM     89  C   UNL A   1      35.042  32.461  28.998  1.00  0.00     0.060 A 
BRANCH  89  90
ATOM     90  S   UNL A   1      33.836  33.629  28.306  1.00  0.00     0.124 S 
ATOM     91  O   UNL A   1      33.301  34.266  29.505  1.00  0.00    -0.237 OA
ATOM     92  O   UNL A   1      34.668  34.473  27.456  1.00  0.00    -0.237 OA
ATOM     93  O   UNL A   1      32.896  32.766  27.594  1.00  0.00    -0.744 OA
ENDBRANCH  89  90
ENDBRANCH  57  82
BRANCH  69  94
ATOM     94  C   UNL A   1      42.268  29.284  33.513  1.00  0.00     0.058 A 
ATOM     95  C   UNL A   1      42.125  27.895  33.315  1.00  0.00     0.135 A 
ATOM     96  C   UNL A   1      42.336  29.718  34.842  1.00  0.00     0.135 A 
ATOM     97  F   UNL A   1      42.164  27.368  32.085  1.00  0.00    -0.206 F 
ATOM     98  C   UNL A   1      42.008  26.994  34.382  1.00  0.00     0.059 A 
ATOM     99  C   UNL A   1      42.252  28.842  35.920  1.00  0.00     0.059 A 
ATOM    100  F   UNL A   1      42.549  31.017  35.108  1.00  0.00    -0.206 F 
ATOM    101  C   UNL A   1      42.067  27.483  35.686  1.00  0.00     0.060 A 
BRANCH 101 102
ATOM    102  S   UNL A   1      41.931  26.338  37.078  1.00  0.00     0.124 S 
ATOM    103  O   UNL A   1      43.070  26.723  37.904  1.00  0.00    -0.237 OA
ATOM    104  O   UNL A   1      40.615  26.656  37.625  1.00  0.00    -0.237 OA
ATOM    105  O   UNL A   1      42.034  25.023  36.449  1.00  0.00    -0.744 OA
ENDBRANCH 101 102
ENDBRANCH  69  94
ENDBRANCH  43  44
ENDBRANCH  35  38
ENDBRANCH  33  34
ENDBRANCH  32  33
ENDBRANCH   1  32
TORSDOF 18
ENDMDL
MODEL 3
REMARK VINA RESULT:     -13.7      3.110      9.482
REMARK SMILES O=C1C[C@H](c2cn[nH]c2C(=O)NCCCCCCNC(=O)c2ccc(-c3c4nc(c(-c5c(F)cc(S(=O)(=O)[O-])cc5F)c5ccc([nH]5)c(-c5c(F)cc(S(=O)(=O)[O-])cc5F)c5nc(c(-c6c(F)cc(S(=O)(=O)[O-])cc6F)c6ccc3[nH]6)C=C5)C=C4)cc2)c2c(-c3cccs3)n[nH]c2N1
REMARK SMILES IDX 16 1 15 2 14 3 13 4 12 5 10 6 11 7 9 9 5 10 6 11 7 12 8 13
REMARK SMILES IDX 4 15 1 16 2 17 3 18 98 19 97 20 88 22 96 23 89 24 95 25
REMARK SMILES IDX 90 27 91 28 94 29 92 30 93 31 17 32 18 33 19 34 20 35 21 37
REMARK SMILES IDX 22 38 23 39 87 40 24 41 86 42 25 43 26 44 27 45 80 46 28 47
REMARK SMILES IDX 85 48 79 49 81 50 29 51 84 52 78 53 77 54 30 56 64 57 43 58
REMARK SMILES IDX 63 59 44 60 47 61 62 62 82 63 45 64 46 65 61 67 83 68 48 69
REMARK SMILES IDX 31 70 32 71 41 72 33 73 34 74 40 75 42 76 35 77 36 78 37 79
REMARK SMILES IDX 38 80 39 81 65 82 66 83 75 84 67 85 68 86 74 87 76 88 69 89
REMARK SMILES IDX 70 90 71 91 72 92 73 93 49 94 50 95 59 96 51 97 52 98 58 99
REMARK SMILES IDX 60 100 53 101 54 102 55 103 56 104 57 105
REMARK H PARENT 12 8 8 14 98 21 96 26 19 36 81 55 47 66
REMARK Flexibility Score: inf
ROOT
ATOM      1  C   UNL A   1      35.955  31.920  28.016  1.00  0.00     0.002 C 
ENDROOT
BRANCH   1   2
ATOM      2  C   UNL A   1      34.824  31.032  27.482  1.00  0.00     0.002 C 
BRANCH   2   3
ATOM      3  C   UNL A   1      34.792  29.599  28.020  1.00  0.00     0.021 C 
BRANCH   3   4
ATOM      4  C   UNL A   1      34.805  28.379  26.772  1.00  0.00     0.116 C 
BRANCH   4   5
ATOM      5  N   UNL A   1      33.662  28.315  24.941  1.00  0.00    -0.351 N 
ATOM      6  C   UNL A   1      33.116  27.758  23.755  1.00  0.00     0.269 C 
ATOM      7  O   UNL A   1      32.369  28.502  23.112  1.00  0.00    -0.268 OA
ATOM      8  H   UNL A   1      33.302  29.230  24.907  1.00  0.00     0.163 HD
BRANCH   6   9
ATOM      9  C   UNL A   1      33.304  26.386  23.349  1.00  0.00     0.126 A 
ATOM     10  C   UNL A   1      33.285  25.193  24.056  1.00  0.00     0.011 A 
ATOM     11  C   UNL A   1      33.417  24.193  23.075  1.00  0.00     0.140 A 
ATOM     12  N   UNL A   1      33.516  24.699  21.843  1.00  0.00    -0.183 NA
ATOM     13  N   UNL A   1      33.485  26.028  22.044  1.00  0.00    -0.273 N 
ATOM     14  H   UNL A   1      33.583  26.684  21.317  1.00  0.00     0.190 HD
BRANCH  10  15
ATOM     15  C   UNL A   1      33.103  25.079  25.527  1.00  0.00     0.069 C 
ATOM     16  O   UNL A   1      29.447  25.412  26.581  1.00  0.00    -0.275 OA
ATOM     17  C   UNL A   1      30.443  24.893  26.069  1.00  0.00     0.226 C 
ATOM     18  C   UNL A   1      31.776  25.695  26.027  1.00  0.00     0.114 C 
ATOM     19  N   UNL A   1      30.336  23.594  25.635  1.00  0.00    -0.311 N 
ATOM     20  C   UNL A   1      31.485  22.872  25.541  1.00  0.00     0.132 A 
ATOM     21  H   UNL A   1      29.463  23.202  25.403  1.00  0.00     0.171 HD
ATOM     22  C   UNL A   1      33.061  23.637  25.763  1.00  0.00     0.031 A 
ATOM     23  N   UNL A   1      31.748  21.045  25.424  1.00  0.00    -0.262 N 
ATOM     24  C   UNL A   1      34.402  22.229  25.812  1.00  0.00     0.108 A 
ATOM     25  N   UNL A   1      33.586  20.669  25.629  1.00  0.00    -0.173 NA
ATOM     26  H   UNL A   1      31.042  20.375  25.279  1.00  0.00     0.192 HD
BRANCH  24  27
ATOM     27  C   UNL A   1      35.852  22.496  25.655  1.00  0.00     0.055 A 
ATOM     28  C   UNL A   1      36.457  23.644  26.108  1.00  0.00     0.022 A 
ATOM     29  S   UNL A   1      36.957  21.355  25.052  1.00  0.00    -0.142 S 
ATOM     30  C   UNL A   1      37.879  23.542  26.032  1.00  0.00     0.012 A 
ATOM     31  C   UNL A   1      38.282  22.375  25.419  1.00  0.00     0.065 A 
ENDBRANCH  24  27
ENDBRANCH  10  15
ENDBRANCH   6   9
ENDBRANCH   4   5
ENDBRANCH   3   4
ENDBRANCH   2   3
ENDBRANCH   1   2
BRANCH   1  32
ATOM     32  C   UNL A   1      35.507  33.139  28.842  1.00  0.00     0.021 C 
BRANCH  32  33
ATOM     33  C   UNL A   1      36.599  33.652  29.759  1.00  0.00     0.116 C 
BRANCH  33  34
ATOM     34  N   UNL A   1      36.235  33.477  31.168  1.00  0.00    -0.352 N 
ATOM     35  C   UNL A   1      36.266  32.341  31.944  1.00  0.00     0.251 C 
ATOM     36  H   UNL A   1      35.923  34.290  31.627  1.00  0.00     0.163 HD
ATOM     37  O   UNL A   1      35.622  32.257  32.981  1.00  0.00    -0.269 OA
BRANCH  35  38
ATOM     38  C   UNL A   1      37.203  31.291  31.549  1.00  0.00     0.039 A 
ATOM     39  C   UNL A   1      36.857  29.990  31.186  1.00  0.00     0.014 A 
ATOM     40  C   UNL A   1      38.536  31.615  31.691  1.00  0.00     0.014 A 
ATOM     41  C   UNL A   1      37.905  29.078  31.027  1.00  0.00     0.010 A 
ATOM     42  C   UNL A   1      39.416  30.921  30.946  1.00  0.00     0.010 A 
ATOM     43  C   UNL A   1      39.219  29.571  31.047  1.00  0.00    -0.014 A 
BRANCH  43  44
ATOM     44  C   UNL A   1      40.431  28.838  30.749  1.00  0.00     0.031 A 
ATOM     45  C   UNL A   1      41.202  28.624  32.003  1.00  0.00     0.074 A 
ATOM     46  C   UNL A   1      40.630  28.252  29.539  1.00  0.00     0.049 A 
ATOM     47  N   UNL A   1      42.148  29.392  32.432  1.00  0.00    -0.248 NA
ATOM     48  C   UNL A   1      40.669  27.741  33.068  1.00  0.00     0.031 C 
ATOM     49  C   UNL A   1      39.779  28.212  28.335  1.00  0.00     0.029 A 
ATOM     50  N   UNL A   1      41.713  27.528  29.127  1.00  0.00    -0.354 N 
ATOM     51  C   UNL A   1      42.552  28.838  33.639  1.00  0.00     0.074 A 
ATOM     52  C   UNL A   1      41.428  28.088  34.112  1.00  0.00     0.031 C 
ATOM     53  C   UNL A   1      40.269  27.313  27.441  1.00  0.00     0.029 A 
ATOM     54  C   UNL A   1      41.537  26.808  27.927  1.00  0.00     0.049 A 
ATOM     55  H   UNL A   1      42.558  27.510  29.633  1.00  0.00     0.167 HD
ATOM     56  C   UNL A   1      43.878  28.755  33.938  1.00  0.00     0.037 A 
ATOM     57  C   UNL A   1      42.428  25.904  27.408  1.00  0.00     0.037 A 
ATOM     58  C   UNL A   1      44.630  29.569  33.007  1.00  0.00     0.049 A 
ATOM     59  C   UNL A   1      43.740  26.237  28.053  1.00  0.00     0.074 A 
ATOM     60  C   UNL A   1      44.650  30.919  32.715  1.00  0.00     0.029 A 
ATOM     61  N   UNL A   1      45.112  28.923  31.889  1.00  0.00    -0.354 N 
ATOM     62  N   UNL A   1      44.337  27.389  27.857  1.00  0.00    -0.248 NA
ATOM     63  C   UNL A   1      44.004  25.599  29.340  1.00  0.00     0.031 C 
ATOM     64  C   UNL A   1      44.685  30.986  31.290  1.00  0.00     0.029 A 
ATOM     65  C   UNL A   1      44.850  29.696  30.783  1.00  0.00     0.049 A 
ATOM     66  H   UNL A   1      45.568  28.051  31.884  1.00  0.00     0.167 HD
ATOM     67  C   UNL A   1      44.675  27.832  29.131  1.00  0.00     0.074 A 
ATOM     68  C   UNL A   1      44.432  26.677  30.007  1.00  0.00     0.031 C 
ATOM     69  C   UNL A   1      44.775  29.164  29.434  1.00  0.00     0.037 A 
BRANCH  56  70
ATOM     70  C   UNL A   1      44.529  27.655  34.744  1.00  0.00     0.058 A 
ATOM     71  C   UNL A   1      44.430  26.331  34.269  1.00  0.00     0.135 A 
ATOM     72  C   UNL A   1      45.020  27.787  36.063  1.00  0.00     0.135 A 
ATOM     73  F   UNL A   1      43.987  26.081  33.026  1.00  0.00    -0.206 F 
ATOM     74  C   UNL A   1      44.725  25.224  35.064  1.00  0.00     0.059 A 
ATOM     75  C   UNL A   1      45.362  26.698  36.859  1.00  0.00     0.059 A 
ATOM     76  F   UNL A   1      45.127  28.968  36.680  1.00  0.00    -0.206 F 
ATOM     77  C   UNL A   1      45.184  25.418  36.362  1.00  0.00     0.060 A 
BRANCH  77  78
ATOM     78  S   UNL A   1      45.537  23.983  37.390  1.00  0.00     0.124 S 
ATOM     79  O   UNL A   1      46.990  24.048  37.501  1.00  0.00    -0.237 OA
ATOM     80  O   UNL A   1      44.788  24.295  38.602  1.00  0.00    -0.237 OA
ATOM     81  O   UNL A   1      45.013  22.869  36.605  1.00  0.00    -0.744 OA
ENDBRANCH  77  78
ENDBRANCH  56  70
BRANCH  57  82
ATOM     82  C   UNL A   1      42.129  24.536  26.857  1.00  0.00     0.058 A 
ATOM     83  C   UNL A   1      42.863  23.934  25.806  1.00  0.00     0.135 A 
ATOM     84  C   UNL A   1      41.284  23.664  27.567  1.00  0.00     0.135 A 
ATOM     85  F   UNL A   1      43.708  24.671  25.066  1.00  0.00    -0.206 F 
ATOM     86  C   UNL A   1      42.797  22.554  25.522  1.00  0.00     0.059 A 
ATOM     87  C   UNL A   1      41.209  22.293  27.312  1.00  0.00     0.059 A 
ATOM     88  F   UNL A   1      40.557  24.108  28.602  1.00  0.00    -0.206 F 
ATOM     89  C   UNL A   1      41.984  21.734  26.306  1.00  0.00     0.060 A 
BRANCH  89  90
ATOM     90  S   UNL A   1      42.016  19.929  26.104  1.00  0.00     0.124 S 
ATOM     91  O   UNL A   1      42.387  19.476  27.440  1.00  0.00    -0.237 OA
ATOM     92  O   UNL A   1      40.648  19.635  25.691  1.00  0.00    -0.237 OA
ATOM     93  O   UNL A   1      43.032  19.719  25.076  1.00  0.00    -0.744 OA
ENDBRANCH  89  90
ENDBRANCH  57  82
BRANCH  69  94
ATOM     94  C   UNL A   1      44.685  30.184  28.314  1.00  0.00     0.058 A 
ATOM     95  C   UNL A   1      43.508  30.823  27.871  1.00  0.00     0.135 A 
ATOM     96  C   UNL A   1      45.890  30.670  27.794  1.00  0.00     0.135 A 
ATOM     97  F   UNL A   1      42.317  30.509  28.392  1.00  0.00    -0.206 F 
ATOM     98  C   UNL A   1      43.529  31.858  26.926  1.00  0.00     0.059 A 
ATOM     99  C   UNL A   1      45.941  31.715  26.877  1.00  0.00     0.059 A 
ATOM    100  F   UNL A   1      47.056  30.162  28.228  1.00  0.00    -0.206 F 
ATOM    101  C   UNL A   1      44.757  32.293  26.430  1.00  0.00     0.060 A 
BRANCH 101 102
ATOM    102  S   UNL A   1      44.809  33.636  25.220  1.00  0.00     0.124 S 
ATOM    103  O   UNL A   1      44.355  32.970  24.004  1.00  0.00    -0.237 OA
ATOM    104  O   UNL A   1      43.885  34.613  25.790  1.00  0.00    -0.237 OA
ATOM    105  O   UNL A   1      46.212  34.041  25.222  1.00  0.00    -0.744 OA
ENDBRANCH 101 102
ENDBRANCH  69  94
ENDBRANCH  43  44
ENDBRANCH  35  38
ENDBRANCH  33  34
ENDBRANCH  32  33
ENDBRANCH   1  32
TORSDOF 18
ENDMDL
