MODEL 1
REMARK VINA RESULT:     -10.0      0.000      0.000
REMARK SMILES CCSCC[C@@H]1CCC[C@@]1([NH3+])C(=O)NCCCCCCNC(=O)c1ccc(-c2c3nc(c(-c4c(F)cc(S(=O)(=O)[O-])cc4F)c4ccc([nH]4)c(-c4c(F)cc(S(=O)(=O)[O-])cc4F)c4nc(c(-c5c(F)cc(S(=O)(=O)[O-])cc5F)c5ccc2[nH]5)C=C4)C=C3)cc1
REMARK SMILES IDX 17 1 16 2 15 3 14 4 12 5 13 6 10 8 6 9 7 10 8 11 9 12 5 13
REMARK SMILES IDX 4 14 3 15 2 16 1 17 11 18 18 22 19 23 20 24 21 25 22 26
REMARK SMILES IDX 23 28 24 29 25 30 89 31 26 32 88 33 27 34 28 35 29 36 82 37
REMARK SMILES IDX 30 38 87 39 81 40 83 41 31 42 86 43 80 44 79 45 32 47 66 48
REMARK SMILES IDX 45 49 65 50 46 51 49 52 64 53 84 54 47 55 48 56 63 58 85 59
REMARK SMILES IDX 50 60 33 61 34 62 43 63 35 64 36 65 42 66 44 67 37 68 38 69
REMARK SMILES IDX 39 70 40 71 41 72 67 73 68 74 77 75 69 76 70 77 76 78 78 79
REMARK SMILES IDX 71 80 72 81 73 82 74 83 75 84 51 85 52 86 61 87 53 88 54 89
REMARK SMILES IDX 60 90 62 91 55 92 56 93 57 94 58 95 59 96
REMARK H PARENT 14 7 11 19 11 20 11 21 21 27 83 46 49 57
REMARK Flexibility Score: inf
ROOT
ATOM      1  C   UNL A   1      31.990  28.638  25.939  1.00  0.00     0.002 C 
ENDROOT
BRANCH   1   2
ATOM      2  C   UNL A   1      31.432  27.535  26.849  1.00  0.00     0.021 C 
BRANCH   2   3
ATOM      3  C   UNL A   1      30.876  26.322  26.111  1.00  0.00     0.116 C 
BRANCH   3   4
ATOM      4  N   UNL A   1      31.092  25.117  26.876  1.00  0.00    -0.351 N 
ATOM      5  C   UNL A   1      31.685  23.941  26.558  1.00  0.00     0.281 C 
ATOM      6  O   UNL A   1      31.607  23.065  27.419  1.00  0.00    -0.268 OA
ATOM      7  H   UNL A   1      30.747  25.158  27.796  1.00  0.00     0.163 HD
BRANCH   5   8
ATOM      8  C   UNL A   1      32.416  23.738  25.208  1.00  0.00     0.176 C 
ATOM      9  C   UNL A   1      33.390  22.523  25.208  1.00  0.00     0.061 C 
ATOM     10  C   UNL A   1      33.615  22.267  23.705  1.00  0.00     0.011 C 
ATOM     11  C   UNL A   1      32.301  22.646  23.025  1.00  0.00     0.008 C 
ATOM     12  C   UNL A   1      31.434  23.270  24.115  1.00  0.00     0.079 C 
BRANCH   9  13
ATOM     13  C   UNL A   1      34.729  22.647  25.962  1.00  0.00     0.021 C 
BRANCH  13  14
ATOM     14  C   UNL A   1      35.688  21.455  25.841  1.00  0.00     0.070 C 
BRANCH  14  15
ATOM     15  S   UNL A   1      37.257  21.769  24.945  1.00  0.00    -0.162 SA
BRANCH  15  16
ATOM     16  C   UNL A   1      38.211  22.797  26.109  1.00  0.00     0.066 C 
ATOM     17  C   UNL A   1      39.565  22.234  26.501  1.00  0.00     0.015 C 
ENDBRANCH  15  16
ENDBRANCH  14  15
ENDBRANCH  13  14
ENDBRANCH   9  13
BRANCH   8  18
ATOM     18  N   UNL A   1      33.133  24.968  24.800  1.00  0.00    -0.345 N 
ATOM     19  H   UNL A   1      32.458  25.680  24.525  1.00  0.00     0.345 HD
ATOM     20  H   UNL A   1      33.745  24.759  24.011  1.00  0.00     0.345 HD
ATOM     21  H   UNL A   1      33.690  25.312  25.582  1.00  0.00     0.345 HD
ENDBRANCH   8  18
ENDBRANCH   5   8
ENDBRANCH   3   4
ENDBRANCH   2   3
ENDBRANCH   1   2
BRANCH   1  22
ATOM     22  C   UNL A   1      33.517  28.760  25.918  1.00  0.00     0.002 C 
BRANCH  22  23
ATOM     23  C   UNL A   1      34.094  29.849  26.823  1.00  0.00     0.021 C 
BRANCH  23  24
ATOM     24  C   UNL A   1      35.194  29.375  27.762  1.00  0.00     0.116 C 
BRANCH  24  25
ATOM     25  N   UNL A   1      35.234  30.145  28.991  1.00  0.00    -0.352 N 
ATOM     26  C   UNL A   1      36.276  30.297  29.873  1.00  0.00     0.251 C 
ATOM     27  H   UNL A   1      34.405  30.621  29.223  1.00  0.00     0.163 HD
ATOM     28  O   UNL A   1      36.091  30.828  30.959  1.00  0.00    -0.269 OA
BRANCH  26  29
ATOM     29  C   UNL A   1      37.614  29.787  29.501  1.00  0.00     0.039 A 
ATOM     30  C   UNL A   1      38.018  29.866  28.167  1.00  0.00     0.014 A 
ATOM     31  C   UNL A   1      38.472  29.254  30.469  1.00  0.00     0.014 A 
ATOM     32  C   UNL A   1      39.306  29.460  27.814  1.00  0.00     0.010 A 
ATOM     33  C   UNL A   1      39.780  28.927  30.128  1.00  0.00     0.010 A 
ATOM     34  C   UNL A   1      40.209  29.019  28.796  1.00  0.00    -0.014 A 
BRANCH  34  35
ATOM     35  C   UNL A   1      41.602  28.641  28.443  1.00  0.00     0.031 A 
ATOM     36  C   UNL A   1      42.679  29.691  28.393  1.00  0.00     0.074 A 
ATOM     37  C   UNL A   1      41.884  27.363  28.120  1.00  0.00     0.049 A 
ATOM     38  N   UNL A   1      43.936  29.568  28.054  1.00  0.00    -0.248 NA
ATOM     39  C   UNL A   1      42.286  31.066  28.744  1.00  0.00     0.031 C 
ATOM     40  C   UNL A   1      40.915  26.264  28.088  1.00  0.00     0.029 A 
ATOM     41  N   UNL A   1      43.066  26.772  27.749  1.00  0.00    -0.354 N 
ATOM     42  C   UNL A   1      44.480  30.844  28.143  1.00  0.00     0.074 A 
ATOM     43  C   UNL A   1      43.403  31.737  28.509  1.00  0.00     0.031 C 
ATOM     44  C   UNL A   1      41.546  25.131  27.742  1.00  0.00     0.029 A 
ATOM     45  C   UNL A   1      42.953  25.426  27.486  1.00  0.00     0.049 A 
ATOM     46  H   UNL A   1      43.915  27.264  27.677  1.00  0.00     0.167 HD
ATOM     47  C   UNL A   1      45.765  31.231  27.962  1.00  0.00     0.037 A 
ATOM     48  C   UNL A   1      43.875  24.533  27.076  1.00  0.00     0.037 A 
ATOM     49  C   UNL A   1      46.835  30.331  27.619  1.00  0.00     0.049 A 
ATOM     50  C   UNL A   1      45.294  24.992  26.866  1.00  0.00     0.074 A 
ATOM     51  C   UNL A   1      48.181  30.615  27.464  1.00  0.00     0.029 A 
ATOM     52  N   UNL A   1      46.683  28.974  27.373  1.00  0.00    -0.354 N 
ATOM     53  N   UNL A   1      45.803  26.192  27.018  1.00  0.00    -0.248 NA
ATOM     54  C   UNL A   1      46.265  23.977  26.435  1.00  0.00     0.031 C 
ATOM     55  C   UNL A   1      48.833  29.443  27.073  1.00  0.00     0.029 A 
ATOM     56  C   UNL A   1      47.906  28.412  27.043  1.00  0.00     0.049 A 
ATOM     57  H   UNL A   1      45.832  28.483  27.425  1.00  0.00     0.167 HD
ATOM     58  C   UNL A   1      47.158  26.067  26.732  1.00  0.00     0.074 A 
ATOM     59  C   UNL A   1      47.391  24.675  26.412  1.00  0.00     0.031 C 
ATOM     60  C   UNL A   1      48.124  27.021  26.735  1.00  0.00     0.037 A 
BRANCH  47  61
ATOM     61  C   UNL A   1      46.089  32.691  28.135  1.00  0.00     0.058 A 
ATOM     62  C   UNL A   1      46.516  33.211  29.369  1.00  0.00     0.135 A 
ATOM     63  C   UNL A   1      46.021  33.573  27.045  1.00  0.00     0.135 A 
ATOM     64  F   UNL A   1      46.584  32.418  30.450  1.00  0.00    -0.206 F 
ATOM     65  C   UNL A   1      46.837  34.556  29.520  1.00  0.00     0.059 A 
ATOM     66  C   UNL A   1      46.368  34.915  27.165  1.00  0.00     0.059 A 
ATOM     67  F   UNL A   1      45.617  33.132  25.842  1.00  0.00    -0.206 F 
ATOM     68  C   UNL A   1      46.763  35.400  28.411  1.00  0.00     0.060 A 
BRANCH  68  69
ATOM     69  S   UNL A   1      47.201  37.138  28.623  1.00  0.00     0.124 S 
ATOM     70  O   UNL A   1      47.529  37.183  30.045  1.00  0.00    -0.237 OA
ATOM     71  O   UNL A   1      48.328  37.288  27.708  1.00  0.00    -0.237 OA
ATOM     72  O   UNL A   1      45.984  37.846  28.239  1.00  0.00    -0.744 OA
ENDBRANCH  68  69
ENDBRANCH  47  61
BRANCH  48  73
ATOM     73  C   UNL A   1      43.490  23.113  26.846  1.00  0.00     0.058 A 
ATOM     74  C   UNL A   1      43.403  22.588  25.549  1.00  0.00     0.135 A 
ATOM     75  C   UNL A   1      43.200  22.255  27.918  1.00  0.00     0.135 A 
ATOM     76  F   UNL A   1      43.665  23.368  24.489  1.00  0.00    -0.206 F 
ATOM     77  C   UNL A   1      43.019  21.270  25.319  1.00  0.00     0.059 A 
ATOM     78  C   UNL A   1      42.843  20.925  27.717  1.00  0.00     0.059 A 
ATOM     79  F   UNL A   1      43.286  22.702  29.181  1.00  0.00    -0.206 F 
ATOM     80  C   UNL A   1      42.742  20.446  26.411  1.00  0.00     0.060 A 
BRANCH  80  81
ATOM     81  S   UNL A   1      42.277  18.728  26.104  1.00  0.00     0.124 S 
ATOM     82  O   UNL A   1      40.869  18.864  25.751  1.00  0.00    -0.237 OA
ATOM     83  O   UNL A   1      43.177  18.358  25.016  1.00  0.00    -0.237 OA
ATOM     84  O   UNL A   1      42.548  18.075  27.381  1.00  0.00    -0.744 OA
ENDBRANCH  80  81
ENDBRANCH  48  73
BRANCH  60  85
ATOM     85  C   UNL A   1      49.530  26.586  26.422  1.00  0.00     0.058 A 
ATOM     86  C   UNL A   1      50.071  26.704  25.133  1.00  0.00     0.135 A 
ATOM     87  C   UNL A   1      50.364  26.097  27.441  1.00  0.00     0.135 A 
ATOM     88  F   UNL A   1      49.316  27.160  24.120  1.00  0.00    -0.206 F 
ATOM     89  C   UNL A   1      51.382  26.326  24.858  1.00  0.00     0.059 A 
ATOM     90  C   UNL A   1      51.687  25.745  27.196  1.00  0.00     0.059 A 
ATOM     91  F   UNL A   1      49.900  25.975  28.695  1.00  0.00    -0.206 F 
ATOM     92  C   UNL A   1      52.183  25.851  25.898  1.00  0.00     0.060 A 
BRANCH  92  93
ATOM     93  S   UNL A   1      53.893  25.399  25.534  1.00  0.00     0.124 S 
ATOM     94  O   UNL A   1      54.465  25.310  26.873  1.00  0.00    -0.237 OA
ATOM     95  O   UNL A   1      53.736  24.132  24.826  1.00  0.00    -0.237 OA
ATOM     96  O   UNL A   1      54.372  26.510  24.719  1.00  0.00    -0.744 OA
ENDBRANCH  92  93
ENDBRANCH  60  85
ENDBRANCH  34  35
ENDBRANCH  26  29
ENDBRANCH  24  25
ENDBRANCH  23  24
ENDBRANCH  22  23
ENDBRANCH   1  22
TORSDOF 21
ENDMDL
MODEL 2
REMARK VINA RESULT:      -9.8      6.882     11.872
REMARK SMILES CCSCC[C@@H]1CCC[C@@]1([NH3+])C(=O)NCCCCCCNC(=O)c1ccc(-c2c3nc(c(-c4c(F)cc(S(=O)(=O)[O-])cc4F)c4ccc([nH]4)c(-c4c(F)cc(S(=O)(=O)[O-])cc4F)c4nc(c(-c5c(F)cc(S(=O)(=O)[O-])cc5F)c5ccc2[nH]5)C=C4)C=C3)cc1
REMARK SMILES IDX 17 1 16 2 15 3 14 4 12 5 13 6 10 8 6 9 7 10 8 11 9 12 5 13
REMARK SMILES IDX 4 14 3 15 2 16 1 17 11 18 18 22 19 23 20 24 21 25 22 26
REMARK SMILES IDX 23 28 24 29 25 30 89 31 26 32 88 33 27 34 28 35 29 36 82 37
REMARK SMILES IDX 30 38 87 39 81 40 83 41 31 42 86 43 80 44 79 45 32 47 66 48
REMARK SMILES IDX 45 49 65 50 46 51 49 52 64 53 84 54 47 55 48 56 63 58 85 59
REMARK SMILES IDX 50 60 33 61 34 62 43 63 35 64 36 65 42 66 44 67 37 68 38 69
REMARK SMILES IDX 39 70 40 71 41 72 67 73 68 74 77 75 69 76 70 77 76 78 78 79
REMARK SMILES IDX 71 80 72 81 73 82 74 83 75 84 51 85 52 86 61 87 53 88 54 89
REMARK SMILES IDX 60 90 62 91 55 92 56 93 57 94 58 95 59 96
REMARK H PARENT 14 7 11 19 11 20 11 21 21 27 83 46 49 57
REMARK Flexibility Score: inf
ROOT
ATOM      1  C   UNL A   1      39.059  21.917  26.106  1.00  0.00     0.002 C 
ENDROOT
BRANCH   1   2
ATOM      2  C   UNL A   1      38.605  23.342  26.446  1.00  0.00     0.021 C 
BRANCH   2   3
ATOM      3  C   UNL A   1      37.215  23.708  25.936  1.00  0.00     0.116 C 
BRANCH   3   4
ATOM      4  N   UNL A   1      36.196  23.175  26.807  1.00  0.00    -0.351 N 
ATOM      5  C   UNL A   1      34.860  23.019  26.643  1.00  0.00     0.281 C 
ATOM      6  O   UNL A   1      34.251  22.625  27.637  1.00  0.00    -0.268 OA
ATOM      7  H   UNL A   1      36.532  22.868  27.679  1.00  0.00     0.163 HD
BRANCH   5   8
ATOM      8  C   UNL A   1      34.168  23.307  25.287  1.00  0.00     0.176 C 
ATOM      9  C   UNL A   1      34.501  24.714  24.710  1.00  0.00     0.061 C 
ATOM     10  C   UNL A   1      34.102  24.577  23.228  1.00  0.00     0.011 C 
ATOM     11  C   UNL A   1      34.387  23.122  22.860  1.00  0.00     0.008 C 
ATOM     12  C   UNL A   1      34.766  22.430  24.167  1.00  0.00     0.079 C 
BRANCH   9  13
ATOM     13  C   UNL A   1      33.848  25.952  25.354  1.00  0.00     0.021 C 
BRANCH  13  14
ATOM     14  C   UNL A   1      33.635  27.163  24.434  1.00  0.00     0.070 C 
BRANCH  14  15
ATOM     15  S   UNL A   1      33.421  28.782  25.268  1.00  0.00    -0.162 SA
BRANCH  15  16
ATOM     16  C   UNL A   1      31.644  29.134  25.058  1.00  0.00     0.066 C 
ATOM     17  C   UNL A   1      30.866  28.076  24.297  1.00  0.00     0.015 C 
ENDBRANCH  15  16
ENDBRANCH  14  15
ENDBRANCH  13  14
ENDBRANCH   9  13
BRANCH   8  18
ATOM     18  N   UNL A   1      32.701  23.130  25.389  1.00  0.00    -0.345 N 
ATOM     19  H   UNL A   1      32.293  23.935  25.861  1.00  0.00     0.345 HD
ATOM     20  H   UNL A   1      32.498  22.284  25.923  1.00  0.00     0.345 HD
ATOM     21  H   UNL A   1      32.304  23.046  24.454  1.00  0.00     0.345 HD
ENDBRANCH   8  18
ENDBRANCH   5   8
ENDBRANCH   3   4
ENDBRANCH   2   3
ENDBRANCH   1   2
BRANCH   1  22
ATOM     22  C   UNL A   1      40.510  21.586  26.470  1.00  0.00     0.002 C 
BRANCH  22  23
ATOM     23  C   UNL A   1      41.037  22.273  27.731  1.00  0.00     0.021 C 
BRANCH  23  24
ATOM     24  C   UNL A   1      42.269  23.139  27.511  1.00  0.00     0.116 C 
BRANCH  24  25
ATOM     25  N   UNL A   1      42.147  23.975  26.332  1.00  0.00    -0.352 N 
ATOM     26  C   UNL A   1      41.769  25.293  26.250  1.00  0.00     0.251 C 
ATOM     27  H   UNL A   1      42.364  23.539  25.476  1.00  0.00     0.163 HD
ATOM     28  O   UNL A   1      41.535  25.801  25.162  1.00  0.00    -0.269 OA
BRANCH  26  29
ATOM     29  C   UNL A   1      41.624  26.078  27.496  1.00  0.00     0.039 A 
ATOM     30  C   UNL A   1      42.603  27.021  27.814  1.00  0.00     0.014 A 
ATOM     31  C   UNL A   1      40.518  25.898  28.331  1.00  0.00     0.014 A 
ATOM     32  C   UNL A   1      42.442  27.824  28.945  1.00  0.00     0.010 A 
ATOM     33  C   UNL A   1      40.320  26.754  29.411  1.00  0.00     0.010 A 
ATOM     34  C   UNL A   1      41.284  27.720  29.734  1.00  0.00    -0.014 A 
BRANCH  34  35
ATOM     35  C   UNL A   1      41.071  28.609  30.906  1.00  0.00     0.031 A 
ATOM     36  C   UNL A   1      39.997  29.663  30.867  1.00  0.00     0.074 A 
ATOM     37  C   UNL A   1      41.877  28.499  31.981  1.00  0.00     0.049 A 
ATOM     38  N   UNL A   1      39.696  30.566  31.764  1.00  0.00    -0.248 NA
ATOM     39  C   UNL A   1      39.170  29.728  29.651  1.00  0.00     0.031 C 
ATOM     40  C   UNL A   1      42.983  27.547  32.116  1.00  0.00     0.029 A 
ATOM     41  N   UNL A   1      41.898  29.199  33.161  1.00  0.00    -0.354 N 
ATOM     42  C   UNL A   1      38.654  31.308  31.219  1.00  0.00     0.074 A 
ATOM     43  C   UNL A   1      38.416  30.790  29.890  1.00  0.00     0.031 C 
ATOM     44  C   UNL A   1      43.555  27.707  33.319  1.00  0.00     0.029 A 
ATOM     45  C   UNL A   1      42.890  28.798  34.024  1.00  0.00     0.049 A 
ATOM     46  H   UNL A   1      41.263  29.922  33.369  1.00  0.00     0.167 HD
ATOM     47  C   UNL A   1      37.944  32.313  31.785  1.00  0.00     0.037 A 
ATOM     48  C   UNL A   1      43.232  29.262  35.242  1.00  0.00     0.037 A 
ATOM     49  C   UNL A   1      38.174  32.809  33.118  1.00  0.00     0.049 A 
ATOM     50  C   UNL A   1      42.437  30.391  35.844  1.00  0.00     0.074 A 
ATOM     51  C   UNL A   1      37.476  33.787  33.803  1.00  0.00     0.029 A 
ATOM     52  N   UNL A   1      39.180  32.368  33.966  1.00  0.00    -0.354 N 
ATOM     53  N   UNL A   1      41.413  31.038  35.339  1.00  0.00    -0.248 NA
ATOM     54  C   UNL A   1      42.838  30.849  37.181  1.00  0.00     0.031 C 
ATOM     55  C   UNL A   1      38.092  33.977  35.043  1.00  0.00     0.029 A 
ATOM     56  C   UNL A   1      39.137  33.073  35.158  1.00  0.00     0.049 A 
ATOM     57  H   UNL A   1      39.829  31.660  33.752  1.00  0.00     0.167 HD
ATOM     58  C   UNL A   1      41.029  31.957  36.310  1.00  0.00     0.074 A 
ATOM     59  C   UNL A   1      41.922  31.773  37.435  1.00  0.00     0.031 C 
ATOM     60  C   UNL A   1      40.027  32.871  36.273  1.00  0.00     0.037 A 
BRANCH  47  61
ATOM     61  C   UNL A   1      36.847  32.943  30.970  1.00  0.00     0.058 A 
ATOM     62  C   UNL A   1      37.119  33.906  29.984  1.00  0.00     0.135 A 
ATOM     63  C   UNL A   1      35.511  32.546  31.141  1.00  0.00     0.135 A 
ATOM     64  F   UNL A   1      38.376  34.336  29.788  1.00  0.00    -0.206 F 
ATOM     65  C   UNL A   1      36.106  34.470  29.216  1.00  0.00     0.059 A 
ATOM     66  C   UNL A   1      34.485  33.073  30.363  1.00  0.00     0.059 A 
ATOM     67  F   UNL A   1      35.191  31.631  32.070  1.00  0.00    -0.206 F 
ATOM     68  C   UNL A   1      34.791  34.044  29.411  1.00  0.00     0.060 A 
BRANCH  68  69
ATOM     69  S   UNL A   1      33.491  34.774  28.393  1.00  0.00     0.124 S 
ATOM     70  O   UNL A   1      34.262  35.676  27.542  1.00  0.00    -0.237 OA
ATOM     71  O   UNL A   1      32.925  33.605  27.727  1.00  0.00    -0.237 OA
ATOM     72  O   UNL A   1      32.619  35.424  29.367  1.00  0.00    -0.744 OA
ENDBRANCH  68  69
ENDBRANCH  47  61
BRANCH  48  73
ATOM     73  C   UNL A   1      44.373  28.655  35.981  1.00  0.00     0.058 A 
ATOM     74  C   UNL A   1      44.173  27.597  36.880  1.00  0.00     0.135 A 
ATOM     75  C   UNL A   1      45.685  29.121  35.806  1.00  0.00     0.135 A 
ATOM     76  F   UNL A   1      42.936  27.118  37.088  1.00  0.00    -0.206 F 
ATOM     77  C   UNL A   1      45.226  27.038  37.596  1.00  0.00     0.059 A 
ATOM     78  C   UNL A   1      46.760  28.560  36.488  1.00  0.00     0.059 A 
ATOM     79  F   UNL A   1      45.935  30.119  34.944  1.00  0.00    -0.206 F 
ATOM     80  C   UNL A   1      46.517  27.527  37.392  1.00  0.00     0.060 A 
BRANCH  80  81
ATOM     81  S   UNL A   1      47.884  26.772  38.302  1.00  0.00     0.124 S 
ATOM     82  O   UNL A   1      47.177  25.837  39.169  1.00  0.00    -0.237 OA
ATOM     83  O   UNL A   1      48.673  26.178  37.229  1.00  0.00    -0.237 OA
ATOM     84  O   UNL A   1      48.506  27.909  38.973  1.00  0.00    -0.744 OA
ENDBRANCH  80  81
ENDBRANCH  48  73
BRANCH  60  85
ATOM     85  C   UNL A   1      39.814  33.717  37.500  1.00  0.00     0.058 A 
ATOM     86  C   UNL A   1      40.430  34.968  37.653  1.00  0.00     0.135 A 
ATOM     87  C   UNL A   1      38.935  33.290  38.510  1.00  0.00     0.135 A 
ATOM     88  F   UNL A   1      41.283  35.421  36.720  1.00  0.00    -0.206 F 
ATOM     89  C   UNL A   1      40.204  35.756  38.777  1.00  0.00     0.059 A 
ATOM     90  C   UNL A   1      38.669  34.077  39.627  1.00  0.00     0.059 A 
ATOM     91  F   UNL A   1      38.311  32.107  38.409  1.00  0.00    -0.206 F 
ATOM     92  C   UNL A   1      39.319  35.303  39.757  1.00  0.00     0.060 A 
BRANCH  92  93
ATOM     93  S   UNL A   1      39.008  36.352  41.193  1.00  0.00     0.124 S 
ATOM     94  O   UNL A   1      40.292  36.296  41.882  1.00  0.00    -0.237 OA
ATOM     95  O   UNL A   1      38.674  37.633  40.576  1.00  0.00    -0.237 OA
ATOM     96  O   UNL A   1      37.901  35.683  41.870  1.00  0.00    -0.744 OA
ENDBRANCH  92  93
ENDBRANCH  60  85
ENDBRANCH  34  35
ENDBRANCH  26  29
ENDBRANCH  24  25
ENDBRANCH  23  24
ENDBRANCH  22  23
ENDBRANCH   1  22
TORSDOF 21
ENDMDL
MODEL 3
REMARK VINA RESULT:      -9.8      5.098     10.752
REMARK SMILES CCSCC[C@@H]1CCC[C@@]1([NH3+])C(=O)NCCCCCCNC(=O)c1ccc(-c2c3nc(c(-c4c(F)cc(S(=O)(=O)[O-])cc4F)c4ccc([nH]4)c(-c4c(F)cc(S(=O)(=O)[O-])cc4F)c4nc(c(-c5c(F)cc(S(=O)(=O)[O-])cc5F)c5ccc2[nH]5)C=C4)C=C3)cc1
REMARK SMILES IDX 17 1 16 2 15 3 14 4 12 5 13 6 10 8 6 9 7 10 8 11 9 12 5 13
REMARK SMILES IDX 4 14 3 15 2 16 1 17 11 18 18 22 19 23 20 24 21 25 22 26
REMARK SMILES IDX 23 28 24 29 25 30 89 31 26 32 88 33 27 34 28 35 29 36 82 37
REMARK SMILES IDX 30 38 87 39 81 40 83 41 31 42 86 43 80 44 79 45 32 47 66 48
REMARK SMILES IDX 45 49 65 50 46 51 49 52 64 53 84 54 47 55 48 56 63 58 85 59
REMARK SMILES IDX 50 60 33 61 34 62 43 63 35 64 36 65 42 66 44 67 37 68 38 69
REMARK SMILES IDX 39 70 40 71 41 72 67 73 68 74 77 75 69 76 70 77 76 78 78 79
REMARK SMILES IDX 71 80 72 81 73 82 74 83 75 84 51 85 52 86 61 87 53 88 54 89
REMARK SMILES IDX 60 90 62 91 55 92 56 93 57 94 58 95 59 96
REMARK H PARENT 14 7 11 19 11 20 11 21 21 27 83 46 49 57
REMARK Flexibility Score: inf
ROOT
ATOM      1  C   UNL A   1      34.161  24.796  25.092  1.00  0.00     0.002 C 
ENDROOT
BRANCH   1   2
ATOM      2  C   UNL A   1      32.744  24.793  25.680  1.00  0.00     0.021 C 
BRANCH   2   3
ATOM      3  C   UNL A   1      31.718  25.584  24.876  1.00  0.00     0.116 C 
BRANCH   3   4
ATOM      4  N   UNL A   1      32.163  25.762  23.515  1.00  0.00    -0.351 N 
ATOM      5  C   UNL A   1      32.371  26.875  22.771  1.00  0.00     0.281 C 
ATOM      6  O   UNL A   1      32.653  26.673  21.591  1.00  0.00    -0.268 OA
ATOM      7  H   UNL A   1      32.352  24.921  23.041  1.00  0.00     0.163 HD
BRANCH   5   8
ATOM      8  C   UNL A   1      32.269  28.293  23.386  1.00  0.00     0.176 C 
ATOM      9  C   UNL A   1      30.925  28.551  24.128  1.00  0.00     0.061 C 
ATOM     10  C   UNL A   1      31.248  29.780  25.000  1.00  0.00     0.011 C 
ATOM     11  C   UNL A   1      32.722  29.640  25.374  1.00  0.00     0.008 C 
ATOM     12  C   UNL A   1      33.243  28.451  24.571  1.00  0.00     0.079 C 
BRANCH   9  13
ATOM     13  C   UNL A   1      29.649  28.776  23.294  1.00  0.00     0.021 C 
BRANCH  13  14
ATOM     14  C   UNL A   1      29.182  30.230  23.147  1.00  0.00     0.070 C 
BRANCH  14  15
ATOM     15  S   UNL A   1      28.029  30.571  21.762  1.00  0.00    -0.162 SA
BRANCH  15  16
ATOM     16  C   UNL A   1      28.097  32.385  21.591  1.00  0.00     0.066 C 
ATOM     17  C   UNL A   1      28.775  33.112  22.739  1.00  0.00     0.015 C 
ENDBRANCH  15  16
ENDBRANCH  14  15
ENDBRANCH  13  14
ENDBRANCH   9  13
BRANCH   8  18
ATOM     18  N   UNL A   1      32.494  29.337  22.359  1.00  0.00    -0.345 N 
ATOM     19  H   UNL A   1      31.975  30.178  22.608  1.00  0.00     0.345 HD
ATOM     20  H   UNL A   1      32.172  28.996  21.453  1.00  0.00     0.345 HD
ATOM     21  H   UNL A   1      33.489  29.554  22.307  1.00  0.00     0.345 HD
ENDBRANCH   8  18
ENDBRANCH   5   8
ENDBRANCH   3   4
ENDBRANCH   2   3
ENDBRANCH   1   2
BRANCH   1  22
ATOM     22  C   UNL A   1      34.637  23.457  24.519  1.00  0.00     0.002 C 
BRANCH  22  23
ATOM     23  C   UNL A   1      36.134  23.372  24.223  1.00  0.00     0.021 C 
BRANCH  23  24
ATOM     24  C   UNL A   1      37.034  23.713  25.402  1.00  0.00     0.116 C 
BRANCH  24  25
ATOM     25  N   UNL A   1      38.110  22.754  25.565  1.00  0.00    -0.352 N 
ATOM     26  C   UNL A   1      39.347  22.942  26.132  1.00  0.00     0.251 C 
ATOM     27  H   UNL A   1      37.930  21.849  25.222  1.00  0.00     0.163 HD
ATOM     28  O   UNL A   1      40.211  22.083  26.024  1.00  0.00    -0.269 OA
BRANCH  26  29
ATOM     29  C   UNL A   1      39.624  24.204  26.852  1.00  0.00     0.039 A 
ATOM     30  C   UNL A   1      39.097  24.378  28.133  1.00  0.00     0.014 A 
ATOM     31  C   UNL A   1      40.418  25.199  26.274  1.00  0.00     0.014 A 
ATOM     32  C   UNL A   1      39.413  25.530  28.855  1.00  0.00     0.010 A 
ATOM     33  C   UNL A   1      40.797  26.306  27.026  1.00  0.00     0.010 A 
ATOM     34  C   UNL A   1      40.292  26.487  28.322  1.00  0.00    -0.014 A 
BRANCH  34  35
ATOM     35  C   UNL A   1      40.685  27.689  29.103  1.00  0.00     0.031 A 
ATOM     36  C   UNL A   1      42.008  27.724  29.818  1.00  0.00     0.074 A 
ATOM     37  C   UNL A   1      39.828  28.725  29.209  1.00  0.00     0.049 A 
ATOM     38  N   UNL A   1      42.504  28.655  30.592  1.00  0.00    -0.248 NA
ATOM     39  C   UNL A   1      42.880  26.547  29.666  1.00  0.00     0.031 C 
ATOM     40  C   UNL A   1      38.497  28.788  28.599  1.00  0.00     0.029 A 
ATOM     41  N   UNL A   1      39.944  29.920  29.874  1.00  0.00    -0.354 N 
ATOM     42  C   UNL A   1      43.735  28.175  31.022  1.00  0.00     0.074 A 
ATOM     43  C   UNL A   1      43.886  26.845  30.474  1.00  0.00     0.031 C 
ATOM     44  C   UNL A   1      37.933  29.969  28.898  1.00  0.00     0.029 A 
ATOM     45  C   UNL A   1      38.838  30.729  29.753  1.00  0.00     0.049 A 
ATOM     46  H   UNL A   1      40.743  30.173  30.389  1.00  0.00     0.167 HD
ATOM     47  C   UNL A   1      44.667  28.796  31.784  1.00  0.00     0.037 A 
ATOM     48  C   UNL A   1      38.579  31.942  30.280  1.00  0.00     0.037 A 
ATOM     49  C   UNL A   1      44.518  30.129  32.309  1.00  0.00     0.049 A 
ATOM     50  C   UNL A   1      39.625  32.605  31.137  1.00  0.00     0.074 A 
ATOM     51  C   UNL A   1      45.425  30.868  33.047  1.00  0.00     0.029 A 
ATOM     52  N   UNL A   1      43.389  30.921  32.154  1.00  0.00    -0.354 N 
ATOM     53  N   UNL A   1      40.811  32.162  31.480  1.00  0.00    -0.248 NA
ATOM     54  C   UNL A   1      39.301  33.934  31.673  1.00  0.00     0.031 C 
ATOM     55  C   UNL A   1      44.826  32.084  33.386  1.00  0.00     0.029 A 
ATOM     56  C   UNL A   1      43.567  32.131  32.806  1.00  0.00     0.049 A 
ATOM     57  H   UNL A   1      42.581  30.662  31.657  1.00  0.00     0.167 HD
ATOM     58  C   UNL A   1      41.386  33.171  32.246  1.00  0.00     0.074 A 
ATOM     59  C   UNL A   1      40.423  34.251  32.303  1.00  0.00     0.031 C 
ATOM     60  C   UNL A   1      42.602  33.201  32.846  1.00  0.00     0.037 A 
BRANCH  47  61
ATOM     61  C   UNL A   1      45.934  28.045  32.095  1.00  0.00     0.058 A 
ATOM     62  C   UNL A   1      46.042  27.212  33.220  1.00  0.00     0.135 A 
ATOM     63  C   UNL A   1      47.039  28.120  31.231  1.00  0.00     0.135 A 
ATOM     64  F   UNL A   1      45.023  27.115  34.090  1.00  0.00    -0.206 F 
ATOM     65  C   UNL A   1      47.206  26.502  33.493  1.00  0.00     0.059 A 
ATOM     66  C   UNL A   1      48.202  27.394  31.466  1.00  0.00     0.059 A 
ATOM     67  F   UNL A   1      46.993  28.902  30.140  1.00  0.00    -0.206 F 
ATOM     68  C   UNL A   1      48.281  26.597  32.607  1.00  0.00     0.060 A 
BRANCH  68  69
ATOM     69  S   UNL A   1      49.778  25.653  32.967  1.00  0.00     0.124 S 
ATOM     70  O   UNL A   1      49.218  24.427  33.529  1.00  0.00    -0.237 OA
ATOM     71  O   UNL A   1      50.388  25.524  31.648  1.00  0.00    -0.237 OA
ATOM     72  O   UNL A   1      50.498  26.503  33.910  1.00  0.00    -0.744 OA
ENDBRANCH  68  69
ENDBRANCH  47  61
BRANCH  48  73
ATOM     73  C   UNL A   1      37.280  32.615  30.004  1.00  0.00     0.058 A 
ATOM     74  C   UNL A   1      37.159  33.562  28.977  1.00  0.00     0.135 A 
ATOM     75  C   UNL A   1      36.135  32.327  30.764  1.00  0.00     0.135 A 
ATOM     76  F   UNL A   1      38.225  33.877  28.226  1.00  0.00    -0.206 F 
ATOM     77  C   UNL A   1      35.957  34.217  28.727  1.00  0.00     0.059 A 
ATOM     78  C   UNL A   1      34.915  32.946  30.514  1.00  0.00     0.059 A 
ATOM     79  F   UNL A   1      36.191  31.415  31.747  1.00  0.00    -0.206 F 
ATOM     80  C   UNL A   1      34.840  33.901  29.501  1.00  0.00     0.060 A 
BRANCH  80  81
ATOM     81  S   UNL A   1      33.276  34.733  29.146  1.00  0.00     0.124 S 
ATOM     82  O   UNL A   1      32.612  33.757  28.290  1.00  0.00    -0.237 OA
ATOM     83  O   UNL A   1      32.711  34.902  30.481  1.00  0.00    -0.237 OA
ATOM     84  O   UNL A   1      33.695  35.968  28.490  1.00  0.00    -0.744 OA
ENDBRANCH  80  81
ENDBRANCH  48  73
BRANCH  60  85
ATOM     85  C   UNL A   1      42.981  34.456  33.586  1.00  0.00     0.058 A 
ATOM     86  C   UNL A   1      42.717  34.618  34.954  1.00  0.00     0.135 A 
ATOM     87  C   UNL A   1      43.669  35.487  32.924  1.00  0.00     0.135 A 
ATOM     88  F   UNL A   1      42.057  33.666  35.633  1.00  0.00    -0.206 F 
ATOM     89  C   UNL A   1      43.096  35.770  35.636  1.00  0.00     0.059 A 
ATOM     90  C   UNL A   1      44.087  36.633  33.593  1.00  0.00     0.059 A 
ATOM     91  F   UNL A   1      43.957  35.379  31.618  1.00  0.00    -0.206 F 
ATOM     92  C   UNL A   1      43.784  36.771  34.947  1.00  0.00     0.060 A 
BRANCH  92  93
ATOM     93  S   UNL A   1      44.302  38.244  35.852  1.00  0.00     0.124 S 
ATOM     94  O   UNL A   1      43.663  38.033  37.146  1.00  0.00    -0.237 OA
ATOM     95  O   UNL A   1      45.757  38.123  35.837  1.00  0.00    -0.237 OA
ATOM     96  O   UNL A   1      43.762  39.341  35.055  1.00  0.00    -0.744 OA
ENDBRANCH  92  93
ENDBRANCH  60  85
ENDBRANCH  34  35
ENDBRANCH  26  29
ENDBRANCH  24  25
ENDBRANCH  23  24
ENDBRANCH  22  23
ENDBRANCH   1  22
TORSDOF 21
ENDMDL
