MODEL 1
REMARK VINA RESULT:     -11.6      0.000      0.000
REMARK SMILES O=C(NCCCCCCNC(=O)c1cc(SCC(=O)N2CCOCC2)ccn1)c1ccc(-c2c3nc(c(-c4c(F)cc(S(=O)(=O)[O-])cc4F)c4ccc([nH]4)c(-c4c(F)cc(S(=O)(=O)[O-])cc4F)c4nc(c(-c5c(F)cc(S(=O)(=O)[O-])cc5F)c5ccc2[nH]5)C=C4)C=C3)cc1
REMARK SMILES IDX 6 1 5 2 4 3 3 4 1 5 2 6 29 8 30 9 94 10 31 11 93 12 32 13
REMARK SMILES IDX 33 14 34 15 87 16 35 17 92 18 86 19 88 20 36 21 91 22 85 23
REMARK SMILES IDX 84 24 37 26 71 27 50 28 70 29 51 30 54 31 69 32 89 33 52 34
REMARK SMILES IDX 53 35 68 37 90 38 55 39 38 40 39 41 48 42 40 43 41 44 47 45
REMARK SMILES IDX 49 46 42 47 43 48 44 49 45 50 46 51 72 52 73 53 82 54 74 55
REMARK SMILES IDX 75 56 81 57 83 58 76 59 77 60 78 61 79 62 80 63 56 64 57 65
REMARK SMILES IDX 66 66 58 67 59 68 65 69 67 70 60 71 61 72 62 73 63 74 64 75
REMARK SMILES IDX 7 76 8 77 9 78 10 79 11 80 12 82 13 83 14 84 28 85 15 86
REMARK SMILES IDX 27 87 26 88 16 89 17 90 18 91 19 92 20 93 21 94 25 95 22 96
REMARK SMILES IDX 24 97 23 98
REMARK H PARENT 3 7 88 25 54 36 10 81
REMARK Flexibility Score: inf
ROOT
ATOM      1  C   UNL A   1      38.303  21.662  25.757  1.00  0.00     0.002 C 
ENDROOT
BRANCH   1   2
ATOM      2  C   UNL A   1      37.695  23.064  25.807  1.00  0.00     0.021 C 
BRANCH   2   3
ATOM      3  C   UNL A   1      38.570  24.129  26.457  1.00  0.00     0.116 C 
BRANCH   3   4
ATOM      4  N   UNL A   1      39.967  24.021  26.070  1.00  0.00    -0.352 N 
ATOM      5  O   UNL A   1      42.131  24.632  25.924  1.00  0.00    -0.269 OA
ATOM      6  C   UNL A   1      41.042  24.772  26.475  1.00  0.00     0.251 C 
ATOM      7  H   UNL A   1      40.171  23.307  25.424  1.00  0.00     0.163 HD
BRANCH   6   8
ATOM      8  C   UNL A   1      40.882  25.769  27.557  1.00  0.00     0.039 A 
ATOM      9  C   UNL A   1      41.750  26.859  27.662  1.00  0.00     0.014 A 
ATOM     10  C   UNL A   1      39.836  25.616  28.472  1.00  0.00     0.014 A 
ATOM     11  C   UNL A   1      41.654  27.717  28.753  1.00  0.00     0.010 A 
ATOM     12  C   UNL A   1      39.694  26.524  29.525  1.00  0.00     0.010 A 
ATOM     13  C   UNL A   1      40.619  27.566  29.690  1.00  0.00    -0.014 A 
BRANCH  13  14
ATOM     14  C   UNL A   1      40.490  28.542  30.802  1.00  0.00     0.031 A 
ATOM     15  C   UNL A   1      41.397  28.485  31.999  1.00  0.00     0.074 A 
ATOM     16  C   UNL A   1      39.551  29.504  30.710  1.00  0.00     0.049 A 
ATOM     17  N   UNL A   1      41.436  29.275  33.041  1.00  0.00    -0.248 NA
ATOM     18  C   UNL A   1      42.384  27.395  32.037  1.00  0.00     0.031 C 
ATOM     19  C   UNL A   1      38.605  29.652  29.602  1.00  0.00     0.029 A 
ATOM     20  N   UNL A   1      39.245  30.545  31.548  1.00  0.00    -0.354 N 
ATOM     21  C   UNL A   1      42.433  28.772  33.868  1.00  0.00     0.074 A 
ATOM     22  C   UNL A   1      42.960  27.591  33.215  1.00  0.00     0.031 C 
ATOM     23  C   UNL A   1      37.857  30.745  29.804  1.00  0.00     0.029 A 
ATOM     24  C   UNL A   1      38.230  31.345  31.080  1.00  0.00     0.049 A 
ATOM     25  H   UNL A   1      39.709  30.705  32.401  1.00  0.00     0.167 HD
ATOM     26  C   UNL A   1      42.872  29.254  35.056  1.00  0.00     0.037 A 
ATOM     27  C   UNL A   1      37.653  32.434  31.622  1.00  0.00     0.037 A 
ATOM     28  C   UNL A   1      42.345  30.435  35.695  1.00  0.00     0.049 A 
ATOM     29  C   UNL A   1      38.145  32.939  32.947  1.00  0.00     0.074 A 
ATOM     30  C   UNL A   1      42.747  31.025  36.881  1.00  0.00     0.029 A 
ATOM     31  N   UNL A   1      41.297  31.201  35.206  1.00  0.00    -0.354 N 
ATOM     32  N   UNL A   1      39.113  32.470  33.697  1.00  0.00    -0.248 NA
ATOM     33  C   UNL A   1      37.464  34.116  33.501  1.00  0.00     0.031 C 
ATOM     34  C   UNL A   1      41.915  32.123  37.129  1.00  0.00     0.029 A 
ATOM     35  C   UNL A   1      41.022  32.244  36.075  1.00  0.00     0.049 A 
ATOM     36  H   UNL A   1      40.816  31.028  34.363  1.00  0.00     0.167 HD
ATOM     37  C   UNL A   1      39.169  33.303  34.807  1.00  0.00     0.074 A 
ATOM     38  C   UNL A   1      38.146  34.314  34.622  1.00  0.00     0.031 C 
ATOM     39  C   UNL A   1      39.996  33.239  35.881  1.00  0.00     0.037 A 
BRANCH  26  40
ATOM     40  C   UNL A   1      43.962  28.488  35.755  1.00  0.00     0.058 A 
ATOM     41  C   UNL A   1      43.676  27.452  36.659  1.00  0.00     0.135 A 
ATOM     42  C   UNL A   1      45.314  28.786  35.511  1.00  0.00     0.135 A 
ATOM     43  F   UNL A   1      42.403  27.133  36.942  1.00  0.00    -0.206 F 
ATOM     44  C   UNL A   1      44.688  26.766  37.324  1.00  0.00     0.059 A 
ATOM     45  C   UNL A   1      46.343  28.097  36.146  1.00  0.00     0.059 A 
ATOM     46  F   UNL A   1      45.645  29.764  34.653  1.00  0.00    -0.206 F 
ATOM     47  C   UNL A   1      46.019  27.102  37.068  1.00  0.00     0.060 A 
BRANCH  47  48
ATOM     48  S   UNL A   1      47.319  26.225  37.962  1.00  0.00     0.124 S 
ATOM     49  O   UNL A   1      48.200  27.327  38.342  1.00  0.00    -0.237 OA
ATOM     50  O   UNL A   1      46.583  25.599  39.055  1.00  0.00    -0.237 OA
ATOM     51  O   UNL A   1      47.859  25.306  36.965  1.00  0.00    -0.744 OA
ENDBRANCH  47  48
ENDBRANCH  26  40
BRANCH  27  52
ATOM     52  C   UNL A   1      36.557  33.119  30.889  1.00  0.00     0.058 A 
ATOM     53  C   UNL A   1      35.218  32.926  31.255  1.00  0.00     0.135 A 
ATOM     54  C   UNL A   1      36.832  34.026  29.855  1.00  0.00     0.135 A 
ATOM     55  F   UNL A   1      34.907  32.064  32.234  1.00  0.00    -0.206 F 
ATOM     56  C   UNL A   1      34.187  33.611  30.622  1.00  0.00     0.059 A 
ATOM     57  C   UNL A   1      35.821  34.742  29.224  1.00  0.00     0.059 A 
ATOM     58  F   UNL A   1      38.100  34.257  29.482  1.00  0.00    -0.206 F 
ATOM     59  C   UNL A   1      34.500  34.524  29.613  1.00  0.00     0.060 A 
BRANCH  59  60
ATOM     60  S   UNL A   1      33.161  35.474  28.858  1.00  0.00     0.124 S 
ATOM     61  O   UNL A   1      32.426  34.432  28.151  1.00  0.00    -0.237 OA
ATOM     62  O   UNL A   1      32.495  36.046  30.024  1.00  0.00    -0.237 OA
ATOM     63  O   UNL A   1      33.866  36.434  28.015  1.00  0.00    -0.744 OA
ENDBRANCH  59  60
ENDBRANCH  27  52
BRANCH  39  64
ATOM     64  C   UNL A   1      39.840  34.304  36.929  1.00  0.00     0.058 A 
ATOM     65  C   UNL A   1      40.440  35.566  36.792  1.00  0.00     0.135 A 
ATOM     66  C   UNL A   1      39.053  34.071  38.068  1.00  0.00     0.135 A 
ATOM     67  F   UNL A   1      41.211  35.835  35.725  1.00  0.00    -0.206 F 
ATOM     68  C   UNL A   1      40.283  36.552  37.759  1.00  0.00     0.059 A 
ATOM     69  C   UNL A   1      38.863  35.052  39.036  1.00  0.00     0.059 A 
ATOM     70  F   UNL A   1      38.452  32.883  38.242  1.00  0.00    -0.206 F 
ATOM     71  C   UNL A   1      39.493  36.285  38.879  1.00  0.00     0.060 A 
BRANCH  71  72
ATOM     72  S   UNL A   1      39.273  37.582  40.115  1.00  0.00     0.124 S 
ATOM     73  O   UNL A   1      38.956  36.802  41.307  1.00  0.00    -0.237 OA
ATOM     74  O   UNL A   1      40.577  38.240  40.117  1.00  0.00    -0.237 OA
ATOM     75  O   UNL A   1      38.177  38.381  39.576  1.00  0.00    -0.744 OA
ENDBRANCH  71  72
ENDBRANCH  39  64
ENDBRANCH  13  14
ENDBRANCH   6   8
ENDBRANCH   3   4
ENDBRANCH   2   3
ENDBRANCH   1   2
BRANCH   1  76
ATOM     76  C   UNL A   1      37.798  20.757  24.628  1.00  0.00     0.002 C 
BRANCH  76  77
ATOM     77  C   UNL A   1      36.682  19.779  25.008  1.00  0.00     0.021 C 
BRANCH  77  78
ATOM     78  C   UNL A   1      35.280  20.378  25.021  1.00  0.00     0.116 C 
BRANCH  78  79
ATOM     79  N   UNL A   1      34.237  19.366  25.026  1.00  0.00    -0.351 N 
ATOM     80  C   UNL A   1      32.891  19.524  24.785  1.00  0.00     0.269 C 
ATOM     81  H   UNL A   1      34.531  18.449  25.227  1.00  0.00     0.163 HD
ATOM     82  O   UNL A   1      32.137  18.555  24.841  1.00  0.00    -0.268 OA
BRANCH  80  83
ATOM     83  C   UNL A   1      32.365  20.877  24.456  1.00  0.00     0.129 A 
ATOM     84  C   UNL A   1      31.892  21.703  25.471  1.00  0.00     0.049 A 
ATOM     85  N   UNL A   1      32.352  21.197  23.136  1.00  0.00    -0.251 NA
ATOM     86  C   UNL A   1      31.308  22.908  25.105  1.00  0.00     0.012 A 
ATOM     87  C   UNL A   1      31.828  22.392  22.818  1.00  0.00     0.113 A 
ATOM     88  C   UNL A   1      31.295  23.262  23.751  1.00  0.00     0.035 A 
BRANCH  86  89
ATOM     89  S   UNL A   1      30.584  24.087  26.220  1.00  0.00    -0.116 SA
BRANCH  89  90
ATOM     90  C   UNL A   1      31.822  25.384  26.473  1.00  0.00     0.175 C 
BRANCH  90  91
ATOM     91  C   UNL A   1      31.407  26.844  26.394  1.00  0.00     0.233 C 
ATOM     92  O   UNL A   1      31.166  27.444  27.449  1.00  0.00    -0.274 OA
ATOM     93  N   UNL A   1      31.498  27.537  25.205  1.00  0.00    -0.337 N 
ATOM     94  C   UNL A   1      31.235  27.023  23.860  1.00  0.00     0.148 C 
ATOM     95  C   UNL A   1      31.769  28.981  25.227  1.00  0.00     0.148 C 
ATOM     96  C   UNL A   1      32.337  27.437  22.887  1.00  0.00     0.181 C 
ATOM     97  C   UNL A   1      32.878  29.315  24.218  1.00  0.00     0.181 C 
ATOM     98  O   UNL A   1      32.520  28.858  22.903  1.00  0.00    -0.378 OA
ENDBRANCH  90  91
ENDBRANCH  89  90
ENDBRANCH  86  89
ENDBRANCH  80  83
ENDBRANCH  78  79
ENDBRANCH  77  78
ENDBRANCH  76  77
ENDBRANCH   1  76
TORSDOF 19
ENDMDL
MODEL 2
REMARK VINA RESULT:     -11.6      6.408     12.162
REMARK SMILES O=C(NCCCCCCNC(=O)c1cc(SCC(=O)N2CCOCC2)ccn1)c1ccc(-c2c3nc(c(-c4c(F)cc(S(=O)(=O)[O-])cc4F)c4ccc([nH]4)c(-c4c(F)cc(S(=O)(=O)[O-])cc4F)c4nc(c(-c5c(F)cc(S(=O)(=O)[O-])cc5F)c5ccc2[nH]5)C=C4)C=C3)cc1
REMARK SMILES IDX 6 1 5 2 4 3 3 4 1 5 2 6 29 8 30 9 94 10 31 11 93 12 32 13
REMARK SMILES IDX 33 14 34 15 87 16 35 17 92 18 86 19 88 20 36 21 91 22 85 23
REMARK SMILES IDX 84 24 37 26 71 27 50 28 70 29 51 30 54 31 69 32 89 33 52 34
REMARK SMILES IDX 53 35 68 37 90 38 55 39 38 40 39 41 48 42 40 43 41 44 47 45
REMARK SMILES IDX 49 46 42 47 43 48 44 49 45 50 46 51 72 52 73 53 82 54 74 55
REMARK SMILES IDX 75 56 81 57 83 58 76 59 77 60 78 61 79 62 80 63 56 64 57 65
REMARK SMILES IDX 66 66 58 67 59 68 65 69 67 70 60 71 61 72 62 73 63 74 64 75
REMARK SMILES IDX 7 76 8 77 9 78 10 79 11 80 12 82 13 83 14 84 28 85 15 86
REMARK SMILES IDX 27 87 26 88 16 89 17 90 18 91 19 92 20 93 21 94 25 95 22 96
REMARK SMILES IDX 24 97 23 98
REMARK H PARENT 3 7 88 25 54 36 10 81
REMARK Flexibility Score: inf
ROOT
ATOM      1  C   UNL A   1      34.841  29.685  27.202  1.00  0.00     0.002 C 
ENDROOT
BRANCH   1   2
ATOM      2  C   UNL A   1      34.641  31.096  27.756  1.00  0.00     0.021 C 
BRANCH   2   3
ATOM      3  C   UNL A   1      35.776  31.619  28.628  1.00  0.00     0.116 C 
BRANCH   3   4
ATOM      4  N   UNL A   1      35.614  31.270  30.030  1.00  0.00    -0.352 N 
ATOM      5  O   UNL A   1      36.067  30.219  31.971  1.00  0.00    -0.269 OA
ATOM      6  C   UNL A   1      36.442  30.541  30.846  1.00  0.00     0.251 C 
ATOM      7  H   UNL A   1      34.791  31.605  30.455  1.00  0.00     0.163 HD
BRANCH   6   8
ATOM      8  C   UNL A   1      37.775  30.121  30.360  1.00  0.00     0.039 A 
ATOM      9  C   UNL A   1      38.749  29.656  31.249  1.00  0.00     0.014 A 
ATOM     10  C   UNL A   1      38.049  30.180  28.991  1.00  0.00     0.014 A 
ATOM     11  C   UNL A   1      40.031  29.378  30.787  1.00  0.00     0.010 A 
ATOM     12  C   UNL A   1      39.316  29.826  28.518  1.00  0.00     0.010 A 
ATOM     13  C   UNL A   1      40.327  29.450  29.416  1.00  0.00    -0.014 A 
BRANCH  13  14
ATOM     14  C   UNL A   1      41.681  29.072  28.938  1.00  0.00     0.031 A 
ATOM     15  C   UNL A   1      42.814  30.059  28.945  1.00  0.00     0.074 A 
ATOM     16  C   UNL A   1      41.886  27.809  28.512  1.00  0.00     0.049 A 
ATOM     17  N   UNL A   1      44.061  29.884  28.589  1.00  0.00    -0.248 NA
ATOM     18  C   UNL A   1      42.508  31.422  29.405  1.00  0.00     0.031 C 
ATOM     19  C   UNL A   1      40.859  26.768  28.447  1.00  0.00     0.029 A 
ATOM     20  N   UNL A   1      43.023  27.183  28.070  1.00  0.00    -0.354 N 
ATOM     21  C   UNL A   1      44.685  31.113  28.761  1.00  0.00     0.074 A 
ATOM     22  C   UNL A   1      43.672  32.034  29.233  1.00  0.00     0.031 C 
ATOM     23  C   UNL A   1      41.420  25.622  28.037  1.00  0.00     0.029 A 
ATOM     24  C   UNL A   1      42.831  25.859  27.757  1.00  0.00     0.049 A 
ATOM     25  H   UNL A   1      43.891  27.638  27.986  1.00  0.00     0.167 HD
ATOM     26  C   UNL A   1      45.984  31.441  28.552  1.00  0.00     0.037 A 
ATOM     27  C   UNL A   1      43.692  24.937  27.285  1.00  0.00     0.037 A 
ATOM     28  C   UNL A   1      46.988  30.514  28.088  1.00  0.00     0.049 A 
ATOM     29  C   UNL A   1      45.121  25.328  27.045  1.00  0.00     0.074 A 
ATOM     30  C   UNL A   1      48.338  30.739  27.879  1.00  0.00     0.029 A 
ATOM     31  N   UNL A   1      46.750  29.189  27.752  1.00  0.00    -0.354 N 
ATOM     32  N   UNL A   1      45.702  26.487  27.247  1.00  0.00    -0.248 NA
ATOM     33  C   UNL A   1      46.010  24.290  26.508  1.00  0.00     0.031 C 
ATOM     34  C   UNL A   1      48.907  29.562  27.378  1.00  0.00     0.029 A 
ATOM     35  C   UNL A   1      47.921  28.590  27.317  1.00  0.00     0.049 A 
ATOM     36  H   UNL A   1      45.875  28.739  27.814  1.00  0.00     0.167 HD
ATOM     37  C   UNL A   1      47.029  26.315  26.877  1.00  0.00     0.074 A 
ATOM     38  C   UNL A   1      47.168  24.935  26.451  1.00  0.00     0.031 C 
ATOM     39  C   UNL A   1      48.042  27.217  26.890  1.00  0.00     0.037 A 
BRANCH  26  40
ATOM     40  C   UNL A   1      46.388  32.868  28.800  1.00  0.00     0.058 A 
ATOM     41  C   UNL A   1      46.252  33.858  27.813  1.00  0.00     0.135 A 
ATOM     42  C   UNL A   1      46.910  33.256  30.046  1.00  0.00     0.135 A 
ATOM     43  F   UNL A   1      45.772  33.543  26.599  1.00  0.00    -0.206 F 
ATOM     44  C   UNL A   1      46.653  35.171  28.039  1.00  0.00     0.059 A 
ATOM     45  C   UNL A   1      47.296  34.568  30.302  1.00  0.00     0.059 A 
ATOM     46  F   UNL A   1      47.059  32.352  31.027  1.00  0.00    -0.206 F 
ATOM     47  C   UNL A   1      47.183  35.515  29.285  1.00  0.00     0.060 A 
BRANCH  47  48
ATOM     48  S   UNL A   1      47.730  37.215  29.552  1.00  0.00     0.124 S 
ATOM     49  O   UNL A   1      46.590  37.968  29.037  1.00  0.00    -0.237 OA
ATOM     50  O   UNL A   1      47.917  37.262  30.998  1.00  0.00    -0.237 OA
ATOM     51  O   UNL A   1      48.954  37.308  28.761  1.00  0.00    -0.744 OA
ENDBRANCH  47  48
ENDBRANCH  26  40
BRANCH  27  52
ATOM     52  C   UNL A   1      43.212  23.555  27.031  1.00  0.00     0.058 A 
ATOM     53  C   UNL A   1      42.994  23.099  25.723  1.00  0.00     0.135 A 
ATOM     54  C   UNL A   1      43.026  22.646  28.083  1.00  0.00     0.135 A 
ATOM     55  F   UNL A   1      43.154  23.934  24.686  1.00  0.00    -0.206 F 
ATOM     56  C   UNL A   1      42.610  21.788  25.466  1.00  0.00     0.059 A 
ATOM     57  C   UNL A   1      42.667  21.323  27.850  1.00  0.00     0.059 A 
ATOM     58  F   UNL A   1      43.241  23.031  29.351  1.00  0.00    -0.206 F 
ATOM     59  C   UNL A   1      42.458  20.904  26.536  1.00  0.00     0.060 A 
BRANCH  59  60
ATOM     60  S   UNL A   1      42.045  19.181  26.186  1.00  0.00     0.124 S 
ATOM     61  O   UNL A   1      42.347  18.542  27.462  1.00  0.00    -0.237 OA
ATOM     62  O   UNL A   1      40.630  19.270  25.836  1.00  0.00    -0.237 OA
ATOM     63  O   UNL A   1      42.935  18.841  25.081  1.00  0.00    -0.744 OA
ENDBRANCH  59  60
ENDBRANCH  27  52
BRANCH  39  64
ATOM     64  C   UNL A   1      49.395  26.733  26.451  1.00  0.00     0.058 A 
ATOM     65  C   UNL A   1      50.230  26.000  27.310  1.00  0.00     0.135 A 
ATOM     66  C   UNL A   1      49.848  26.977  25.146  1.00  0.00     0.135 A 
ATOM     67  F   UNL A   1      49.846  25.748  28.572  1.00  0.00    -0.206 F 
ATOM     68  C   UNL A   1      51.476  25.544  26.894  1.00  0.00     0.059 A 
ATOM     69  C   UNL A   1      51.081  26.510  24.701  1.00  0.00     0.059 A 
ATOM     70  F   UNL A   1      49.084  27.668  24.283  1.00  0.00    -0.206 F 
ATOM     71  C   UNL A   1      51.893  25.805  25.588  1.00  0.00     0.060 A 
BRANCH  71  72
ATOM     72  S   UNL A   1      53.501  25.185  25.050  1.00  0.00     0.124 S 
ATOM     73  O   UNL A   1      53.487  25.524  23.631  1.00  0.00    -0.237 OA
ATOM     74  O   UNL A   1      54.428  25.955  25.875  1.00  0.00    -0.237 OA
ATOM     75  O   UNL A   1      53.435  23.760  25.358  1.00  0.00    -0.744 OA
ENDBRANCH  71  72
ENDBRANCH  39  64
ENDBRANCH  13  14
ENDBRANCH   6   8
ENDBRANCH   3   4
ENDBRANCH   2   3
ENDBRANCH   1   2
BRANCH   1  76
ATOM     76  C   UNL A   1      33.616  28.765  27.266  1.00  0.00     0.002 C 
BRANCH  76  77
ATOM     77  C   UNL A   1      33.632  27.569  26.311  1.00  0.00     0.021 C 
BRANCH  77  78
ATOM     78  C   UNL A   1      32.845  27.767  25.019  1.00  0.00     0.116 C 
BRANCH  78  79
ATOM     79  N   UNL A   1      31.474  27.300  25.120  1.00  0.00    -0.351 N 
ATOM     80  C   UNL A   1      30.941  26.108  24.681  1.00  0.00     0.269 C 
ATOM     81  H   UNL A   1      30.843  27.915  25.558  1.00  0.00     0.163 HD
ATOM     82  O   UNL A   1      29.745  25.874  24.836  1.00  0.00    -0.268 OA
BRANCH  80  83
ATOM     83  C   UNL A   1      31.831  25.114  24.023  1.00  0.00     0.129 A 
ATOM     84  C   UNL A   1      32.388  24.080  24.770  1.00  0.00     0.049 A 
ATOM     85  N   UNL A   1      32.069  25.322  22.702  1.00  0.00    -0.251 NA
ATOM     86  C   UNL A   1      33.299  23.244  24.139  1.00  0.00     0.012 A 
ATOM     87  C   UNL A   1      32.914  24.465  22.107  1.00  0.00     0.113 A 
ATOM     88  C   UNL A   1      33.550  23.435  22.775  1.00  0.00     0.035 A 
BRANCH  86  89
ATOM     89  S   UNL A   1      34.177  21.904  24.907  1.00  0.00    -0.116 SA
BRANCH  89  90
ATOM     90  C   UNL A   1      32.961  20.597  25.210  1.00  0.00     0.175 C 
BRANCH  90  91
ATOM     91  C   UNL A   1      32.542  19.682  24.071  1.00  0.00     0.233 C 
ATOM     92  O   UNL A   1      32.240  20.195  22.986  1.00  0.00    -0.274 OA
ATOM     93  N   UNL A   1      32.695  18.316  24.175  1.00  0.00    -0.337 N 
ATOM     94  C   UNL A   1      32.509  17.494  25.373  1.00  0.00     0.148 C 
ATOM     95  C   UNL A   1      32.955  17.522  22.967  1.00  0.00     0.148 C 
ATOM     96  C   UNL A   1      33.661  16.507  25.546  1.00  0.00     0.181 C 
ATOM     97  C   UNL A   1      34.116  16.549  23.226  1.00  0.00     0.181 C 
ATOM     98  O   UNL A   1      33.835  15.717  24.363  1.00  0.00    -0.378 OA
ENDBRANCH  90  91
ENDBRANCH  89  90
ENDBRANCH  86  89
ENDBRANCH  80  83
ENDBRANCH  78  79
ENDBRANCH  77  78
ENDBRANCH  76  77
ENDBRANCH   1  76
TORSDOF 19
ENDMDL
MODEL 3
REMARK VINA RESULT:     -11.4      2.733      4.794
REMARK SMILES O=C(NCCCCCCNC(=O)c1cc(SCC(=O)N2CCOCC2)ccn1)c1ccc(-c2c3nc(c(-c4c(F)cc(S(=O)(=O)[O-])cc4F)c4ccc([nH]4)c(-c4c(F)cc(S(=O)(=O)[O-])cc4F)c4nc(c(-c5c(F)cc(S(=O)(=O)[O-])cc5F)c5ccc2[nH]5)C=C4)C=C3)cc1
REMARK SMILES IDX 6 1 5 2 4 3 3 4 1 5 2 6 29 8 30 9 94 10 31 11 93 12 32 13
REMARK SMILES IDX 33 14 34 15 87 16 35 17 92 18 86 19 88 20 36 21 91 22 85 23
REMARK SMILES IDX 84 24 37 26 71 27 50 28 70 29 51 30 54 31 69 32 89 33 52 34
REMARK SMILES IDX 53 35 68 37 90 38 55 39 38 40 39 41 48 42 40 43 41 44 47 45
REMARK SMILES IDX 49 46 42 47 43 48 44 49 45 50 46 51 72 52 73 53 82 54 74 55
REMARK SMILES IDX 75 56 81 57 83 58 76 59 77 60 78 61 79 62 80 63 56 64 57 65
REMARK SMILES IDX 66 66 58 67 59 68 65 69 67 70 60 71 61 72 62 73 63 74 64 75
REMARK SMILES IDX 7 76 8 77 9 78 10 79 11 80 12 82 13 83 14 84 28 85 15 86
REMARK SMILES IDX 27 87 26 88 16 89 17 90 18 91 19 92 20 93 21 94 25 95 22 96
REMARK SMILES IDX 24 97 23 98
REMARK H PARENT 3 7 88 25 54 36 10 81
REMARK Flexibility Score: inf
ROOT
ATOM      1  C   UNL A   1      45.571  24.963  27.805  1.00  0.00     0.002 C 
ENDROOT
BRANCH   1   2
ATOM      2  C   UNL A   1      45.967  25.236  26.353  1.00  0.00     0.021 C 
BRANCH   2   3
ATOM      3  C   UNL A   1      45.285  26.435  25.708  1.00  0.00     0.116 C 
BRANCH   3   4
ATOM      4  N   UNL A   1      44.033  26.085  25.056  1.00  0.00    -0.352 N 
ATOM      5  O   UNL A   1      41.815  25.727  24.882  1.00  0.00    -0.269 OA
ATOM      6  C   UNL A   1      42.746  26.218  25.515  1.00  0.00     0.251 C 
ATOM      7  H   UNL A   1      44.121  25.699  24.154  1.00  0.00     0.163 HD
BRANCH   6   8
ATOM      8  C   UNL A   1      42.486  26.927  26.788  1.00  0.00     0.039 A 
ATOM      9  C   UNL A   1      41.890  26.268  27.867  1.00  0.00     0.014 A 
ATOM     10  C   UNL A   1      42.856  28.270  26.905  1.00  0.00     0.014 A 
ATOM     11  C   UNL A   1      41.547  26.983  29.010  1.00  0.00     0.010 A 
ATOM     12  C   UNL A   1      42.581  28.967  28.085  1.00  0.00     0.010 A 
ATOM     13  C   UNL A   1      41.898  28.337  29.136  1.00  0.00    -0.014 A 
BRANCH  13  14
ATOM     14  C   UNL A   1      41.592  29.058  30.398  1.00  0.00     0.031 A 
ATOM     15  C   UNL A   1      42.462  28.906  31.614  1.00  0.00     0.074 A 
ATOM     16  C   UNL A   1      40.521  29.876  30.430  1.00  0.00     0.049 A 
ATOM     17  N   UNL A   1      42.352  29.483  32.783  1.00  0.00    -0.248 NA
ATOM     18  C   UNL A   1      43.601  27.981  31.508  1.00  0.00     0.031 C 
ATOM     19  C   UNL A   1      39.596  30.093  29.316  1.00  0.00     0.029 A 
ATOM     20  N   UNL A   1      40.039  30.686  31.426  1.00  0.00    -0.354 N 
ATOM     21  C   UNL A   1      43.390  28.981  33.558  1.00  0.00     0.074 A 
ATOM     22  C   UNL A   1      44.107  28.032  32.732  1.00  0.00     0.031 C 
ATOM     23  C   UNL A   1      38.686  31.010  29.673  1.00  0.00     0.029 A 
ATOM     24  C   UNL A   1      38.928  31.405  31.055  1.00  0.00     0.049 A 
ATOM     25  H   UNL A   1      40.448  30.747  32.318  1.00  0.00     0.167 HD
ATOM     26  C   UNL A   1      43.718  29.288  34.838  1.00  0.00     0.037 A 
ATOM     27  C   UNL A   1      38.178  32.279  31.753  1.00  0.00     0.037 A 
ATOM     28  C   UNL A   1      43.001  30.240  35.650  1.00  0.00     0.049 A 
ATOM     29  C   UNL A   1      38.550  32.591  33.173  1.00  0.00     0.074 A 
ATOM     30  C   UNL A   1      43.275  30.648  36.944  1.00  0.00     0.029 A 
ATOM     31  N   UNL A   1      41.862  30.927  35.251  1.00  0.00    -0.354 N 
ATOM     32  N   UNL A   1      39.556  32.132  33.879  1.00  0.00    -0.248 NA
ATOM     33  C   UNL A   1      37.684  33.533  33.893  1.00  0.00     0.031 C 
ATOM     34  C   UNL A   1      42.279  31.549  37.342  1.00  0.00     0.029 A 
ATOM     35  C   UNL A   1      41.409  31.737  36.279  1.00  0.00     0.049 A 
ATOM     36  H   UNL A   1      41.438  30.849  34.365  1.00  0.00     0.167 HD
ATOM     37  C   UNL A   1      39.455  32.741  35.123  1.00  0.00     0.074 A 
ATOM     38  C   UNL A   1      38.296  33.611  35.068  1.00  0.00     0.031 C 
ATOM     39  C   UNL A   1      40.251  32.594  36.211  1.00  0.00     0.037 A 
BRANCH  26  40
ATOM     40  C   UNL A   1      44.890  28.568  35.446  1.00  0.00     0.058 A 
ATOM     41  C   UNL A   1      46.184  29.114  35.429  1.00  0.00     0.135 A 
ATOM     42  C   UNL A   1      44.717  27.318  36.065  1.00  0.00     0.135 A 
ATOM     43  F   UNL A   1      46.411  30.299  34.838  1.00  0.00    -0.206 F 
ATOM     44  C   UNL A   1      47.270  28.430  35.968  1.00  0.00     0.059 A 
ATOM     45  C   UNL A   1      45.784  26.628  36.632  1.00  0.00     0.059 A 
ATOM     46  F   UNL A   1      43.502  26.752  36.114  1.00  0.00    -0.206 F 
ATOM     47  C   UNL A   1      47.062  27.183  36.559  1.00  0.00     0.060 A 
BRANCH  47  48
ATOM     48  S   UNL A   1      48.485  26.294  37.225  1.00  0.00     0.124 S 
ATOM     49  O   UNL A   1      48.383  26.611  38.647  1.00  0.00    -0.237 OA
ATOM     50  O   UNL A   1      48.189  24.911  36.864  1.00  0.00    -0.237 OA
ATOM     51  O   UNL A   1      49.618  26.894  36.527  1.00  0.00    -0.744 OA
ENDBRANCH  47  48
ENDBRANCH  26  40
BRANCH  27  52
ATOM     52  C   UNL A   1      37.013  32.926  31.096  1.00  0.00     0.058 A 
ATOM     53  C   UNL A   1      37.190  34.001  30.215  1.00  0.00     0.135 A 
ATOM     54  C   UNL A   1      35.711  32.441  31.287  1.00  0.00     0.135 A 
ATOM     55  F   UNL A   1      38.417  34.503  30.006  1.00  0.00    -0.206 F 
ATOM     56  C   UNL A   1      36.117  34.574  29.542  1.00  0.00     0.059 A 
ATOM     57  C   UNL A   1      34.624  32.979  30.607  1.00  0.00     0.059 A 
ATOM     58  F   UNL A   1      35.493  31.401  32.107  1.00  0.00    -0.206 F 
ATOM     59  C   UNL A   1      34.838  34.049  29.737  1.00  0.00     0.060 A 
BRANCH  59  60
ATOM     60  S   UNL A   1      33.463  34.741  28.793  1.00  0.00     0.124 S 
ATOM     61  O   UNL A   1      32.494  35.020  29.847  1.00  0.00    -0.237 OA
ATOM     62  O   UNL A   1      34.078  35.907  28.165  1.00  0.00    -0.237 OA
ATOM     63  O   UNL A   1      33.108  33.661  27.877  1.00  0.00    -0.744 OA
ENDBRANCH  59  60
ENDBRANCH  27  52
BRANCH  39  64
ATOM     64  C   UNL A   1      39.906  33.409  37.426  1.00  0.00     0.058 A 
ATOM     65  C   UNL A   1      40.567  34.613  37.717  1.00  0.00     0.135 A 
ATOM     66  C   UNL A   1      38.880  32.998  38.290  1.00  0.00     0.135 A 
ATOM     67  F   UNL A   1      41.563  35.045  36.926  1.00  0.00    -0.206 F 
ATOM     68  C   UNL A   1      40.236  35.370  38.835  1.00  0.00     0.059 A 
ATOM     69  C   UNL A   1      38.516  33.751  39.402  1.00  0.00     0.059 A 
ATOM     70  F   UNL A   1      38.212  31.857  38.052  1.00  0.00    -0.206 F 
ATOM     71  C   UNL A   1      39.209  34.930  39.673  1.00  0.00     0.060 A 
BRANCH  71  72
ATOM     72  S   UNL A   1      38.769  35.934  41.107  1.00  0.00     0.124 S 
ATOM     73  O   UNL A   1      39.945  35.768  41.955  1.00  0.00    -0.237 OA
ATOM     74  O   UNL A   1      38.592  37.260  40.521  1.00  0.00    -0.237 OA
ATOM     75  O   UNL A   1      37.546  35.305  41.597  1.00  0.00    -0.744 OA
ENDBRANCH  71  72
ENDBRANCH  39  64
ENDBRANCH  13  14
ENDBRANCH   6   8
ENDBRANCH   3   4
ENDBRANCH   2   3
ENDBRANCH   1   2
BRANCH   1  76
ATOM     76  C   UNL A   1      44.663  23.750  28.031  1.00  0.00     0.002 C 
BRANCH  76  77
ATOM     77  C   UNL A   1      44.389  22.886  26.797  1.00  0.00     0.021 C 
BRANCH  77  78
ATOM     78  C   UNL A   1      42.914  22.629  26.507  1.00  0.00     0.116 C 
BRANCH  78  79
ATOM     79  N   UNL A   1      42.435  21.387  27.088  1.00  0.00    -0.351 N 
ATOM     80  C   UNL A   1      41.134  20.988  27.304  1.00  0.00     0.269 C 
ATOM     81  H   UNL A   1      43.130  20.746  27.363  1.00  0.00     0.163 HD
ATOM     82  O   UNL A   1      40.902  19.899  27.823  1.00  0.00    -0.268 OA
BRANCH  80  83
ATOM     83  C   UNL A   1      40.022  21.891  26.902  1.00  0.00     0.129 A 
ATOM     84  C   UNL A   1      39.045  21.437  26.020  1.00  0.00     0.049 A 
ATOM     85  N   UNL A   1      40.068  23.147  27.415  1.00  0.00    -0.251 NA
ATOM     86  C   UNL A   1      38.092  22.347  25.586  1.00  0.00     0.012 A 
ATOM     87  C   UNL A   1      39.102  23.990  27.017  1.00  0.00     0.113 A 
ATOM     88  C   UNL A   1      38.116  23.644  26.112  1.00  0.00     0.035 A 
BRANCH  86  89
ATOM     89  S   UNL A   1      36.794  22.010  24.419  1.00  0.00    -0.116 SA
BRANCH  89  90
ATOM     90  C   UNL A   1      36.097  20.402  24.876  1.00  0.00     0.175 C 
BRANCH  90  91
ATOM     91  C   UNL A   1      34.591  20.250  25.016  1.00  0.00     0.233 C 
ATOM     92  O   UNL A   1      33.933  21.232  25.382  1.00  0.00    -0.274 OA
ATOM     93  N   UNL A   1      33.953  19.119  24.551  1.00  0.00    -0.337 N 
ATOM     94  C   UNL A   1      34.451  17.743  24.592  1.00  0.00     0.148 C 
ATOM     95  C   UNL A   1      32.573  19.218  24.058  1.00  0.00     0.148 C 
ATOM     96  C   UNL A   1      34.248  17.045  23.249  1.00  0.00     0.181 C 
ATOM     97  C   UNL A   1      32.450  18.484  22.714  1.00  0.00     0.181 C 
ATOM     98  O   UNL A   1      32.875  17.118  22.842  1.00  0.00    -0.378 OA
ENDBRANCH  90  91
ENDBRANCH  89  90
ENDBRANCH  86  89
ENDBRANCH  80  83
ENDBRANCH  78  79
ENDBRANCH  77  78
ENDBRANCH  76  77
ENDBRANCH   1  76
TORSDOF 19
ENDMDL
