MODEL 1
REMARK VINA RESULT:     -12.9      0.000      0.000
REMARK SMILES O=C(CNC(=O)[C@@H](CC1=c2ccccc2=NC1)N1C(=O)N=C2C=CC=C[C@H]2C1=O)NCCCCCCNC(=O)c1ccc(-c2c3nc(c(-c4c(F)cc(S(=O)(=O)[O-])cc4F)c4ccc([nH]4)c(-c4c(F)cc(S(=O)(=O)[O-])cc4F)c4nc(c(-c5c(F)cc(S(=O)(=O)[O-])cc5F)c5ccc2[nH]5)C=C4)C=C3)cc1
REMARK SMILES IDX 33 1 32 2 31 3 30 4 1 5 2 6 3 8 4 9 5 10 6 12 7 13 8 14 9 15
REMARK SMILES IDX 10 16 17 17 11 18 15 19 16 20 12 21 14 22 13 23 18 24 19 25
REMARK SMILES IDX 28 26 21 27 20 28 27 29 29 30 22 31 26 32 23 33 25 34 24 35
REMARK SMILES IDX 34 36 35 37 36 38 37 39 38 40 39 42 40 43 41 44 105 45 42 46
REMARK SMILES IDX 104 47 43 48 44 49 45 50 98 51 46 52 103 53 97 54 99 55
REMARK SMILES IDX 47 56 102 57 96 58 95 59 48 61 82 62 61 63 81 64 62 65 65 66
REMARK SMILES IDX 80 67 100 68 63 69 64 70 79 72 101 73 66 74 49 75 50 76
REMARK SMILES IDX 59 77 51 78 52 79 58 80 60 81 53 82 54 83 55 84 56 85 57 86
REMARK SMILES IDX 83 87 84 88 93 89 85 90 86 91 92 92 94 93 87 94 88 95 89 96
REMARK SMILES IDX 90 97 91 98 67 99 68 100 77 101 69 102 70 103 76 104 78 105
REMARK SMILES IDX 71 106 72 107 73 108 74 109 75 110
REMARK H PARENT 30 7 4 11 37 41 99 60 65 71
REMARK Flexibility Score: inf
ROOT
ATOM      1  C   UNL A   1      32.301  29.465  26.832  1.00  0.00     0.002 C 
ENDROOT
BRANCH   1   2
ATOM      2  C   UNL A   1      31.754  28.149  27.401  1.00  0.00     0.021 C 
BRANCH   2   3
ATOM      3  C   UNL A   1      31.267  27.128  26.369  1.00  0.00     0.116 C 
BRANCH   3   4
ATOM      4  N   UNL A   1      31.160  25.783  26.906  1.00  0.00    -0.355 N 
ATOM      5  O   UNL A   1      30.532  24.753  24.947  1.00  0.00    -0.273 OA
ATOM      6  C   UNL A   1      30.797  24.689  26.144  1.00  0.00     0.239 C 
ATOM      7  H   UNL A   1      31.355  25.644  27.861  1.00  0.00     0.163 HD
BRANCH   6   8
ATOM      8  C   UNL A   1      30.776  23.344  26.903  1.00  0.00     0.216 C 
BRANCH   8   9
ATOM      9  N   UNL A   1      31.523  22.286  26.213  1.00  0.00    -0.345 N 
ATOM     10  C   UNL A   1      32.876  22.440  25.983  1.00  0.00     0.244 C 
ATOM     11  H   UNL A   1      31.061  21.470  25.916  1.00  0.00     0.164 HD
ATOM     12  O   UNL A   1      33.638  22.684  26.918  1.00  0.00    -0.273 OA
BRANCH  10  13
ATOM     13  C   UNL A   1      33.378  22.021  24.580  1.00  0.00     0.188 C 
BRANCH  13  14
ATOM     14  C   UNL A   1      34.211  23.001  23.700  1.00  0.00     0.069 C 
BRANCH  14  15
ATOM     15  C   UNL A   1      33.695  24.160  22.884  1.00  0.00    -0.037 C 
ATOM     16  C   UNL A   1      33.719  25.444  23.262  1.00  0.00     0.001 A 
ATOM     17  C   UNL A   1      33.265  24.082  21.453  1.00  0.00     0.174 C 
ATOM     18  C   UNL A   1      34.079  26.155  24.451  1.00  0.00     0.010 A 
ATOM     19  C   UNL A   1      33.374  26.171  22.026  1.00  0.00     0.065 A 
ATOM     20  N   UNL A   1      33.075  25.469  20.980  1.00  0.00    -0.280 NA
ATOM     21  C   UNL A   1      34.121  27.499  24.417  1.00  0.00     0.001 A 
ATOM     22  C   UNL A   1      33.459  27.643  22.060  1.00  0.00     0.028 A 
ATOM     23  C   UNL A   1      33.831  28.242  23.202  1.00  0.00     0.002 A 
ENDBRANCH  14  15
ENDBRANCH  13  14
BRANCH  13  24
ATOM     24  N   UNL A   1      33.866  20.621  24.570  1.00  0.00    -0.249 N 
ATOM     25  C   UNL A   1      35.220  20.418  24.802  1.00  0.00     0.351 C 
ATOM     26  C   UNL A   1      32.982  19.581  24.340  1.00  0.00     0.244 C 
ATOM     27  N   UNL A   1      35.717  19.160  24.929  1.00  0.00    -0.197 NA
ATOM     28  O   UNL A   1      35.987  21.376  24.977  1.00  0.00    -0.246 OA
ATOM     29  C   UNL A   1      33.590  18.207  24.117  1.00  0.00     0.151 C 
ATOM     30  O   UNL A   1      31.769  19.752  24.235  1.00  0.00    -0.273 OA
ATOM     31  C   UNL A   1      34.985  18.124  24.679  1.00  0.00     0.062 C 
ATOM     32  C   UNL A   1      32.743  17.081  24.674  1.00  0.00    -0.007 C 
ATOM     33  C   UNL A   1      35.563  16.790  24.972  1.00  0.00     0.025 C 
ATOM     34  C   UNL A   1      33.283  15.969  25.198  1.00  0.00    -0.003 C 
ATOM     35  C   UNL A   1      34.715  15.789  25.236  1.00  0.00     0.002 C 
ENDBRANCH  13  24
ENDBRANCH  10  13
ENDBRANCH   8   9
ENDBRANCH   6   8
ENDBRANCH   3   4
ENDBRANCH   2   3
ENDBRANCH   1   2
BRANCH   1  36
ATOM     36  C   UNL A   1      33.790  29.737  27.067  1.00  0.00     0.002 C 
BRANCH  36  37
ATOM     37  C   UNL A   1      34.120  31.055  27.769  1.00  0.00     0.021 C 
BRANCH  37  38
ATOM     38  C   UNL A   1      35.507  31.130  28.399  1.00  0.00     0.116 C 
BRANCH  38  39
ATOM     39  N   UNL A   1      35.484  31.006  29.852  1.00  0.00    -0.352 N 
ATOM     40  C   UNL A   1      36.369  30.366  30.693  1.00  0.00     0.251 C 
ATOM     41  H   UNL A   1      34.723  31.445  30.298  1.00  0.00     0.163 HD
ATOM     42  O   UNL A   1      36.107  30.259  31.888  1.00  0.00    -0.269 OA
BRANCH  40  43
ATOM     43  C   UNL A   1      37.616  29.777  30.151  1.00  0.00     0.039 A 
ATOM     44  C   UNL A   1      38.500  29.090  30.984  1.00  0.00     0.014 A 
ATOM     45  C   UNL A   1      37.921  29.941  28.796  1.00  0.00     0.014 A 
ATOM     46  C   UNL A   1      39.763  28.742  30.512  1.00  0.00     0.010 A 
ATOM     47  C   UNL A   1      39.158  29.508  28.302  1.00  0.00     0.010 A 
ATOM     48  C   UNL A   1      40.115  28.960  29.169  1.00  0.00    -0.014 A 
BRANCH  48  49
ATOM     49  C   UNL A   1      41.497  28.634  28.714  1.00  0.00     0.031 A 
ATOM     50  C   UNL A   1      42.599  29.659  28.804  1.00  0.00     0.074 A 
ATOM     51  C   UNL A   1      41.778  27.385  28.292  1.00  0.00     0.049 A 
ATOM     52  N   UNL A   1      43.867  29.536  28.497  1.00  0.00    -0.248 NA
ATOM     53  C   UNL A   1      42.238  30.998  29.298  1.00  0.00     0.031 C 
ATOM     54  C   UNL A   1      40.803  26.299  28.169  1.00  0.00     0.029 A 
ATOM     55  N   UNL A   1      42.965  26.807  27.917  1.00  0.00    -0.354 N 
ATOM     56  C   UNL A   1      44.448  30.773  28.751  1.00  0.00     0.074 A 
ATOM     57  C   UNL A   1      43.388  31.650  29.200  1.00  0.00     0.031 C 
ATOM     58  C   UNL A   1      41.439  25.175  27.809  1.00  0.00     0.029 A 
ATOM     59  C   UNL A   1      42.855  25.471  27.611  1.00  0.00     0.049 A 
ATOM     60  H   UNL A   1      43.815  27.301  27.871  1.00  0.00     0.167 HD
ATOM     61  C   UNL A   1      45.748  31.142  28.639  1.00  0.00     0.037 A 
ATOM     62  C   UNL A   1      43.783  24.581  27.208  1.00  0.00     0.037 A 
ATOM     63  C   UNL A   1      46.806  30.262  28.214  1.00  0.00     0.049 A 
ATOM     64  C   UNL A   1      45.208  25.028  27.043  1.00  0.00     0.074 A 
ATOM     65  C   UNL A   1      48.157  30.542  28.088  1.00  0.00     0.029 A 
ATOM     66  N   UNL A   1      46.639  28.935  27.850  1.00  0.00    -0.354 N 
ATOM     67  N   UNL A   1      45.736  26.202  27.293  1.00  0.00    -0.248 NA
ATOM     68  C   UNL A   1      46.162  24.035  26.530  1.00  0.00     0.031 C 
ATOM     69  C   UNL A   1      48.799  29.397  27.607  1.00  0.00     0.029 A 
ATOM     70  C   UNL A   1      47.857  28.389  27.478  1.00  0.00     0.049 A 
ATOM     71  H   UNL A   1      45.782  28.451  27.856  1.00  0.00     0.167 HD
ATOM     72  C   UNL A   1      47.084  26.088  26.976  1.00  0.00     0.074 A 
ATOM     73  C   UNL A   1      47.296  24.723  26.538  1.00  0.00     0.031 C 
ATOM     74  C   UNL A   1      48.056  27.030  27.039  1.00  0.00     0.037 A 
BRANCH  61  75
ATOM     75  C   UNL A   1      46.110  32.563  28.981  1.00  0.00     0.058 A 
ATOM     76  C   UNL A   1      45.952  33.606  28.054  1.00  0.00     0.135 A 
ATOM     77  C   UNL A   1      46.553  32.896  30.272  1.00  0.00     0.135 A 
ATOM     78  F   UNL A   1      45.547  33.341  26.802  1.00  0.00    -0.206 F 
ATOM     79  C   UNL A   1      46.237  34.925  28.390  1.00  0.00     0.059 A 
ATOM     80  C   UNL A   1      46.820  34.214  30.636  1.00  0.00     0.059 A 
ATOM     81  F   UNL A   1      46.719  31.938  31.198  1.00  0.00    -0.206 F 
ATOM     82  C   UNL A   1      46.667  35.220  29.685  1.00  0.00     0.060 A 
BRANCH  82  83
ATOM     83  S   UNL A   1      47.017  36.942  30.104  1.00  0.00     0.124 S 
ATOM     84  O   UNL A   1      47.994  36.789  31.177  1.00  0.00    -0.237 OA
ATOM     85  O   UNL A   1      47.536  37.467  28.845  1.00  0.00    -0.237 OA
ATOM     86  O   UNL A   1      45.717  37.465  30.510  1.00  0.00    -0.744 OA
ENDBRANCH  82  83
ENDBRANCH  61  75
BRANCH  62  87
ATOM     87  C   UNL A   1      43.384  23.175  26.931  1.00  0.00     0.058 A 
ATOM     88  C   UNL A   1      43.408  22.660  25.627  1.00  0.00     0.135 A 
ATOM     89  C   UNL A   1      43.006  22.308  27.969  1.00  0.00     0.135 A 
ATOM     90  F   UNL A   1      43.756  23.451  24.600  1.00  0.00    -0.206 F 
ATOM     91  C   UNL A   1      43.068  21.338  25.359  1.00  0.00     0.059 A 
ATOM     92  C   UNL A   1      42.688  20.975  27.731  1.00  0.00     0.059 A 
ATOM     93  F   UNL A   1      42.978  22.749  29.236  1.00  0.00    -0.206 F 
ATOM     94  C   UNL A   1      42.717  20.502  26.421  1.00  0.00     0.060 A 
BRANCH  94  95
ATOM     95  S   UNL A   1      42.343  18.771  26.069  1.00  0.00     0.124 S 
ATOM     96  O   UNL A   1      43.245  18.494  24.958  1.00  0.00    -0.237 OA
ATOM     97  O   UNL A   1      42.673  18.124  27.336  1.00  0.00    -0.237 OA
ATOM     98  O   UNL A   1      40.921  18.795  25.739  1.00  0.00    -0.744 OA
ENDBRANCH  94  95
ENDBRANCH  62  87
BRANCH  74  99
ATOM     99  C   UNL A   1      49.444  26.627  26.629  1.00  0.00     0.058 A 
ATOM    100  C   UNL A   1      50.369  26.134  27.563  1.00  0.00     0.135 A 
ATOM    101  C   UNL A   1      49.830  26.661  25.279  1.00  0.00     0.135 A 
ATOM    102  F   UNL A   1      50.052  26.088  28.868  1.00  0.00    -0.206 F 
ATOM    103  C   UNL A   1      51.631  25.698  27.176  1.00  0.00     0.059 A 
ATOM    104  C   UNL A   1      51.079  26.206  24.866  1.00  0.00     0.059 A 
ATOM    105  F   UNL A   1      48.982  27.116  24.345  1.00  0.00    -0.206 F 
ATOM    106  C   UNL A   1      51.975  25.731  25.823  1.00  0.00     0.060 A 
BRANCH 106 107
ATOM    107  S   UNL A   1      53.598  25.111  25.330  1.00  0.00     0.124 S 
ATOM    108  O   UNL A   1      53.356  23.672  25.270  1.00  0.00    -0.237 OA
ATOM    109  O   UNL A   1      53.806  25.772  24.046  1.00  0.00    -0.237 OA
ATOM    110  O   UNL A   1      54.474  25.555  26.409  1.00  0.00    -0.744 OA
ENDBRANCH 106 107
ENDBRANCH  74  99
ENDBRANCH  48  49
ENDBRANCH  40  43
ENDBRANCH  38  39
ENDBRANCH  37  38
ENDBRANCH  36  37
ENDBRANCH   1  36
TORSDOF 21
ENDMDL
MODEL 2
REMARK VINA RESULT:     -12.9      0.523      7.650
REMARK SMILES O=C(CNC(=O)[C@@H](CC1=c2ccccc2=NC1)N1C(=O)N=C2C=CC=C[C@H]2C1=O)NCCCCCCNC(=O)c1ccc(-c2c3nc(c(-c4c(F)cc(S(=O)(=O)[O-])cc4F)c4ccc([nH]4)c(-c4c(F)cc(S(=O)(=O)[O-])cc4F)c4nc(c(-c5c(F)cc(S(=O)(=O)[O-])cc5F)c5ccc2[nH]5)C=C4)C=C3)cc1
REMARK SMILES IDX 33 1 32 2 31 3 30 4 1 5 2 6 3 8 4 9 5 10 6 12 7 13 8 14 9 15
REMARK SMILES IDX 10 16 17 17 11 18 15 19 16 20 12 21 14 22 13 23 18 24 19 25
REMARK SMILES IDX 28 26 21 27 20 28 27 29 29 30 22 31 26 32 23 33 25 34 24 35
REMARK SMILES IDX 34 36 35 37 36 38 37 39 38 40 39 42 40 43 41 44 105 45 42 46
REMARK SMILES IDX 104 47 43 48 44 49 45 50 98 51 46 52 103 53 97 54 99 55
REMARK SMILES IDX 47 56 102 57 96 58 95 59 48 61 82 62 61 63 81 64 62 65 65 66
REMARK SMILES IDX 80 67 100 68 63 69 64 70 79 72 101 73 66 74 49 75 50 76
REMARK SMILES IDX 59 77 51 78 52 79 58 80 60 81 53 82 54 83 55 84 56 85 57 86
REMARK SMILES IDX 83 87 84 88 93 89 85 90 86 91 92 92 94 93 87 94 88 95 89 96
REMARK SMILES IDX 90 97 91 98 67 99 68 100 77 101 69 102 70 103 76 104 78 105
REMARK SMILES IDX 71 106 72 107 73 108 74 109 75 110
REMARK H PARENT 30 7 4 11 37 41 99 60 65 71
REMARK Flexibility Score: inf
ROOT
ATOM      1  C   UNL A   1      32.346  29.270  26.926  1.00  0.00     0.002 C 
ENDROOT
BRANCH   1   2
ATOM      2  C   UNL A   1      31.679  27.990  27.449  1.00  0.00     0.021 C 
BRANCH   2   3
ATOM      3  C   UNL A   1      31.148  27.031  26.380  1.00  0.00     0.116 C 
BRANCH   3   4
ATOM      4  N   UNL A   1      30.988  25.671  26.865  1.00  0.00    -0.355 N 
ATOM      5  O   UNL A   1      30.647  24.685  24.814  1.00  0.00    -0.273 OA
ATOM      6  C   UNL A   1      30.748  24.593  26.034  1.00  0.00     0.239 C 
ATOM      7  H   UNL A   1      31.053  25.509  27.834  1.00  0.00     0.163 HD
BRANCH   6   8
ATOM      8  C   UNL A   1      30.644  23.229  26.751  1.00  0.00     0.216 C 
BRANCH   8   9
ATOM      9  N   UNL A   1      31.411  22.172  26.083  1.00  0.00    -0.345 N 
ATOM     10  C   UNL A   1      32.775  22.312  25.918  1.00  0.00     0.244 C 
ATOM     11  H   UNL A   1      30.954  21.365  25.752  1.00  0.00     0.164 HD
ATOM     12  O   UNL A   1      33.495  22.534  26.892  1.00  0.00    -0.273 OA
BRANCH  10  13
ATOM     13  C   UNL A   1      33.338  21.906  24.535  1.00  0.00     0.188 C 
BRANCH  13  14
ATOM     14  C   UNL A   1      34.189  22.903  23.692  1.00  0.00     0.069 C 
BRANCH  14  15
ATOM     15  C   UNL A   1      33.689  24.072  22.881  1.00  0.00    -0.037 C 
ATOM     16  C   UNL A   1      33.697  25.350  23.280  1.00  0.00     0.001 A 
ATOM     17  C   UNL A   1      33.297  24.015  21.438  1.00  0.00     0.174 C 
ATOM     18  C   UNL A   1      34.021  26.044  24.489  1.00  0.00     0.010 A 
ATOM     19  C   UNL A   1      33.381  26.096  22.047  1.00  0.00     0.065 A 
ATOM     20  N   UNL A   1      33.112  25.410  20.983  1.00  0.00    -0.280 NA
ATOM     21  C   UNL A   1      34.058  27.388  24.478  1.00  0.00     0.001 A 
ATOM     22  C   UNL A   1      33.457  27.567  22.107  1.00  0.00     0.028 A 
ATOM     23  C   UNL A   1      33.797  28.149  23.268  1.00  0.00     0.002 A 
ENDBRANCH  14  15
ENDBRANCH  13  14
BRANCH  13  24
ATOM     24  N   UNL A   1      33.849  20.514  24.540  1.00  0.00    -0.249 N 
ATOM     25  C   UNL A   1      35.198  20.333  24.817  1.00  0.00     0.351 C 
ATOM     26  C   UNL A   1      32.990  19.461  24.280  1.00  0.00     0.244 C 
ATOM     27  N   UNL A   1      35.710  19.083  24.959  1.00  0.00    -0.197 NA
ATOM     28  O   UNL A   1      35.942  21.303  25.018  1.00  0.00    -0.246 OA
ATOM     29  C   UNL A   1      33.627  18.097  24.076  1.00  0.00     0.151 C 
ATOM     30  O   UNL A   1      31.778  19.612  24.135  1.00  0.00    -0.273 OA
ATOM     31  C   UNL A   1      35.004  18.036  24.685  1.00  0.00     0.062 C 
ATOM     32  C   UNL A   1      32.781  16.956  24.604  1.00  0.00    -0.007 C 
ATOM     33  C   UNL A   1      35.593  16.711  24.995  1.00  0.00     0.025 C 
ATOM     34  C   UNL A   1      33.321  15.853  25.145  1.00  0.00    -0.003 C 
ATOM     35  C   UNL A   1      34.753  15.696  25.230  1.00  0.00     0.002 C 
ENDBRANCH  13  24
ENDBRANCH  10  13
ENDBRANCH   8   9
ENDBRANCH   6   8
ENDBRANCH   3   4
ENDBRANCH   2   3
ENDBRANCH   1   2
BRANCH   1  36
ATOM     36  C   UNL A   1      33.829  29.447  27.269  1.00  0.00     0.002 C 
BRANCH  36  37
ATOM     37  C   UNL A   1      34.284  30.887  27.511  1.00  0.00     0.021 C 
BRANCH  37  38
ATOM     38  C   UNL A   1      35.641  31.036  28.193  1.00  0.00     0.116 C 
BRANCH  38  39
ATOM     39  N   UNL A   1      35.565  30.944  29.646  1.00  0.00    -0.352 N 
ATOM     40  C   UNL A   1      36.427  30.337  30.534  1.00  0.00     0.251 C 
ATOM     41  H   UNL A   1      34.781  31.381  30.054  1.00  0.00     0.163 HD
ATOM     42  O   UNL A   1      36.122  30.252  31.721  1.00  0.00    -0.269 OA
BRANCH  40  43
ATOM     43  C   UNL A   1      37.702  29.756  30.052  1.00  0.00     0.039 A 
ATOM     44  C   UNL A   1      38.571  29.113  30.935  1.00  0.00     0.014 A 
ATOM     45  C   UNL A   1      38.048  29.882  28.703  1.00  0.00     0.014 A 
ATOM     46  C   UNL A   1      39.855  28.776  30.516  1.00  0.00     0.010 A 
ATOM     47  C   UNL A   1      39.308  29.458  28.264  1.00  0.00     0.010 A 
ATOM     48  C   UNL A   1      40.247  28.957  29.179  1.00  0.00    -0.014 A 
BRANCH  48  49
ATOM     49  C   UNL A   1      41.648  28.644  28.780  1.00  0.00     0.031 A 
ATOM     50  C   UNL A   1      42.025  27.260  28.313  1.00  0.00     0.074 A 
ATOM     51  C   UNL A   1      42.569  29.629  28.763  1.00  0.00     0.049 A 
ATOM     52  N   UNL A   1      43.183  26.820  27.885  1.00  0.00    -0.248 NA
ATOM     53  C   UNL A   1      40.971  26.232  28.327  1.00  0.00     0.031 C 
ATOM     54  C   UNL A   1      42.329  31.012  29.180  1.00  0.00     0.029 A 
ATOM     55  N   UNL A   1      43.879  29.630  28.353  1.00  0.00    -0.354 N 
ATOM     56  C   UNL A   1      43.000  25.474  27.592  1.00  0.00     0.074 A 
ATOM     57  C   UNL A   1      41.629  25.154  27.926  1.00  0.00     0.031 C 
ATOM     58  C   UNL A   1      43.431  31.739  28.948  1.00  0.00     0.029 A 
ATOM     59  C   UNL A   1      44.478  30.865  28.427  1.00  0.00     0.049 A 
ATOM     60  H   UNL A   1      44.346  28.823  28.036  1.00  0.00     0.167 HD
ATOM     61  C   UNL A   1      43.886  24.588  27.073  1.00  0.00     0.037 A 
ATOM     62  C   UNL A   1      45.731  31.256  28.121  1.00  0.00     0.037 A 
ATOM     63  C   UNL A   1      45.244  24.913  26.719  1.00  0.00     0.049 A 
ATOM     64  C   UNL A   1      46.708  30.243  27.596  1.00  0.00     0.074 A 
ATOM     65  C   UNL A   1      46.210  24.086  26.170  1.00  0.00     0.029 A 
ATOM     66  N   UNL A   1      45.829  26.160  26.873  1.00  0.00    -0.354 N 
ATOM     67  N   UNL A   1      46.513  28.975  27.321  1.00  0.00    -0.248 NA
ATOM     68  C   UNL A   1      48.081  30.708  27.349  1.00  0.00     0.031 C 
ATOM     69  C   UNL A   1      47.390  24.821  26.032  1.00  0.00     0.029 A 
ATOM     70  C   UNL A   1      47.149  26.120  26.451  1.00  0.00     0.049 A 
ATOM     71  H   UNL A   1      45.375  26.957  27.229  1.00  0.00     0.167 HD
ATOM     72  C   UNL A   1      47.733  28.493  26.862  1.00  0.00     0.074 A 
ATOM     73  C   UNL A   1      48.655  29.610  26.874  1.00  0.00     0.031 C 
ATOM     74  C   UNL A   1      48.058  27.237  26.471  1.00  0.00     0.037 A 
BRANCH  61  75
ATOM     75  C   UNL A   1      43.422  23.173  26.853  1.00  0.00     0.058 A 
ATOM     76  C   UNL A   1      43.202  22.663  25.563  1.00  0.00     0.135 A 
ATOM     77  C   UNL A   1      43.261  22.296  27.939  1.00  0.00     0.135 A 
ATOM     78  F   UNL A   1      43.325  23.462  24.491  1.00  0.00    -0.206 F 
ATOM     79  C   UNL A   1      42.824  21.340  25.360  1.00  0.00     0.059 A 
ATOM     80  C   UNL A   1      42.908  20.961  27.756  1.00  0.00     0.059 A 
ATOM     81  F   UNL A   1      43.461  22.730  29.193  1.00  0.00    -0.206 F 
ATOM     82  C   UNL A   1      42.683  20.495  26.462  1.00  0.00     0.060 A 
BRANCH  82  83
ATOM     83  S   UNL A   1      42.207  18.777  26.174  1.00  0.00     0.124 S 
ATOM     84  O   UNL A   1      42.389  18.197  27.501  1.00  0.00    -0.237 OA
ATOM     85  O   UNL A   1      40.825  18.911  25.725  1.00  0.00    -0.237 OA
ATOM     86  O   UNL A   1      43.153  18.327  25.158  1.00  0.00    -0.744 OA
ENDBRANCH  82  83
ENDBRANCH  61  75
BRANCH  62  87
ATOM     87  C   UNL A   1      46.127  32.677  28.309  1.00  0.00     0.058 A 
ATOM     88  C   UNL A   1      46.006  33.605  27.264  1.00  0.00     0.135 A 
ATOM     89  C   UNL A   1      46.601  33.142  29.546  1.00  0.00     0.135 A 
ATOM     90  F   UNL A   1      45.565  33.206  26.061  1.00  0.00    -0.206 F 
ATOM     91  C   UNL A   1      46.343  34.943  27.437  1.00  0.00     0.059 A 
ATOM     92  C   UNL A   1      46.918  34.481  29.751  1.00  0.00     0.059 A 
ATOM     93  F   UNL A   1      46.724  32.297  30.581  1.00  0.00    -0.206 F 
ATOM     94  C   UNL A   1      46.791  35.372  28.688  1.00  0.00     0.060 A 
BRANCH  94  95
ATOM     95  S   UNL A   1      47.162  37.124  28.919  1.00  0.00     0.124 S 
ATOM     96  O   UNL A   1      48.308  37.067  29.819  1.00  0.00    -0.237 OA
ATOM     97  O   UNL A   1      47.445  37.558  27.554  1.00  0.00    -0.237 OA
ATOM     98  O   UNL A   1      45.931  37.656  29.495  1.00  0.00    -0.744 OA
ENDBRANCH  94  95
ENDBRANCH  62  87
BRANCH  74  99
ATOM     99  C   UNL A   1      49.471  26.994  26.017  1.00  0.00     0.058 A 
ATOM    100  C   UNL A   1      50.452  26.522  26.903  1.00  0.00     0.135 A 
ATOM    101  C   UNL A   1      49.829  27.159  24.670  1.00  0.00     0.135 A 
ATOM    102  F   UNL A   1      50.164  26.355  28.205  1.00  0.00    -0.206 F 
ATOM    103  C   UNL A   1      51.742  26.233  26.472  1.00  0.00     0.059 A 
ATOM    104  C   UNL A   1      51.106  26.852  24.211  1.00  0.00     0.059 A 
ATOM    105  F   UNL A   1      48.926  27.600  23.780  1.00  0.00    -0.206 F 
ATOM    106  C   UNL A   1      52.058  26.395  25.121  1.00  0.00     0.060 A 
BRANCH 106 107
ATOM    107  S   UNL A   1      53.722  25.963  24.567  1.00  0.00     0.124 S 
ATOM    108  O   UNL A   1      53.732  24.517  24.767  1.00  0.00    -0.237 OA
ATOM    109  O   UNL A   1      53.712  26.411  23.179  1.00  0.00    -0.237 OA
ATOM    110  O   UNL A   1      54.587  26.725  25.461  1.00  0.00    -0.744 OA
ENDBRANCH 106 107
ENDBRANCH  74  99
ENDBRANCH  48  49
ENDBRANCH  40  43
ENDBRANCH  38  39
ENDBRANCH  37  38
ENDBRANCH  36  37
ENDBRANCH   1  36
TORSDOF 21
ENDMDL
MODEL 3
REMARK VINA RESULT:     -12.9      2.024      4.848
REMARK SMILES O=C(CNC(=O)[C@@H](CC1=c2ccccc2=NC1)N1C(=O)N=C2C=CC=C[C@H]2C1=O)NCCCCCCNC(=O)c1ccc(-c2c3nc(c(-c4c(F)cc(S(=O)(=O)[O-])cc4F)c4ccc([nH]4)c(-c4c(F)cc(S(=O)(=O)[O-])cc4F)c4nc(c(-c5c(F)cc(S(=O)(=O)[O-])cc5F)c5ccc2[nH]5)C=C4)C=C3)cc1
REMARK SMILES IDX 33 1 32 2 31 3 30 4 1 5 2 6 3 8 4 9 5 10 6 12 7 13 8 14 9 15
REMARK SMILES IDX 10 16 17 17 11 18 15 19 16 20 12 21 14 22 13 23 18 24 19 25
REMARK SMILES IDX 28 26 21 27 20 28 27 29 29 30 22 31 26 32 23 33 25 34 24 35
REMARK SMILES IDX 34 36 35 37 36 38 37 39 38 40 39 42 40 43 41 44 105 45 42 46
REMARK SMILES IDX 104 47 43 48 44 49 45 50 98 51 46 52 103 53 97 54 99 55
REMARK SMILES IDX 47 56 102 57 96 58 95 59 48 61 82 62 61 63 81 64 62 65 65 66
REMARK SMILES IDX 80 67 100 68 63 69 64 70 79 72 101 73 66 74 49 75 50 76
REMARK SMILES IDX 59 77 51 78 52 79 58 80 60 81 53 82 54 83 55 84 56 85 57 86
REMARK SMILES IDX 83 87 84 88 93 89 85 90 86 91 92 92 94 93 87 94 88 95 89 96
REMARK SMILES IDX 90 97 91 98 67 99 68 100 77 101 69 102 70 103 76 104 78 105
REMARK SMILES IDX 71 106 72 107 73 108 74 109 75 110
REMARK H PARENT 30 7 4 11 37 41 99 60 65 71
REMARK Flexibility Score: inf
ROOT
ATOM      1  C   UNL A   1      35.575  33.211  28.044  1.00  0.00     0.002 C 
ENDROOT
BRANCH   1   2
ATOM      2  C   UNL A   1      34.632  32.049  28.386  1.00  0.00     0.021 C 
BRANCH   2   3
ATOM      3  C   UNL A   1      34.854  30.756  27.597  1.00  0.00     0.116 C 
BRANCH   3   4
ATOM      4  N   UNL A   1      33.857  29.738  27.883  1.00  0.00    -0.355 N 
ATOM      5  O   UNL A   1      32.401  30.297  26.190  1.00  0.00    -0.273 OA
ATOM      6  C   UNL A   1      32.696  29.587  27.148  1.00  0.00     0.239 C 
ATOM      7  H   UNL A   1      34.016  29.126  28.638  1.00  0.00     0.163 HD
BRANCH   6   8
ATOM      8  C   UNL A   1      31.787  28.422  27.598  1.00  0.00     0.216 C 
BRANCH   8   9
ATOM      9  N   UNL A   1      31.813  27.286  26.671  1.00  0.00    -0.345 N 
ATOM     10  C   UNL A   1      32.932  27.060  25.893  1.00  0.00     0.244 C 
ATOM     11  H   UNL A   1      31.036  26.686  26.604  1.00  0.00     0.164 HD
ATOM     12  O   UNL A   1      34.039  26.949  26.421  1.00  0.00    -0.273 OA
BRANCH  10  13
ATOM     13  C   UNL A   1      32.667  26.689  24.414  1.00  0.00     0.188 C 
BRANCH  13  14
ATOM     14  C   UNL A   1      33.009  25.269  23.870  1.00  0.00     0.069 C 
BRANCH  14  15
ATOM     15  C   UNL A   1      33.485  24.077  24.662  1.00  0.00    -0.037 C 
ATOM     16  C   UNL A   1      34.590  23.367  24.402  1.00  0.00     0.001 A 
ATOM     17  C   UNL A   1      32.915  23.628  25.971  1.00  0.00     0.174 C 
ATOM     18  C   UNL A   1      35.579  23.354  23.368  1.00  0.00     0.010 A 
ATOM     19  C   UNL A   1      34.746  22.524  25.602  1.00  0.00     0.065 A 
ATOM     20  N   UNL A   1      33.825  22.594  26.509  1.00  0.00    -0.280 NA
ATOM     21  C   UNL A   1      36.668  22.579  23.519  1.00  0.00     0.001 A 
ATOM     22  C   UNL A   1      35.973  21.712  25.705  1.00  0.00     0.028 A 
ATOM     23  C   UNL A   1      36.872  21.772  24.710  1.00  0.00     0.002 A 
ENDBRANCH  14  15
ENDBRANCH  13  14
BRANCH  13  24
ATOM     24  N   UNL A   1      31.375  27.235  23.937  1.00  0.00    -0.249 N 
ATOM     25  C   UNL A   1      30.231  26.499  24.216  1.00  0.00     0.351 C 
ATOM     26  C   UNL A   1      31.342  28.435  23.247  1.00  0.00     0.244 C 
ATOM     27  N   UNL A   1      29.002  26.994  23.918  1.00  0.00    -0.197 NA
ATOM     28  O   UNL A   1      30.302  25.414  24.812  1.00  0.00    -0.246 OA
ATOM     29  C   UNL A   1      30.023  28.810  22.596  1.00  0.00     0.151 C 
ATOM     30  O   UNL A   1      32.340  29.137  23.089  1.00  0.00    -0.273 OA
ATOM     31  C   UNL A   1      28.868  28.079  23.228  1.00  0.00     0.062 C 
ATOM     32  C   UNL A   1      29.754  30.302  22.605  1.00  0.00    -0.007 C 
ATOM     33  C   UNL A   1      27.497  28.622  23.064  1.00  0.00     0.025 C 
ATOM     34  C   UNL A   1      28.517  30.806  22.732  1.00  0.00    -0.003 C 
ATOM     35  C   UNL A   1      27.371  29.937  22.849  1.00  0.00     0.002 C 
ENDBRANCH  13  24
ENDBRANCH  10  13
ENDBRANCH   8   9
ENDBRANCH   6   8
ENDBRANCH   3   4
ENDBRANCH   2   3
ENDBRANCH   1   2
BRANCH   1  36
ATOM     36  C   UNL A   1      36.700  33.486  29.047  1.00  0.00     0.002 C 
BRANCH  36  37
ATOM     37  C   UNL A   1      36.254  33.764  30.483  1.00  0.00     0.021 C 
BRANCH  37  38
ATOM     38  C   UNL A   1      36.825  32.822  31.538  1.00  0.00     0.116 C 
BRANCH  38  39
ATOM     39  N   UNL A   1      36.188  31.510  31.541  1.00  0.00    -0.352 N 
ATOM     40  C   UNL A   1      36.640  30.314  31.028  1.00  0.00     0.251 C 
ATOM     41  H   UNL A   1      35.305  31.475  31.974  1.00  0.00     0.163 HD
ATOM     42  O   UNL A   1      35.896  29.336  31.011  1.00  0.00    -0.269 OA
BRANCH  40  43
ATOM     43  C   UNL A   1      38.006  30.215  30.463  1.00  0.00     0.039 A 
ATOM     44  C   UNL A   1      38.216  30.295  29.086  1.00  0.00     0.014 A 
ATOM     45  C   UNL A   1      39.091  30.010  31.321  1.00  0.00     0.014 A 
ATOM     46  C   UNL A   1      39.464  29.977  28.558  1.00  0.00     0.010 A 
ATOM     47  C   UNL A   1      40.367  29.780  30.791  1.00  0.00     0.010 A 
ATOM     48  C   UNL A   1      40.554  29.700  29.402  1.00  0.00    -0.014 A 
BRANCH  48  49
ATOM     49  C   UNL A   1      41.859  29.302  28.803  1.00  0.00     0.031 A 
ATOM     50  C   UNL A   1      43.006  30.279  28.738  1.00  0.00     0.074 A 
ATOM     51  C   UNL A   1      42.038  28.032  28.388  1.00  0.00     0.049 A 
ATOM     52  N   UNL A   1      44.225  30.092  28.293  1.00  0.00    -0.248 NA
ATOM     53  C   UNL A   1      42.760  31.644  29.231  1.00  0.00     0.031 C 
ATOM     54  C   UNL A   1      41.011  26.987  28.408  1.00  0.00     0.029 A 
ATOM     55  N   UNL A   1      43.149  27.393  27.897  1.00  0.00    -0.354 N 
ATOM     56  C   UNL A   1      44.881  31.308  28.443  1.00  0.00     0.074 A 
ATOM     57  C   UNL A   1      43.917  32.242  28.984  1.00  0.00     0.031 C 
ATOM     58  C   UNL A   1      41.555  25.828  28.010  1.00  0.00     0.029 A 
ATOM     59  C   UNL A   1      42.950  26.056  27.645  1.00  0.00     0.049 A 
ATOM     60  H   UNL A   1      44.008  27.848  27.741  1.00  0.00     0.167 HD
ATOM     61  C   UNL A   1      46.174  31.616  28.174  1.00  0.00     0.037 A 
ATOM     62  C   UNL A   1      43.788  25.116  27.164  1.00  0.00     0.037 A 
ATOM     63  C   UNL A   1      47.139  30.681  27.656  1.00  0.00     0.049 A 
ATOM     64  C   UNL A   1      45.201  25.496  26.826  1.00  0.00     0.074 A 
ATOM     65  C   UNL A   1      48.477  30.897  27.370  1.00  0.00     0.029 A 
ATOM     66  N   UNL A   1      46.877  29.353  27.353  1.00  0.00    -0.354 N 
ATOM     67  N   UNL A   1      45.803  26.651  26.981  1.00  0.00    -0.248 NA
ATOM     68  C   UNL A   1      46.049  24.449  26.237  1.00  0.00     0.031 C 
ATOM     69  C   UNL A   1      49.011  29.714  26.853  1.00  0.00     0.029 A 
ATOM     70  C   UNL A   1      48.020  28.745  26.860  1.00  0.00     0.049 A 
ATOM     71  H   UNL A   1      46.007  28.909  27.470  1.00  0.00     0.167 HD
ATOM     72  C   UNL A   1      47.100  26.469  26.516  1.00  0.00     0.074 A 
ATOM     73  C   UNL A   1      47.204  25.087  26.096  1.00  0.00     0.031 C 
ATOM     74  C   UNL A   1      48.111  27.369  26.441  1.00  0.00     0.037 A 
BRANCH  61  75
ATOM     75  C   UNL A   1      46.631  33.028  28.431  1.00  0.00     0.058 A 
ATOM     76  C   UNL A   1      47.169  33.412  29.669  1.00  0.00     0.135 A 
ATOM     77  C   UNL A   1      46.594  33.988  27.407  1.00  0.00     0.135 A 
ATOM     78  F   UNL A   1      47.213  32.538  30.688  1.00  0.00    -0.206 F 
ATOM     79  C   UNL A   1      47.640  34.702  29.888  1.00  0.00     0.059 A 
ATOM     80  C   UNL A   1      47.083  35.279  27.597  1.00  0.00     0.059 A 
ATOM     81  F   UNL A   1      46.091  33.674  26.203  1.00  0.00    -0.206 F 
ATOM     82  C   UNL A   1      47.596  35.629  28.844  1.00  0.00     0.060 A 
BRANCH  82  83
ATOM     83  S   UNL A   1      48.226  37.294  29.145  1.00  0.00     0.124 S 
ATOM     84  O   UNL A   1      47.362  38.094  28.282  1.00  0.00    -0.237 OA
ATOM     85  O   UNL A   1      48.010  37.452  30.579  1.00  0.00    -0.237 OA
ATOM     86  O   UNL A   1      49.622  37.211  28.729  1.00  0.00    -0.744 OA
ENDBRANCH  82  83
ENDBRANCH  61  75
BRANCH  62  87
ATOM     87  C   UNL A   1      43.302  23.723  26.975  1.00  0.00     0.058 A 
ATOM     88  C   UNL A   1      42.842  23.282  25.726  1.00  0.00     0.135 A 
ATOM     89  C   UNL A   1      43.321  22.797  28.030  1.00  0.00     0.135 A 
ATOM     90  F   UNL A   1      42.798  24.132  24.689  1.00  0.00    -0.206 F 
ATOM     91  C   UNL A   1      42.416  21.972  25.529  1.00  0.00     0.059 A 
ATOM     92  C   UNL A   1      42.926  21.476  27.851  1.00  0.00     0.059 A 
ATOM     93  F   UNL A   1      43.764  23.167  29.242  1.00  0.00    -0.206 F 
ATOM     94  C   UNL A   1      42.469  21.075  26.597  1.00  0.00     0.060 A 
BRANCH  94  95
ATOM     95  S   UNL A   1      41.976  19.361  26.312  1.00  0.00     0.124 S 
ATOM     96  O   UNL A   1      43.008  18.908  25.387  1.00  0.00    -0.237 OA
ATOM     97  O   UNL A   1      42.033  18.800  27.658  1.00  0.00    -0.237 OA
ATOM     98  O   UNL A   1      40.635  19.487  25.750  1.00  0.00    -0.744 OA
ENDBRANCH  94  95
ENDBRANCH  62  87
BRANCH  74  99
ATOM     99  C   UNL A   1      49.425  26.895  25.888  1.00  0.00     0.058 A 
ATOM    100  C   UNL A   1      49.758  27.077  24.537  1.00  0.00     0.135 A 
ATOM    101  C   UNL A   1      50.392  26.321  26.730  1.00  0.00     0.135 A 
ATOM    102  F   UNL A   1      48.866  27.614  23.687  1.00  0.00    -0.206 F 
ATOM    103  C   UNL A   1      50.999  26.700  24.036  1.00  0.00     0.059 A 
ATOM    104  C   UNL A   1      51.649  25.959  26.256  1.00  0.00     0.059 A 
ATOM    105  F   UNL A   1      50.127  26.132  28.031  1.00  0.00    -0.206 F 
ATOM    106  C   UNL A   1      51.942  26.147  24.907  1.00  0.00     0.060 A 
BRANCH 106 107
ATOM    107  S   UNL A   1      53.568  25.712  24.252  1.00  0.00     0.124 S 
ATOM    108  O   UNL A   1      53.383  25.950  22.824  1.00  0.00    -0.237 OA
ATOM    109  O   UNL A   1      54.442  26.654  24.943  1.00  0.00    -0.237 OA
ATOM    110  O   UNL A   1      53.729  24.314  24.639  1.00  0.00    -0.744 OA
ENDBRANCH 106 107
ENDBRANCH  74  99
ENDBRANCH  48  49
ENDBRANCH  40  43
ENDBRANCH  38  39
ENDBRANCH  37  38
ENDBRANCH  36  37
ENDBRANCH   1  36
TORSDOF 21
ENDMDL
