MODEL 1
REMARK VINA RESULT:     -14.9      0.000      0.000
REMARK SMILES Cc1ccccc1[C@@H]1[NH2+][C@@H](C(=O)NCCCCCCNC(=O)c2ccc(-c3c4nc(c(-c5c(F)cc(S(=O)(=O)[O-])cc5F)c5ccc([nH]5)c(-c5c(F)cc(S(=O)(=O)[O-])cc5F)c5nc(c(-c6c(F)cc(S(=O)(=O)[O-])cc6F)c6ccc3[nH]6)C=C5)C=C4)cc2)CC2=c3ccccc3=N[C@@H]21
REMARK SMILES IDX 17 1 16 2 15 3 14 4 13 5 11 6 12 7 10 9 8 10 9 11 98 12
REMARK SMILES IDX 90 15 97 16 89 17 91 18 96 19 92 20 95 21 93 22 94 23 7 24
REMARK SMILES IDX 1 25 2 26 3 27 4 28 6 29 5 30 18 31 19 32 20 33 21 34 22 36
REMARK SMILES IDX 23 37 24 38 88 39 25 40 87 41 26 42 27 43 28 44 81 45 29 46
REMARK SMILES IDX 86 47 80 48 82 49 30 50 85 51 79 52 78 53 31 55 65 56 44 57
REMARK SMILES IDX 64 58 45 59 48 60 63 61 83 62 46 63 47 64 62 66 84 67 49 68
REMARK SMILES IDX 32 69 33 70 42 71 34 72 35 73 41 74 43 75 36 76 37 77 38 78
REMARK SMILES IDX 39 79 40 80 66 81 67 82 76 83 68 84 69 85 75 86 77 87 70 88
REMARK SMILES IDX 71 89 72 90 73 91 74 92 50 93 51 94 60 95 52 96 53 97 59 98
REMARK SMILES IDX 61 99 54 100 55 101 56 102 57 103 58 104
REMARK H PARENT 13 8 9 13 9 14 20 35 82 54 48 65
REMARK Flexibility Score: inf
ROOT
ATOM      1  C   UNL A   1      32.067  29.702  26.278  1.00  0.00     0.002 C 
ENDROOT
BRANCH   1   2
ATOM      2  C   UNL A   1      31.540  28.699  27.313  1.00  0.00     0.002 C 
BRANCH   2   3
ATOM      3  C   UNL A   1      31.813  27.204  27.071  1.00  0.00     0.021 C 
BRANCH   3   4
ATOM      4  C   UNL A   1      30.785  26.376  26.264  1.00  0.00     0.116 C 
BRANCH   4   5
ATOM      5  N   UNL A   1      30.613  24.920  26.480  1.00  0.00    -0.351 N 
ATOM      6  C   UNL A   1      31.637  23.969  26.735  1.00  0.00     0.278 C 
ATOM      7  O   UNL A   1      31.461  23.017  27.489  1.00  0.00    -0.268 OA
ATOM      8  H   UNL A   1      29.692  24.575  26.442  1.00  0.00     0.163 HD
BRANCH   6   9
ATOM      9  C   UNL A   1      32.807  24.116  25.757  1.00  0.00     0.277 C 
ATOM     10  C   UNL A   1      34.303  22.375  24.685  1.00  0.00     0.243 C 
ATOM     11  N   UNL A   1      33.166  22.719  25.554  1.00  0.00    -0.327 N 
ATOM     12  C   UNL A   1      34.710  23.545  23.682  1.00  0.00     0.196 C 
ATOM     13  H   UNL A   1      33.369  22.330  26.474  1.00  0.00     0.347 HD
ATOM     14  H   UNL A   1      32.363  22.340  25.053  1.00  0.00     0.347 HD
ATOM     15  C   UNL A   1      34.446  24.936  24.321  1.00  0.00    -0.024 C 
ATOM     16  N   UNL A   1      33.902  23.581  22.431  1.00  0.00    -0.270 NA
ATOM     17  C   UNL A   1      34.077  24.960  25.814  1.00  0.00     0.109 C 
ATOM     18  C   UNL A   1      33.797  25.743  23.461  1.00  0.00     0.002 A 
ATOM     19  C   UNL A   1      33.454  24.800  22.370  1.00  0.00     0.066 A 
ATOM     20  C   UNL A   1      32.956  26.889  23.718  1.00  0.00     0.010 A 
ATOM     21  C   UNL A   1      32.454  25.286  21.384  1.00  0.00     0.028 A 
ATOM     22  C   UNL A   1      31.943  27.164  22.880  1.00  0.00     0.001 A 
ATOM     23  C   UNL A   1      31.736  26.385  21.672  1.00  0.00     0.002 A 
BRANCH  10  24
ATOM     24  C   UNL A   1      34.112  20.862  24.347  1.00  0.00     0.015 A 
ATOM     25  C   UNL A   1      36.497  20.199  24.983  1.00  0.00     0.045 C 
ATOM     26  C   UNL A   1      35.073  19.876  24.641  1.00  0.00    -0.042 A 
ATOM     27  C   UNL A   1      34.679  18.515  24.747  1.00  0.00     0.004 A 
ATOM     28  C   UNL A   1      33.358  18.106  24.573  1.00  0.00     0.000 A 
ATOM     29  C   UNL A   1      32.808  20.368  24.056  1.00  0.00     0.010 A 
ATOM     30  C   UNL A   1      32.415  19.040  24.215  1.00  0.00     0.001 A 
ENDBRANCH  10  24
ENDBRANCH   6   9
ENDBRANCH   4   5
ENDBRANCH   3   4
ENDBRANCH   2   3
ENDBRANCH   1   2
BRANCH   1  31
ATOM     31  C   UNL A   1      33.571  29.695  26.001  1.00  0.00     0.021 C 
BRANCH  31  32
ATOM     32  C   UNL A   1      34.453  29.641  27.234  1.00  0.00     0.116 C 
BRANCH  32  33
ATOM     33  N   UNL A   1      35.652  30.454  27.179  1.00  0.00    -0.352 N 
ATOM     34  C   UNL A   1      36.315  30.681  28.385  1.00  0.00     0.251 C 
ATOM     35  H   UNL A   1      35.983  30.828  26.331  1.00  0.00     0.163 HD
ATOM     36  O   UNL A   1      35.918  31.392  29.287  1.00  0.00    -0.269 OA
BRANCH  34  37
ATOM     37  C   UNL A   1      37.317  29.628  28.651  1.00  0.00     0.039 A 
ATOM     38  C   UNL A   1      37.416  28.942  29.859  1.00  0.00     0.014 A 
ATOM     39  C   UNL A   1      38.304  29.525  27.667  1.00  0.00     0.014 A 
ATOM     40  C   UNL A   1      38.583  28.221  30.125  1.00  0.00     0.010 A 
ATOM     41  C   UNL A   1      39.485  28.899  27.967  1.00  0.00     0.010 A 
ATOM     42  C   UNL A   1      39.634  28.266  29.204  1.00  0.00    -0.014 A 
BRANCH  42  43
ATOM     43  C   UNL A   1      40.956  27.690  29.395  1.00  0.00     0.031 A 
ATOM     44  C   UNL A   1      41.232  26.331  28.888  1.00  0.00     0.074 A 
ATOM     45  C   UNL A   1      41.958  28.507  29.782  1.00  0.00     0.049 A 
ATOM     46  N   UNL A   1      42.302  25.659  29.127  1.00  0.00    -0.248 NA
ATOM     47  C   UNL A   1      40.274  25.606  28.061  1.00  0.00     0.031 C 
ATOM     48  C   UNL A   1      43.393  28.288  29.650  1.00  0.00     0.029 A 
ATOM     49  N   UNL A   1      41.853  29.653  30.575  1.00  0.00    -0.354 N 
ATOM     50  C   UNL A   1      42.307  24.551  28.308  1.00  0.00     0.074 A 
ATOM     51  C   UNL A   1      40.993  24.536  27.709  1.00  0.00     0.031 C 
ATOM     52  C   UNL A   1      44.028  29.061  30.545  1.00  0.00     0.029 A 
ATOM     53  C   UNL A   1      43.012  29.671  31.385  1.00  0.00     0.049 A 
ATOM     54  H   UNL A   1      41.122  30.312  30.570  1.00  0.00     0.167 HD
ATOM     55  C   UNL A   1      43.468  23.845  28.165  1.00  0.00     0.037 A 
ATOM     56  C   UNL A   1      42.883  29.465  32.733  1.00  0.00     0.037 A 
ATOM     57  C   UNL A   1      44.487  24.348  29.093  1.00  0.00     0.049 A 
ATOM     58  C   UNL A   1      43.481  28.159  33.223  1.00  0.00     0.074 A 
ATOM     59  C   UNL A   1      45.545  25.236  28.990  1.00  0.00     0.029 A 
ATOM     60  N   UNL A   1      44.280  24.161  30.446  1.00  0.00    -0.354 N 
ATOM     61  N   UNL A   1      44.062  27.274  32.457  1.00  0.00    -0.248 NA
ATOM     62  C   UNL A   1      43.417  27.718  34.618  1.00  0.00     0.031 C 
ATOM     63  C   UNL A   1      45.908  25.644  30.309  1.00  0.00     0.029 A 
ATOM     64  C   UNL A   1      45.085  24.987  31.207  1.00  0.00     0.049 A 
ATOM     65  H   UNL A   1      43.638  23.517  30.822  1.00  0.00     0.167 HD
ATOM     66  C   UNL A   1      44.368  26.160  33.192  1.00  0.00     0.074 A 
ATOM     67  C   UNL A   1      43.971  26.494  34.547  1.00  0.00     0.031 C 
ATOM     68  C   UNL A   1      44.882  25.020  32.647  1.00  0.00     0.037 A 
BRANCH  55  69
ATOM     69  C   UNL A   1      43.769  22.833  27.071  1.00  0.00     0.058 A 
ATOM     70  C   UNL A   1      43.032  21.628  26.999  1.00  0.00     0.135 A 
ATOM     71  C   UNL A   1      44.783  22.946  26.100  1.00  0.00     0.135 A 
ATOM     72  F   UNL A   1      41.978  21.403  27.795  1.00  0.00    -0.206 F 
ATOM     73  C   UNL A   1      43.342  20.592  26.113  1.00  0.00     0.059 A 
ATOM     74  C   UNL A   1      45.145  21.906  25.236  1.00  0.00     0.059 A 
ATOM     75  F   UNL A   1      45.442  24.089  25.891  1.00  0.00    -0.206 F 
ATOM     76  C   UNL A   1      44.425  20.724  25.258  1.00  0.00     0.060 A 
BRANCH  76  77
ATOM     77  S   UNL A   1      44.860  19.354  24.171  1.00  0.00     0.124 S 
ATOM     78  O   UNL A   1      46.300  19.242  24.385  1.00  0.00    -0.237 OA
ATOM     79  O   UNL A   1      44.050  18.267  24.709  1.00  0.00    -0.237 OA
ATOM     80  O   UNL A   1      44.466  19.830  22.847  1.00  0.00    -0.744 OA
ENDBRANCH  76  77
ENDBRANCH  55  69
BRANCH  56  81
ATOM     81  C   UNL A   1      41.657  30.134  33.271  1.00  0.00     0.058 A 
ATOM     82  C   UNL A   1      41.690  31.541  33.383  1.00  0.00     0.135 A 
ATOM     83  C   UNL A   1      40.399  29.526  33.169  1.00  0.00     0.135 A 
ATOM     84  F   UNL A   1      42.866  32.174  33.523  1.00  0.00    -0.206 F 
ATOM     85  C   UNL A   1      40.554  32.318  33.175  1.00  0.00     0.059 A 
ATOM     86  C   UNL A   1      39.242  30.288  32.985  1.00  0.00     0.059 A 
ATOM     87  F   UNL A   1      40.295  28.192  33.080  1.00  0.00    -0.206 F 
ATOM     88  C   UNL A   1      39.352  31.677  32.888  1.00  0.00     0.060 A 
BRANCH  88  89
ATOM     89  S   UNL A   1      37.992  32.665  32.213  1.00  0.00     0.124 S 
ATOM     90  O   UNL A   1      38.380  32.812  30.816  1.00  0.00    -0.237 OA
ATOM     91  O   UNL A   1      36.832  31.807  32.465  1.00  0.00    -0.237 OA
ATOM     92  O   UNL A   1      38.036  33.887  33.009  1.00  0.00    -0.744 OA
ENDBRANCH  88  89
ENDBRANCH  56  81
BRANCH  68  93
ATOM     93  C   UNL A   1      45.236  23.820  33.474  1.00  0.00     0.058 A 
ATOM     94  C   UNL A   1      44.272  22.863  33.827  1.00  0.00     0.135 A 
ATOM     95  C   UNL A   1      46.515  23.671  34.048  1.00  0.00     0.135 A 
ATOM     96  F   UNL A   1      43.022  22.945  33.344  1.00  0.00    -0.206 F 
ATOM     97  C   UNL A   1      44.564  21.809  34.690  1.00  0.00     0.059 A 
ATOM     98  C   UNL A   1      46.814  22.656  34.950  1.00  0.00     0.059 A 
ATOM     99  F   UNL A   1      47.521  24.499  33.725  1.00  0.00    -0.206 F 
ATOM    100  C   UNL A   1      45.838  21.716  35.251  1.00  0.00     0.060 A 
BRANCH 100 101
ATOM    101  S   UNL A   1      46.211  20.372  36.392  1.00  0.00     0.124 S 
ATOM    102  O   UNL A   1      47.661  20.245  36.277  1.00  0.00    -0.237 OA
ATOM    103  O   UNL A   1      45.724  20.920  37.653  1.00  0.00    -0.237 OA
ATOM    104  O   UNL A   1      45.446  19.252  35.853  1.00  0.00    -0.744 OA
ENDBRANCH 100 101
ENDBRANCH  68  93
ENDBRANCH  42  43
ENDBRANCH  34  37
ENDBRANCH  32  33
ENDBRANCH  31  32
ENDBRANCH   1  31
TORSDOF 17
ENDMDL
MODEL 2
REMARK VINA RESULT:     -14.6      4.454     11.090
REMARK SMILES Cc1ccccc1[C@@H]1[NH2+][C@@H](C(=O)NCCCCCCNC(=O)c2ccc(-c3c4nc(c(-c5c(F)cc(S(=O)(=O)[O-])cc5F)c5ccc([nH]5)c(-c5c(F)cc(S(=O)(=O)[O-])cc5F)c5nc(c(-c6c(F)cc(S(=O)(=O)[O-])cc6F)c6ccc3[nH]6)C=C5)C=C4)cc2)CC2=c3ccccc3=N[C@@H]21
REMARK SMILES IDX 17 1 16 2 15 3 14 4 13 5 11 6 12 7 10 9 8 10 9 11 98 12
REMARK SMILES IDX 90 15 97 16 89 17 91 18 96 19 92 20 95 21 93 22 94 23 7 24
REMARK SMILES IDX 1 25 2 26 3 27 4 28 6 29 5 30 18 31 19 32 20 33 21 34 22 36
REMARK SMILES IDX 23 37 24 38 88 39 25 40 87 41 26 42 27 43 28 44 81 45 29 46
REMARK SMILES IDX 86 47 80 48 82 49 30 50 85 51 79 52 78 53 31 55 65 56 44 57
REMARK SMILES IDX 64 58 45 59 48 60 63 61 83 62 46 63 47 64 62 66 84 67 49 68
REMARK SMILES IDX 32 69 33 70 42 71 34 72 35 73 41 74 43 75 36 76 37 77 38 78
REMARK SMILES IDX 39 79 40 80 66 81 67 82 76 83 68 84 69 85 75 86 77 87 70 88
REMARK SMILES IDX 71 89 72 90 73 91 74 92 50 93 51 94 60 95 52 96 53 97 59 98
REMARK SMILES IDX 61 99 54 100 55 101 56 102 57 103 58 104
REMARK H PARENT 13 8 9 13 9 14 20 35 82 54 48 65
REMARK Flexibility Score: inf
ROOT
ATOM      1  C   UNL A   1      35.316  22.893  26.516  1.00  0.00     0.002 C 
ENDROOT
BRANCH   1   2
ATOM      2  C   UNL A   1      34.490  21.862  27.297  1.00  0.00     0.002 C 
BRANCH   2   3
ATOM      3  C   UNL A   1      33.042  22.230  27.665  1.00  0.00     0.021 C 
BRANCH   3   4
ATOM      4  C   UNL A   1      32.212  23.087  26.680  1.00  0.00     0.116 C 
BRANCH   4   5
ATOM      5  N   UNL A   1      31.270  24.128  27.153  1.00  0.00    -0.351 N 
ATOM      6  C   UNL A   1      30.273  24.787  26.386  1.00  0.00     0.278 C 
ATOM      7  O   UNL A   1      29.191  25.106  26.869  1.00  0.00    -0.268 OA
ATOM      8  H   UNL A   1      31.344  24.392  28.098  1.00  0.00     0.163 HD
BRANCH   6   9
ATOM      9  C   UNL A   1      30.825  25.292  25.048  1.00  0.00     0.277 C 
ATOM     10  C   UNL A   1      31.889  27.504  24.419  1.00  0.00     0.243 C 
ATOM     11  N   UNL A   1      31.296  26.615  25.432  1.00  0.00    -0.327 N 
ATOM     12  C   UNL A   1      32.390  26.732  23.117  1.00  0.00     0.196 C 
ATOM     13  H   UNL A   1      30.497  27.110  25.827  1.00  0.00     0.347 HD
ATOM     14  H   UNL A   1      32.078  26.415  26.056  1.00  0.00     0.347 HD
ATOM     15  C   UNL A   1      31.490  25.498  22.827  1.00  0.00    -0.024 C 
ATOM     16  N   UNL A   1      33.751  26.144  23.245  1.00  0.00    -0.270 NA
ATOM     17  C   UNL A   1      30.203  25.362  23.657  1.00  0.00     0.109 C 
ATOM     18  C   UNL A   1      32.240  24.409  22.575  1.00  0.00     0.002 A 
ATOM     19  C   UNL A   1      33.597  24.894  22.923  1.00  0.00     0.066 A 
ATOM     20  C   UNL A   1      31.915  23.008  22.711  1.00  0.00     0.010 A 
ATOM     21  C   UNL A   1      34.643  23.849  23.060  1.00  0.00     0.028 A 
ATOM     22  C   UNL A   1      32.886  22.134  23.025  1.00  0.00     0.001 A 
ATOM     23  C   UNL A   1      34.270  22.559  23.139  1.00  0.00     0.002 A 
BRANCH  10  24
ATOM     24  C   UNL A   1      32.664  28.588  25.233  1.00  0.00     0.015 A 
ATOM     25  C   UNL A   1      30.895  30.403  24.907  1.00  0.00     0.045 C 
ATOM     26  C   UNL A   1      32.117  29.840  25.569  1.00  0.00    -0.042 A 
ATOM     27  C   UNL A   1      32.650  30.573  26.665  1.00  0.00     0.004 A 
ATOM     28  C   UNL A   1      33.707  30.095  27.437  1.00  0.00     0.000 A 
ATOM     29  C   UNL A   1      33.820  28.213  25.976  1.00  0.00     0.010 A 
ATOM     30  C   UNL A   1      34.304  28.908  27.083  1.00  0.00     0.001 A 
ENDBRANCH  10  24
ENDBRANCH   6   9
ENDBRANCH   4   5
ENDBRANCH   3   4
ENDBRANCH   2   3
ENDBRANCH   1   2
BRANCH   1  31
ATOM     31  C   UNL A   1      36.667  22.435  25.967  1.00  0.00     0.021 C 
BRANCH  31  32
ATOM     32  C   UNL A   1      37.760  23.488  25.981  1.00  0.00     0.116 C 
BRANCH  32  33
ATOM     33  N   UNL A   1      38.553  23.548  27.193  1.00  0.00    -0.352 N 
ATOM     34  C   UNL A   1      39.810  24.144  27.095  1.00  0.00     0.251 C 
ATOM     35  H   UNL A   1      38.219  23.186  28.045  1.00  0.00     0.163 HD
ATOM     36  O   UNL A   1      40.775  23.668  26.530  1.00  0.00    -0.269 OA
BRANCH  34  37
ATOM     37  C   UNL A   1      39.734  25.598  27.345  1.00  0.00     0.039 A 
ATOM     38  C   UNL A   1      40.375  26.552  26.559  1.00  0.00     0.014 A 
ATOM     39  C   UNL A   1      39.143  25.931  28.567  1.00  0.00     0.014 A 
ATOM     40  C   UNL A   1      40.516  27.848  27.064  1.00  0.00     0.010 A 
ATOM     41  C   UNL A   1      39.366  27.173  29.101  1.00  0.00     0.010 A 
ATOM     42  C   UNL A   1      40.072  28.125  28.360  1.00  0.00    -0.014 A 
BRANCH  42  43
ATOM     43  C   UNL A   1      40.270  29.375  29.077  1.00  0.00     0.031 A 
ATOM     44  C   UNL A   1      39.183  30.374  29.102  1.00  0.00     0.074 A 
ATOM     45  C   UNL A   1      41.323  29.469  29.916  1.00  0.00     0.049 A 
ATOM     46  N   UNL A   1      39.291  31.568  29.567  1.00  0.00    -0.248 NA
ATOM     47  C   UNL A   1      37.857  30.086  28.567  1.00  0.00     0.031 C 
ATOM     48  C   UNL A   1      41.510  30.406  31.016  1.00  0.00     0.029 A 
ATOM     49  N   UNL A   1      42.558  28.824  29.795  1.00  0.00    -0.354 N 
ATOM     50  C   UNL A   1      38.029  32.118  29.637  1.00  0.00     0.074 A 
ATOM     51  C   UNL A   1      37.182  31.175  28.946  1.00  0.00     0.031 C 
ATOM     52  C   UNL A   1      42.823  30.497  31.283  1.00  0.00     0.029 A 
ATOM     53  C   UNL A   1      43.523  29.748  30.254  1.00  0.00     0.049 A 
ATOM     54  H   UNL A   1      42.720  27.914  29.460  1.00  0.00     0.167 HD
ATOM     55  C   UNL A   1      37.851  33.259  30.368  1.00  0.00     0.037 A 
ATOM     56  C   UNL A   1      44.404  30.289  29.355  1.00  0.00     0.037 A 
ATOM     57  C   UNL A   1      39.144  33.782  30.820  1.00  0.00     0.049 A 
ATOM     58  C   UNL A   1      44.206  31.774  29.105  1.00  0.00     0.074 A 
ATOM     59  C   UNL A   1      39.878  33.688  31.991  1.00  0.00     0.029 A 
ATOM     60  N   UNL A   1      40.018  34.266  29.864  1.00  0.00    -0.354 N 
ATOM     61  N   UNL A   1      43.280  32.505  29.666  1.00  0.00    -0.248 NA
ATOM     62  C   UNL A   1      45.008  32.543  28.151  1.00  0.00     0.031 C 
ATOM     63  C   UNL A   1      41.230  34.041  31.694  1.00  0.00     0.029 A 
ATOM     64  C   UNL A   1      41.307  34.369  30.352  1.00  0.00     0.049 A 
ATOM     65  H   UNL A   1      39.753  34.509  28.948  1.00  0.00     0.167 HD
ATOM     66  C   UNL A   1      43.296  33.762  29.125  1.00  0.00     0.074 A 
ATOM     67  C   UNL A   1      44.413  33.748  28.199  1.00  0.00     0.031 C 
ATOM     68  C   UNL A   1      42.374  34.721  29.428  1.00  0.00     0.037 A 
BRANCH  55  69
ATOM     69  C   UNL A   1      36.519  33.812  30.847  1.00  0.00     0.058 A 
ATOM     70  C   UNL A   1      35.554  34.250  29.910  1.00  0.00     0.135 A 
ATOM     71  C   UNL A   1      36.136  33.992  32.191  1.00  0.00     0.135 A 
ATOM     72  F   UNL A   1      35.727  34.072  28.593  1.00  0.00    -0.206 F 
ATOM     73  C   UNL A   1      34.370  34.897  30.273  1.00  0.00     0.059 A 
ATOM     74  C   UNL A   1      34.981  34.679  32.581  1.00  0.00     0.059 A 
ATOM     75  F   UNL A   1      36.828  33.460  33.203  1.00  0.00    -0.206 F 
ATOM     76  C   UNL A   1      34.107  35.141  31.612  1.00  0.00     0.060 A 
BRANCH  76  77
ATOM     77  S   UNL A   1      32.613  36.040  32.065  1.00  0.00     0.124 S 
ATOM     78  O   UNL A   1      33.105  36.948  33.098  1.00  0.00    -0.237 OA
ATOM     79  O   UNL A   1      32.232  36.660  30.802  1.00  0.00    -0.237 OA
ATOM     80  O   UNL A   1      31.714  34.991  32.542  1.00  0.00    -0.744 OA
ENDBRANCH  76  77
ENDBRANCH  55  69
BRANCH  56  81
ATOM     81  C   UNL A   1      44.847  29.275  28.348  1.00  0.00     0.058 A 
ATOM     82  C   UNL A   1      45.691  28.240  28.807  1.00  0.00     0.135 A 
ATOM     83  C   UNL A   1      44.091  29.022  27.196  1.00  0.00     0.135 A 
ATOM     84  F   UNL A   1      46.469  28.440  29.885  1.00  0.00    -0.206 F 
ATOM     85  C   UNL A   1      45.619  26.952  28.287  1.00  0.00     0.059 A 
ATOM     86  C   UNL A   1      44.024  27.742  26.642  1.00  0.00     0.059 A 
ATOM     87  F   UNL A   1      43.283  29.969  26.695  1.00  0.00    -0.206 F 
ATOM     88  C   UNL A   1      44.713  26.697  27.261  1.00  0.00     0.060 A 
BRANCH  88  89
ATOM     89  S   UNL A   1      44.317  24.973  26.874  1.00  0.00     0.124 S 
ATOM     90  O   UNL A   1      43.517  24.573  28.026  1.00  0.00    -0.237 OA
ATOM     91  O   UNL A   1      43.592  25.098  25.608  1.00  0.00    -0.237 OA
ATOM     92  O   UNL A   1      45.628  24.340  26.771  1.00  0.00    -0.744 OA
ENDBRANCH  88  89
ENDBRANCH  56  81
BRANCH  68  93
ATOM     93  C   UNL A   1      42.424  36.100  28.844  1.00  0.00     0.058 A 
ATOM     94  C   UNL A   1      41.842  36.393  27.602  1.00  0.00     0.135 A 
ATOM     95  C   UNL A   1      43.175  37.130  29.448  1.00  0.00     0.135 A 
ATOM     96  F   UNL A   1      41.130  35.462  26.946  1.00  0.00    -0.206 F 
ATOM     97  C   UNL A   1      41.984  37.641  26.997  1.00  0.00     0.059 A 
ATOM     98  C   UNL A   1      43.372  38.365  28.841  1.00  0.00     0.059 A 
ATOM     99  F   UNL A   1      43.721  36.968  30.664  1.00  0.00    -0.206 F 
ATOM    100  C   UNL A   1      42.756  38.620  27.623  1.00  0.00     0.060 A 
BRANCH 100 101
ATOM    101  S   UNL A   1      42.969  40.225  26.832  1.00  0.00     0.124 S 
ATOM    102  O   UNL A   1      41.665  40.456  26.214  1.00  0.00    -0.237 OA
ATOM    103  O   UNL A   1      43.282  41.072  27.977  1.00  0.00    -0.237 OA
ATOM    104  O   UNL A   1      44.065  39.995  25.897  1.00  0.00    -0.744 OA
ENDBRANCH 100 101
ENDBRANCH  68  93
ENDBRANCH  42  43
ENDBRANCH  34  37
ENDBRANCH  32  33
ENDBRANCH  31  32
ENDBRANCH   1  31
TORSDOF 17
ENDMDL
MODEL 3
REMARK VINA RESULT:     -14.5      4.564     11.259
REMARK SMILES Cc1ccccc1[C@@H]1[NH2+][C@@H](C(=O)NCCCCCCNC(=O)c2ccc(-c3c4nc(c(-c5c(F)cc(S(=O)(=O)[O-])cc5F)c5ccc([nH]5)c(-c5c(F)cc(S(=O)(=O)[O-])cc5F)c5nc(c(-c6c(F)cc(S(=O)(=O)[O-])cc6F)c6ccc3[nH]6)C=C5)C=C4)cc2)CC2=c3ccccc3=N[C@@H]21
REMARK SMILES IDX 17 1 16 2 15 3 14 4 13 5 11 6 12 7 10 9 8 10 9 11 98 12
REMARK SMILES IDX 90 15 97 16 89 17 91 18 96 19 92 20 95 21 93 22 94 23 7 24
REMARK SMILES IDX 1 25 2 26 3 27 4 28 6 29 5 30 18 31 19 32 20 33 21 34 22 36
REMARK SMILES IDX 23 37 24 38 88 39 25 40 87 41 26 42 27 43 28 44 81 45 29 46
REMARK SMILES IDX 86 47 80 48 82 49 30 50 85 51 79 52 78 53 31 55 65 56 44 57
REMARK SMILES IDX 64 58 45 59 48 60 63 61 83 62 46 63 47 64 62 66 84 67 49 68
REMARK SMILES IDX 32 69 33 70 42 71 34 72 35 73 41 74 43 75 36 76 37 77 38 78
REMARK SMILES IDX 39 79 40 80 66 81 67 82 76 83 68 84 69 85 75 86 77 87 70 88
REMARK SMILES IDX 71 89 72 90 73 91 74 92 50 93 51 94 60 95 52 96 53 97 59 98
REMARK SMILES IDX 61 99 54 100 55 101 56 102 57 103 58 104
REMARK H PARENT 13 8 9 13 9 14 20 35 82 54 48 65
REMARK Flexibility Score: inf
ROOT
ATOM      1  C   UNL A   1      35.993  22.069  25.760  1.00  0.00     0.002 C 
ENDROOT
BRANCH   1   2
ATOM      2  C   UNL A   1      35.420  21.753  24.373  1.00  0.00     0.002 C 
BRANCH   2   3
ATOM      3  C   UNL A   1      35.065  22.936  23.454  1.00  0.00     0.021 C 
BRANCH   3   4
ATOM      4  C   UNL A   1      33.581  23.191  23.099  1.00  0.00     0.116 C 
BRANCH   4   5
ATOM      5  N   UNL A   1      33.178  24.241  22.135  1.00  0.00    -0.351 N 
ATOM      6  C   UNL A   1      33.354  25.643  22.279  1.00  0.00     0.278 C 
ATOM      7  O   UNL A   1      33.609  26.365  21.320  1.00  0.00    -0.268 OA
ATOM      8  H   UNL A   1      32.742  23.936  21.308  1.00  0.00     0.163 HD
BRANCH   6   9
ATOM      9  C   UNL A   1      32.898  26.135  23.657  1.00  0.00     0.277 C 
ATOM     10  C   UNL A   1      31.266  27.959  24.312  1.00  0.00     0.243 C 
ATOM     11  N   UNL A   1      31.946  27.168  23.273  1.00  0.00    -0.327 N 
ATOM     12  C   UNL A   1      31.286  27.268  25.748  1.00  0.00     0.196 C 
ATOM     13  H   UNL A   1      32.449  27.828  22.682  1.00  0.00     0.347 HD
ATOM     14  H   UNL A   1      31.186  26.639  22.844  1.00  0.00     0.347 HD
ATOM     15  C   UNL A   1      32.588  26.441  25.944  1.00  0.00    -0.024 C 
ATOM     16  N   UNL A   1      30.206  26.264  25.955  1.00  0.00    -0.270 NA
ATOM     17  C   UNL A   1      33.684  26.603  24.878  1.00  0.00     0.109 C 
ATOM     18  C   UNL A   1      32.310  25.219  26.434  1.00  0.00     0.002 A 
ATOM     19  C   UNL A   1      30.831  25.190  26.339  1.00  0.00     0.066 A 
ATOM     20  C   UNL A   1      33.065  23.991  26.348  1.00  0.00     0.010 A 
ATOM     21  C   UNL A   1      30.197  23.857  26.507  1.00  0.00     0.028 A 
ATOM     22  C   UNL A   1      32.413  22.817  26.315  1.00  0.00     0.001 A 
ATOM     23  C   UNL A   1      30.969  22.757  26.458  1.00  0.00     0.002 A 
BRANCH  10  24
ATOM     24  C   UNL A   1      30.041  28.608  23.592  1.00  0.00     0.015 A 
ATOM     25  C   UNL A   1      28.674  26.450  23.512  1.00  0.00     0.045 C 
ATOM     26  C   UNL A   1      28.821  27.936  23.384  1.00  0.00    -0.042 A 
ATOM     27  C   UNL A   1      27.632  28.683  23.164  1.00  0.00     0.004 A 
ATOM     28  C   UNL A   1      27.620  30.077  23.148  1.00  0.00     0.000 A 
ATOM     29  C   UNL A   1      29.987  30.022  23.438  1.00  0.00     0.010 A 
ATOM     30  C   UNL A   1      28.810  30.753  23.277  1.00  0.00     0.001 A 
ENDBRANCH  10  24
ENDBRANCH   6   9
ENDBRANCH   4   5
ENDBRANCH   3   4
ENDBRANCH   2   3
ENDBRANCH   1   2
BRANCH   1  31
ATOM     31  C   UNL A   1      36.604  23.455  25.966  1.00  0.00     0.021 C 
BRANCH  31  32
ATOM     32  C   UNL A   1      38.120  23.507  25.911  1.00  0.00     0.116 C 
BRANCH  32  33
ATOM     33  N   UNL A   1      38.789  23.568  27.196  1.00  0.00    -0.352 N 
ATOM     34  C   UNL A   1      40.033  24.198  27.229  1.00  0.00     0.251 C 
ATOM     35  H   UNL A   1      38.383  23.185  28.006  1.00  0.00     0.163 HD
ATOM     36  O   UNL A   1      41.061  23.755  26.755  1.00  0.00    -0.269 OA
BRANCH  34  37
ATOM     37  C   UNL A   1      39.893  25.645  27.489  1.00  0.00     0.039 A 
ATOM     38  C   UNL A   1      40.432  26.634  26.668  1.00  0.00     0.014 A 
ATOM     39  C   UNL A   1      39.362  25.945  28.746  1.00  0.00     0.014 A 
ATOM     40  C   UNL A   1      40.534  27.935  27.169  1.00  0.00     0.010 A 
ATOM     41  C   UNL A   1      39.550  27.197  29.270  1.00  0.00     0.010 A 
ATOM     42  C   UNL A   1      40.156  28.186  28.491  1.00  0.00    -0.014 A 
BRANCH  42  43
ATOM     43  C   UNL A   1      40.331  29.445  29.200  1.00  0.00     0.031 A 
ATOM     44  C   UNL A   1      39.231  30.430  29.202  1.00  0.00     0.074 A 
ATOM     45  C   UNL A   1      41.372  29.559  30.051  1.00  0.00     0.049 A 
ATOM     46  N   UNL A   1      39.319  31.630  29.658  1.00  0.00    -0.248 NA
ATOM     47  C   UNL A   1      37.916  30.122  28.654  1.00  0.00     0.031 C 
ATOM     48  C   UNL A   1      41.534  30.507  31.145  1.00  0.00     0.029 A 
ATOM     49  N   UNL A   1      42.615  28.928  29.951  1.00  0.00    -0.354 N 
ATOM     50  C   UNL A   1      38.050  32.165  29.708  1.00  0.00     0.074 A 
ATOM     51  C   UNL A   1      37.223  31.206  29.015  1.00  0.00     0.031 C 
ATOM     52  C   UNL A   1      42.842  30.617  31.427  1.00  0.00     0.029 A 
ATOM     53  C   UNL A   1      43.564  29.868  30.413  1.00  0.00     0.049 A 
ATOM     54  H   UNL A   1      42.793  28.017  29.625  1.00  0.00     0.167 HD
ATOM     55  C   UNL A   1      37.849  33.310  30.427  1.00  0.00     0.037 A 
ATOM     56  C   UNL A   1      44.450  30.412  29.521  1.00  0.00     0.037 A 
ATOM     57  C   UNL A   1      39.130  33.852  30.890  1.00  0.00     0.049 A 
ATOM     58  C   UNL A   1      44.237  31.891  29.256  1.00  0.00     0.074 A 
ATOM     59  C   UNL A   1      39.850  33.777  32.071  1.00  0.00     0.029 A 
ATOM     60  N   UNL A   1      40.010  34.339  29.941  1.00  0.00    -0.354 N 
ATOM     61  N   UNL A   1      43.295  32.616  29.798  1.00  0.00    -0.248 NA
ATOM     62  C   UNL A   1      45.041  32.662  28.304  1.00  0.00     0.031 C 
ATOM     63  C   UNL A   1      41.201  34.144  31.788  1.00  0.00     0.029 A 
ATOM     64  C   UNL A   1      41.291  34.462  30.444  1.00  0.00     0.049 A 
ATOM     65  H   UNL A   1      39.753  34.570  29.020  1.00  0.00     0.167 HD
ATOM     66  C   UNL A   1      43.302  33.868  29.247  1.00  0.00     0.074 A 
ATOM     67  C   UNL A   1      44.431  33.861  28.335  1.00  0.00     0.031 C 
ATOM     68  C   UNL A   1      42.365  34.818  29.530  1.00  0.00     0.037 A 
BRANCH  55  69
ATOM     69  C   UNL A   1      36.504  33.851  30.885  1.00  0.00     0.058 A 
ATOM     70  C   UNL A   1      35.558  34.296  29.933  1.00  0.00     0.135 A 
ATOM     71  C   UNL A   1      36.093  34.012  32.223  1.00  0.00     0.135 A 
ATOM     72  F   UNL A   1      35.759  34.136  28.618  1.00  0.00    -0.206 F 
ATOM     73  C   UNL A   1      34.363  34.933  30.279  1.00  0.00     0.059 A 
ATOM     74  C   UNL A   1      34.927  34.689  32.597  1.00  0.00     0.059 A 
ATOM     75  F   UNL A   1      36.765  33.470  33.242  1.00  0.00    -0.206 F 
ATOM     76  C   UNL A   1      34.070  35.159  31.616  1.00  0.00     0.060 A 
BRANCH  76  77
ATOM     77  S   UNL A   1      32.563  36.045  32.048  1.00  0.00     0.124 S 
ATOM     78  O   UNL A   1      32.148  36.589  30.758  1.00  0.00    -0.237 OA
ATOM     79  O   UNL A   1      31.725  34.981  32.589  1.00  0.00    -0.237 OA
ATOM     80  O   UNL A   1      33.017  37.037  33.020  1.00  0.00    -0.744 OA
ENDBRANCH  76  77
ENDBRANCH  55  69
BRANCH  56  81
ATOM     81  C   UNL A   1      44.917  29.394  28.528  1.00  0.00     0.058 A 
ATOM     82  C   UNL A   1      45.810  28.405  28.995  1.00  0.00     0.135 A 
ATOM     83  C   UNL A   1      44.153  29.086  27.394  1.00  0.00     0.135 A 
ATOM     84  F   UNL A   1      46.596  28.659  30.055  1.00  0.00    -0.206 F 
ATOM     85  C   UNL A   1      45.782  27.103  28.503  1.00  0.00     0.059 A 
ATOM     86  C   UNL A   1      44.130  27.792  26.869  1.00  0.00     0.059 A 
ATOM     87  F   UNL A   1      43.300  29.988  26.887  1.00  0.00    -0.206 F 
ATOM     88  C   UNL A   1      44.871  26.790  27.499  1.00  0.00     0.060 A 
BRANCH  88  89
ATOM     89  S   UNL A   1      44.539  25.043  27.155  1.00  0.00     0.124 S 
ATOM     90  O   UNL A   1      43.771  24.638  28.326  1.00  0.00    -0.237 OA
ATOM     91  O   UNL A   1      43.793  25.111  25.896  1.00  0.00    -0.237 OA
ATOM     92  O   UNL A   1      45.873  24.461  27.047  1.00  0.00    -0.744 OA
ENDBRANCH  88  89
ENDBRANCH  56  81
BRANCH  68  93
ATOM     93  C   UNL A   1      42.406  36.193  28.935  1.00  0.00     0.058 A 
ATOM     94  C   UNL A   1      41.853  36.464  27.674  1.00  0.00     0.135 A 
ATOM     95  C   UNL A   1      43.121  37.242  29.550  1.00  0.00     0.135 A 
ATOM     96  F   UNL A   1      41.177  35.514  27.008  1.00  0.00    -0.206 F 
ATOM     97  C   UNL A   1      41.989  37.709  27.062  1.00  0.00     0.059 A 
ATOM     98  C   UNL A   1      43.311  38.475  28.937  1.00  0.00     0.059 A 
ATOM     99  F   UNL A   1      43.635  37.102  30.782  1.00  0.00    -0.206 F 
ATOM    100  C   UNL A   1      42.725  38.708  27.700  1.00  0.00     0.060 A 
BRANCH 100 101
ATOM    101  S   UNL A   1      42.930  40.310  26.899  1.00  0.00     0.124 S 
ATOM    102  O   UNL A   1      43.844  40.007  25.802  1.00  0.00    -0.237 OA
ATOM    103  O   UNL A   1      41.557  40.615  26.510  1.00  0.00    -0.237 OA
ATOM    104  O   UNL A   1      43.486  41.145  27.958  1.00  0.00    -0.744 OA
ENDBRANCH 100 101
ENDBRANCH  68  93
ENDBRANCH  42  43
ENDBRANCH  34  37
ENDBRANCH  32  33
ENDBRANCH  31  32
ENDBRANCH   1  31
TORSDOF 17
ENDMDL
