MODEL 1
REMARK VINA RESULT:     -13.6      0.000      0.000
REMARK SMILES Cc1ccccc1NC(=O)CSc1nc(C(=O)NCCCCCCNC(=O)c2ccc(-c3c4nc(c(-c5c(F)cc(S(=O)(=O)[O-])cc5F)c5ccc([nH]5)c(-c5c(F)cc(S(=O)(=O)[O-])cc5F)c5nc(c(-c6c(F)cc(S(=O)(=O)[O-])cc6F)c6ccc3[nH]6)C=C5)C=C4)cc2)c2ccccc2n1
REMARK SMILES IDX 21 1 20 2 19 3 18 4 16 5 17 6 15 8 13 9 14 10 100 11 99 12
REMARK SMILES IDX 94 13 98 14 95 15 97 16 96 17 12 18 11 19 9 20 8 21 10 23
REMARK SMILES IDX 7 24 1 25 2 26 3 27 4 28 6 29 5 30 22 31 23 32 24 33 25 34
REMARK SMILES IDX 26 35 27 37 28 38 29 39 93 40 30 41 92 42 31 43 32 44 33 45
REMARK SMILES IDX 86 46 34 47 91 48 85 49 87 50 35 51 90 52 84 53 83 54 36 56
REMARK SMILES IDX 70 57 49 58 69 59 50 60 53 61 68 62 88 63 51 64 52 65 67 67
REMARK SMILES IDX 89 68 54 69 37 70 38 71 47 72 39 73 40 74 46 75 48 76 41 77
REMARK SMILES IDX 42 78 43 79 44 80 45 81 71 82 72 83 81 84 73 85 74 86 80 87
REMARK SMILES IDX 82 88 75 89 76 90 77 91 78 92 79 93 55 94 56 95 65 96 57 97
REMARK SMILES IDX 58 98 64 99 66 100 59 101 60 102 61 103 62 104 63 105
REMARK H PARENT 18 7 8 22 25 36 87 55 53 66
REMARK Flexibility Score: inf
ROOT
ATOM      1  C   UNL A   1      32.606  29.630  25.164  1.00  0.00     0.002 C 
ENDROOT
BRANCH   1   2
ATOM      2  C   UNL A   1      31.592  29.711  24.013  1.00  0.00     0.021 C 
BRANCH   2   3
ATOM      3  C   UNL A   1      31.325  28.465  23.172  1.00  0.00     0.116 C 
BRANCH   3   4
ATOM      4  N   UNL A   1      29.981  27.926  23.215  1.00  0.00    -0.351 N 
ATOM      5  C   UNL A   1      29.553  26.649  23.550  1.00  0.00     0.270 C 
ATOM      6  O   UNL A   1      28.343  26.435  23.613  1.00  0.00    -0.267 OA
ATOM      7  H   UNL A   1      29.266  28.557  22.971  1.00  0.00     0.163 HD
BRANCH   5   8
ATOM      8  C   UNL A   1      30.513  25.508  23.754  1.00  0.00     0.140 A 
ATOM      9  C   UNL A   1      31.037  23.755  25.112  1.00  0.00     0.189 A 
ATOM     10  N   UNL A   1      30.305  24.849  24.922  1.00  0.00    -0.217 NA
ATOM     11  N   UNL A   1      31.869  23.221  24.212  1.00  0.00    -0.222 NA
ATOM     12  C   UNL A   1      32.075  23.895  23.080  1.00  0.00     0.076 A 
ATOM     13  C   UNL A   1      31.485  25.133  22.815  1.00  0.00     0.032 A 
ATOM     14  C   UNL A   1      32.907  23.331  22.121  1.00  0.00     0.029 A 
ATOM     15  C   UNL A   1      31.901  25.857  21.667  1.00  0.00     0.013 A 
ATOM     16  C   UNL A   1      33.216  23.992  20.930  1.00  0.00     0.002 A 
ATOM     17  C   UNL A   1      32.737  25.276  20.718  1.00  0.00     0.001 A 
BRANCH   9  18
ATOM     18  S   UNL A   1      30.839  22.858  26.622  1.00  0.00    -0.076 SA
BRANCH  18  19
ATOM     19  C   UNL A   1      32.372  21.887  26.617  1.00  0.00     0.178 C 
BRANCH  19  20
ATOM     20  C   UNL A   1      33.444  22.411  27.548  1.00  0.00     0.234 C 
ATOM     21  N   UNL A   1      34.731  22.687  27.201  1.00  0.00    -0.325 N 
ATOM     22  H   UNL A   1      35.262  22.982  27.976  1.00  0.00     0.169 HD
ATOM     23  O   UNL A   1      33.176  22.578  28.747  1.00  0.00    -0.274 OA
BRANCH  21  24
ATOM     24  C   UNL A   1      35.501  22.660  26.021  1.00  0.00     0.044 A 
ATOM     25  C   UNL A   1      34.643  25.027  25.381  1.00  0.00     0.046 C 
ATOM     26  C   UNL A   1      35.416  23.756  25.126  1.00  0.00    -0.027 A 
ATOM     27  C   UNL A   1      36.055  23.678  23.870  1.00  0.00     0.005 A 
ATOM     28  C   UNL A   1      36.813  22.570  23.515  1.00  0.00     0.000 A 
ATOM     29  C   UNL A   1      36.334  21.595  25.672  1.00  0.00     0.026 A 
ATOM     30  C   UNL A   1      36.973  21.539  24.428  1.00  0.00     0.002 A 
ENDBRANCH  21  24
ENDBRANCH  19  20
ENDBRANCH  18  19
ENDBRANCH   9  18
ENDBRANCH   5   8
ENDBRANCH   3   4
ENDBRANCH   2   3
ENDBRANCH   1   2
BRANCH   1  31
ATOM     31  C   UNL A   1      32.329  30.376  26.477  1.00  0.00     0.002 C 
BRANCH  31  32
ATOM     32  C   UNL A   1      33.296  30.165  27.639  1.00  0.00     0.021 C 
BRANCH  32  33
ATOM     33  C   UNL A   1      34.778  30.225  27.279  1.00  0.00     0.116 C 
BRANCH  33  34
ATOM     34  N   UNL A   1      35.507  31.227  28.052  1.00  0.00    -0.352 N 
ATOM     35  C   UNL A   1      36.691  31.075  28.768  1.00  0.00     0.251 C 
ATOM     36  H   UNL A   1      35.110  32.127  28.070  1.00  0.00     0.163 HD
ATOM     37  O   UNL A   1      37.166  31.928  29.473  1.00  0.00    -0.269 OA
BRANCH  35  38
ATOM     38  C   UNL A   1      37.417  29.808  28.531  1.00  0.00     0.039 A 
ATOM     39  C   UNL A   1      37.541  28.953  29.630  1.00  0.00     0.014 A 
ATOM     40  C   UNL A   1      38.245  29.705  27.417  1.00  0.00     0.014 A 
ATOM     41  C   UNL A   1      38.661  28.136  29.715  1.00  0.00     0.010 A 
ATOM     42  C   UNL A   1      39.396  28.949  27.540  1.00  0.00     0.010 A 
ATOM     43  C   UNL A   1      39.639  28.237  28.726  1.00  0.00    -0.014 A 
BRANCH  43  44
ATOM     44  C   UNL A   1      40.995  27.727  28.907  1.00  0.00     0.031 A 
ATOM     45  C   UNL A   1      41.296  26.323  28.567  1.00  0.00     0.074 A 
ATOM     46  C   UNL A   1      41.971  28.542  29.368  1.00  0.00     0.049 A 
ATOM     47  N   UNL A   1      42.387  25.709  28.874  1.00  0.00    -0.248 NA
ATOM     48  C   UNL A   1      40.310  25.465  27.924  1.00  0.00     0.031 C 
ATOM     49  C   UNL A   1      43.408  28.287  29.379  1.00  0.00     0.029 A 
ATOM     50  N   UNL A   1      41.809  29.668  30.185  1.00  0.00    -0.354 N 
ATOM     51  C   UNL A   1      42.358  24.469  28.279  1.00  0.00     0.074 A 
ATOM     52  C   UNL A   1      41.006  24.333  27.799  1.00  0.00     0.031 C 
ATOM     53  C   UNL A   1      43.964  29.008  30.363  1.00  0.00     0.029 A 
ATOM     54  C   UNL A   1      42.888  29.646  31.099  1.00  0.00     0.049 A 
ATOM     55  H   UNL A   1      41.091  30.339  30.134  1.00  0.00     0.167 HD
ATOM     56  C   UNL A   1      43.524  23.766  28.179  1.00  0.00     0.037 A 
ATOM     57  C   UNL A   1      42.653  29.482  32.435  1.00  0.00     0.037 A 
ATOM     58  C   UNL A   1      44.508  24.275  29.145  1.00  0.00     0.049 A 
ATOM     59  C   UNL A   1      43.187  28.188  33.020  1.00  0.00     0.074 A 
ATOM     60  C   UNL A   1      45.645  25.065  29.099  1.00  0.00     0.029 A 
ATOM     61  N   UNL A   1      44.179  24.179  30.489  1.00  0.00    -0.354 N 
ATOM     62  N   UNL A   1      43.846  27.283  32.345  1.00  0.00    -0.248 NA
ATOM     63  C   UNL A   1      42.966  27.783  34.411  1.00  0.00     0.031 C 
ATOM     64  C   UNL A   1      45.937  25.504  30.432  1.00  0.00     0.029 A 
ATOM     65  C   UNL A   1      44.993  24.960  31.284  1.00  0.00     0.049 A 
ATOM     66  H   UNL A   1      43.449  23.618  30.836  1.00  0.00     0.167 HD
ATOM     67  C   UNL A   1      44.089  26.198  33.147  1.00  0.00     0.074 A 
ATOM     68  C   UNL A   1      43.537  26.566  34.438  1.00  0.00     0.031 C 
ATOM     69  C   UNL A   1      44.684  25.052  32.704  1.00  0.00     0.037 A 
BRANCH  56  70
ATOM     70  C   UNL A   1      43.822  22.756  27.074  1.00  0.00     0.058 A 
ATOM     71  C   UNL A   1      43.016  21.605  26.921  1.00  0.00     0.135 A 
ATOM     72  C   UNL A   1      44.948  22.777  26.221  1.00  0.00     0.135 A 
ATOM     73  F   UNL A   1      41.885  21.447  27.623  1.00  0.00    -0.206 F 
ATOM     74  C   UNL A   1      43.346  20.544  26.063  1.00  0.00     0.059 A 
ATOM     75  C   UNL A   1      45.306  21.729  25.374  1.00  0.00     0.059 A 
ATOM     76  F   UNL A   1      45.775  23.817  26.137  1.00  0.00    -0.206 F 
ATOM     77  C   UNL A   1      44.513  20.602  25.313  1.00  0.00     0.060 A 
BRANCH  77  78
ATOM     78  S   UNL A   1      44.998  19.210  24.279  1.00  0.00     0.124 S 
ATOM     79  O   UNL A   1      46.450  19.212  24.431  1.00  0.00    -0.237 OA
ATOM     80  O   UNL A   1      44.290  18.100  24.906  1.00  0.00    -0.237 OA
ATOM     81  O   UNL A   1      44.516  19.586  22.951  1.00  0.00    -0.744 OA
ENDBRANCH  77  78
ENDBRANCH  56  70
BRANCH  57  82
ATOM     82  C   UNL A   1      41.474  30.261  32.903  1.00  0.00     0.058 A 
ATOM     83  C   UNL A   1      40.267  29.555  33.094  1.00  0.00     0.135 A 
ATOM     84  C   UNL A   1      41.597  31.505  33.533  1.00  0.00     0.135 A 
ATOM     85  F   UNL A   1      40.086  28.364  32.499  1.00  0.00    -0.206 F 
ATOM     86  C   UNL A   1      39.295  29.987  33.989  1.00  0.00     0.059 A 
ATOM     87  C   UNL A   1      40.630  31.961  34.432  1.00  0.00     0.059 A 
ATOM     88  F   UNL A   1      42.716  32.228  33.382  1.00  0.00    -0.206 F 
ATOM     89  C   UNL A   1      39.517  31.161  34.702  1.00  0.00     0.060 A 
BRANCH  89  90
ATOM     90  S   UNL A   1      38.391  31.553  36.063  1.00  0.00     0.124 S 
ATOM     91  O   UNL A   1      39.178  32.496  36.849  1.00  0.00    -0.237 OA
ATOM     92  O   UNL A   1      37.251  32.127  35.349  1.00  0.00    -0.237 OA
ATOM     93  O   UNL A   1      38.158  30.253  36.682  1.00  0.00    -0.744 OA
ENDBRANCH  89  90
ENDBRANCH  57  82
BRANCH  69  94
ATOM     94  C   UNL A   1      44.994  23.893  33.611  1.00  0.00     0.058 A 
ATOM     95  C   UNL A   1      46.252  23.739  34.215  1.00  0.00     0.135 A 
ATOM     96  C   UNL A   1      44.081  22.833  33.785  1.00  0.00     0.135 A 
ATOM     97  F   UNL A   1      47.196  24.684  34.081  1.00  0.00    -0.206 F 
ATOM     98  C   UNL A   1      46.581  22.606  34.962  1.00  0.00     0.059 A 
ATOM     99  C   UNL A   1      44.403  21.673  34.486  1.00  0.00     0.059 A 
ATOM    100  F   UNL A   1      42.833  22.903  33.298  1.00  0.00    -0.206 F 
ATOM    101  C   UNL A   1      45.652  21.575  35.087  1.00  0.00     0.060 A 
BRANCH 101 102
ATOM    102  S   UNL A   1      46.082  20.085  36.007  1.00  0.00     0.124 S 
ATOM    103  O   UNL A   1      47.515  19.952  35.757  1.00  0.00    -0.237 OA
ATOM    104  O   UNL A   1      45.711  20.466  37.366  1.00  0.00    -0.237 OA
ATOM    105  O   UNL A   1      45.249  19.058  35.389  1.00  0.00    -0.744 OA
ENDBRANCH 101 102
ENDBRANCH  69  94
ENDBRANCH  43  44
ENDBRANCH  35  38
ENDBRANCH  33  34
ENDBRANCH  32  33
ENDBRANCH  31  32
ENDBRANCH   1  31
TORSDOF 20
ENDMDL
MODEL 2
REMARK VINA RESULT:     -12.5      2.648      3.738
REMARK SMILES Cc1ccccc1NC(=O)CSc1nc(C(=O)NCCCCCCNC(=O)c2ccc(-c3c4nc(c(-c5c(F)cc(S(=O)(=O)[O-])cc5F)c5ccc([nH]5)c(-c5c(F)cc(S(=O)(=O)[O-])cc5F)c5nc(c(-c6c(F)cc(S(=O)(=O)[O-])cc6F)c6ccc3[nH]6)C=C5)C=C4)cc2)c2ccccc2n1
REMARK SMILES IDX 21 1 20 2 19 3 18 4 16 5 17 6 15 8 13 9 14 10 100 11 99 12
REMARK SMILES IDX 94 13 98 14 95 15 97 16 96 17 12 18 11 19 9 20 8 21 10 23
REMARK SMILES IDX 7 24 1 25 2 26 3 27 4 28 6 29 5 30 22 31 23 32 24 33 25 34
REMARK SMILES IDX 26 35 27 37 28 38 29 39 93 40 30 41 92 42 31 43 32 44 33 45
REMARK SMILES IDX 86 46 34 47 91 48 85 49 87 50 35 51 90 52 84 53 83 54 36 56
REMARK SMILES IDX 70 57 49 58 69 59 50 60 53 61 68 62 88 63 51 64 52 65 67 67
REMARK SMILES IDX 89 68 54 69 37 70 38 71 47 72 39 73 40 74 46 75 48 76 41 77
REMARK SMILES IDX 42 78 43 79 44 80 45 81 71 82 72 83 81 84 73 85 74 86 80 87
REMARK SMILES IDX 82 88 75 89 76 90 77 91 78 92 79 93 55 94 56 95 65 96 57 97
REMARK SMILES IDX 58 98 64 99 66 100 59 101 60 102 61 103 62 104 63 105
REMARK H PARENT 18 7 8 22 25 36 87 55 53 66
REMARK Flexibility Score: inf
ROOT
ATOM      1  C   UNL A   1      33.990  28.646  24.658  1.00  0.00     0.002 C 
ENDROOT
BRANCH   1   2
ATOM      2  C   UNL A   1      34.518  28.949  23.248  1.00  0.00     0.021 C 
BRANCH   2   3
ATOM      3  C   UNL A   1      34.133  28.022  22.098  1.00  0.00     0.116 C 
BRANCH   3   4
ATOM      4  N   UNL A   1      32.724  27.942  21.770  1.00  0.00    -0.351 N 
ATOM      5  C   UNL A   1      31.744  27.108  22.289  1.00  0.00     0.270 C 
ATOM      6  O   UNL A   1      30.579  27.279  21.930  1.00  0.00    -0.267 OA
ATOM      7  H   UNL A   1      32.416  28.570  21.077  1.00  0.00     0.163 HD
BRANCH   5   8
ATOM      8  C   UNL A   1      32.070  25.959  23.205  1.00  0.00     0.140 A 
ATOM      9  C   UNL A   1      33.668  24.428  23.751  1.00  0.00     0.189 A 
ATOM     10  N   UNL A   1      33.257  25.372  22.908  1.00  0.00    -0.217 NA
ATOM     11  N   UNL A   1      33.054  24.098  24.892  1.00  0.00    -0.222 NA
ATOM     12  C   UNL A   1      31.879  24.671  25.154  1.00  0.00     0.076 A 
ATOM     13  C   UNL A   1      31.261  25.569  24.282  1.00  0.00     0.032 A 
ATOM     14  C   UNL A   1      31.250  24.364  26.355  1.00  0.00     0.029 A 
ATOM     15  C   UNL A   1      29.933  25.989  24.559  1.00  0.00     0.013 A 
ATOM     16  C   UNL A   1      29.996  24.881  26.685  1.00  0.00     0.002 A 
ATOM     17  C   UNL A   1      29.319  25.670  25.767  1.00  0.00     0.001 A 
BRANCH   9  18
ATOM     18  S   UNL A   1      35.193  23.601  23.417  1.00  0.00    -0.076 SA
BRANCH  18  19
ATOM     19  C   UNL A   1      34.702  21.885  23.745  1.00  0.00     0.178 C 
BRANCH  19  20
ATOM     20  C   UNL A   1      35.527  21.194  24.809  1.00  0.00     0.234 C 
ATOM     21  N   UNL A   1      35.400  19.894  25.193  1.00  0.00    -0.325 N 
ATOM     22  H   UNL A   1      36.015  19.670  25.929  1.00  0.00     0.169 HD
ATOM     23  O   UNL A   1      36.375  21.846  25.436  1.00  0.00    -0.274 OA
BRANCH  21  24
ATOM     24  C   UNL A   1      34.616  18.787  24.813  1.00  0.00     0.044 A 
ATOM     25  C   UNL A   1      32.452  20.065  25.471  1.00  0.00     0.046 C 
ATOM     26  C   UNL A   1      33.212  18.851  24.996  1.00  0.00    -0.027 A 
ATOM     27  C   UNL A   1      32.429  17.699  24.768  1.00  0.00     0.005 A 
ATOM     28  C   UNL A   1      33.001  16.518  24.313  1.00  0.00     0.000 A 
ATOM     29  C   UNL A   1      35.153  17.613  24.278  1.00  0.00     0.026 A 
ATOM     30  C   UNL A   1      34.360  16.484  24.044  1.00  0.00     0.002 A 
ENDBRANCH  21  24
ENDBRANCH  19  20
ENDBRANCH  18  19
ENDBRANCH   9  18
ENDBRANCH   5   8
ENDBRANCH   3   4
ENDBRANCH   2   3
ENDBRANCH   1   2
BRANCH   1  31
ATOM     31  C   UNL A   1      32.703  29.321  25.152  1.00  0.00     0.002 C 
BRANCH  31  32
ATOM     32  C   UNL A   1      32.121  28.864  26.487  1.00  0.00     0.021 C 
BRANCH  32  33
ATOM     33  C   UNL A   1      32.898  29.299  27.726  1.00  0.00     0.116 C 
BRANCH  33  34
ATOM     34  N   UNL A   1      33.422  30.659  27.615  1.00  0.00    -0.352 N 
ATOM     35  C   UNL A   1      34.696  31.124  27.928  1.00  0.00     0.251 C 
ATOM     36  H   UNL A   1      32.791  31.334  27.276  1.00  0.00     0.163 HD
ATOM     37  O   UNL A   1      35.010  32.286  27.914  1.00  0.00    -0.269 OA
BRANCH  35  38
ATOM     38  C   UNL A   1      35.707  30.077  28.187  1.00  0.00     0.039 A 
ATOM     39  C   UNL A   1      35.921  29.743  29.528  1.00  0.00     0.014 A 
ATOM     40  C   UNL A   1      36.635  29.776  27.194  1.00  0.00     0.014 A 
ATOM     41  C   UNL A   1      37.184  29.314  29.914  1.00  0.00     0.010 A 
ATOM     42  C   UNL A   1      37.910  29.423  27.593  1.00  0.00     0.010 A 
ATOM     43  C   UNL A   1      38.199  29.279  28.960  1.00  0.00    -0.014 A 
BRANCH  43  44
ATOM     44  C   UNL A   1      39.613  29.218  29.318  1.00  0.00     0.031 A 
ATOM     45  C   UNL A   1      40.377  27.982  29.059  1.00  0.00     0.074 A 
ATOM     46  C   UNL A   1      40.221  30.292  29.869  1.00  0.00     0.049 A 
ATOM     47  N   UNL A   1      41.558  27.737  29.514  1.00  0.00    -0.248 NA
ATOM     48  C   UNL A   1      39.795  26.864  28.327  1.00  0.00     0.031 C 
ATOM     49  C   UNL A   1      41.653  30.500  30.061  1.00  0.00     0.029 A 
ATOM     50  N   UNL A   1      39.616  31.304  30.627  1.00  0.00    -0.354 N 
ATOM     51  C   UNL A   1      41.991  26.556  28.956  1.00  0.00     0.074 A 
ATOM     52  C   UNL A   1      40.820  26.009  28.321  1.00  0.00     0.031 C 
ATOM     53  C   UNL A   1      41.829  31.350  31.083  1.00  0.00     0.029 A 
ATOM     54  C   UNL A   1      40.526  31.612  31.665  1.00  0.00     0.049 A 
ATOM     55  H   UNL A   1      38.737  31.716  30.470  1.00  0.00     0.167 HD
ATOM     56  C   UNL A   1      43.321  26.255  29.019  1.00  0.00     0.037 A 
ATOM     57  C   UNL A   1      40.190  31.370  32.966  1.00  0.00     0.037 A 
ATOM     58  C   UNL A   1      43.969  27.037  30.081  1.00  0.00     0.049 A 
ATOM     59  C   UNL A   1      41.024  30.302  33.650  1.00  0.00     0.074 A 
ATOM     60  C   UNL A   1      44.800  28.144  30.150  1.00  0.00     0.029 A 
ATOM     61  N   UNL A   1      43.523  26.830  31.378  1.00  0.00    -0.354 N 
ATOM     62  N   UNL A   1      42.010  29.656  33.087  1.00  0.00    -0.248 NA
ATOM     63  C   UNL A   1      40.769  29.835  35.015  1.00  0.00     0.031 C 
ATOM     64  C   UNL A   1      44.773  28.639  31.494  1.00  0.00     0.029 A 
ATOM     65  C   UNL A   1      43.947  27.819  32.242  1.00  0.00     0.049 A 
ATOM     66  H   UNL A   1      42.967  26.065  31.651  1.00  0.00     0.167 HD
ATOM     67  C   UNL A   1      42.478  28.694  33.944  1.00  0.00     0.074 A 
ATOM     68  C   UNL A   1      41.684  28.858  35.148  1.00  0.00     0.031 C 
ATOM     69  C   UNL A   1      43.451  27.796  33.611  1.00  0.00     0.037 A 
BRANCH  56  70
ATOM     70  C   UNL A   1      44.054  25.400  27.989  1.00  0.00     0.058 A 
ATOM     71  C   UNL A   1      44.153  25.828  26.645  1.00  0.00     0.135 A 
ATOM     72  C   UNL A   1      44.564  24.102  28.209  1.00  0.00     0.135 A 
ATOM     73  F   UNL A   1      43.755  27.052  26.272  1.00  0.00    -0.206 F 
ATOM     74  C   UNL A   1      44.635  25.009  25.612  1.00  0.00     0.059 A 
ATOM     75  C   UNL A   1      45.032  23.263  27.198  1.00  0.00     0.059 A 
ATOM     76  F   UNL A   1      44.658  23.555  29.420  1.00  0.00    -0.206 F 
ATOM     77  C   UNL A   1      45.046  23.713  25.894  1.00  0.00     0.060 A 
BRANCH  77  78
ATOM     78  S   UNL A   1      45.579  22.619  24.566  1.00  0.00     0.124 S 
ATOM     79  O   UNL A   1      46.220  21.536  25.306  1.00  0.00    -0.237 OA
ATOM     80  O   UNL A   1      44.316  22.290  23.914  1.00  0.00    -0.237 OA
ATOM     81  O   UNL A   1      46.487  23.453  23.781  1.00  0.00    -0.744 OA
ENDBRANCH  77  78
ENDBRANCH  56  70
BRANCH  57  82
ATOM     82  C   UNL A   1      38.778  31.735  33.266  1.00  0.00     0.058 A 
ATOM     83  C   UNL A   1      38.467  33.109  33.343  1.00  0.00     0.135 A 
ATOM     84  C   UNL A   1      37.715  30.846  33.070  1.00  0.00     0.135 A 
ATOM     85  F   UNL A   1      39.446  34.006  33.547  1.00  0.00    -0.206 F 
ATOM     86  C   UNL A   1      37.190  33.591  33.083  1.00  0.00     0.059 A 
ATOM     87  C   UNL A   1      36.422  31.307  32.812  1.00  0.00     0.059 A 
ATOM     88  F   UNL A   1      37.944  29.526  32.998  1.00  0.00    -0.206 F 
ATOM     89  C   UNL A   1      36.187  32.683  32.755  1.00  0.00     0.060 A 
BRANCH  89  90
ATOM     90  S   UNL A   1      34.618  33.340  32.139  1.00  0.00     0.124 S 
ATOM     91  O   UNL A   1      34.968  34.720  31.820  1.00  0.00    -0.237 OA
ATOM     92  O   UNL A   1      34.364  32.474  30.988  1.00  0.00    -0.237 OA
ATOM     93  O   UNL A   1      33.718  33.162  33.273  1.00  0.00    -0.744 OA
ENDBRANCH  89  90
ENDBRANCH  57  82
BRANCH  69  94
ATOM     94  C   UNL A   1      43.993  26.784  34.582  1.00  0.00     0.058 A 
ATOM     95  C   UNL A   1      45.314  26.841  35.056  1.00  0.00     0.135 A 
ATOM     96  C   UNL A   1      43.242  25.650  34.955  1.00  0.00     0.135 A 
ATOM     97  F   UNL A   1      46.112  27.870  34.731  1.00  0.00    -0.206 F 
ATOM     98  C   UNL A   1      45.854  25.840  35.866  1.00  0.00     0.059 A 
ATOM     99  C   UNL A   1      43.775  24.617  35.722  1.00  0.00     0.059 A 
ATOM    100  F   UNL A   1      41.954  25.524  34.604  1.00  0.00    -0.206 F 
ATOM    101  C   UNL A   1      45.079  24.728  36.188  1.00  0.00     0.060 A 
BRANCH 101 102
ATOM    102  S   UNL A   1      45.781  23.404  37.191  1.00  0.00     0.124 S 
ATOM    103  O   UNL A   1      45.293  23.719  38.531  1.00  0.00    -0.237 OA
ATOM    104  O   UNL A   1      45.192  22.224  36.567  1.00  0.00    -0.237 OA
ATOM    105  O   UNL A   1      47.220  23.569  37.002  1.00  0.00    -0.744 OA
ENDBRANCH 101 102
ENDBRANCH  69  94
ENDBRANCH  43  44
ENDBRANCH  35  38
ENDBRANCH  33  34
ENDBRANCH  32  33
ENDBRANCH  31  32
ENDBRANCH   1  31
TORSDOF 20
ENDMDL
MODEL 3
REMARK VINA RESULT:     -12.3      4.793      8.722
REMARK SMILES Cc1ccccc1NC(=O)CSc1nc(C(=O)NCCCCCCNC(=O)c2ccc(-c3c4nc(c(-c5c(F)cc(S(=O)(=O)[O-])cc5F)c5ccc([nH]5)c(-c5c(F)cc(S(=O)(=O)[O-])cc5F)c5nc(c(-c6c(F)cc(S(=O)(=O)[O-])cc6F)c6ccc3[nH]6)C=C5)C=C4)cc2)c2ccccc2n1
REMARK SMILES IDX 21 1 20 2 19 3 18 4 16 5 17 6 15 8 13 9 14 10 100 11 99 12
REMARK SMILES IDX 94 13 98 14 95 15 97 16 96 17 12 18 11 19 9 20 8 21 10 23
REMARK SMILES IDX 7 24 1 25 2 26 3 27 4 28 6 29 5 30 22 31 23 32 24 33 25 34
REMARK SMILES IDX 26 35 27 37 28 38 29 39 93 40 30 41 92 42 31 43 32 44 33 45
REMARK SMILES IDX 86 46 34 47 91 48 85 49 87 50 35 51 90 52 84 53 83 54 36 56
REMARK SMILES IDX 70 57 49 58 69 59 50 60 53 61 68 62 88 63 51 64 52 65 67 67
REMARK SMILES IDX 89 68 54 69 37 70 38 71 47 72 39 73 40 74 46 75 48 76 41 77
REMARK SMILES IDX 42 78 43 79 44 80 45 81 71 82 72 83 81 84 73 85 74 86 80 87
REMARK SMILES IDX 82 88 75 89 76 90 77 91 78 92 79 93 55 94 56 95 65 96 57 97
REMARK SMILES IDX 58 98 64 99 66 100 59 101 60 102 61 103 62 104 63 105
REMARK H PARENT 18 7 8 22 25 36 87 55 53 66
REMARK Flexibility Score: inf
ROOT
ATOM      1  C   UNL A   1      41.297  34.371  31.114  1.00  0.00     0.002 C 
ENDROOT
BRANCH   1   2
ATOM      2  C   UNL A   1      41.768  34.953  32.455  1.00  0.00     0.021 C 
BRANCH   2   3
ATOM      3  C   UNL A   1      43.210  35.438  32.587  1.00  0.00     0.116 C 
BRANCH   3   4
ATOM      4  N   UNL A   1      43.612  36.527  31.719  1.00  0.00    -0.351 N 
ATOM      5  C   UNL A   1      44.396  36.499  30.575  1.00  0.00     0.270 C 
ATOM      6  O   UNL A   1      44.532  37.540  29.933  1.00  0.00    -0.267 OA
ATOM      7  H   UNL A   1      43.281  37.417  31.980  1.00  0.00     0.163 HD
BRANCH   5   8
ATOM      8  C   UNL A   1      45.146  35.267  30.146  1.00  0.00     0.140 A 
ATOM      9  C   UNL A   1      45.146  33.521  28.682  1.00  0.00     0.189 A 
ATOM     10  N   UNL A   1      44.488  34.556  29.196  1.00  0.00    -0.217 NA
ATOM     11  N   UNL A   1      46.416  33.204  28.958  1.00  0.00    -0.222 NA
ATOM     12  C   UNL A   1      47.038  33.903  29.908  1.00  0.00     0.076 A 
ATOM     13  C   UNL A   1      46.414  34.919  30.634  1.00  0.00     0.032 A 
ATOM     14  C   UNL A   1      48.369  33.608  30.177  1.00  0.00     0.029 A 
ATOM     15  C   UNL A   1      47.096  35.484  31.744  1.00  0.00     0.013 A 
ATOM     16  C   UNL A   1      49.079  34.256  31.189  1.00  0.00     0.002 A 
ATOM     17  C   UNL A   1      48.429  35.175  31.999  1.00  0.00     0.001 A 
BRANCH   9  18
ATOM     18  S   UNL A   1      44.343  32.532  27.458  1.00  0.00    -0.076 SA
BRANCH  18  19
ATOM     19  C   UNL A   1      45.221  30.960  27.693  1.00  0.00     0.178 C 
BRANCH  19  20
ATOM     20  C   UNL A   1      45.998  30.493  26.481  1.00  0.00     0.234 C 
ATOM     21  N   UNL A   1      45.691  29.416  25.708  1.00  0.00    -0.325 N 
ATOM     22  H   UNL A   1      46.356  29.278  24.996  1.00  0.00     0.169 HD
ATOM     23  O   UNL A   1      47.032  31.096  26.157  1.00  0.00    -0.274 OA
BRANCH  21  24
ATOM     24  C   UNL A   1      44.670  28.447  25.663  1.00  0.00     0.044 A 
ATOM     25  C   UNL A   1      46.442  26.554  25.501  1.00  0.00     0.046 C 
ATOM     26  C   UNL A   1      45.029  27.084  25.510  1.00  0.00    -0.027 A 
ATOM     27  C   UNL A   1      44.020  26.118  25.307  1.00  0.00     0.005 A 
ATOM     28  C   UNL A   1      42.676  26.469  25.310  1.00  0.00     0.000 A 
ATOM     29  C   UNL A   1      43.310  28.759  25.742  1.00  0.00     0.026 A 
ATOM     30  C   UNL A   1      42.321  27.787  25.552  1.00  0.00     0.002 A 
ENDBRANCH  21  24
ENDBRANCH  19  20
ENDBRANCH  18  19
ENDBRANCH   9  18
ENDBRANCH   5   8
ENDBRANCH   3   4
ENDBRANCH   2   3
ENDBRANCH   1   2
BRANCH   1  31
ATOM     31  C   UNL A   1      39.795  34.253  30.820  1.00  0.00     0.002 C 
BRANCH  31  32
ATOM     32  C   UNL A   1      39.081  32.971  31.239  1.00  0.00     0.021 C 
BRANCH  32  33
ATOM     33  C   UNL A   1      38.779  31.988  30.111  1.00  0.00     0.116 C 
BRANCH  33  34
ATOM     34  N   UNL A   1      37.367  31.976  29.735  1.00  0.00    -0.352 N 
ATOM     35  C   UNL A   1      36.685  31.038  28.965  1.00  0.00     0.251 C 
ATOM     36  H   UNL A   1      36.828  32.728  30.070  1.00  0.00     0.163 HD
ATOM     37  O   UNL A   1      35.542  31.164  28.607  1.00  0.00    -0.269 OA
BRANCH  35  38
ATOM     38  C   UNL A   1      37.425  29.789  28.684  1.00  0.00     0.039 A 
ATOM     39  C   UNL A   1      37.555  28.895  29.751  1.00  0.00     0.014 A 
ATOM     40  C   UNL A   1      38.258  29.736  27.570  1.00  0.00     0.014 A 
ATOM     41  C   UNL A   1      38.684  28.088  29.810  1.00  0.00     0.010 A 
ATOM     42  C   UNL A   1      39.416  28.989  27.669  1.00  0.00     0.010 A 
ATOM     43  C   UNL A   1      39.663  28.236  28.829  1.00  0.00    -0.014 A 
BRANCH  43  44
ATOM     44  C   UNL A   1      41.025  27.735  28.995  1.00  0.00     0.031 A 
ATOM     45  C   UNL A   1      41.331  26.333  28.651  1.00  0.00     0.074 A 
ATOM     46  C   UNL A   1      42.000  28.555  29.447  1.00  0.00     0.049 A 
ATOM     47  N   UNL A   1      42.429  25.726  28.947  1.00  0.00    -0.248 NA
ATOM     48  C   UNL A   1      40.344  25.469  28.018  1.00  0.00     0.031 C 
ATOM     49  C   UNL A   1      43.439  28.310  29.444  1.00  0.00     0.029 A 
ATOM     50  N   UNL A   1      41.840  29.680  30.267  1.00  0.00    -0.354 N 
ATOM     51  C   UNL A   1      42.402  24.486  28.351  1.00  0.00     0.074 A 
ATOM     52  C   UNL A   1      41.047  24.342  27.885  1.00  0.00     0.031 C 
ATOM     53  C   UNL A   1      44.000  29.034  30.422  1.00  0.00     0.029 A 
ATOM     54  C   UNL A   1      42.927  29.664  31.170  1.00  0.00     0.049 A 
ATOM     55  H   UNL A   1      41.116  30.346  30.224  1.00  0.00     0.167 HD
ATOM     56  C   UNL A   1      43.571  23.791  28.239  1.00  0.00     0.037 A 
ATOM     57  C   UNL A   1      42.707  29.498  32.508  1.00  0.00     0.037 A 
ATOM     58  C   UNL A   1      44.562  24.306  29.195  1.00  0.00     0.049 A 
ATOM     59  C   UNL A   1      43.255  28.207  33.087  1.00  0.00     0.074 A 
ATOM     60  C   UNL A   1      45.694  25.102  29.139  1.00  0.00     0.029 A 
ATOM     61  N   UNL A   1      44.248  24.206  30.542  1.00  0.00    -0.354 N 
ATOM     62  N   UNL A   1      43.913  27.307  32.404  1.00  0.00    -0.248 NA
ATOM     63  C   UNL A   1      43.051  27.799  34.479  1.00  0.00     0.031 C 
ATOM     64  C   UNL A   1      45.996  25.542  30.468  1.00  0.00     0.029 A 
ATOM     65  C   UNL A   1      45.064  24.992  31.330  1.00  0.00     0.049 A 
ATOM     66  H   UNL A   1      43.524  23.640  30.896  1.00  0.00     0.167 HD
ATOM     67  C   UNL A   1      44.171  26.223  33.202  1.00  0.00     0.074 A 
ATOM     68  C   UNL A   1      43.630  26.586  34.500  1.00  0.00     0.031 C 
ATOM     69  C   UNL A   1      44.769  25.080  32.753  1.00  0.00     0.037 A 
BRANCH  56  70
ATOM     70  C   UNL A   1      43.865  22.784  27.131  1.00  0.00     0.058 A 
ATOM     71  C   UNL A   1      42.981  21.707  26.889  1.00  0.00     0.135 A 
ATOM     72  C   UNL A   1      45.047  22.729  26.359  1.00  0.00     0.135 A 
ATOM     73  F   UNL A   1      41.794  21.629  27.506  1.00  0.00    -0.206 F 
ATOM     74  C   UNL A   1      43.284  20.641  26.028  1.00  0.00     0.059 A 
ATOM     75  C   UNL A   1      45.379  21.673  25.510  1.00  0.00     0.059 A 
ATOM     76  F   UNL A   1      45.960  23.699  26.361  1.00  0.00    -0.206 F 
ATOM     77  C   UNL A   1      44.503  20.618  25.363  1.00  0.00     0.060 A 
BRANCH  77  78
ATOM     78  S   UNL A   1      44.946  19.213  24.327  1.00  0.00     0.124 S 
ATOM     79  O   UNL A   1      46.405  19.241  24.387  1.00  0.00    -0.237 OA
ATOM     80  O   UNL A   1      44.298  18.105  25.020  1.00  0.00    -0.237 OA
ATOM     81  O   UNL A   1      44.375  19.555  23.026  1.00  0.00    -0.744 OA
ENDBRANCH  77  78
ENDBRANCH  56  70
BRANCH  57  82
ATOM     82  C   UNL A   1      41.528  30.268  32.989  1.00  0.00     0.058 A 
ATOM     83  C   UNL A   1      40.312  29.568  33.132  1.00  0.00     0.135 A 
ATOM     84  C   UNL A   1      41.652  31.485  33.670  1.00  0.00     0.135 A 
ATOM     85  F   UNL A   1      40.129  28.404  32.487  1.00  0.00    -0.206 F 
ATOM     86  C   UNL A   1      39.329  29.972  34.028  1.00  0.00     0.059 A 
ATOM     87  C   UNL A   1      40.675  31.914  34.572  1.00  0.00     0.059 A 
ATOM     88  F   UNL A   1      42.780  32.203  33.566  1.00  0.00    -0.206 F 
ATOM     89  C   UNL A   1      39.551  31.115  34.791  1.00  0.00     0.060 A 
BRANCH  89  90
ATOM     90  S   UNL A   1      38.406  31.463  36.149  1.00  0.00     0.124 S 
ATOM     91  O   UNL A   1      39.162  32.421  36.948  1.00  0.00    -0.237 OA
ATOM     92  O   UNL A   1      37.254  32.010  35.434  1.00  0.00    -0.237 OA
ATOM     93  O   UNL A   1      38.208  30.152  36.757  1.00  0.00    -0.744 OA
ENDBRANCH  89  90
ENDBRANCH  57  82
BRANCH  69  94
ATOM     94  C   UNL A   1      45.096  23.923  33.655  1.00  0.00     0.058 A 
ATOM     95  C   UNL A   1      46.386  23.728  34.176  1.00  0.00     0.135 A 
ATOM     96  C   UNL A   1      44.157  22.902  33.908  1.00  0.00     0.135 A 
ATOM     97  F   UNL A   1      47.353  24.634  33.963  1.00  0.00    -0.206 F 
ATOM     98  C   UNL A   1      46.721  22.594  34.918  1.00  0.00     0.059 A 
ATOM     99  C   UNL A   1      44.481  21.741  34.605  1.00  0.00     0.059 A 
ATOM    100  F   UNL A   1      42.883  23.015  33.506  1.00  0.00    -0.206 F 
ATOM    101  C   UNL A   1      45.764  21.602  35.122  1.00  0.00     0.060 A 
BRANCH 101 102
ATOM    102  S   UNL A   1      46.198  20.108  36.036  1.00  0.00     0.124 S 
ATOM    103  O   UNL A   1      45.809  20.441  37.403  1.00  0.00    -0.237 OA
ATOM    104  O   UNL A   1      45.369  19.110  35.369  1.00  0.00    -0.237 OA
ATOM    105  O   UNL A   1      47.636  19.988  35.814  1.00  0.00    -0.744 OA
ENDBRANCH 101 102
ENDBRANCH  69  94
ENDBRANCH  43  44
ENDBRANCH  35  38
ENDBRANCH  33  34
ENDBRANCH  32  33
ENDBRANCH  31  32
ENDBRANCH   1  31
TORSDOF 20
ENDMDL
