MODEL 1
REMARK VINA RESULT:     -11.4      0.000      0.000
REMARK SMILES COC(=O)[C@H]1CN(C(=O)[C@@H]2CC=CC[C@@H]2C(=O)NCCCCCCNC(=O)c2ccc(-c3c4nc(c(-c5c(F)cc(S(=O)(=O)[O-])cc5F)c5ccc([nH]5)c(-c5c(F)cc(S(=O)(=O)[O-])cc5F)c5nc(c(-c6c(F)cc(S(=O)(=O)[O-])cc6F)c6ccc3[nH]6)C=C5)C=C4)cc2)C[C@H]1C
REMARK SMILES IDX 21 1 20 2 19 3 18 4 16 5 17 6 15 8 10 9 11 10 12 11 14 12
REMARK SMILES IDX 13 13 8 14 9 15 7 16 5 17 6 18 95 19 94 20 96 21 3 22 4 23
REMARK SMILES IDX 2 24 1 25 22 26 23 27 24 28 25 29 26 30 27 32 28 33 29 34
REMARK SMILES IDX 93 35 30 36 92 37 31 38 32 39 33 40 86 41 34 42 91 43 85 44
REMARK SMILES IDX 87 45 35 46 90 47 84 48 83 49 36 51 70 52 49 53 69 54 50 55
REMARK SMILES IDX 53 56 68 57 88 58 51 59 52 60 67 62 89 63 54 64 37 65 38 66
REMARK SMILES IDX 47 67 39 68 40 69 46 70 48 71 41 72 42 73 43 74 44 75 45 76
REMARK SMILES IDX 71 77 72 78 81 79 73 80 74 81 80 82 82 83 75 84 76 85 77 86
REMARK SMILES IDX 78 87 79 88 55 89 56 90 65 91 57 92 58 93 64 94 66 95 59 96
REMARK SMILES IDX 60 97 61 98 62 99 63 100
REMARK H PARENT 18 7 25 31 87 50 53 61
REMARK Flexibility Score: inf
ROOT
ATOM      1  C   UNL A   1      38.594  22.080  26.156  1.00  0.00     0.002 C 
ENDROOT
BRANCH   1   2
ATOM      2  C   UNL A   1      38.285  23.579  26.055  1.00  0.00     0.021 C 
BRANCH   2   3
ATOM      3  C   UNL A   1      36.803  23.937  25.960  1.00  0.00     0.116 C 
BRANCH   3   4
ATOM      4  N   UNL A   1      35.963  23.096  26.800  1.00  0.00    -0.356 N 
ATOM      5  C   UNL A   1      34.731  22.548  26.617  1.00  0.00     0.224 C 
ATOM      6  O   UNL A   1      34.272  21.878  27.548  1.00  0.00    -0.275 OA
ATOM      7  H   UNL A   1      36.365  22.883  27.673  1.00  0.00     0.163 HD
BRANCH   5   8
ATOM      8  C   UNL A   1      33.964  22.739  25.319  1.00  0.00     0.095 C 
ATOM      9  C   UNL A   1      32.446  23.017  25.426  1.00  0.00     0.095 C 
ATOM     10  C   UNL A   1      31.481  21.818  25.391  1.00  0.00     0.041 C 
ATOM     11  C   UNL A   1      32.059  20.530  24.909  1.00  0.00    -0.030 C 
ATOM     12  C   UNL A   1      34.283  21.540  24.395  1.00  0.00     0.041 C 
ATOM     13  C   UNL A   1      33.311  20.403  24.457  1.00  0.00    -0.030 C 
BRANCH   9  14
ATOM     14  C   UNL A   1      31.970  24.055  26.449  1.00  0.00     0.226 C 
ATOM     15  O   UNL A   1      31.431  23.643  27.483  1.00  0.00    -0.275 OA
BRANCH  14  16
ATOM     16  N   UNL A   1      32.181  25.407  26.270  1.00  0.00    -0.341 N 
ATOM     17  C   UNL A   1      31.596  27.721  26.031  1.00  0.00     0.123 C 
ATOM     18  C   UNL A   1      31.071  26.285  25.930  1.00  0.00     0.135 C 
ATOM     19  C   UNL A   1      33.125  27.594  26.233  1.00  0.00     0.021 C 
ATOM     20  C   UNL A   1      33.430  26.107  26.096  1.00  0.00     0.123 C 
ATOM     21  C   UNL A   1      34.038  28.378  25.290  1.00  0.00     0.010 C 
BRANCH  17  22
ATOM     22  C   UNL A   1      31.152  28.572  24.855  1.00  0.00     0.310 C 
ATOM     23  O   UNL A   1      30.973  29.779  24.872  1.00  0.00    -0.252 OA
BRANCH  22  24
ATOM     24  O   UNL A   1      30.978  27.786  23.752  1.00  0.00    -0.469 OA
ATOM     25  C   UNL A   1      31.157  28.474  22.513  1.00  0.00     0.282 C 
ENDBRANCH  22  24
ENDBRANCH  17  22
ENDBRANCH  14  16
ENDBRANCH   9  14
ENDBRANCH   5   8
ENDBRANCH   3   4
ENDBRANCH   2   3
ENDBRANCH   1   2
BRANCH   1  26
ATOM     26  C   UNL A   1      40.069  21.709  26.028  1.00  0.00     0.002 C 
BRANCH  26  27
ATOM     27  C   UNL A   1      40.856  21.756  27.340  1.00  0.00     0.021 C 
BRANCH  27  28
ATOM     28  C   UNL A   1      41.779  22.962  27.497  1.00  0.00     0.116 C 
BRANCH  28  29
ATOM     29  N   UNL A   1      41.830  23.777  26.292  1.00  0.00    -0.352 N 
ATOM     30  C   UNL A   1      41.598  25.127  26.166  1.00  0.00     0.251 C 
ATOM     31  H   UNL A   1      42.059  23.301  25.461  1.00  0.00     0.163 HD
ATOM     32  O   UNL A   1      41.461  25.642  25.061  1.00  0.00    -0.269 OA
BRANCH  30  33
ATOM     33  C   UNL A   1      41.501  25.949  27.391  1.00  0.00     0.039 A 
ATOM     34  C   UNL A   1      42.517  26.856  27.696  1.00  0.00     0.014 A 
ATOM     35  C   UNL A   1      40.373  25.849  28.211  1.00  0.00     0.014 A 
ATOM     36  C   UNL A   1      42.369  27.713  28.789  1.00  0.00     0.010 A 
ATOM     37  C   UNL A   1      40.192  26.758  29.250  1.00  0.00     0.010 A 
ATOM     38  C   UNL A   1      41.189  27.698  29.553  1.00  0.00    -0.014 A 
BRANCH  38  39
ATOM     39  C   UNL A   1      40.977  28.658  30.670  1.00  0.00     0.031 A 
ATOM     40  C   UNL A   1      41.792  28.541  31.931  1.00  0.00     0.074 A 
ATOM     41  C   UNL A   1      40.009  29.592  30.576  1.00  0.00     0.049 A 
ATOM     42  N   UNL A   1      41.715  29.242  33.032  1.00  0.00    -0.248 NA
ATOM     43  C   UNL A   1      42.812  27.480  31.968  1.00  0.00     0.031 C 
ATOM     44  C   UNL A   1      39.117  29.774  29.428  1.00  0.00     0.029 A 
ATOM     45  N   UNL A   1      39.606  30.559  31.463  1.00  0.00    -0.354 N 
ATOM     46  C   UNL A   1      42.663  28.702  33.894  1.00  0.00     0.074 A 
ATOM     47  C   UNL A   1      43.262  27.578  33.209  1.00  0.00     0.031 C 
ATOM     48  C   UNL A   1      38.290  30.804  29.672  1.00  0.00     0.029 A 
ATOM     49  C   UNL A   1      38.561  31.331  31.007  1.00  0.00     0.049 A 
ATOM     50  H   UNL A   1      40.025  30.690  32.344  1.00  0.00     0.167 HD
ATOM     51  C   UNL A   1      43.018  29.119  35.132  1.00  0.00     0.037 A 
ATOM     52  C   UNL A   1      37.890  32.338  31.598  1.00  0.00     0.037 A 
ATOM     53  C   UNL A   1      42.430  30.251  35.800  1.00  0.00     0.049 A 
ATOM     54  C   UNL A   1      38.296  32.777  32.981  1.00  0.00     0.074 A 
ATOM     55  C   UNL A   1      42.760  30.790  37.031  1.00  0.00     0.029 A 
ATOM     56  N   UNL A   1      41.385  31.014  35.298  1.00  0.00    -0.354 N 
ATOM     57  N   UNL A   1      39.244  32.299  33.751  1.00  0.00    -0.248 NA
ATOM     58  C   UNL A   1      37.547  33.894  33.572  1.00  0.00     0.031 C 
ATOM     59  C   UNL A   1      41.880  31.842  37.299  1.00  0.00     0.029 A 
ATOM     60  C   UNL A   1      41.041  32.002  36.207  1.00  0.00     0.049 A 
ATOM     61  H   UNL A   1      40.952  30.874  34.425  1.00  0.00     0.167 HD
ATOM     62  C   UNL A   1      39.225  33.078  34.905  1.00  0.00     0.074 A 
ATOM     63  C   UNL A   1      38.180  34.064  34.724  1.00  0.00     0.031 C 
ATOM     64  C   UNL A   1      40.004  32.985  36.011  1.00  0.00     0.037 A 
BRANCH  51  65
ATOM     65  C   UNL A   1      44.097  28.350  35.848  1.00  0.00     0.058 A 
ATOM     66  C   UNL A   1      43.799  27.255  36.677  1.00  0.00     0.135 A 
ATOM     67  C   UNL A   1      45.449  28.683  35.670  1.00  0.00     0.135 A 
ATOM     68  F   UNL A   1      42.523  26.899  36.895  1.00  0.00    -0.206 F 
ATOM     69  C   UNL A   1      44.799  26.539  37.326  1.00  0.00     0.059 A 
ATOM     70  C   UNL A   1      46.469  27.960  36.283  1.00  0.00     0.059 A 
ATOM     71  F   UNL A   1      45.794  29.719  34.888  1.00  0.00    -0.206 F 
ATOM     72  C   UNL A   1      46.133  26.898  37.121  1.00  0.00     0.060 A 
BRANCH  72  73
ATOM     73  S   UNL A   1      47.418  25.949  37.961  1.00  0.00     0.124 S 
ATOM     74  O   UNL A   1      46.690  25.432  39.116  1.00  0.00    -0.237 OA
ATOM     75  O   UNL A   1      47.787  24.962  36.951  1.00  0.00    -0.237 OA
ATOM     76  O   UNL A   1      48.439  26.948  38.260  1.00  0.00    -0.744 OA
ENDBRANCH  72  73
ENDBRANCH  51  65
BRANCH  52  77
ATOM     77  C   UNL A   1      36.775  33.015  30.880  1.00  0.00     0.058 A 
ATOM     78  C   UNL A   1      35.438  32.790  31.242  1.00  0.00     0.135 A 
ATOM     79  C   UNL A   1      37.023  33.908  29.825  1.00  0.00     0.135 A 
ATOM     80  F   UNL A   1      35.147  31.940  32.238  1.00  0.00    -0.206 F 
ATOM     81  C   UNL A   1      34.386  33.409  30.573  1.00  0.00     0.059 A 
ATOM     82  C   UNL A   1      35.989  34.561  29.160  1.00  0.00     0.059 A 
ATOM     83  F   UNL A   1      38.284  34.171  29.448  1.00  0.00    -0.206 F 
ATOM     84  C   UNL A   1      34.673  34.297  29.534  1.00  0.00     0.060 A 
BRANCH  84  85
ATOM     85  S   UNL A   1      33.303  35.130  28.704  1.00  0.00     0.124 S 
ATOM     86  O   UNL A   1      33.998  36.169  27.955  1.00  0.00    -0.237 OA
ATOM     87  O   UNL A   1      32.725  34.048  27.911  1.00  0.00    -0.237 OA
ATOM     88  O   UNL A   1      32.473  35.596  29.811  1.00  0.00    -0.744 OA
ENDBRANCH  84  85
ENDBRANCH  52  77
BRANCH  64  89
ATOM     89  C   UNL A   1      39.789  33.999  37.102  1.00  0.00     0.058 A 
ATOM     90  C   UNL A   1      39.006  33.718  38.233  1.00  0.00     0.135 A 
ATOM     91  C   UNL A   1      40.425  35.251  37.041  1.00  0.00     0.135 A 
ATOM     92  F   UNL A   1      38.371  32.542  38.340  1.00  0.00    -0.206 F 
ATOM     93  C   UNL A   1      38.843  34.651  39.253  1.00  0.00     0.059 A 
ATOM     94  C   UNL A   1      40.302  36.185  38.063  1.00  0.00     0.059 A 
ATOM     95  F   UNL A   1      41.193  35.568  35.987  1.00  0.00    -0.206 F 
ATOM     96  C   UNL A   1      39.498  35.881  39.161  1.00  0.00     0.060 A 
BRANCH  96  97
ATOM     97  S   UNL A   1      39.308  37.065  40.510  1.00  0.00     0.124 S 
ATOM     98  O   UNL A   1      38.474  36.315  41.444  1.00  0.00    -0.237 OA
ATOM     99  O   UNL A   1      40.688  37.285  40.929  1.00  0.00    -0.237 OA
ATOM    100  O   UNL A   1      38.662  38.208  39.872  1.00  0.00    -0.744 OA
ENDBRANCH  96  97
ENDBRANCH  64  89
ENDBRANCH  38  39
ENDBRANCH  30  33
ENDBRANCH  28  29
ENDBRANCH  27  28
ENDBRANCH  26  27
ENDBRANCH   1  26
TORSDOF 20
ENDMDL
MODEL 2
REMARK VINA RESULT:     -11.2      6.304     12.056
REMARK SMILES COC(=O)[C@H]1CN(C(=O)[C@@H]2CC=CC[C@@H]2C(=O)NCCCCCCNC(=O)c2ccc(-c3c4nc(c(-c5c(F)cc(S(=O)(=O)[O-])cc5F)c5ccc([nH]5)c(-c5c(F)cc(S(=O)(=O)[O-])cc5F)c5nc(c(-c6c(F)cc(S(=O)(=O)[O-])cc6F)c6ccc3[nH]6)C=C5)C=C4)cc2)C[C@H]1C
REMARK SMILES IDX 21 1 20 2 19 3 18 4 16 5 17 6 15 8 10 9 11 10 12 11 14 12
REMARK SMILES IDX 13 13 8 14 9 15 7 16 5 17 6 18 95 19 94 20 96 21 3 22 4 23
REMARK SMILES IDX 2 24 1 25 22 26 23 27 24 28 25 29 26 30 27 32 28 33 29 34
REMARK SMILES IDX 93 35 30 36 92 37 31 38 32 39 33 40 86 41 34 42 91 43 85 44
REMARK SMILES IDX 87 45 35 46 90 47 84 48 83 49 36 51 70 52 49 53 69 54 50 55
REMARK SMILES IDX 53 56 68 57 88 58 51 59 52 60 67 62 89 63 54 64 37 65 38 66
REMARK SMILES IDX 47 67 39 68 40 69 46 70 48 71 41 72 42 73 43 74 44 75 45 76
REMARK SMILES IDX 71 77 72 78 81 79 73 80 74 81 80 82 82 83 75 84 76 85 77 86
REMARK SMILES IDX 78 87 79 88 55 89 56 90 65 91 57 92 58 93 64 94 66 95 59 96
REMARK SMILES IDX 60 97 61 98 62 99 63 100
REMARK H PARENT 18 7 25 31 87 50 53 61
REMARK Flexibility Score: inf
ROOT
ATOM      1  C   UNL A   1      35.287  31.357  27.888  1.00  0.00     0.002 C 
ENDROOT
BRANCH   1   2
ATOM      2  C   UNL A   1      33.806  31.729  27.746  1.00  0.00     0.021 C 
BRANCH   2   3
ATOM      3  C   UNL A   1      32.905  30.630  27.186  1.00  0.00     0.116 C 
BRANCH   3   4
ATOM      4  N   UNL A   1      33.441  30.022  25.976  1.00  0.00    -0.356 N 
ATOM      5  C   UNL A   1      32.876  29.263  24.998  1.00  0.00     0.224 C 
ATOM      6  O   UNL A   1      33.619  28.879  24.089  1.00  0.00    -0.275 OA
ATOM      7  H   UNL A   1      34.400  30.193  25.840  1.00  0.00     0.163 HD
BRANCH   5   8
ATOM      8  C   UNL A   1      31.397  28.918  25.017  1.00  0.00     0.095 C 
ATOM      9  C   UNL A   1      31.017  27.431  25.210  1.00  0.00     0.095 C 
ATOM     10  C   UNL A   1      30.827  26.558  23.956  1.00  0.00     0.041 C 
ATOM     11  C   UNL A   1      30.682  27.294  22.667  1.00  0.00    -0.030 C 
ATOM     12  C   UNL A   1      30.745  29.537  23.758  1.00  0.00     0.041 C 
ATOM     13  C   UNL A   1      30.640  28.626  22.574  1.00  0.00    -0.030 C 
BRANCH   9  14
ATOM     14  C   UNL A   1      31.732  26.638  26.310  1.00  0.00     0.226 C 
ATOM     15  O   UNL A   1      31.465  26.910  27.487  1.00  0.00    -0.275 OA
BRANCH  14  16
ATOM     16  N   UNL A   1      32.603  25.607  26.019  1.00  0.00    -0.341 N 
ATOM     17  C   UNL A   1      33.311  23.338  25.701  1.00  0.00     0.123 C 
ATOM     18  C   UNL A   1      32.253  24.234  26.354  1.00  0.00     0.135 C 
ATOM     19  C   UNL A   1      34.399  24.298  25.164  1.00  0.00     0.021 C 
ATOM     20  C   UNL A   1      33.995  25.683  25.654  1.00  0.00     0.123 C 
ATOM     21  C   UNL A   1      35.849  24.030  25.567  1.00  0.00     0.010 C 
BRANCH  17  22
ATOM     22  C   UNL A   1      33.794  22.250  26.644  1.00  0.00     0.310 C 
ATOM     23  O   UNL A   1      34.041  22.390  27.830  1.00  0.00    -0.252 OA
BRANCH  22  24
ATOM     24  O   UNL A   1      33.916  21.071  25.968  1.00  0.00    -0.469 OA
ATOM     25  C   UNL A   1      32.694  20.597  25.398  1.00  0.00     0.282 C 
ENDBRANCH  22  24
ENDBRANCH  17  22
ENDBRANCH  14  16
ENDBRANCH   9  14
ENDBRANCH   5   8
ENDBRANCH   3   4
ENDBRANCH   2   3
ENDBRANCH   1   2
BRANCH   1  26
ATOM     26  C   UNL A   1      36.262  32.530  27.826  1.00  0.00     0.002 C 
BRANCH  26  27
ATOM     27  C   UNL A   1      36.221  33.459  29.041  1.00  0.00     0.021 C 
BRANCH  27  28
ATOM     28  C   UNL A   1      37.174  33.084  30.174  1.00  0.00     0.116 C 
BRANCH  28  29
ATOM     29  N   UNL A   1      36.553  32.194  31.144  1.00  0.00    -0.352 N 
ATOM     30  C   UNL A   1      36.850  30.877  31.406  1.00  0.00     0.251 C 
ATOM     31  H   UNL A   1      35.826  32.586  31.681  1.00  0.00     0.163 HD
ATOM     32  O   UNL A   1      36.104  30.188  32.094  1.00  0.00    -0.269 OA
BRANCH  30  33
ATOM     33  C   UNL A   1      38.084  30.299  30.830  1.00  0.00     0.039 A 
ATOM     34  C   UNL A   1      38.206  30.175  29.446  1.00  0.00     0.014 A 
ATOM     35  C   UNL A   1      39.137  29.925  31.670  1.00  0.00     0.014 A 
ATOM     36  C   UNL A   1      39.415  29.738  28.899  1.00  0.00     0.010 A 
ATOM     37  C   UNL A   1      40.365  29.568  31.120  1.00  0.00     0.010 A 
ATOM     38  C   UNL A   1      40.518  29.468  29.728  1.00  0.00    -0.014 A 
BRANCH  38  39
ATOM     39  C   UNL A   1      41.838  29.080  29.161  1.00  0.00     0.031 A 
ATOM     40  C   UNL A   1      42.924  30.112  29.004  1.00  0.00     0.074 A 
ATOM     41  C   UNL A   1      42.037  27.819  28.729  1.00  0.00     0.049 A 
ATOM     42  N   UNL A   1      44.115  29.983  28.479  1.00  0.00    -0.248 NA
ATOM     43  C   UNL A   1      42.622  31.473  29.475  1.00  0.00     0.031 C 
ATOM     44  C   UNL A   1      41.046  26.741  28.778  1.00  0.00     0.029 A 
ATOM     45  N   UNL A   1      43.136  27.230  28.154  1.00  0.00    -0.354 N 
ATOM     46  C   UNL A   1      44.698  31.244  28.546  1.00  0.00     0.074 A 
ATOM     47  C   UNL A   1      43.708  32.136  29.109  1.00  0.00     0.031 C 
ATOM     48  C   UNL A   1      41.591  25.619  28.279  1.00  0.00     0.029 A 
ATOM     49  C   UNL A   1      42.952  25.904  27.835  1.00  0.00     0.049 A 
ATOM     50  H   UNL A   1      43.978  27.711  27.986  1.00  0.00     0.167 HD
ATOM     51  C   UNL A   1      45.951  31.618  28.195  1.00  0.00     0.037 A 
ATOM     52  C   UNL A   1      43.779  25.021  27.242  1.00  0.00     0.037 A 
ATOM     53  C   UNL A   1      46.937  30.720  27.653  1.00  0.00     0.049 A 
ATOM     54  C   UNL A   1      45.164  25.464  26.849  1.00  0.00     0.074 A 
ATOM     55  C   UNL A   1      48.253  30.988  27.319  1.00  0.00     0.029 A 
ATOM     56  N   UNL A   1      46.716  29.382  27.358  1.00  0.00    -0.354 N 
ATOM     57  N   UNL A   1      45.722  26.643  26.986  1.00  0.00    -0.248 NA
ATOM     58  C   UNL A   1      46.034  24.456  26.226  1.00  0.00     0.031 C 
ATOM     59  C   UNL A   1      48.810  29.830  26.770  1.00  0.00     0.029 A 
ATOM     60  C   UNL A   1      47.862  28.820  26.821  1.00  0.00     0.049 A 
ATOM     61  H   UNL A   1      45.869  28.903  27.508  1.00  0.00     0.167 HD
ATOM     62  C   UNL A   1      47.018  26.511  26.497  1.00  0.00     0.074 A 
ATOM     63  C   UNL A   1      47.163  25.134  26.071  1.00  0.00     0.031 C 
ATOM     64  C   UNL A   1      47.997  27.444  26.409  1.00  0.00     0.037 A 
BRANCH  51  65
ATOM     65  C   UNL A   1      46.330  33.063  28.387  1.00  0.00     0.058 A 
ATOM     66  C   UNL A   1      46.907  33.523  29.583  1.00  0.00     0.135 A 
ATOM     67  C   UNL A   1      46.154  33.992  27.349  1.00  0.00     0.135 A 
ATOM     68  F   UNL A   1      47.086  32.684  30.615  1.00  0.00    -0.206 F 
ATOM     69  C   UNL A   1      47.267  34.856  29.752  1.00  0.00     0.059 A 
ATOM     70  C   UNL A   1      46.537  35.323  27.484  1.00  0.00     0.059 A 
ATOM     71  F   UNL A   1      45.608  33.609  26.184  1.00  0.00    -0.206 F 
ATOM     72  C   UNL A   1      47.080  35.749  28.696  1.00  0.00     0.060 A 
BRANCH  72  73
ATOM     73  S   UNL A   1      47.565  37.472  28.929  1.00  0.00     0.124 S 
ATOM     74  O   UNL A   1      46.381  38.176  28.448  1.00  0.00    -0.237 OA
ATOM     75  O   UNL A   1      47.800  37.537  30.368  1.00  0.00    -0.237 OA
ATOM     76  O   UNL A   1      48.756  37.606  28.096  1.00  0.00    -0.744 OA
ENDBRANCH  72  73
ENDBRANCH  51  65
BRANCH  52  77
ATOM     77  C   UNL A   1      43.328  23.622  26.999  1.00  0.00     0.058 A 
ATOM     78  C   UNL A   1      42.990  23.184  25.710  1.00  0.00     0.135 A 
ATOM     79  C   UNL A   1      43.235  22.693  28.048  1.00  0.00     0.135 A 
ATOM     80  F   UNL A   1      43.054  24.035  24.674  1.00  0.00    -0.206 F 
ATOM     81  C   UNL A   1      42.558  21.883  25.471  1.00  0.00     0.059 A 
ATOM     82  C   UNL A   1      42.834  21.379  27.829  1.00  0.00     0.059 A 
ATOM     83  F   UNL A   1      43.561  23.056  29.299  1.00  0.00    -0.206 F 
ATOM     84  C   UNL A   1      42.487  20.986  26.538  1.00  0.00     0.060 A 
BRANCH  84  85
ATOM     85  S   UNL A   1      41.970  19.287  26.208  1.00  0.00     0.124 S 
ATOM     86  O   UNL A   1      42.312  18.626  27.461  1.00  0.00    -0.237 OA
ATOM     87  O   UNL A   1      40.544  19.450  25.940  1.00  0.00    -0.237 OA
ATOM     88  O   UNL A   1      42.777  18.909  25.052  1.00  0.00    -0.744 OA
ENDBRANCH  84  85
ENDBRANCH  52  77
BRANCH  64  89
ATOM     89  C   UNL A   1      49.332  27.005  25.869  1.00  0.00     0.058 A 
ATOM     90  C   UNL A   1      49.673  27.160  24.517  1.00  0.00     0.135 A 
ATOM     91  C   UNL A   1      50.306  26.474  26.733  1.00  0.00     0.135 A 
ATOM     92  F   UNL A   1      48.780  27.656  23.647  1.00  0.00    -0.206 F 
ATOM     93  C   UNL A   1      50.924  26.784  24.035  1.00  0.00     0.059 A 
ATOM     94  C   UNL A   1      51.572  26.122  26.280  1.00  0.00     0.059 A 
ATOM     95  F   UNL A   1      50.036  26.313  28.038  1.00  0.00    -0.206 F 
ATOM     96  C   UNL A   1      51.868  26.269  24.926  1.00  0.00     0.060 A 
BRANCH  96  97
ATOM     97  S   UNL A   1      53.499  25.820  24.293  1.00  0.00     0.124 S 
ATOM     98  O   UNL A   1      54.357  26.773  24.991  1.00  0.00    -0.237 OA
ATOM     99  O   UNL A   1      53.624  24.428  24.712  1.00  0.00    -0.237 OA
ATOM    100  O   UNL A   1      53.374  26.028  22.853  1.00  0.00    -0.744 OA
ENDBRANCH  96  97
ENDBRANCH  64  89
ENDBRANCH  38  39
ENDBRANCH  30  33
ENDBRANCH  28  29
ENDBRANCH  27  28
ENDBRANCH  26  27
ENDBRANCH   1  26
TORSDOF 20
ENDMDL
MODEL 3
REMARK VINA RESULT:     -10.9      3.256      4.543
REMARK SMILES COC(=O)[C@H]1CN(C(=O)[C@@H]2CC=CC[C@@H]2C(=O)NCCCCCCNC(=O)c2ccc(-c3c4nc(c(-c5c(F)cc(S(=O)(=O)[O-])cc5F)c5ccc([nH]5)c(-c5c(F)cc(S(=O)(=O)[O-])cc5F)c5nc(c(-c6c(F)cc(S(=O)(=O)[O-])cc6F)c6ccc3[nH]6)C=C5)C=C4)cc2)C[C@H]1C
REMARK SMILES IDX 21 1 20 2 19 3 18 4 16 5 17 6 15 8 10 9 11 10 12 11 14 12
REMARK SMILES IDX 13 13 8 14 9 15 7 16 5 17 6 18 95 19 94 20 96 21 3 22 4 23
REMARK SMILES IDX 2 24 1 25 22 26 23 27 24 28 25 29 26 30 27 32 28 33 29 34
REMARK SMILES IDX 93 35 30 36 92 37 31 38 32 39 33 40 86 41 34 42 91 43 85 44
REMARK SMILES IDX 87 45 35 46 90 47 84 48 83 49 36 51 70 52 49 53 69 54 50 55
REMARK SMILES IDX 53 56 68 57 88 58 51 59 52 60 67 62 89 63 54 64 37 65 38 66
REMARK SMILES IDX 47 67 39 68 40 69 46 70 48 71 41 72 42 73 43 74 44 75 45 76
REMARK SMILES IDX 71 77 72 78 81 79 73 80 74 81 80 82 82 83 75 84 76 85 77 86
REMARK SMILES IDX 78 87 79 88 55 89 56 90 65 91 57 92 58 93 64 94 66 95 59 96
REMARK SMILES IDX 60 97 61 98 62 99 63 100
REMARK H PARENT 18 7 25 31 87 50 53 61
REMARK Flexibility Score: inf
ROOT
ATOM      1  C   UNL A   1      33.540  22.764  27.271  1.00  0.00     0.002 C 
ENDROOT
BRANCH   1   2
ATOM      2  C   UNL A   1      32.113  22.608  26.731  1.00  0.00     0.021 C 
BRANCH   2   3
ATOM      3  C   UNL A   1      31.379  23.915  26.436  1.00  0.00     0.116 C 
BRANCH   3   4
ATOM      4  N   UNL A   1      30.649  23.882  25.176  1.00  0.00    -0.356 N 
ATOM      5  C   UNL A   1      31.008  24.170  23.895  1.00  0.00     0.224 C 
ATOM      6  O   UNL A   1      30.134  24.054  23.031  1.00  0.00    -0.275 OA
ATOM      7  H   UNL A   1      29.712  23.596  25.271  1.00  0.00     0.163 HD
BRANCH   5   8
ATOM      8  C   UNL A   1      32.423  24.598  23.547  1.00  0.00     0.095 C 
ATOM      9  C   UNL A   1      32.585  25.814  22.605  1.00  0.00     0.095 C 
ATOM     10  C   UNL A   1      32.683  25.556  21.090  1.00  0.00     0.041 C 
ATOM     11  C   UNL A   1      32.964  24.148  20.686  1.00  0.00    -0.030 C 
ATOM     12  C   UNL A   1      33.189  23.352  23.041  1.00  0.00     0.041 C 
ATOM     13  C   UNL A   1      33.196  23.160  21.556  1.00  0.00    -0.030 C 
BRANCH   9  14
ATOM     14  C   UNL A   1      31.737  27.061  22.880  1.00  0.00     0.226 C 
ATOM     15  O   UNL A   1      30.892  27.384  22.036  1.00  0.00    -0.275 OA
BRANCH  14  16
ATOM     16  N   UNL A   1      31.852  27.779  24.053  1.00  0.00    -0.341 N 
ATOM     17  C   UNL A   1      32.644  29.507  25.516  1.00  0.00     0.123 C 
ATOM     18  C   UNL A   1      32.938  28.732  24.227  1.00  0.00     0.135 C 
ATOM     19  C   UNL A   1      31.444  28.784  26.174  1.00  0.00     0.021 C 
ATOM     20  C   UNL A   1      31.195  27.549  25.315  1.00  0.00     0.123 C 
ATOM     21  C   UNL A   1      31.582  28.355  27.635  1.00  0.00     0.010 C 
BRANCH  17  22
ATOM     22  C   UNL A   1      33.881  29.659  26.382  1.00  0.00     0.310 C 
ATOM     23  O   UNL A   1      34.722  28.800  26.586  1.00  0.00    -0.252 OA
BRANCH  22  24
ATOM     24  O   UNL A   1      33.924  30.917  26.912  1.00  0.00    -0.469 OA
ATOM     25  C   UNL A   1      34.435  30.969  28.246  1.00  0.00     0.282 C 
ENDBRANCH  22  24
ENDBRANCH  17  22
ENDBRANCH  14  16
ENDBRANCH   9  14
ENDBRANCH   5   8
ENDBRANCH   3   4
ENDBRANCH   2   3
ENDBRANCH   1   2
BRANCH   1  26
ATOM     26  C   UNL A   1      34.424  23.741  26.499  1.00  0.00     0.002 C 
BRANCH  26  27
ATOM     27  C   UNL A   1      35.540  23.084  25.683  1.00  0.00     0.021 C 
BRANCH  27  28
ATOM     28  C   UNL A   1      36.878  23.820  25.709  1.00  0.00     0.116 C 
BRANCH  28  29
ATOM     29  N   UNL A   1      38.007  22.906  25.804  1.00  0.00    -0.352 N 
ATOM     30  C   UNL A   1      39.281  23.167  26.253  1.00  0.00     0.251 C 
ATOM     31  H   UNL A   1      37.837  21.982  25.508  1.00  0.00     0.163 HD
ATOM     32  O   UNL A   1      40.189  22.363  26.074  1.00  0.00    -0.269 OA
BRANCH  30  33
ATOM     33  C   UNL A   1      39.541  24.448  26.946  1.00  0.00     0.039 A 
ATOM     34  C   UNL A   1      39.119  24.617  28.264  1.00  0.00     0.014 A 
ATOM     35  C   UNL A   1      40.247  25.463  26.293  1.00  0.00     0.014 A 
ATOM     36  C   UNL A   1      39.467  25.781  28.954  1.00  0.00     0.010 A 
ATOM     37  C   UNL A   1      40.661  26.584  27.006  1.00  0.00     0.010 A 
ATOM     38  C   UNL A   1      40.274  26.758  28.344  1.00  0.00    -0.014 A 
BRANCH  38  39
ATOM     39  C   UNL A   1      40.724  27.966  29.087  1.00  0.00     0.031 A 
ATOM     40  C   UNL A   1      42.097  28.005  29.704  1.00  0.00     0.074 A 
ATOM     41  C   UNL A   1      39.876  28.999  29.262  1.00  0.00     0.049 A 
ATOM     42  N   UNL A   1      42.648  28.938  30.436  1.00  0.00    -0.248 NA
ATOM     43  C   UNL A   1      42.956  26.828  29.491  1.00  0.00     0.031 C 
ATOM     44  C   UNL A   1      38.502  29.061  28.758  1.00  0.00     0.029 A 
ATOM     45  N   UNL A   1      40.040  30.194  29.919  1.00  0.00    -0.354 N 
ATOM     46  C   UNL A   1      43.907  28.459  30.780  1.00  0.00     0.074 A 
ATOM     47  C   UNL A   1      44.016  27.128  30.225  1.00  0.00     0.031 C 
ATOM     48  C   UNL A   1      37.959  30.240  29.104  1.00  0.00     0.029 A 
ATOM     49  C   UNL A   1      38.926  31.002  29.888  1.00  0.00     0.049 A 
ATOM     50  H   UNL A   1      40.876  30.449  30.370  1.00  0.00     0.167 HD
ATOM     51  C   UNL A   1      44.891  29.081  31.472  1.00  0.00     0.037 A 
ATOM     52  C   UNL A   1      38.704  32.212  30.437  1.00  0.00     0.037 A 
ATOM     53  C   UNL A   1      44.781  30.414  32.004  1.00  0.00     0.049 A 
ATOM     54  C   UNL A   1      39.810  32.879  31.213  1.00  0.00     0.074 A 
ATOM     55  C   UNL A   1      45.741  31.155  32.670  1.00  0.00     0.029 A 
ATOM     56  N   UNL A   1      43.642  31.204  31.939  1.00  0.00    -0.354 N 
ATOM     57  N   UNL A   1      41.019  32.439  31.467  1.00  0.00    -0.248 NA
ATOM     58  C   UNL A   1      39.524  34.207  31.773  1.00  0.00     0.031 C 
ATOM     59  C   UNL A   1      45.167  32.369  33.057  1.00  0.00     0.029 A 
ATOM     60  C   UNL A   1      43.868  32.413  32.577  1.00  0.00     0.049 A 
ATOM     61  H   UNL A   1      42.798  30.944  31.504  1.00  0.00     0.167 HD
ATOM     62  C   UNL A   1      41.648  33.449  32.187  1.00  0.00     0.074 A 
ATOM     63  C   UNL A   1      40.689  34.526  32.319  1.00  0.00     0.031 C 
ATOM     64  C   UNL A   1      42.906  33.482  32.693  1.00  0.00     0.037 A 
BRANCH  51  65
ATOM     65  C   UNL A   1      46.176  28.327  31.693  1.00  0.00     0.058 A 
ATOM     66  C   UNL A   1      47.250  28.416  30.791  1.00  0.00     0.135 A 
ATOM     67  C   UNL A   1      46.353  27.538  32.841  1.00  0.00     0.135 A 
ATOM     68  F   UNL A   1      47.133  29.144  29.669  1.00  0.00    -0.206 F 
ATOM     69  C   UNL A   1      48.439  27.728  31.005  1.00  0.00     0.059 A 
ATOM     70  C   UNL A   1      47.547  26.867  33.092  1.00  0.00     0.059 A 
ATOM     71  F   UNL A   1      45.361  27.416  33.737  1.00  0.00    -0.206 F 
ATOM     72  C   UNL A   1      48.579  26.957  32.160  1.00  0.00     0.060 A 
BRANCH  72  73
ATOM     73  S   UNL A   1      50.135  26.082  32.427  1.00  0.00     0.124 S 
ATOM     74  O   UNL A   1      50.954  26.604  31.338  1.00  0.00    -0.237 OA
ATOM     75  O   UNL A   1      50.512  26.518  33.768  1.00  0.00    -0.237 OA
ATOM     76  O   UNL A   1      49.760  24.676  32.311  1.00  0.00    -0.744 OA
ENDBRANCH  72  73
ENDBRANCH  51  65
BRANCH  52  77
ATOM     77  C   UNL A   1      37.386  32.882  30.259  1.00  0.00     0.058 A 
ATOM     78  C   UNL A   1      36.371  32.750  31.219  1.00  0.00     0.135 A 
ATOM     79  C   UNL A   1      37.118  33.676  29.132  1.00  0.00     0.135 A 
ATOM     80  F   UNL A   1      36.574  31.997  32.310  1.00  0.00    -0.206 F 
ATOM     81  C   UNL A   1      35.132  33.363  31.059  1.00  0.00     0.059 A 
ATOM     82  C   UNL A   1      35.897  34.323  28.965  1.00  0.00     0.059 A 
ATOM     83  F   UNL A   1      38.060  33.848  28.191  1.00  0.00    -0.206 F 
ATOM     84  C   UNL A   1      34.906  34.152  29.930  1.00  0.00     0.060 A 
BRANCH  84  85
ATOM     85  S   UNL A   1      33.311  34.980  29.757  1.00  0.00     0.124 S 
ATOM     86  O   UNL A   1      32.627  34.110  28.808  1.00  0.00    -0.237 OA
ATOM     87  O   UNL A   1      32.805  34.955  31.126  1.00  0.00    -0.237 OA
ATOM     88  O   UNL A   1      33.672  36.303  29.255  1.00  0.00    -0.744 OA
ENDBRANCH  84  85
ENDBRANCH  52  77
BRANCH  64  89
ATOM     89  C   UNL A   1      43.340  34.737  33.402  1.00  0.00     0.058 A 
ATOM     90  C   UNL A   1      43.886  35.829  32.710  1.00  0.00     0.135 A 
ATOM     91  C   UNL A   1      43.153  34.868  34.789  1.00  0.00     0.135 A 
ATOM     92  F   UNL A   1      44.093  35.757  31.387  1.00  0.00    -0.206 F 
ATOM     93  C   UNL A   1      44.252  36.999  33.371  1.00  0.00     0.059 A 
ATOM     94  C   UNL A   1      43.481  36.038  35.464  1.00  0.00     0.059 A 
ATOM     95  F   UNL A   1      42.625  33.857  35.498  1.00  0.00    -0.206 F 
ATOM     96  C   UNL A   1      44.041  37.095  34.748  1.00  0.00     0.060 A 
BRANCH  96  97
ATOM     97  S   UNL A   1      44.485  38.632  35.586  1.00  0.00     0.124 S 
ATOM     98  O   UNL A   1      43.909  38.422  36.910  1.00  0.00    -0.237 OA
ATOM     99  O   UNL A   1      45.942  38.614  35.518  1.00  0.00    -0.237 OA
ATOM    100  O   UNL A   1      43.837  39.660  34.776  1.00  0.00    -0.744 OA
ENDBRANCH  96  97
ENDBRANCH  64  89
ENDBRANCH  38  39
ENDBRANCH  30  33
ENDBRANCH  28  29
ENDBRANCH  27  28
ENDBRANCH  26  27
ENDBRANCH   1  26
TORSDOF 20
ENDMDL
