MODEL 1
REMARK VINA RESULT:     -12.2      0.000      0.000
REMARK SMILES Cc1ccnc(C(=O)c2[nH]c3ccc(OC(F)(F)F)cc3c2CC(=O)NCCCCCCNC(=O)c2ccc(-c3c4nc(c(-c5c(F)cc(S(=O)(=O)[O-])cc5F)c5ccc([nH]5)c(-c5c(F)cc(S(=O)(=O)[O-])cc5F)c5nc(c(-c6c(F)cc(S(=O)(=O)[O-])cc6F)c6ccc3[nH]6)C=C5)C=C4)cc2)c1
REMARK SMILES IDX 29 1 28 2 27 3 26 4 24 5 25 6 23 8 22 9 9 10 10 11 11 12
REMARK SMILES IDX 21 14 12 15 20 16 13 17 14 18 7 19 8 20 6 21 1 22 2 23 3 24
REMARK SMILES IDX 102 25 4 26 5 27 15 28 16 29 17 30 18 31 19 32 30 33 31 34
REMARK SMILES IDX 32 35 33 36 34 37 35 39 36 40 37 41 101 42 38 43 100 44
REMARK SMILES IDX 39 45 40 46 41 47 94 48 42 49 99 50 93 51 95 52 43 53 98 54
REMARK SMILES IDX 92 55 91 56 44 58 78 59 57 60 77 61 58 62 61 63 76 64 96 65
REMARK SMILES IDX 59 66 60 67 75 69 97 70 62 71 45 72 46 73 55 74 47 75 48 76
REMARK SMILES IDX 54 77 56 78 49 79 50 80 51 81 52 82 53 83 79 84 80 85 89 86
REMARK SMILES IDX 81 87 82 88 88 89 90 90 83 91 84 92 85 93 86 94 87 95 63 96
REMARK SMILES IDX 64 97 73 98 65 99 66 100 72 101 74 102 67 103 68 104 69 105
REMARK SMILES IDX 70 106 71 107
REMARK H PARENT 26 7 10 13 33 38 95 57 61 68
REMARK Flexibility Score: inf
ROOT
ATOM      1  C   UNL A   1      32.839  27.393  26.611  1.00  0.00     0.002 C 
ENDROOT
BRANCH   1   2
ATOM      2  C   UNL A   1      33.156  25.994  26.068  1.00  0.00     0.021 C 
BRANCH   2   3
ATOM      3  C   UNL A   1      34.458  25.887  25.275  1.00  0.00     0.116 C 
BRANCH   3   4
ATOM      4  N   UNL A   1      35.160  24.641  25.514  1.00  0.00    -0.356 N 
ATOM      5  C   UNL A   1      34.673  23.365  25.546  1.00  0.00     0.224 C 
ATOM      6  O   UNL A   1      35.478  22.434  25.644  1.00  0.00    -0.275 OA
ATOM      7  H   UNL A   1      36.127  24.727  25.675  1.00  0.00     0.163 HD
BRANCH   5   8
ATOM      8  C   UNL A   1      33.192  23.091  25.347  1.00  0.00     0.138 C 
BRANCH   8   9
ATOM      9  C   UNL A   1      32.830  22.445  24.040  1.00  0.00    -0.002 A 
ATOM     10  C   UNL A   1      32.618  23.067  22.813  1.00  0.00     0.093 A 
ATOM     11  N   UNL A   1      32.382  22.079  21.885  1.00  0.00    -0.352 N 
ATOM     12  C   UNL A   1      32.313  20.850  22.491  1.00  0.00     0.046 A 
ATOM     13  H   UNL A   1      32.279  22.233  20.918  1.00  0.00     0.167 HD
ATOM     14  C   UNL A   1      32.579  21.045  23.842  1.00  0.00     0.008 A 
ATOM     15  C   UNL A   1      32.053  19.590  21.943  1.00  0.00     0.030 A 
ATOM     16  C   UNL A   1      32.570  19.916  24.690  1.00  0.00     0.057 A 
ATOM     17  C   UNL A   1      32.054  18.487  22.808  1.00  0.00     0.049 A 
ATOM     18  C   UNL A   1      32.308  18.639  24.170  1.00  0.00     0.130 A 
BRANCH  10  19
ATOM     19  C   UNL A   1      32.689  24.475  22.460  1.00  0.00     0.227 C 
ATOM     20  O   UNL A   1      33.593  24.906  21.753  1.00  0.00    -0.285 OA
BRANCH  19  21
ATOM     21  C   UNL A   1      31.580  25.386  22.939  1.00  0.00     0.113 A 
ATOM     22  C   UNL A   1      30.664  29.059  23.240  1.00  0.00     0.044 C 
ATOM     23  C   UNL A   1      30.619  27.563  23.325  1.00  0.00    -0.047 A 
ATOM     24  C   UNL A   1      29.521  26.925  23.904  1.00  0.00     0.023 A 
ATOM     25  C   UNL A   1      31.659  26.775  22.816  1.00  0.00     0.036 A 
ATOM     26  C   UNL A   1      29.514  25.543  23.972  1.00  0.00     0.112 A 
ATOM     27  N   UNL A   1      30.518  24.767  23.516  1.00  0.00    -0.253 NA
ENDBRANCH  19  21
ENDBRANCH  10  19
BRANCH  18  28
ATOM     28  O   UNL A   1      32.335  17.644  25.107  1.00  0.00    -0.406 OA
BRANCH  28  29
ATOM     29  C   UNL A   1      33.339  16.648  24.990  1.00  0.00     0.573 C 
ATOM     30  F   UNL A   1      32.936  15.655  24.169  1.00  0.00    -0.132 F 
ATOM     31  F   UNL A   1      34.493  17.175  24.532  1.00  0.00    -0.132 F 
ATOM     32  F   UNL A   1      33.564  16.118  26.211  1.00  0.00    -0.132 F 
ENDBRANCH  28  29
ENDBRANCH  18  28
ENDBRANCH   8   9
ENDBRANCH   5   8
ENDBRANCH   3   4
ENDBRANCH   2   3
ENDBRANCH   1   2
BRANCH   1  33
ATOM     33  C   UNL A   1      33.448  28.566  25.835  1.00  0.00     0.002 C 
BRANCH  33  34
ATOM     34  C   UNL A   1      33.975  29.732  26.681  1.00  0.00     0.021 C 
BRANCH  34  35
ATOM     35  C   UNL A   1      35.130  29.401  27.627  1.00  0.00     0.116 C 
BRANCH  35  36
ATOM     36  N   UNL A   1      35.131  30.233  28.817  1.00  0.00    -0.352 N 
ATOM     37  C   UNL A   1      36.165  30.536  29.669  1.00  0.00     0.251 C 
ATOM     38  H   UNL A   1      34.264  30.639  29.048  1.00  0.00     0.163 HD
ATOM     39  O   UNL A   1      35.933  31.147  30.710  1.00  0.00    -0.269 OA
BRANCH  37  40
ATOM     40  C   UNL A   1      37.552  30.119  29.359  1.00  0.00     0.039 A 
ATOM     41  C   UNL A   1      38.416  29.832  30.424  1.00  0.00     0.014 A 
ATOM     42  C   UNL A   1      38.027  30.068  28.044  1.00  0.00     0.014 A 
ATOM     43  C   UNL A   1      39.736  29.448  30.172  1.00  0.00     0.010 A 
ATOM     44  C   UNL A   1      39.342  29.667  27.793  1.00  0.00     0.010 A 
ATOM     45  C   UNL A   1      40.204  29.351  28.853  1.00  0.00    -0.014 A 
BRANCH  45  46
ATOM     46  C   UNL A   1      41.594  28.919  28.571  1.00  0.00     0.031 A 
ATOM     47  C   UNL A   1      42.720  29.909  28.604  1.00  0.00     0.074 A 
ATOM     48  C   UNL A   1      41.839  27.636  28.245  1.00  0.00     0.049 A 
ATOM     49  N   UNL A   1      43.974  29.742  28.270  1.00  0.00    -0.248 NA
ATOM     50  C   UNL A   1      42.390  31.268  29.060  1.00  0.00     0.031 C 
ATOM     51  C   UNL A   1      40.833  26.576  28.165  1.00  0.00     0.029 A 
ATOM     52  N   UNL A   1      43.012  27.011  27.908  1.00  0.00    -0.354 N 
ATOM     53  C   UNL A   1      44.578  30.981  28.439  1.00  0.00     0.074 A 
ATOM     54  C   UNL A   1      43.556  31.886  28.925  1.00  0.00     0.031 C 
ATOM     55  C   UNL A   1      41.434  25.430  27.804  1.00  0.00     0.029 A 
ATOM     56  C   UNL A   1      42.861  25.680  27.612  1.00  0.00     0.049 A 
ATOM     57  H   UNL A   1      43.881  27.474  27.882  1.00  0.00     0.167 HD
ATOM     58  C   UNL A   1      45.864  31.335  28.199  1.00  0.00     0.037 A 
ATOM     59  C   UNL A   1      43.767  24.764  27.221  1.00  0.00     0.037 A 
ATOM     60  C   UNL A   1      46.890  30.439  27.737  1.00  0.00     0.049 A 
ATOM     61  C   UNL A   1      45.204  25.159  27.051  1.00  0.00     0.074 A 
ATOM     62  C   UNL A   1      48.209  30.720  27.426  1.00  0.00     0.029 A 
ATOM     63  N   UNL A   1      46.714  29.078  27.539  1.00  0.00    -0.354 N 
ATOM     64  N   UNL A   1      45.749  26.344  27.175  1.00  0.00    -0.248 NA
ATOM     65  C   UNL A   1      46.148  24.093  26.689  1.00  0.00     0.031 C 
ATOM     66  C   UNL A   1      48.836  29.524  27.050  1.00  0.00     0.029 A 
ATOM     67  C   UNL A   1      47.906  28.501  27.131  1.00  0.00     0.049 A 
ATOM     68  H   UNL A   1      45.868  28.593  27.670  1.00  0.00     0.167 HD
ATOM     69  C   UNL A   1      47.099  26.169  26.899  1.00  0.00     0.074 A 
ATOM     70  C   UNL A   1      47.293  24.761  26.618  1.00  0.00     0.031 C 
ATOM     71  C   UNL A   1      48.086  27.097  26.869  1.00  0.00     0.037 A 
BRANCH  58  72
ATOM     72  C   UNL A   1      46.213  32.776  28.413  1.00  0.00     0.058 A 
ATOM     73  C   UNL A   1      46.675  33.237  29.654  1.00  0.00     0.135 A 
ATOM     74  C   UNL A   1      46.069  33.704  27.370  1.00  0.00     0.135 A 
ATOM     75  F   UNL A   1      46.810  32.385  30.684  1.00  0.00    -0.206 F 
ATOM     76  C   UNL A   1      46.962  34.582  29.864  1.00  0.00     0.059 A 
ATOM     77  C   UNL A   1      46.356  35.052  27.556  1.00  0.00     0.059 A 
ATOM     78  F   UNL A   1      45.622  33.307  26.168  1.00  0.00    -0.206 F 
ATOM     79  C   UNL A   1      46.785  35.483  28.812  1.00  0.00     0.060 A 
BRANCH  79  80
ATOM     80  S   UNL A   1      47.120  37.239  29.076  1.00  0.00     0.124 S 
ATOM     81  O   UNL A   1      47.931  37.555  27.906  1.00  0.00    -0.237 OA
ATOM     82  O   UNL A   1      45.785  37.829  29.098  1.00  0.00    -0.237 OA
ATOM     83  O   UNL A   1      47.824  37.247  30.355  1.00  0.00    -0.744 OA
ENDBRANCH  79  80
ENDBRANCH  58  72
BRANCH  59  84
ATOM     84  C   UNL A   1      43.330  23.373  26.965  1.00  0.00     0.058 A 
ATOM     85  C   UNL A   1      43.114  22.921  25.656  1.00  0.00     0.135 A 
ATOM     86  C   UNL A   1      43.161  22.465  28.018  1.00  0.00     0.135 A 
ATOM     87  F   UNL A   1      43.264  23.762  24.622  1.00  0.00    -0.206 F 
ATOM     88  C   UNL A   1      42.748  21.605  25.395  1.00  0.00     0.059 A 
ATOM     89  C   UNL A   1      42.802  21.144  27.783  1.00  0.00     0.059 A 
ATOM     90  F   UNL A   1      43.369  22.857  29.285  1.00  0.00    -0.206 F 
ATOM     91  C   UNL A   1      42.596  20.724  26.466  1.00  0.00     0.060 A 
BRANCH  91  92
ATOM     92  S   UNL A   1      42.200  18.990  26.149  1.00  0.00     0.124 S 
ATOM     93  O   UNL A   1      43.148  18.662  25.091  1.00  0.00    -0.237 OA
ATOM     94  O   UNL A   1      42.444  18.358  27.441  1.00  0.00    -0.237 OA
ATOM     95  O   UNL A   1      40.796  19.052  25.750  1.00  0.00    -0.744 OA
ENDBRANCH  91  92
ENDBRANCH  59  84
BRANCH  71  96
ATOM     96  C   UNL A   1      49.461  26.613  26.526  1.00  0.00     0.058 A 
ATOM     97  C   UNL A   1      50.314  26.102  27.515  1.00  0.00     0.135 A 
ATOM     98  C   UNL A   1      49.923  26.642  25.201  1.00  0.00     0.135 A 
ATOM     99  F   UNL A   1      49.915  26.061  28.795  1.00  0.00    -0.206 F 
ATOM    100  C   UNL A   1      51.589  25.642  27.203  1.00  0.00     0.059 A 
ATOM    101  C   UNL A   1      51.192  26.183  24.866  1.00  0.00     0.059 A 
ATOM    102  F   UNL A   1      49.140  27.126  24.223  1.00  0.00    -0.206 F 
ATOM    103  C   UNL A   1      52.022  25.693  25.876  1.00  0.00     0.060 A 
BRANCH 103 104
ATOM    104  S   UNL A   1      53.668  25.078  25.456  1.00  0.00     0.124 S 
ATOM    105  O   UNL A   1      53.423  23.643  25.348  1.00  0.00    -0.237 OA
ATOM    106  O   UNL A   1      53.963  25.765  24.202  1.00  0.00    -0.237 OA
ATOM    107  O   UNL A   1      54.477  25.498  26.596  1.00  0.00    -0.744 OA
ENDBRANCH 103 104
ENDBRANCH  71  96
ENDBRANCH  45  46
ENDBRANCH  37  40
ENDBRANCH  35  36
ENDBRANCH  34  35
ENDBRANCH  33  34
ENDBRANCH   1  33
TORSDOF 21
ENDMDL
MODEL 2
REMARK VINA RESULT:     -12.0      6.059     10.192
REMARK SMILES Cc1ccnc(C(=O)c2[nH]c3ccc(OC(F)(F)F)cc3c2CC(=O)NCCCCCCNC(=O)c2ccc(-c3c4nc(c(-c5c(F)cc(S(=O)(=O)[O-])cc5F)c5ccc([nH]5)c(-c5c(F)cc(S(=O)(=O)[O-])cc5F)c5nc(c(-c6c(F)cc(S(=O)(=O)[O-])cc6F)c6ccc3[nH]6)C=C5)C=C4)cc2)c1
REMARK SMILES IDX 29 1 28 2 27 3 26 4 24 5 25 6 23 8 22 9 9 10 10 11 11 12
REMARK SMILES IDX 21 14 12 15 20 16 13 17 14 18 7 19 8 20 6 21 1 22 2 23 3 24
REMARK SMILES IDX 102 25 4 26 5 27 15 28 16 29 17 30 18 31 19 32 30 33 31 34
REMARK SMILES IDX 32 35 33 36 34 37 35 39 36 40 37 41 101 42 38 43 100 44
REMARK SMILES IDX 39 45 40 46 41 47 94 48 42 49 99 50 93 51 95 52 43 53 98 54
REMARK SMILES IDX 92 55 91 56 44 58 78 59 57 60 77 61 58 62 61 63 76 64 96 65
REMARK SMILES IDX 59 66 60 67 75 69 97 70 62 71 45 72 46 73 55 74 47 75 48 76
REMARK SMILES IDX 54 77 56 78 49 79 50 80 51 81 52 82 53 83 79 84 80 85 89 86
REMARK SMILES IDX 81 87 82 88 88 89 90 90 83 91 84 92 85 93 86 94 87 95 63 96
REMARK SMILES IDX 64 97 73 98 65 99 66 100 72 101 74 102 67 103 68 104 69 105
REMARK SMILES IDX 70 106 71 107
REMARK H PARENT 26 7 10 13 33 38 95 57 61 68
REMARK Flexibility Score: inf
ROOT
ATOM      1  C   UNL A   1      31.646  29.732  25.850  1.00  0.00     0.002 C 
ENDROOT
BRANCH   1   2
ATOM      2  C   UNL A   1      31.923  28.686  26.936  1.00  0.00     0.021 C 
BRANCH   2   3
ATOM      3  C   UNL A   1      32.488  27.360  26.428  1.00  0.00     0.116 C 
BRANCH   3   4
ATOM      4  N   UNL A   1      31.716  26.215  26.870  1.00  0.00    -0.356 N 
ATOM      5  C   UNL A   1      31.944  24.884  26.663  1.00  0.00     0.224 C 
ATOM      6  O   UNL A   1      31.218  24.069  27.240  1.00  0.00    -0.275 OA
ATOM      7  H   UNL A   1      30.910  26.427  27.395  1.00  0.00     0.163 HD
BRANCH   5   8
ATOM      8  C   UNL A   1      33.132  24.417  25.839  1.00  0.00     0.138 C 
BRANCH   8   9
ATOM      9  C   UNL A   1      32.790  23.811  24.507  1.00  0.00    -0.002 A 
ATOM     10  C   UNL A   1      32.560  24.475  23.305  1.00  0.00     0.093 A 
ATOM     11  N   UNL A   1      32.353  23.517  22.339  1.00  0.00    -0.352 N 
ATOM     12  C   UNL A   1      32.318  22.264  22.896  1.00  0.00     0.046 A 
ATOM     13  H   UNL A   1      32.245  23.706  21.378  1.00  0.00     0.167 HD
ATOM     14  C   UNL A   1      32.578  22.414  24.255  1.00  0.00     0.008 A 
ATOM     15  C   UNL A   1      32.093  21.019  22.300  1.00  0.00     0.030 A 
ATOM     16  C   UNL A   1      32.600  21.253  25.058  1.00  0.00     0.057 A 
ATOM     17  C   UNL A   1      32.125  19.884  23.122  1.00  0.00     0.049 A 
ATOM     18  C   UNL A   1      32.374  19.991  24.489  1.00  0.00     0.130 A 
BRANCH  10  19
ATOM     19  C   UNL A   1      32.591  25.897  23.006  1.00  0.00     0.227 C 
ATOM     20  O   UNL A   1      33.631  26.449  22.666  1.00  0.00    -0.285 OA
BRANCH  19  21
ATOM     21  C   UNL A   1      31.291  26.667  23.070  1.00  0.00     0.113 A 
ATOM     22  C   UNL A   1      29.753  30.002  22.104  1.00  0.00     0.044 C 
ATOM     23  C   UNL A   1      29.941  28.620  22.656  1.00  0.00    -0.047 A 
ATOM     24  C   UNL A   1      28.888  27.975  23.306  1.00  0.00     0.023 A 
ATOM     25  C   UNL A   1      31.159  27.943  22.519  1.00  0.00     0.036 A 
ATOM     26  C   UNL A   1      29.097  26.703  23.809  1.00  0.00     0.112 A 
ATOM     27  N   UNL A   1      30.270  26.045  23.715  1.00  0.00    -0.253 NA
ENDBRANCH  19  21
ENDBRANCH  10  19
BRANCH  18  28
ATOM     28  O   UNL A   1      32.429  18.961  25.386  1.00  0.00    -0.406 OA
BRANCH  28  29
ATOM     29  C   UNL A   1      33.128  17.786  25.008  1.00  0.00     0.573 C 
ATOM     30  F   UNL A   1      34.284  18.094  24.384  1.00  0.00    -0.132 F 
ATOM     31  F   UNL A   1      33.385  17.009  26.080  1.00  0.00    -0.132 F 
ATOM     32  F   UNL A   1      32.358  17.087  24.146  1.00  0.00    -0.132 F 
ENDBRANCH  28  29
ENDBRANCH  18  28
ENDBRANCH   8   9
ENDBRANCH   5   8
ENDBRANCH   3   4
ENDBRANCH   2   3
ENDBRANCH   1   2
BRANCH   1  33
ATOM     33  C   UNL A   1      31.590  31.189  26.321  1.00  0.00     0.002 C 
BRANCH  33  34
ATOM     34  C   UNL A   1      32.591  31.582  27.415  1.00  0.00     0.021 C 
BRANCH  34  35
ATOM     35  C   UNL A   1      33.392  32.860  27.157  1.00  0.00     0.116 C 
BRANCH  35  36
ATOM     36  N   UNL A   1      32.868  34.002  27.884  1.00  0.00    -0.352 N 
ATOM     37  C   UNL A   1      33.265  34.526  29.089  1.00  0.00     0.251 C 
ATOM     38  H   UNL A   1      32.117  34.469  27.450  1.00  0.00     0.163 HD
ATOM     39  O   UNL A   1      32.599  35.417  29.612  1.00  0.00    -0.269 OA
BRANCH  37  40
ATOM     40  C   UNL A   1      34.475  34.019  29.777  1.00  0.00     0.039 A 
ATOM     41  C   UNL A   1      34.315  33.083  30.806  1.00  0.00     0.014 A 
ATOM     42  C   UNL A   1      35.752  34.500  29.465  1.00  0.00     0.014 A 
ATOM     43  C   UNL A   1      35.431  32.591  31.487  1.00  0.00     0.010 A 
ATOM     44  C   UNL A   1      36.869  33.994  30.135  1.00  0.00     0.010 A 
ATOM     45  C   UNL A   1      36.718  33.034  31.147  1.00  0.00    -0.014 A 
BRANCH  45  46
ATOM     46  C   UNL A   1      37.914  32.501  31.844  1.00  0.00     0.031 A 
ATOM     47  C   UNL A   1      38.702  31.373  31.247  1.00  0.00     0.074 A 
ATOM     48  C   UNL A   1      38.267  33.007  33.040  1.00  0.00     0.049 A 
ATOM     49  N   UNL A   1      39.698  30.701  31.764  1.00  0.00    -0.248 NA
ATOM     50  C   UNL A   1      38.312  30.938  29.898  1.00  0.00     0.031 C 
ATOM     51  C   UNL A   1      37.579  34.095  33.736  1.00  0.00     0.029 A 
ATOM     52  N   UNL A   1      39.291  32.662  33.885  1.00  0.00    -0.354 N 
ATOM     53  C   UNL A   1      40.033  29.737  30.821  1.00  0.00     0.074 A 
ATOM     54  C   UNL A   1      39.145  29.926  29.692  1.00  0.00     0.031 C 
ATOM     55  C   UNL A   1      38.202  34.330  34.903  1.00  0.00     0.029 A 
ATOM     56  C   UNL A   1      39.320  33.400  35.042  1.00  0.00     0.049 A 
ATOM     57  H   UNL A   1      39.943  31.953  33.681  1.00  0.00     0.167 HD
ATOM     58  C   UNL A   1      40.984  28.775  30.895  1.00  0.00     0.037 A 
ATOM     59  C   UNL A   1      40.149  33.329  36.101  1.00  0.00     0.037 A 
ATOM     60  C   UNL A   1      41.883  28.594  32.004  1.00  0.00     0.049 A 
ATOM     61  C   UNL A   1      41.254  32.315  36.120  1.00  0.00     0.074 A 
ATOM     62  C   UNL A   1      42.850  27.619  32.184  1.00  0.00     0.029 A 
ATOM     63  N   UNL A   1      41.940  29.422  33.114  1.00  0.00    -0.354 N 
ATOM     64  N   UNL A   1      41.529  31.385  35.239  1.00  0.00    -0.248 NA
ATOM     65  C   UNL A   1      42.161  32.342  37.276  1.00  0.00     0.031 C 
ATOM     66  C   UNL A   1      43.500  27.865  33.401  1.00  0.00     0.029 A 
ATOM     67  C   UNL A   1      42.939  28.993  33.974  1.00  0.00     0.049 A 
ATOM     68  H   UNL A   1      41.357  30.199  33.269  1.00  0.00     0.167 HD
ATOM     69  C   UNL A   1      42.636  30.709  35.736  1.00  0.00     0.074 A 
ATOM     70  C   UNL A   1      42.992  31.348  36.988  1.00  0.00     0.031 C 
ATOM     71  C   UNL A   1      43.289  29.647  35.208  1.00  0.00     0.037 A 
BRANCH  58  72
ATOM     72  C   UNL A   1      41.070  27.827  29.740  1.00  0.00     0.058 A 
ATOM     73  C   UNL A   1      42.115  27.908  28.807  1.00  0.00     0.135 A 
ATOM     74  C   UNL A   1      40.089  26.840  29.556  1.00  0.00     0.135 A 
ATOM     75  F   UNL A   1      43.064  28.848  28.936  1.00  0.00    -0.206 F 
ATOM     76  C   UNL A   1      42.173  27.052  27.712  1.00  0.00     0.059 A 
ATOM     77  C   UNL A   1      40.130  25.971  28.472  1.00  0.00     0.059 A 
ATOM     78  F   UNL A   1      39.066  26.734  30.419  1.00  0.00    -0.206 F 
ATOM     79  C   UNL A   1      41.167  26.097  27.546  1.00  0.00     0.060 A 
BRANCH  79  80
ATOM     80  S   UNL A   1      41.208  25.000  26.111  1.00  0.00     0.124 S 
ATOM     81  O   UNL A   1      39.838  24.501  26.092  1.00  0.00    -0.237 OA
ATOM     82  O   UNL A   1      41.568  25.900  25.019  1.00  0.00    -0.237 OA
ATOM     83  O   UNL A   1      42.232  24.025  26.475  1.00  0.00    -0.744 OA
ENDBRANCH  79  80
ENDBRANCH  58  72
BRANCH  59  84
ATOM     84  C   UNL A   1      39.957  34.260  37.236  1.00  0.00     0.058 A 
ATOM     85  C   UNL A   1      40.570  35.521  37.238  1.00  0.00     0.135 A 
ATOM     86  C   UNL A   1      39.127  33.922  38.313  1.00  0.00     0.135 A 
ATOM     87  F   UNL A   1      41.372  35.879  36.224  1.00  0.00    -0.206 F 
ATOM     88  C   UNL A   1      40.364  36.425  38.273  1.00  0.00     0.059 A 
ATOM     89  C   UNL A   1      38.900  34.811  39.357  1.00  0.00     0.059 A 
ATOM     90  F   UNL A   1      38.514  32.729  38.342  1.00  0.00    -0.206 F 
ATOM     91  C   UNL A   1      39.525  36.061  39.328  1.00  0.00     0.060 A 
BRANCH  91  92
ATOM     92  S   UNL A   1      39.176  37.247  40.645  1.00  0.00     0.124 S 
ATOM     93  O   UNL A   1      38.589  36.388  41.666  1.00  0.00    -0.237 OA
ATOM     94  O   UNL A   1      40.495  37.790  40.953  1.00  0.00    -0.237 OA
ATOM     95  O   UNL A   1      38.262  38.183  39.996  1.00  0.00    -0.744 OA
ENDBRANCH  91  92
ENDBRANCH  59  84
BRANCH  71  96
ATOM     96  C   UNL A   1      44.457  29.116  35.981  1.00  0.00     0.058 A 
ATOM     97  C   UNL A   1      44.299  28.059  36.890  1.00  0.00     0.135 A 
ATOM     98  C   UNL A   1      45.741  29.649  35.799  1.00  0.00     0.135 A 
ATOM     99  F   UNL A   1      43.087  27.522  37.098  1.00  0.00    -0.206 F 
ATOM    100  C   UNL A   1      45.380  27.552  37.604  1.00  0.00     0.059 A 
ATOM    101  C   UNL A   1      46.836  29.156  36.500  1.00  0.00     0.059 A 
ATOM    102  F   UNL A   1      45.937  30.663  34.942  1.00  0.00    -0.206 F 
ATOM    103  C   UNL A   1      46.644  28.113  37.409  1.00  0.00     0.060 A 
BRANCH 103 104
ATOM    104  S   UNL A   1      48.059  27.449  38.315  1.00  0.00     0.124 S 
ATOM    105  O   UNL A   1      47.424  26.979  39.541  1.00  0.00    -0.237 OA
ATOM    106  O   UNL A   1      48.559  26.408  37.422  1.00  0.00    -0.237 OA
ATOM    107  O   UNL A   1      48.931  28.611  38.458  1.00  0.00    -0.744 OA
ENDBRANCH 103 104
ENDBRANCH  71  96
ENDBRANCH  45  46
ENDBRANCH  37  40
ENDBRANCH  35  36
ENDBRANCH  34  35
ENDBRANCH  33  34
ENDBRANCH   1  33
TORSDOF 21
ENDMDL
MODEL 3
REMARK VINA RESULT:     -12.0      3.262      9.301
REMARK SMILES Cc1ccnc(C(=O)c2[nH]c3ccc(OC(F)(F)F)cc3c2CC(=O)NCCCCCCNC(=O)c2ccc(-c3c4nc(c(-c5c(F)cc(S(=O)(=O)[O-])cc5F)c5ccc([nH]5)c(-c5c(F)cc(S(=O)(=O)[O-])cc5F)c5nc(c(-c6c(F)cc(S(=O)(=O)[O-])cc6F)c6ccc3[nH]6)C=C5)C=C4)cc2)c1
REMARK SMILES IDX 29 1 28 2 27 3 26 4 24 5 25 6 23 8 22 9 9 10 10 11 11 12
REMARK SMILES IDX 21 14 12 15 20 16 13 17 14 18 7 19 8 20 6 21 1 22 2 23 3 24
REMARK SMILES IDX 102 25 4 26 5 27 15 28 16 29 17 30 18 31 19 32 30 33 31 34
REMARK SMILES IDX 32 35 33 36 34 37 35 39 36 40 37 41 101 42 38 43 100 44
REMARK SMILES IDX 39 45 40 46 41 47 94 48 42 49 99 50 93 51 95 52 43 53 98 54
REMARK SMILES IDX 92 55 91 56 44 58 78 59 57 60 77 61 58 62 61 63 76 64 96 65
REMARK SMILES IDX 59 66 60 67 75 69 97 70 62 71 45 72 46 73 55 74 47 75 48 76
REMARK SMILES IDX 54 77 56 78 49 79 50 80 51 81 52 82 53 83 79 84 80 85 89 86
REMARK SMILES IDX 81 87 82 88 88 89 90 90 83 91 84 92 85 93 86 94 87 95 63 96
REMARK SMILES IDX 64 97 73 98 65 99 66 100 72 101 74 102 67 103 68 104 69 105
REMARK SMILES IDX 70 106 71 107
REMARK H PARENT 26 7 10 13 33 38 95 57 61 68
REMARK Flexibility Score: inf
ROOT
ATOM      1  C   UNL A   1      34.770  31.812  28.573  1.00  0.00     0.002 C 
ENDROOT
BRANCH   1   2
ATOM      2  C   UNL A   1      33.969  31.551  27.292  1.00  0.00     0.021 C 
BRANCH   2   3
ATOM      3  C   UNL A   1      33.872  30.083  26.877  1.00  0.00     0.116 C 
BRANCH   3   4
ATOM      4  N   UNL A   1      32.839  29.363  27.597  1.00  0.00    -0.356 N 
ATOM      5  C   UNL A   1      32.131  28.257  27.221  1.00  0.00     0.224 C 
ATOM      6  O   UNL A   1      31.380  27.733  28.048  1.00  0.00    -0.275 OA
ATOM      7  H   UNL A   1      32.615  29.725  28.485  1.00  0.00     0.163 HD
BRANCH   5   8
ATOM      8  C   UNL A   1      32.352  27.618  25.860  1.00  0.00     0.138 C 
BRANCH   8   9
ATOM      9  C   UNL A   1      31.113  27.097  25.189  1.00  0.00    -0.002 A 
ATOM     10  C   UNL A   1      30.609  25.799  25.220  1.00  0.00     0.093 A 
ATOM     11  N   UNL A   1      29.421  25.802  24.527  1.00  0.00    -0.352 N 
ATOM     12  C   UNL A   1      29.200  27.024  23.945  1.00  0.00     0.046 A 
ATOM     13  H   UNL A   1      28.812  25.031  24.459  1.00  0.00     0.167 HD
ATOM     14  C   UNL A   1      30.246  27.856  24.332  1.00  0.00     0.008 A 
ATOM     15  C   UNL A   1      28.152  27.456  23.126  1.00  0.00     0.030 A 
ATOM     16  C   UNL A   1      30.245  29.186  23.860  1.00  0.00     0.057 A 
ATOM     17  C   UNL A   1      28.176  28.783  22.676  1.00  0.00     0.049 A 
ATOM     18  C   UNL A   1      29.209  29.647  23.033  1.00  0.00     0.130 A 
BRANCH  10  19
ATOM     19  C   UNL A   1      31.123  24.619  25.894  1.00  0.00     0.227 C 
ATOM     20  O   UNL A   1      31.122  24.538  27.117  1.00  0.00    -0.285 OA
BRANCH  19  21
ATOM     21  C   UNL A   1      31.604  23.465  25.042  1.00  0.00     0.113 A 
ATOM     22  C   UNL A   1      32.608  19.810  25.271  1.00  0.00     0.044 C 
ATOM     23  C   UNL A   1      32.324  21.184  24.743  1.00  0.00    -0.047 A 
ATOM     24  C   UNL A   1      32.531  21.474  23.394  1.00  0.00     0.023 A 
ATOM     25  C   UNL A   1      31.832  22.195  25.577  1.00  0.00     0.036 A 
ATOM     26  C   UNL A   1      32.265  22.754  22.940  1.00  0.00     0.112 A 
ATOM     27  N   UNL A   1      31.820  23.751  23.732  1.00  0.00    -0.253 NA
ENDBRANCH  19  21
ENDBRANCH  10  19
BRANCH  18  28
ATOM     28  O   UNL A   1      29.341  30.954  22.657  1.00  0.00    -0.406 OA
BRANCH  28  29
ATOM     29  C   UNL A   1      28.791  31.949  23.507  1.00  0.00     0.573 C 
ATOM     30  F   UNL A   1      29.528  32.080  24.631  1.00  0.00    -0.132 F 
ATOM     31  F   UNL A   1      28.714  33.137  22.874  1.00  0.00    -0.132 F 
ATOM     32  F   UNL A   1      27.545  31.570  23.863  1.00  0.00    -0.132 F 
ENDBRANCH  28  29
ENDBRANCH  18  28
ENDBRANCH   8   9
ENDBRANCH   5   8
ENDBRANCH   3   4
ENDBRANCH   2   3
ENDBRANCH   1   2
BRANCH   1  33
ATOM     33  C   UNL A   1      35.919  32.818  28.452  1.00  0.00     0.002 C 
BRANCH  33  34
ATOM     34  C   UNL A   1      36.176  33.699  29.681  1.00  0.00     0.021 C 
BRANCH  34  35
ATOM     35  C   UNL A   1      37.094  33.102  30.749  1.00  0.00     0.116 C 
BRANCH  35  36
ATOM     36  N   UNL A   1      36.540  31.904  31.353  1.00  0.00    -0.352 N 
ATOM     37  C   UNL A   1      36.982  30.606  31.280  1.00  0.00     0.251 C 
ATOM     38  H   UNL A   1      35.728  32.041  31.894  1.00  0.00     0.163 HD
ATOM     39  O   UNL A   1      36.291  29.703  31.747  1.00  0.00    -0.269 OA
BRANCH  37  40
ATOM     40  C   UNL A   1      38.271  30.277  30.628  1.00  0.00     0.039 A 
ATOM     41  C   UNL A   1      39.394  30.069  31.438  1.00  0.00     0.014 A 
ATOM     42  C   UNL A   1      38.398  30.233  29.235  1.00  0.00     0.014 A 
ATOM     43  C   UNL A   1      40.630  29.769  30.859  1.00  0.00     0.010 A 
ATOM     44  C   UNL A   1      39.631  29.916  28.658  1.00  0.00     0.010 A 
ATOM     45  C   UNL A   1      40.754  29.678  29.465  1.00  0.00    -0.014 A 
BRANCH  45  46
ATOM     46  C   UNL A   1      42.054  29.335  28.838  1.00  0.00     0.031 A 
ATOM     47  C   UNL A   1      42.319  27.941  28.350  1.00  0.00     0.074 A 
ATOM     48  C   UNL A   1      43.016  30.272  28.746  1.00  0.00     0.049 A 
ATOM     49  N   UNL A   1      43.430  27.428  27.889  1.00  0.00    -0.248 NA
ATOM     50  C   UNL A   1      41.190  27.000  28.399  1.00  0.00     0.031 C 
ATOM     51  C   UNL A   1      42.891  31.660  29.193  1.00  0.00     0.029 A 
ATOM     52  N   UNL A   1      44.292  30.192  28.252  1.00  0.00    -0.354 N 
ATOM     53  C   UNL A   1      43.149  26.094  27.625  1.00  0.00     0.074 A 
ATOM     54  C   UNL A   1      41.755  25.883  27.960  1.00  0.00     0.031 C 
ATOM     55  C   UNL A   1      44.046  32.302  28.951  1.00  0.00     0.029 A 
ATOM     56  C   UNL A   1      44.994  31.367  28.349  1.00  0.00     0.049 A 
ATOM     57  H   UNL A   1      44.670  29.368  27.865  1.00  0.00     0.167 HD
ATOM     58  C   UNL A   1      43.978  25.130  27.158  1.00  0.00     0.037 A 
ATOM     59  C   UNL A   1      46.261  31.658  27.999  1.00  0.00     0.037 A 
ATOM     60  C   UNL A   1      45.357  25.336  26.802  1.00  0.00     0.049 A 
ATOM     61  C   UNL A   1      47.134  30.597  27.398  1.00  0.00     0.074 A 
ATOM     62  C   UNL A   1      46.286  24.408  26.362  1.00  0.00     0.029 A 
ATOM     63  N   UNL A   1      46.001  26.563  26.827  1.00  0.00    -0.354 N 
ATOM     64  N   UNL A   1      46.864  29.331  27.195  1.00  0.00    -0.248 NA
ATOM     65  C   UNL A   1      48.482  31.004  26.978  1.00  0.00     0.031 C 
ATOM     66  C   UNL A   1      47.491  25.078  26.109  1.00  0.00     0.029 A 
ATOM     67  C   UNL A   1      47.308  26.422  26.390  1.00  0.00     0.049 A 
ATOM     68  H   UNL A   1      45.590  27.410  27.113  1.00  0.00     0.167 HD
ATOM     69  C   UNL A   1      48.011  28.786  26.631  1.00  0.00     0.074 A 
ATOM     70  C   UNL A   1      48.972  29.864  26.507  1.00  0.00     0.031 C 
ATOM     71  C   UNL A   1      48.248  27.505  26.260  1.00  0.00     0.037 A 
BRANCH  58  72
ATOM     72  C   UNL A   1      43.405  23.752  27.036  1.00  0.00     0.058 A 
ATOM     73  C   UNL A   1      42.953  23.258  25.804  1.00  0.00     0.135 A 
ATOM     74  C   UNL A   1      43.291  22.928  28.166  1.00  0.00     0.135 A 
ATOM     75  F   UNL A   1      43.028  24.020  24.701  1.00  0.00    -0.206 F 
ATOM     76  C   UNL A   1      42.384  21.993  25.698  1.00  0.00     0.059 A 
ATOM     77  C   UNL A   1      42.731  21.658  28.083  1.00  0.00     0.059 A 
ATOM     78  F   UNL A   1      43.702  23.365  29.367  1.00  0.00    -0.206 F 
ATOM     79  C   UNL A   1      42.264  21.207  26.847  1.00  0.00     0.060 A 
BRANCH  79  80
ATOM     80  S   UNL A   1      41.496  19.576  26.734  1.00  0.00     0.124 S 
ATOM     81  O   UNL A   1      40.663  19.731  25.547  1.00  0.00    -0.237 OA
ATOM     82  O   UNL A   1      42.641  18.682  26.591  1.00  0.00    -0.237 OA
ATOM     83  O   UNL A   1      40.778  19.466  28.001  1.00  0.00    -0.744 OA
ENDBRANCH  79  80
ENDBRANCH  58  72
BRANCH  59  84
ATOM     84  C   UNL A   1      46.777  33.030  28.213  1.00  0.00     0.058 A 
ATOM     85  C   UNL A   1      47.396  33.381  29.421  1.00  0.00     0.135 A 
ATOM     86  C   UNL A   1      46.695  33.996  27.202  1.00  0.00     0.135 A 
ATOM     87  F   UNL A   1      47.491  32.482  30.412  1.00  0.00    -0.206 F 
ATOM     88  C   UNL A   1      47.927  34.649  29.621  1.00  0.00     0.059 A 
ATOM     89  C   UNL A   1      47.223  35.270  27.376  1.00  0.00     0.059 A 
ATOM     90  F   UNL A   1      46.119  33.695  26.028  1.00  0.00    -0.206 F 
ATOM     91  C   UNL A   1      47.836  35.587  28.591  1.00  0.00     0.060 A 
BRANCH  91  92
ATOM     92  S   UNL A   1      48.588  37.217  28.796  1.00  0.00     0.124 S 
ATOM     93  O   UNL A   1      48.065  37.929  27.635  1.00  0.00    -0.237 OA
ATOM     94  O   UNL A   1      48.078  37.651  30.092  1.00  0.00    -0.237 OA
ATOM     95  O   UNL A   1      50.016  36.914  28.767  1.00  0.00    -0.744 OA
ENDBRANCH  91  92
ENDBRANCH  59  84
BRANCH  71  96
ATOM     96  C   UNL A   1      49.597  27.204  25.684  1.00  0.00     0.058 A 
ATOM     97  C   UNL A   1      49.838  27.332  24.308  1.00  0.00     0.135 A 
ATOM     98  C   UNL A   1      50.659  26.806  26.509  1.00  0.00     0.135 A 
ATOM     99  F   UNL A   1      48.849  27.706  23.481  1.00  0.00    -0.206 F 
ATOM    100  C   UNL A   1      51.090  27.065  23.765  1.00  0.00     0.059 A 
ATOM    101  C   UNL A   1      51.920  26.537  25.989  1.00  0.00     0.059 A 
ATOM    102  F   UNL A   1      50.471  26.668  27.832  1.00  0.00    -0.206 F 
ATOM    103  C   UNL A   1      52.124  26.660  24.613  1.00  0.00     0.060 A 
BRANCH 103 104
ATOM    104  S   UNL A   1      53.760  26.330  23.923  1.00  0.00     0.124 S 
ATOM    105  O   UNL A   1      54.132  25.108  24.626  1.00  0.00    -0.237 OA
ATOM    106  O   UNL A   1      53.489  26.182  22.496  1.00  0.00    -0.237 OA
ATOM    107  O   UNL A   1      54.516  27.525  24.286  1.00  0.00    -0.744 OA
ENDBRANCH 103 104
ENDBRANCH  71  96
ENDBRANCH  45  46
ENDBRANCH  37  40
ENDBRANCH  35  36
ENDBRANCH  34  35
ENDBRANCH  33  34
ENDBRANCH   1  33
TORSDOF 21
ENDMDL
