MODEL 1
REMARK VINA RESULT:     -13.1      0.000      0.000
REMARK SMILES Cc1ccccc1OCC(=O)c1nc(C)c(C(=O)NCCCCCCNC(=O)c2ccc(-c3c4nc(c(-c5c(F)cc(S(=O)(=O)[O-])cc5F)c5ccc([nH]5)c(-c5c(F)cc(S(=O)(=O)[O-])cc5F)c5nc(c(-c6c(F)cc(S(=O)(=O)[O-])cc6F)c6ccc3[nH]6)C=C5)C=C4)cc2)s1
REMARK SMILES IDX 22 1 21 2 20 3 19 4 17 5 18 6 16 8 12 9 13 10 95 11 14 12
REMARK SMILES IDX 15 13 10 14 11 15 9 16 8 17 7 18 1 19 2 20 3 21 4 22 6 23
REMARK SMILES IDX 5 24 23 25 24 26 25 27 26 28 27 29 28 31 29 32 30 33 94 34
REMARK SMILES IDX 31 35 93 36 32 37 33 38 34 39 87 40 35 41 92 42 86 43 88 44
REMARK SMILES IDX 36 45 91 46 85 47 84 48 37 50 71 51 50 52 70 53 51 54 54 55
REMARK SMILES IDX 69 56 89 57 52 58 53 59 68 61 90 62 55 63 38 64 39 65 48 66
REMARK SMILES IDX 40 67 41 68 47 69 49 70 42 71 43 72 44 73 45 74 46 75 72 76
REMARK SMILES IDX 73 77 82 78 74 79 75 80 81 81 83 82 76 83 77 84 78 85 79 86
REMARK SMILES IDX 80 87 56 88 57 89 66 90 58 91 59 92 65 93 67 94 60 95 61 96
REMARK SMILES IDX 62 97 63 98 64 99
REMARK H PARENT 19 7 26 30 88 49 54 60
REMARK Flexibility Score: inf
ROOT
ATOM      1  C   UNL A   1      31.425  29.147  25.072  1.00  0.00     0.002 C 
ENDROOT
BRANCH   1   2
ATOM      2  C   UNL A   1      31.509  29.045  23.544  1.00  0.00     0.021 C 
BRANCH   2   3
ATOM      3  C   UNL A   1      30.939  27.752  22.954  1.00  0.00     0.116 C 
BRANCH   3   4
ATOM      4  N   UNL A   1      31.880  27.127  22.055  1.00  0.00    -0.351 N 
ATOM      5  C   UNL A   1      32.697  26.032  22.121  1.00  0.00     0.263 C 
ATOM      6  O   UNL A   1      33.306  25.835  21.060  1.00  0.00    -0.268 OA
ATOM      7  H   UNL A   1      31.949  27.600  21.194  1.00  0.00     0.163 HD
BRANCH   5   8
ATOM      8  C   UNL A   1      32.849  25.142  23.272  1.00  0.00     0.115 A 
ATOM      9  C   UNL A   1      32.879  23.004  24.514  1.00  0.00     0.164 A 
ATOM     10  N   UNL A   1      33.191  24.005  25.301  1.00  0.00    -0.237 NA
ATOM     11  S   UNL A   1      32.521  23.457  22.921  1.00  0.00    -0.105 S 
ATOM     12  C   UNL A   1      33.248  25.211  24.607  1.00  0.00     0.062 A 
ATOM     13  C   UNL A   1      33.775  26.326  25.432  1.00  0.00     0.068 C 
BRANCH   9  14
ATOM     14  C   UNL A   1      32.873  21.631  25.010  1.00  0.00     0.228 C 
ATOM     15  O   UNL A   1      31.828  21.032  25.302  1.00  0.00    -0.288 OA
BRANCH  14  16
ATOM     16  C   UNL A   1      34.200  20.921  25.301  1.00  0.00     0.313 C 
BRANCH  16  17
ATOM     17  O   UNL A   1      35.338  21.062  24.493  1.00  0.00    -0.485 OA
BRANCH  17  18
ATOM     18  C   UNL A   1      36.604  21.229  24.962  1.00  0.00     0.122 A 
ATOM     19  C   UNL A   1      36.661  23.719  25.684  1.00  0.00     0.048 C 
ATOM     20  C   UNL A   1      37.249  22.350  25.502  1.00  0.00    -0.009 A 
ATOM     21  C   UNL A   1      38.577  22.197  25.966  1.00  0.00     0.007 A 
ATOM     22  C   UNL A   1      39.266  20.990  25.858  1.00  0.00     0.001 A 
ATOM     23  C   UNL A   1      37.322  20.022  24.849  1.00  0.00     0.047 A 
ATOM     24  C   UNL A   1      38.638  19.898  25.287  1.00  0.00     0.004 A 
ENDBRANCH  17  18
ENDBRANCH  16  17
ENDBRANCH  14  16
ENDBRANCH   9  14
ENDBRANCH   5   8
ENDBRANCH   3   4
ENDBRANCH   2   3
ENDBRANCH   1   2
BRANCH   1  25
ATOM     25  C   UNL A   1      32.507  30.002  25.751  1.00  0.00     0.002 C 
BRANCH  25  26
ATOM     26  C   UNL A   1      32.823  29.649  27.207  1.00  0.00     0.021 C 
BRANCH  26  27
ATOM     27  C   UNL A   1      34.317  29.532  27.489  1.00  0.00     0.116 C 
BRANCH  27  28
ATOM     28  N   UNL A   1      34.866  30.730  28.107  1.00  0.00    -0.352 N 
ATOM     29  C   UNL A   1      36.049  30.854  28.812  1.00  0.00     0.251 C 
ATOM     30  H   UNL A   1      34.331  31.551  28.011  1.00  0.00     0.163 HD
ATOM     31  O   UNL A   1      36.337  31.849  29.453  1.00  0.00    -0.269 OA
BRANCH  29  32
ATOM     32  C   UNL A   1      37.021  29.756  28.656  1.00  0.00     0.039 A 
ATOM     33  C   UNL A   1      37.247  28.944  29.774  1.00  0.00     0.014 A 
ATOM     34  C   UNL A   1      37.867  29.726  27.551  1.00  0.00     0.014 A 
ATOM     35  C   UNL A   1      38.421  28.201  29.846  1.00  0.00     0.010 A 
ATOM     36  C   UNL A   1      39.065  29.046  27.657  1.00  0.00     0.010 A 
ATOM     37  C   UNL A   1      39.360  28.319  28.820  1.00  0.00    -0.014 A 
BRANCH  37  38
ATOM     38  C   UNL A   1      40.719  27.802  28.927  1.00  0.00     0.031 A 
ATOM     39  C   UNL A   1      41.038  26.429  28.476  1.00  0.00     0.074 A 
ATOM     40  C   UNL A   1      41.702  28.583  29.426  1.00  0.00     0.049 A 
ATOM     41  N   UNL A   1      42.003  25.719  28.960  1.00  0.00    -0.248 NA
ATOM     42  C   UNL A   1      40.260  25.726  27.458  1.00  0.00     0.031 C 
ATOM     43  C   UNL A   1      43.139  28.333  29.371  1.00  0.00     0.029 A 
ATOM     44  N   UNL A   1      41.579  29.689  30.264  1.00  0.00    -0.354 N 
ATOM     45  C   UNL A   1      42.134  24.602  28.170  1.00  0.00     0.074 A 
ATOM     46  C   UNL A   1      40.993  24.621  27.283  1.00  0.00     0.031 C 
ATOM     47  C   UNL A   1      43.750  29.086  30.298  1.00  0.00     0.029 A 
ATOM     48  C   UNL A   1      42.717  29.740  31.083  1.00  0.00     0.049 A 
ATOM     49  H   UNL A   1      40.825  30.323  30.280  1.00  0.00     0.167 HD
ATOM     50  C   UNL A   1      43.260  23.839  28.244  1.00  0.00     0.037 A 
ATOM     51  C   UNL A   1      42.617  29.668  32.444  1.00  0.00     0.037 A 
ATOM     52  C   UNL A   1      44.202  24.356  29.227  1.00  0.00     0.049 A 
ATOM     53  C   UNL A   1      43.293  28.454  33.046  1.00  0.00     0.074 A 
ATOM     54  C   UNL A   1      45.282  25.216  29.113  1.00  0.00     0.029 A 
ATOM     55  N   UNL A   1      43.904  24.276  30.582  1.00  0.00    -0.354 N 
ATOM     56  N   UNL A   1      43.675  27.414  32.358  1.00  0.00    -0.248 NA
ATOM     57  C   UNL A   1      43.570  28.303  34.474  1.00  0.00     0.031 C 
ATOM     58  C   UNL A   1      45.594  25.708  30.402  1.00  0.00     0.029 A 
ATOM     59  C   UNL A   1      44.720  25.129  31.303  1.00  0.00     0.049 A 
ATOM     60  H   UNL A   1      43.212  23.694  30.972  1.00  0.00     0.167 HD
ATOM     61  C   UNL A   1      44.183  26.461  33.202  1.00  0.00     0.074 A 
ATOM     62  C   UNL A   1      44.125  27.077  34.514  1.00  0.00     0.031 C 
ATOM     63  C   UNL A   1      44.596  25.240  32.748  1.00  0.00     0.037 A 
BRANCH  50  64
ATOM     64  C   UNL A   1      43.597  22.820  27.187  1.00  0.00     0.058 A 
ATOM     65  C   UNL A   1      42.856  21.627  27.063  1.00  0.00     0.135 A 
ATOM     66  C   UNL A   1      44.688  22.947  26.307  1.00  0.00     0.135 A 
ATOM     67  F   UNL A   1      41.765  21.398  27.806  1.00  0.00    -0.206 F 
ATOM     68  C   UNL A   1      43.225  20.596  26.200  1.00  0.00     0.059 A 
ATOM     69  C   UNL A   1      45.105  21.910  25.464  1.00  0.00     0.059 A 
ATOM     70  F   UNL A   1      45.392  24.090  26.250  1.00  0.00    -0.206 F 
ATOM     71  C   UNL A   1      44.369  20.732  25.425  1.00  0.00     0.060 A 
BRANCH  71  72
ATOM     72  S   UNL A   1      44.895  19.332  24.417  1.00  0.00     0.124 S 
ATOM     73  O   UNL A   1      44.382  19.689  23.097  1.00  0.00    -0.237 OA
ATOM     74  O   UNL A   1      46.345  19.380  24.566  1.00  0.00    -0.237 OA
ATOM     75  O   UNL A   1      44.234  18.193  25.047  1.00  0.00    -0.744 OA
ENDBRANCH  71  72
ENDBRANCH  50  64
BRANCH  51  76
ATOM     76  C   UNL A   1      41.393  30.324  32.978  1.00  0.00     0.058 A 
ATOM     77  C   UNL A   1      40.280  29.511  33.270  1.00  0.00     0.135 A 
ATOM     78  C   UNL A   1      41.440  31.593  33.571  1.00  0.00     0.135 A 
ATOM     79  F   UNL A   1      40.180  28.289  32.720  1.00  0.00    -0.206 F 
ATOM     80  C   UNL A   1      39.332  29.877  34.219  1.00  0.00     0.059 A 
ATOM     81  C   UNL A   1      40.495  31.984  34.523  1.00  0.00     0.059 A 
ATOM     82  F   UNL A   1      42.475  32.413  33.333  1.00  0.00    -0.206 F 
ATOM     83  C   UNL A   1      39.482  31.093  34.882  1.00  0.00     0.060 A 
BRANCH  83  84
ATOM     84  S   UNL A   1      38.425  31.413  36.314  1.00  0.00     0.124 S 
ATOM     85  O   UNL A   1      38.082  30.063  36.745  1.00  0.00    -0.237 OA
ATOM     86  O   UNL A   1      39.331  32.144  37.197  1.00  0.00    -0.237 OA
ATOM     87  O   UNL A   1      37.331  32.198  35.755  1.00  0.00    -0.744 OA
ENDBRANCH  83  84
ENDBRANCH  51  76
BRANCH  63  88
ATOM     88  C   UNL A   1      45.008  24.061  33.598  1.00  0.00     0.058 A 
ATOM     89  C   UNL A   1      44.164  22.985  33.913  1.00  0.00     0.135 A 
ATOM     90  C   UNL A   1      46.358  23.918  34.003  1.00  0.00     0.135 A 
ATOM     91  F   UNL A   1      42.887  22.959  33.504  1.00  0.00    -0.206 F 
ATOM     92  C   UNL A   1      44.612  21.866  34.622  1.00  0.00     0.059 A 
ATOM     93  C   UNL A   1      46.838  22.790  34.662  1.00  0.00     0.059 A 
ATOM     94  F   UNL A   1      47.267  24.875  33.756  1.00  0.00    -0.206 F 
ATOM     95  C   UNL A   1      45.952  21.776  34.989  1.00  0.00     0.060 A 
BRANCH  95  96
ATOM     96  S   UNL A   1      46.561  20.307  35.838  1.00  0.00     0.124 S 
ATOM     97  O   UNL A   1      45.695  20.270  37.012  1.00  0.00    -0.237 OA
ATOM     98  O   UNL A   1      46.339  19.248  34.858  1.00  0.00    -0.237 OA
ATOM     99  O   UNL A   1      47.962  20.631  36.092  1.00  0.00    -0.744 OA
ENDBRANCH  95  96
ENDBRANCH  63  88
ENDBRANCH  37  38
ENDBRANCH  29  32
ENDBRANCH  27  28
ENDBRANCH  26  27
ENDBRANCH  25  26
ENDBRANCH   1  25
TORSDOF 20
ENDMDL
MODEL 2
REMARK VINA RESULT:     -12.5      4.969     11.646
REMARK SMILES Cc1ccccc1OCC(=O)c1nc(C)c(C(=O)NCCCCCCNC(=O)c2ccc(-c3c4nc(c(-c5c(F)cc(S(=O)(=O)[O-])cc5F)c5ccc([nH]5)c(-c5c(F)cc(S(=O)(=O)[O-])cc5F)c5nc(c(-c6c(F)cc(S(=O)(=O)[O-])cc6F)c6ccc3[nH]6)C=C5)C=C4)cc2)s1
REMARK SMILES IDX 22 1 21 2 20 3 19 4 17 5 18 6 16 8 12 9 13 10 95 11 14 12
REMARK SMILES IDX 15 13 10 14 11 15 9 16 8 17 7 18 1 19 2 20 3 21 4 22 6 23
REMARK SMILES IDX 5 24 23 25 24 26 25 27 26 28 27 29 28 31 29 32 30 33 94 34
REMARK SMILES IDX 31 35 93 36 32 37 33 38 34 39 87 40 35 41 92 42 86 43 88 44
REMARK SMILES IDX 36 45 91 46 85 47 84 48 37 50 71 51 50 52 70 53 51 54 54 55
REMARK SMILES IDX 69 56 89 57 52 58 53 59 68 61 90 62 55 63 38 64 39 65 48 66
REMARK SMILES IDX 40 67 41 68 47 69 49 70 42 71 43 72 44 73 45 74 46 75 72 76
REMARK SMILES IDX 73 77 82 78 74 79 75 80 81 81 83 82 76 83 77 84 78 85 79 86
REMARK SMILES IDX 80 87 56 88 57 89 66 90 58 91 59 92 65 93 67 94 60 95 61 96
REMARK SMILES IDX 62 97 63 98 64 99
REMARK H PARENT 19 7 26 30 88 49 54 60
REMARK Flexibility Score: inf
ROOT
ATOM      1  C   UNL A   1      35.723  20.687  24.821  1.00  0.00     0.002 C 
ENDROOT
BRANCH   1   2
ATOM      2  C   UNL A   1      34.245  20.350  25.052  1.00  0.00     0.021 C 
BRANCH   2   3
ATOM      3  C   UNL A   1      33.264  21.455  24.647  1.00  0.00     0.116 C 
BRANCH   3   4
ATOM      4  N   UNL A   1      33.645  22.059  23.393  1.00  0.00    -0.351 N 
ATOM      5  C   UNL A   1      33.621  23.331  22.888  1.00  0.00     0.263 C 
ATOM      6  O   UNL A   1      34.115  23.395  21.753  1.00  0.00    -0.268 OA
ATOM      7  H   UNL A   1      34.005  21.404  22.752  1.00  0.00     0.163 HD
BRANCH   5   8
ATOM      8  C   UNL A   1      33.117  24.519  23.576  1.00  0.00     0.115 A 
ATOM      9  C   UNL A   1      31.834  26.613  23.870  1.00  0.00     0.164 A 
ATOM     10  N   UNL A   1      32.482  26.305  24.967  1.00  0.00    -0.237 NA
ATOM     11  S   UNL A   1      32.083  25.532  22.588  1.00  0.00    -0.105 S 
ATOM     12  C   UNL A   1      33.157  25.093  24.846  1.00  0.00     0.062 A 
ATOM     13  C   UNL A   1      33.747  24.632  26.128  1.00  0.00     0.068 C 
BRANCH   9  14
ATOM     14  C   UNL A   1      30.967  27.786  23.812  1.00  0.00     0.228 C 
ATOM     15  O   UNL A   1      29.891  27.790  23.198  1.00  0.00    -0.288 OA
BRANCH  14  16
ATOM     16  C   UNL A   1      31.437  29.110  24.426  1.00  0.00     0.313 C 
BRANCH  16  17
ATOM     17  O   UNL A   1      31.296  29.415  25.788  1.00  0.00    -0.485 OA
BRANCH  17  18
ATOM     18  C   UNL A   1      32.020  30.358  26.448  1.00  0.00     0.122 A 
ATOM     19  C   UNL A   1      34.105  29.055  27.274  1.00  0.00     0.048 C 
ATOM     20  C   UNL A   1      33.252  30.280  27.112  1.00  0.00    -0.009 A 
ATOM     21  C   UNL A   1      33.790  31.467  27.664  1.00  0.00     0.007 A 
ATOM     22  C   UNL A   1      33.114  32.685  27.605  1.00  0.00     0.001 A 
ATOM     23  C   UNL A   1      31.347  31.595  26.412  1.00  0.00     0.047 A 
ATOM     24  C   UNL A   1      31.880  32.748  26.984  1.00  0.00     0.004 A 
ENDBRANCH  17  18
ENDBRANCH  16  17
ENDBRANCH  14  16
ENDBRANCH   9  14
ENDBRANCH   5   8
ENDBRANCH   3   4
ENDBRANCH   2   3
ENDBRANCH   1   2
BRANCH   1  25
ATOM     25  C   UNL A   1      36.297  21.826  25.679  1.00  0.00     0.002 C 
BRANCH  25  26
ATOM     26  C   UNL A   1      37.560  22.501  25.138  1.00  0.00     0.021 C 
BRANCH  26  27
ATOM     27  C   UNL A   1      38.131  23.557  26.078  1.00  0.00     0.116 C 
BRANCH  27  28
ATOM     28  N   UNL A   1      39.513  23.290  26.447  1.00  0.00    -0.352 N 
ATOM     29  C   UNL A   1      40.464  24.195  26.882  1.00  0.00     0.251 C 
ATOM     30  H   UNL A   1      39.806  22.352  26.381  1.00  0.00     0.163 HD
ATOM     31  O   UNL A   1      41.645  23.915  26.988  1.00  0.00    -0.269 OA
BRANCH  29  32
ATOM     32  C   UNL A   1      39.961  25.506  27.332  1.00  0.00     0.039 A 
ATOM     33  C   UNL A   1      40.397  26.632  26.624  1.00  0.00     0.014 A 
ATOM     34  C   UNL A   1      39.329  25.622  28.567  1.00  0.00     0.014 A 
ATOM     35  C   UNL A   1      40.331  27.882  27.231  1.00  0.00     0.010 A 
ATOM     36  C   UNL A   1      39.333  26.852  29.196  1.00  0.00     0.010 A 
ATOM     37  C   UNL A   1      39.871  27.972  28.545  1.00  0.00    -0.014 A 
BRANCH  37  38
ATOM     38  C   UNL A   1      40.015  29.177  29.353  1.00  0.00     0.031 A 
ATOM     39  C   UNL A   1      38.944  30.198  29.377  1.00  0.00     0.074 A 
ATOM     40  C   UNL A   1      41.125  29.361  30.101  1.00  0.00     0.049 A 
ATOM     41  N   UNL A   1      39.150  31.451  29.612  1.00  0.00    -0.248 NA
ATOM     42  C   UNL A   1      37.544  29.888  29.095  1.00  0.00     0.031 C 
ATOM     43  C   UNL A   1      41.326  30.359  31.148  1.00  0.00     0.029 A 
ATOM     44  N   UNL A   1      42.384  28.789  29.926  1.00  0.00    -0.354 N 
ATOM     45  C   UNL A   1      37.924  32.054  29.763  1.00  0.00     0.074 A 
ATOM     46  C   UNL A   1      36.954  31.055  29.377  1.00  0.00     0.031 C 
ATOM     47  C   UNL A   1      42.642  30.503  31.368  1.00  0.00     0.029 A 
ATOM     48  C   UNL A   1      43.344  29.711  30.371  1.00  0.00     0.049 A 
ATOM     49  H   UNL A   1      42.568  27.896  29.555  1.00  0.00     0.167 HD
ATOM     50  C   UNL A   1      37.833  33.291  30.327  1.00  0.00     0.037 A 
ATOM     51  C   UNL A   1      44.302  30.201  29.529  1.00  0.00     0.037 A 
ATOM     52  C   UNL A   1      39.141  33.819  30.689  1.00  0.00     0.049 A 
ATOM     53  C   UNL A   1      44.219  31.696  29.306  1.00  0.00     0.074 A 
ATOM     54  C   UNL A   1      39.861  33.779  31.872  1.00  0.00     0.029 A 
ATOM     55  N   UNL A   1      40.036  34.197  29.696  1.00  0.00    -0.354 N 
ATOM     56  N   UNL A   1      43.184  32.425  29.621  1.00  0.00    -0.248 NA
ATOM     57  C   UNL A   1      45.283  32.487  28.690  1.00  0.00     0.031 C 
ATOM     58  C   UNL A   1      41.213  34.071  31.577  1.00  0.00     0.029 A 
ATOM     59  C   UNL A   1      41.311  34.312  30.219  1.00  0.00     0.049 A 
ATOM     60  H   UNL A   1      39.796  34.360  28.755  1.00  0.00     0.167 HD
ATOM     61  C   UNL A   1      43.393  33.721  29.226  1.00  0.00     0.074 A 
ATOM     62  C   UNL A   1      44.735  33.717  28.678  1.00  0.00     0.031 C 
ATOM     63  C   UNL A   1      42.436  34.685  29.375  1.00  0.00     0.037 A 
BRANCH  50  64
ATOM     64  C   UNL A   1      36.519  33.844  30.813  1.00  0.00     0.058 A 
ATOM     65  C   UNL A   1      35.541  34.304  29.908  1.00  0.00     0.135 A 
ATOM     66  C   UNL A   1      36.201  34.000  32.176  1.00  0.00     0.135 A 
ATOM     67  F   UNL A   1      35.695  34.174  28.583  1.00  0.00    -0.206 F 
ATOM     68  C   UNL A   1      34.380  34.956  30.318  1.00  0.00     0.059 A 
ATOM     69  C   UNL A   1      35.064  34.690  32.613  1.00  0.00     0.059 A 
ATOM     70  F   UNL A   1      37.000  33.490  33.128  1.00  0.00    -0.206 F 
ATOM     71  C   UNL A   1      34.162  35.173  31.672  1.00  0.00     0.060 A 
BRANCH  71  72
ATOM     72  S   UNL A   1      32.718  36.134  32.167  1.00  0.00     0.124 S 
ATOM     73  O   UNL A   1      32.451  36.931  30.972  1.00  0.00    -0.237 OA
ATOM     74  O   UNL A   1      31.745  35.089  32.461  1.00  0.00    -0.237 OA
ATOM     75  O   UNL A   1      33.196  36.894  33.319  1.00  0.00    -0.744 OA
ENDBRANCH  71  72
ENDBRANCH  50  64
BRANCH  51  76
ATOM     76  C   UNL A   1      44.763  29.206  28.522  1.00  0.00     0.058 A 
ATOM     77  C   UNL A   1      44.169  29.235  27.245  1.00  0.00     0.135 A 
ATOM     78  C   UNL A   1      45.995  28.551  28.649  1.00  0.00     0.135 A 
ATOM     79  F   UNL A   1      42.982  29.841  27.070  1.00  0.00    -0.206 F 
ATOM     80  C   UNL A   1      44.833  28.765  26.116  1.00  0.00     0.059 A 
ATOM     81  C   UNL A   1      46.677  28.067  27.530  1.00  0.00     0.059 A 
ATOM     82  F   UNL A   1      46.610  28.493  29.839  1.00  0.00    -0.206 F 
ATOM     83  C   UNL A   1      46.112  28.235  26.263  1.00  0.00     0.060 A 
BRANCH  83  84
ATOM     84  S   UNL A   1      47.075  27.915  24.766  1.00  0.00     0.124 S 
ATOM     85  O   UNL A   1      46.633  26.573  24.403  1.00  0.00    -0.237 OA
ATOM     86  O   UNL A   1      46.622  28.987  23.883  1.00  0.00    -0.237 OA
ATOM     87  O   UNL A   1      48.455  28.025  25.224  1.00  0.00    -0.744 OA
ENDBRANCH  83  84
ENDBRANCH  51  76
BRANCH  63  88
ATOM     88  C   UNL A   1      42.489  36.092  28.827  1.00  0.00     0.058 A 
ATOM     89  C   UNL A   1      43.126  37.164  29.472  1.00  0.00     0.135 A 
ATOM     90  C   UNL A   1      42.008  36.362  27.522  1.00  0.00     0.135 A 
ATOM     91  F   UNL A   1      43.705  37.009  30.672  1.00  0.00    -0.206 F 
ATOM     92  C   UNL A   1      43.237  38.429  28.887  1.00  0.00     0.059 A 
ATOM     93  C   UNL A   1      42.155  37.598  26.899  1.00  0.00     0.059 A 
ATOM     94  F   UNL A   1      41.385  35.419  26.797  1.00  0.00    -0.206 F 
ATOM     95  C   UNL A   1      42.752  38.636  27.599  1.00  0.00     0.060 A 
BRANCH  95  96
ATOM     96  S   UNL A   1      42.953  40.240  26.802  1.00  0.00     0.124 S 
ATOM     97  O   UNL A   1      44.072  39.978  25.901  1.00  0.00    -0.237 OA
ATOM     98  O   UNL A   1      41.661  40.449  26.157  1.00  0.00    -0.237 OA
ATOM     99  O   UNL A   1      43.237  41.131  27.923  1.00  0.00    -0.744 OA
ENDBRANCH  95  96
ENDBRANCH  63  88
ENDBRANCH  37  38
ENDBRANCH  29  32
ENDBRANCH  27  28
ENDBRANCH  26  27
ENDBRANCH  25  26
ENDBRANCH   1  25
TORSDOF 20
ENDMDL
MODEL 3
REMARK VINA RESULT:     -12.3      1.528      2.137
REMARK SMILES Cc1ccccc1OCC(=O)c1nc(C)c(C(=O)NCCCCCCNC(=O)c2ccc(-c3c4nc(c(-c5c(F)cc(S(=O)(=O)[O-])cc5F)c5ccc([nH]5)c(-c5c(F)cc(S(=O)(=O)[O-])cc5F)c5nc(c(-c6c(F)cc(S(=O)(=O)[O-])cc6F)c6ccc3[nH]6)C=C5)C=C4)cc2)s1
REMARK SMILES IDX 22 1 21 2 20 3 19 4 17 5 18 6 16 8 12 9 13 10 95 11 14 12
REMARK SMILES IDX 15 13 10 14 11 15 9 16 8 17 7 18 1 19 2 20 3 21 4 22 6 23
REMARK SMILES IDX 5 24 23 25 24 26 25 27 26 28 27 29 28 31 29 32 30 33 94 34
REMARK SMILES IDX 31 35 93 36 32 37 33 38 34 39 87 40 35 41 92 42 86 43 88 44
REMARK SMILES IDX 36 45 91 46 85 47 84 48 37 50 71 51 50 52 70 53 51 54 54 55
REMARK SMILES IDX 69 56 89 57 52 58 53 59 68 61 90 62 55 63 38 64 39 65 48 66
REMARK SMILES IDX 40 67 41 68 47 69 49 70 42 71 43 72 44 73 45 74 46 75 72 76
REMARK SMILES IDX 73 77 82 78 74 79 75 80 81 81 83 82 76 83 77 84 78 85 79 86
REMARK SMILES IDX 80 87 56 88 57 89 66 90 58 91 59 92 65 93 67 94 60 95 61 96
REMARK SMILES IDX 62 97 63 98 64 99
REMARK H PARENT 19 7 26 30 88 49 54 60
REMARK Flexibility Score: inf
ROOT
ATOM      1  C   UNL A   1      33.343  26.979  25.402  1.00  0.00     0.002 C 
ENDROOT
BRANCH   1   2
ATOM      2  C   UNL A   1      32.450  26.265  26.423  1.00  0.00     0.021 C 
BRANCH   2   3
ATOM      3  C   UNL A   1      30.975  26.157  26.022  1.00  0.00     0.116 C 
BRANCH   3   4
ATOM      4  N   UNL A   1      30.835  25.867  24.616  1.00  0.00    -0.351 N 
ATOM      5  C   UNL A   1      30.883  24.732  23.855  1.00  0.00     0.263 C 
ATOM      6  O   UNL A   1      30.643  24.955  22.660  1.00  0.00    -0.268 OA
ATOM      7  H   UNL A   1      30.665  26.676  24.079  1.00  0.00     0.163 HD
BRANCH   5   8
ATOM      8  C   UNL A   1      31.148  23.379  24.346  1.00  0.00     0.115 A 
ATOM      9  C   UNL A   1      32.098  21.096  24.341  1.00  0.00     0.164 A 
ATOM     10  N   UNL A   1      31.389  21.304  25.424  1.00  0.00    -0.237 NA
ATOM     11  S   UNL A   1      32.130  22.407  23.268  1.00  0.00    -0.105 S 
ATOM     12  C   UNL A   1      30.901  22.607  25.480  1.00  0.00     0.062 A 
ATOM     13  C   UNL A   1      30.251  22.923  26.776  1.00  0.00     0.068 C 
BRANCH   9  14
ATOM     14  C   UNL A   1      32.798  19.832  24.132  1.00  0.00     0.228 C 
ATOM     15  O   UNL A   1      32.266  18.858  23.581  1.00  0.00    -0.288 OA
BRANCH  14  16
ATOM     16  C   UNL A   1      34.205  19.636  24.710  1.00  0.00     0.313 C 
BRANCH  16  17
ATOM     17  O   UNL A   1      34.714  20.410  25.763  1.00  0.00    -0.485 OA
BRANCH  17  18
ATOM     18  C   UNL A   1      35.330  21.613  25.611  1.00  0.00     0.122 A 
ATOM     19  C   UNL A   1      34.122  23.134  27.329  1.00  0.00     0.048 C 
ATOM     20  C   UNL A   1      35.133  22.839  26.260  1.00  0.00    -0.009 A 
ATOM     21  C   UNL A   1      35.984  23.919  25.921  1.00  0.00     0.007 A 
ATOM     22  C   UNL A   1      36.968  23.807  24.939  1.00  0.00     0.001 A 
ATOM     23  C   UNL A   1      36.320  21.525  24.613  1.00  0.00     0.047 A 
ATOM     24  C   UNL A   1      37.130  22.606  24.273  1.00  0.00     0.004 A 
ENDBRANCH  17  18
ENDBRANCH  16  17
ENDBRANCH  14  16
ENDBRANCH   9  14
ENDBRANCH   5   8
ENDBRANCH   3   4
ENDBRANCH   2   3
ENDBRANCH   1   2
BRANCH   1  25
ATOM     25  C   UNL A   1      34.429  27.899  25.984  1.00  0.00     0.002 C 
BRANCH  25  26
ATOM     26  C   UNL A   1      33.982  29.318  26.344  1.00  0.00     0.021 C 
BRANCH  26  27
ATOM     27  C   UNL A   1      33.932  29.574  27.847  1.00  0.00     0.116 C 
BRANCH  27  28
ATOM     28  N   UNL A   1      34.553  30.836  28.221  1.00  0.00    -0.352 N 
ATOM     29  C   UNL A   1      35.808  31.036  28.765  1.00  0.00     0.251 C 
ATOM     30  H   UNL A   1      34.014  31.646  28.068  1.00  0.00     0.163 HD
ATOM     31  O   UNL A   1      36.170  32.106  29.220  1.00  0.00    -0.269 OA
BRANCH  29  32
ATOM     32  C   UNL A   1      36.751  29.906  28.662  1.00  0.00     0.039 A 
ATOM     33  C   UNL A   1      37.009  29.184  29.833  1.00  0.00     0.014 A 
ATOM     34  C   UNL A   1      37.549  29.767  27.529  1.00  0.00     0.014 A 
ATOM     35  C   UNL A   1      38.171  28.424  29.918  1.00  0.00     0.010 A 
ATOM     36  C   UNL A   1      38.737  29.072  27.643  1.00  0.00     0.010 A 
ATOM     37  C   UNL A   1      39.068  28.436  28.849  1.00  0.00    -0.014 A 
BRANCH  37  38
ATOM     38  C   UNL A   1      40.420  27.900  28.944  1.00  0.00     0.031 A 
ATOM     39  C   UNL A   1      40.705  26.505  28.538  1.00  0.00     0.074 A 
ATOM     40  C   UNL A   1      41.428  28.682  29.388  1.00  0.00     0.049 A 
ATOM     41  N   UNL A   1      41.669  25.797  29.026  1.00  0.00    -0.248 NA
ATOM     42  C   UNL A   1      39.890  25.778  27.568  1.00  0.00     0.031 C 
ATOM     43  C   UNL A   1      42.859  28.404  29.308  1.00  0.00     0.029 A 
ATOM     44  N   UNL A   1      41.344  29.822  30.185  1.00  0.00    -0.354 N 
ATOM     45  C   UNL A   1      41.762  24.649  28.278  1.00  0.00     0.074 A 
ATOM     46  C   UNL A   1      40.600  24.654  27.418  1.00  0.00     0.031 C 
ATOM     47  C   UNL A   1      43.506  29.181  30.190  1.00  0.00     0.029 A 
ATOM     48  C   UNL A   1      42.503  29.884  30.974  1.00  0.00     0.049 A 
ATOM     49  H   UNL A   1      40.602  30.469  30.194  1.00  0.00     0.167 HD
ATOM     50  C   UNL A   1      42.877  23.869  28.354  1.00  0.00     0.037 A 
ATOM     51  C   UNL A   1      42.436  29.866  32.338  1.00  0.00     0.037 A 
ATOM     52  C   UNL A   1      43.851  24.407  29.294  1.00  0.00     0.049 A 
ATOM     53  C   UNL A   1      43.105  28.664  32.971  1.00  0.00     0.074 A 
ATOM     54  C   UNL A   1      44.942  25.242  29.120  1.00  0.00     0.029 A 
ATOM     55  N   UNL A   1      43.585  24.384  30.657  1.00  0.00    -0.354 N 
ATOM     56  N   UNL A   1      43.453  27.592  32.314  1.00  0.00    -0.248 NA
ATOM     57  C   UNL A   1      43.416  28.563  34.396  1.00  0.00     0.031 C 
ATOM     58  C   UNL A   1      45.294  25.778  30.381  1.00  0.00     0.029 A 
ATOM     59  C   UNL A   1      44.433  25.250  31.325  1.00  0.00     0.049 A 
ATOM     60  H   UNL A   1      42.893  23.831  31.087  1.00  0.00     0.167 HD
ATOM     61  C   UNL A   1      43.966  26.663  33.183  1.00  0.00     0.074 A 
ATOM     62  C   UNL A   1      43.951  27.330  34.471  1.00  0.00     0.031 C 
ATOM     63  C   UNL A   1      44.346  25.418  32.767  1.00  0.00     0.037 A 
BRANCH  50  64
ATOM     64  C   UNL A   1      43.170  22.804  27.330  1.00  0.00     0.058 A 
ATOM     65  C   UNL A   1      42.442  21.596  27.306  1.00  0.00     0.135 A 
ATOM     66  C   UNL A   1      44.208  22.903  26.384  1.00  0.00     0.135 A 
ATOM     67  F   UNL A   1      41.398  21.389  28.119  1.00  0.00    -0.206 F 
ATOM     68  C   UNL A   1      42.779  20.530  26.473  1.00  0.00     0.059 A 
ATOM     69  C   UNL A   1      44.593  21.832  25.570  1.00  0.00     0.059 A 
ATOM     70  F   UNL A   1      44.889  24.051  26.233  1.00  0.00    -0.206 F 
ATOM     71  C   UNL A   1      43.875  20.643  25.629  1.00  0.00     0.060 A 
BRANCH  71  72
ATOM     72  S   UNL A   1      44.367  19.203  24.661  1.00  0.00     0.124 S 
ATOM     73  O   UNL A   1      45.711  18.933  25.167  1.00  0.00    -0.237 OA
ATOM     74  O   UNL A   1      43.345  18.229  25.028  1.00  0.00    -0.237 OA
ATOM     75  O   UNL A   1      44.313  19.685  23.285  1.00  0.00    -0.744 OA
ENDBRANCH  71  72
ENDBRANCH  50  64
BRANCH  51  76
ATOM     76  C   UNL A   1      41.236  30.564  32.876  1.00  0.00     0.058 A 
ATOM     77  C   UNL A   1      41.299  31.962  33.033  1.00  0.00     0.135 A 
ATOM     78  C   UNL A   1      39.966  29.974  32.837  1.00  0.00     0.135 A 
ATOM     79  F   UNL A   1      42.493  32.578  33.086  1.00  0.00    -0.206 F 
ATOM     80  C   UNL A   1      40.157  32.756  33.006  1.00  0.00     0.059 A 
ATOM     81  C   UNL A   1      38.805  30.752  32.815  1.00  0.00     0.059 A 
ATOM     82  F   UNL A   1      39.840  28.647  32.688  1.00  0.00    -0.206 F 
ATOM     83  C   UNL A   1      38.919  32.143  32.837  1.00  0.00     0.060 A 
BRANCH  83  84
ATOM     84  S   UNL A   1      37.489  33.198  32.500  1.00  0.00     0.124 S 
ATOM     85  O   UNL A   1      37.465  34.060  33.676  1.00  0.00    -0.237 OA
ATOM     86  O   UNL A   1      37.884  33.848  31.252  1.00  0.00    -0.237 OA
ATOM     87  O   UNL A   1      36.390  32.248  32.388  1.00  0.00    -0.744 OA
ENDBRANCH  83  84
ENDBRANCH  51  76
BRANCH  63  88
ATOM     88  C   UNL A   1      44.760  24.266  33.652  1.00  0.00     0.058 A 
ATOM     89  C   UNL A   1      43.858  23.384  34.269  1.00  0.00     0.135 A 
ATOM     90  C   UNL A   1      46.129  23.928  33.780  1.00  0.00     0.135 A 
ATOM     91  F   UNL A   1      42.532  23.544  34.142  1.00  0.00    -0.206 F 
ATOM     92  C   UNL A   1      44.282  22.272  35.002  1.00  0.00     0.059 A 
ATOM     93  C   UNL A   1      46.572  22.797  34.460  1.00  0.00     0.059 A 
ATOM     94  F   UNL A   1      47.091  24.687  33.231  1.00  0.00    -0.206 F 
ATOM     95  C   UNL A   1      45.641  21.984  35.088  1.00  0.00     0.060 A 
BRANCH  95  96
ATOM     96  S   UNL A   1      46.201  20.513  35.967  1.00  0.00     0.124 S 
ATOM     97  O   UNL A   1      45.603  19.450  35.165  1.00  0.00    -0.237 OA
ATOM     98  O   UNL A   1      47.655  20.619  35.890  1.00  0.00    -0.237 OA
ATOM     99  O   UNL A   1      45.638  20.692  37.302  1.00  0.00    -0.744 OA
ENDBRANCH  95  96
ENDBRANCH  63  88
ENDBRANCH  37  38
ENDBRANCH  29  32
ENDBRANCH  27  28
ENDBRANCH  26  27
ENDBRANCH  25  26
ENDBRANCH   1  25
TORSDOF 20
ENDMDL
