MODEL 1
REMARK VINA RESULT:     -11.7      0.000      0.000
REMARK SMILES O=C(Cc1cncnc1N1CCC2(CC1)OCCC[C@@H]2O)NCCCCCCNC(=O)c1ccc(-c2c3nc(c(-c4c(F)cc(S(=O)(=O)[O-])cc4F)c4ccc([nH]4)c(-c4c(F)cc(S(=O)(=O)[O-])cc4F)c4nc(c(-c5c(F)cc(S(=O)(=O)[O-])cc5F)c5ccc2[nH]5)C=C4)C=C3)cc1
REMARK SMILES IDX 25 1 24 2 23 3 22 4 1 5 2 6 3 8 4 9 5 10 9 11 6 12 8 13 7 14
REMARK SMILES IDX 10 15 11 16 15 17 12 18 14 19 13 20 16 21 20 22 17 23 19 24
REMARK SMILES IDX 18 25 21 26 26 28 27 29 28 30 29 31 30 32 31 34 32 35 33 36
REMARK SMILES IDX 97 37 34 38 96 39 35 40 36 41 37 42 90 43 38 44 95 45 89 46
REMARK SMILES IDX 91 47 39 48 94 49 88 50 87 51 40 53 74 54 53 55 73 56 54 57
REMARK SMILES IDX 57 58 72 59 92 60 55 61 56 62 71 64 93 65 58 66 41 67 42 68
REMARK SMILES IDX 51 69 43 70 44 71 50 72 52 73 45 74 46 75 47 76 48 77 49 78
REMARK SMILES IDX 75 79 76 80 85 81 77 82 78 83 84 84 86 85 79 86 80 87 81 88
REMARK SMILES IDX 82 89 83 90 59 91 60 92 69 93 61 94 62 95 68 96 70 97 63 98
REMARK SMILES IDX 64 99 65 100 66 101 67 102
REMARK H PARENT 22 7 21 27 29 33 91 52 57 63
REMARK Flexibility Score: inf
ROOT
ATOM      1  C   UNL A   1      39.444  23.218  27.103  1.00  0.00     0.002 C 
ENDROOT
BRANCH   1   2
ATOM      2  C   UNL A   1      38.515  23.994  26.166  1.00  0.00     0.021 C 
BRANCH   2   3
ATOM      3  C   UNL A   1      37.063  23.555  26.248  1.00  0.00     0.116 C 
BRANCH   3   4
ATOM      4  N   UNL A   1      36.318  23.839  25.035  1.00  0.00    -0.356 N 
ATOM      5  O   UNL A   1      37.152  22.067  23.869  1.00  0.00    -0.275 OA
ATOM      6  C   UNL A   1      36.317  22.966  23.976  1.00  0.00     0.224 C 
ATOM      7  H   UNL A   1      35.802  24.675  24.972  1.00  0.00     0.163 HD
BRANCH   6   8
ATOM      8  C   UNL A   1      35.247  23.147  22.918  1.00  0.00     0.141 C 
BRANCH   8   9
ATOM      9  C   UNL A   1      33.927  23.745  23.331  1.00  0.00     0.022 A 
ATOM     10  C   UNL A   1      33.646  25.057  22.984  1.00  0.00     0.121 A 
ATOM     11  C   UNL A   1      32.892  23.043  23.950  1.00  0.00     0.135 A 
ATOM     12  N   UNL A   1      32.470  25.661  23.208  1.00  0.00    -0.244 NA
ATOM     13  N   UNL A   1      31.694  23.618  24.168  1.00  0.00    -0.219 NA
ATOM     14  C   UNL A   1      31.544  24.895  23.793  1.00  0.00     0.224 A 
BRANCH  11  15
ATOM     15  N   UNL A   1      33.024  21.711  24.268  1.00  0.00    -0.356 N 
ATOM     16  C   UNL A   1      32.067  20.749  23.748  1.00  0.00     0.121 C 
ATOM     17  C   UNL A   1      33.561  21.308  25.558  1.00  0.00     0.121 C 
ATOM     18  C   UNL A   1      32.860  19.475  23.434  1.00  0.00     0.060 C 
ATOM     19  C   UNL A   1      34.504  20.143  25.279  1.00  0.00     0.060 C 
ATOM     20  C   UNL A   1      33.736  18.973  24.622  1.00  0.00     0.097 C 
ATOM     21  O   UNL A   1      32.939  18.419  25.690  1.00  0.00    -0.372 OA
ATOM     22  C   UNL A   1      34.748  17.902  24.120  1.00  0.00     0.146 C 
ATOM     23  C   UNL A   1      32.239  17.216  25.391  1.00  0.00     0.161 C 
ATOM     24  C   UNL A   1      34.045  16.598  23.752  1.00  0.00     0.037 C 
ATOM     25  C   UNL A   1      33.171  16.117  24.905  1.00  0.00     0.031 C 
BRANCH  22  26
ATOM     26  O   UNL A   1      35.727  17.597  25.120  1.00  0.00    -0.390 OA
ATOM     27  H   UNL A   1      35.578  18.156  25.898  1.00  0.00     0.211 HD
ENDBRANCH  22  26
ENDBRANCH  11  15
ENDBRANCH   8   9
ENDBRANCH   6   8
ENDBRANCH   3   4
ENDBRANCH   2   3
ENDBRANCH   1   2
BRANCH   1  28
ATOM     28  C   UNL A   1      40.152  22.014  26.470  1.00  0.00     0.002 C 
BRANCH  28  29
ATOM     29  C   UNL A   1      41.677  22.013  26.596  1.00  0.00     0.021 C 
BRANCH  29  30
ATOM     30  C   UNL A   1      42.287  23.353  26.990  1.00  0.00     0.116 C 
BRANCH  30  31
ATOM     31  N   UNL A   1      42.425  24.252  25.855  1.00  0.00    -0.352 N 
ATOM     32  C   UNL A   1      42.246  25.613  25.797  1.00  0.00     0.251 C 
ATOM     33  H   UNL A   1      42.683  23.824  25.007  1.00  0.00     0.163 HD
ATOM     34  O   UNL A   1      42.232  26.184  24.714  1.00  0.00    -0.269 OA
BRANCH  32  35
ATOM     35  C   UNL A   1      42.048  26.376  27.048  1.00  0.00     0.039 A 
ATOM     36  C   UNL A   1      42.919  27.427  27.344  1.00  0.00     0.014 A 
ATOM     37  C   UNL A   1      41.002  26.061  27.921  1.00  0.00     0.014 A 
ATOM     38  C   UNL A   1      42.703  28.201  28.488  1.00  0.00     0.010 A 
ATOM     39  C   UNL A   1      40.742  26.881  29.014  1.00  0.00     0.010 A 
ATOM     40  C   UNL A   1      41.593  27.957  29.313  1.00  0.00    -0.014 A 
BRANCH  40  41
ATOM     41  C   UNL A   1      41.306  28.815  30.490  1.00  0.00     0.031 A 
ATOM     42  C   UNL A   1      42.127  28.680  31.745  1.00  0.00     0.074 A 
ATOM     43  C   UNL A   1      40.268  29.675  30.450  1.00  0.00     0.049 A 
ATOM     44  N   UNL A   1      42.001  29.306  32.886  1.00  0.00    -0.248 NA
ATOM     45  C   UNL A   1      43.216  27.691  31.722  1.00  0.00     0.031 C 
ATOM     46  C   UNL A   1      39.373  29.865  29.307  1.00  0.00     0.029 A 
ATOM     47  N   UNL A   1      39.787  30.546  31.396  1.00  0.00    -0.354 N 
ATOM     48  C   UNL A   1      42.982  28.780  33.719  1.00  0.00     0.074 A 
ATOM     49  C   UNL A   1      43.656  27.742  32.970  1.00  0.00     0.031 C 
ATOM     50  C   UNL A   1      38.475  30.819  29.605  1.00  0.00     0.029 A 
ATOM     51  C   UNL A   1      38.700  31.275  30.973  1.00  0.00     0.049 A 
ATOM     52  H   UNL A   1      40.183  30.639  32.292  1.00  0.00     0.167 HD
ATOM     53  C   UNL A   1      43.307  29.144  34.983  1.00  0.00     0.037 A 
ATOM     54  C   UNL A   1      37.967  32.204  31.617  1.00  0.00     0.037 A 
ATOM     55  C   UNL A   1      42.639  30.189  35.714  1.00  0.00     0.049 A 
ATOM     56  C   UNL A   1      38.331  32.574  33.030  1.00  0.00     0.074 A 
ATOM     57  C   UNL A   1      42.929  30.676  36.977  1.00  0.00     0.029 A 
ATOM     58  N   UNL A   1      41.540  30.902  35.254  1.00  0.00    -0.354 N 
ATOM     59  N   UNL A   1      39.309  32.118  33.776  1.00  0.00    -0.248 NA
ATOM     60  C   UNL A   1      37.493  33.586  33.687  1.00  0.00     0.031 C 
ATOM     61  C   UNL A   1      41.970  31.641  37.304  1.00  0.00     0.029 A 
ATOM     62  C   UNL A   1      41.120  31.801  36.221  1.00  0.00     0.049 A 
ATOM     63  H   UNL A   1      41.120  30.784  34.372  1.00  0.00     0.167 HD
ATOM     64  C   UNL A   1      39.225  32.814  34.978  1.00  0.00     0.074 A 
ATOM     65  C   UNL A   1      38.107  33.726  34.854  1.00  0.00     0.031 C 
ATOM     66  C   UNL A   1      40.007  32.709  36.083  1.00  0.00     0.037 A 
BRANCH  53  67
ATOM     67  C   UNL A   1      44.428  28.397  35.656  1.00  0.00     0.058 A 
ATOM     68  C   UNL A   1      45.768  28.801  35.534  1.00  0.00     0.135 A 
ATOM     69  C   UNL A   1      44.159  27.268  36.448  1.00  0.00     0.135 A 
ATOM     70  F   UNL A   1      46.089  29.865  34.781  1.00  0.00    -0.206 F 
ATOM     71  C   UNL A   1      46.803  28.088  36.134  1.00  0.00     0.059 A 
ATOM     72  C   UNL A   1      45.174  26.561  37.086  1.00  0.00     0.059 A 
ATOM     73  F   UNL A   1      42.897  26.838  36.605  1.00  0.00    -0.206 F 
ATOM     74  C   UNL A   1      46.495  26.967  36.906  1.00  0.00     0.060 A 
BRANCH  74  75
ATOM     75  S   UNL A   1      47.849  26.045  37.663  1.00  0.00     0.124 S 
ATOM     76  O   UNL A   1      47.812  24.799  36.904  1.00  0.00    -0.237 OA
ATOM     77  O   UNL A   1      48.996  26.909  37.406  1.00  0.00    -0.237 OA
ATOM     78  O   UNL A   1      47.449  25.939  39.063  1.00  0.00    -0.744 OA
ENDBRANCH  74  75
ENDBRANCH  53  67
BRANCH  54  79
ATOM     79  C   UNL A   1      36.836  32.874  30.919  1.00  0.00     0.058 A 
ATOM     80  C   UNL A   1      35.512  32.469  31.148  1.00  0.00     0.135 A 
ATOM     81  C   UNL A   1      37.047  33.934  30.026  1.00  0.00     0.135 A 
ATOM     82  F   UNL A   1      35.256  31.454  31.987  1.00  0.00    -0.206 F 
ATOM     83  C   UNL A   1      34.440  33.078  30.503  1.00  0.00     0.059 A 
ATOM     84  C   UNL A   1      35.991  34.579  29.390  1.00  0.00     0.059 A 
ATOM     85  F   UNL A   1      38.293  34.372  29.785  1.00  0.00    -0.206 F 
ATOM     86  C   UNL A   1      34.690  34.137  29.629  1.00  0.00     0.060 A 
BRANCH  86  87
ATOM     87  S   UNL A   1      33.287  34.951  28.835  1.00  0.00     0.124 S 
ATOM     88  O   UNL A   1      32.443  35.268  29.981  1.00  0.00    -0.237 OA
ATOM     89  O   UNL A   1      33.926  36.087  28.178  1.00  0.00    -0.237 OA
ATOM     90  O   UNL A   1      32.770  33.926  27.934  1.00  0.00    -0.744 OA
ENDBRANCH  86  87
ENDBRANCH  54  79
BRANCH  66  91
ATOM     91  C   UNL A   1      39.708  33.633  37.233  1.00  0.00     0.058 A 
ATOM     92  C   UNL A   1      38.897  33.240  38.309  1.00  0.00     0.135 A 
ATOM     93  C   UNL A   1      40.285  34.913  37.281  1.00  0.00     0.135 A 
ATOM     94  F   UNL A   1      38.314  32.031  38.311  1.00  0.00    -0.206 F 
ATOM     95  C   UNL A   1      38.646  34.094  39.379  1.00  0.00     0.059 A 
ATOM     96  C   UNL A   1      40.074  35.771  38.357  1.00  0.00     0.059 A 
ATOM     97  F   UNL A   1      41.078  35.336  36.285  1.00  0.00    -0.206 F 
ATOM     98  C   UNL A   1      39.242  35.356  39.395  1.00  0.00     0.060 A 
BRANCH  98  99
ATOM     99  S   UNL A   1      38.935  36.440  40.807  1.00  0.00     0.124 S 
ATOM    100  O   UNL A   1      38.538  37.678  40.147  1.00  0.00    -0.237 OA
ATOM    101  O   UNL A   1      37.876  35.731  41.518  1.00  0.00    -0.237 OA
ATOM    102  O   UNL A   1      40.224  36.479  41.492  1.00  0.00    -0.744 OA
ENDBRANCH  98  99
ENDBRANCH  66  91
ENDBRANCH  40  41
ENDBRANCH  32  35
ENDBRANCH  30  31
ENDBRANCH  29  30
ENDBRANCH  28  29
ENDBRANCH   1  28
TORSDOF 19
ENDMDL
MODEL 2
REMARK VINA RESULT:     -11.5      0.679      8.036
REMARK SMILES O=C(Cc1cncnc1N1CCC2(CC1)OCCC[C@@H]2O)NCCCCCCNC(=O)c1ccc(-c2c3nc(c(-c4c(F)cc(S(=O)(=O)[O-])cc4F)c4ccc([nH]4)c(-c4c(F)cc(S(=O)(=O)[O-])cc4F)c4nc(c(-c5c(F)cc(S(=O)(=O)[O-])cc5F)c5ccc2[nH]5)C=C4)C=C3)cc1
REMARK SMILES IDX 25 1 24 2 23 3 22 4 1 5 2 6 3 8 4 9 5 10 9 11 6 12 8 13 7 14
REMARK SMILES IDX 10 15 11 16 15 17 12 18 14 19 13 20 16 21 20 22 17 23 19 24
REMARK SMILES IDX 18 25 21 26 26 28 27 29 28 30 29 31 30 32 31 34 32 35 33 36
REMARK SMILES IDX 97 37 34 38 96 39 35 40 36 41 37 42 90 43 38 44 95 45 89 46
REMARK SMILES IDX 91 47 39 48 94 49 88 50 87 51 40 53 74 54 53 55 73 56 54 57
REMARK SMILES IDX 57 58 72 59 92 60 55 61 56 62 71 64 93 65 58 66 41 67 42 68
REMARK SMILES IDX 51 69 43 70 44 71 50 72 52 73 45 74 46 75 47 76 48 77 49 78
REMARK SMILES IDX 75 79 76 80 85 81 77 82 78 83 84 84 86 85 79 86 80 87 81 88
REMARK SMILES IDX 82 89 83 90 59 91 60 92 69 93 61 94 62 95 68 96 70 97 63 98
REMARK SMILES IDX 64 99 65 100 66 101 67 102
REMARK H PARENT 22 7 21 27 29 33 91 52 57 63
REMARK Flexibility Score: inf
ROOT
ATOM      1  C   UNL A   1      39.439  22.729  27.035  1.00  0.00     0.002 C 
ENDROOT
BRANCH   1   2
ATOM      2  C   UNL A   1      38.439  23.385  26.078  1.00  0.00     0.021 C 
BRANCH   2   3
ATOM      3  C   UNL A   1      37.595  22.389  25.302  1.00  0.00     0.116 C 
BRANCH   3   4
ATOM      4  N   UNL A   1      36.312  22.932  24.895  1.00  0.00    -0.356 N 
ATOM      5  O   UNL A   1      36.892  23.194  22.706  1.00  0.00    -0.275 OA
ATOM      6  C   UNL A   1      36.018  23.156  23.573  1.00  0.00     0.224 C 
ATOM      7  H   UNL A   1      35.639  23.143  25.581  1.00  0.00     0.163 HD
BRANCH   6   8
ATOM      8  C   UNL A   1      34.564  23.368  23.204  1.00  0.00     0.141 C 
BRANCH   8   9
ATOM      9  C   UNL A   1      33.633  23.918  24.253  1.00  0.00     0.022 A 
ATOM     10  C   UNL A   1      33.362  25.277  24.265  1.00  0.00     0.121 A 
ATOM     11  C   UNL A   1      32.914  23.145  25.166  1.00  0.00     0.135 A 
ATOM     12  N   UNL A   1      32.475  25.862  25.084  1.00  0.00    -0.244 NA
ATOM     13  N   UNL A   1      32.003  23.703  25.985  1.00  0.00    -0.219 NA
ATOM     14  C   UNL A   1      31.832  25.030  25.909  1.00  0.00     0.224 A 
BRANCH  11  15
ATOM     15  N   UNL A   1      33.037  21.775  25.193  1.00  0.00    -0.356 N 
ATOM     16  C   UNL A   1      32.010  20.948  24.582  1.00  0.00     0.121 C 
ATOM     17  C   UNL A   1      33.679  21.112  26.317  1.00  0.00     0.121 C 
ATOM     18  C   UNL A   1      32.734  19.759  23.943  1.00  0.00     0.060 C 
ATOM     19  C   UNL A   1      34.559  20.021  25.719  1.00  0.00     0.060 C 
ATOM     20  C   UNL A   1      33.701  19.016  24.914  1.00  0.00     0.097 C 
ATOM     21  O   UNL A   1      32.990  18.262  25.920  1.00  0.00    -0.372 OA
ATOM     22  C   UNL A   1      34.632  18.062  24.111  1.00  0.00     0.146 C 
ATOM     23  C   UNL A   1      32.232  17.153  25.451  1.00  0.00     0.161 C 
ATOM     24  C   UNL A   1      33.862  16.867  23.555  1.00  0.00     0.037 C 
ATOM     25  C   UNL A   1      33.084  16.168  24.665  1.00  0.00     0.031 C 
BRANCH  22  26
ATOM     26  O   UNL A   1      35.690  17.550  24.930  1.00  0.00    -0.390 OA
ATOM     27  H   UNL A   1      36.397  17.203  24.364  1.00  0.00     0.211 HD
ENDBRANCH  22  26
ENDBRANCH  11  15
ENDBRANCH   8   9
ENDBRANCH   6   8
ENDBRANCH   3   4
ENDBRANCH   2   3
ENDBRANCH   1   2
BRANCH   1  28
ATOM     28  C   UNL A   1      40.446  21.781  26.376  1.00  0.00     0.002 C 
BRANCH  28  29
ATOM     29  C   UNL A   1      41.907  22.001  26.774  1.00  0.00     0.021 C 
BRANCH  29  30
ATOM     30  C   UNL A   1      42.258  23.437  27.148  1.00  0.00     0.116 C 
BRANCH  30  31
ATOM     31  N   UNL A   1      42.161  24.342  26.014  1.00  0.00    -0.352 N 
ATOM     32  C   UNL A   1      41.809  25.670  25.990  1.00  0.00     0.251 C 
ATOM     33  H   UNL A   1      42.378  23.947  25.139  1.00  0.00     0.163 HD
ATOM     34  O   UNL A   1      41.608  26.232  24.921  1.00  0.00    -0.269 OA
BRANCH  32  35
ATOM     35  C   UNL A   1      41.653  26.406  27.263  1.00  0.00     0.039 A 
ATOM     36  C   UNL A   1      42.574  27.406  27.584  1.00  0.00     0.014 A 
ATOM     37  C   UNL A   1      40.597  26.117  28.133  1.00  0.00     0.014 A 
ATOM     38  C   UNL A   1      42.400  28.157  28.749  1.00  0.00     0.010 A 
ATOM     39  C   UNL A   1      40.381  26.917  29.250  1.00  0.00     0.010 A 
ATOM     40  C   UNL A   1      41.283  27.942  29.574  1.00  0.00    -0.014 A 
BRANCH  40  41
ATOM     41  C   UNL A   1      41.042  28.780  30.776  1.00  0.00     0.031 A 
ATOM     42  C   UNL A   1      39.938  29.804  30.778  1.00  0.00     0.074 A 
ATOM     43  C   UNL A   1      41.854  28.660  31.845  1.00  0.00     0.049 A 
ATOM     44  N   UNL A   1      39.602  30.656  31.711  1.00  0.00    -0.248 NA
ATOM     45  C   UNL A   1      39.121  29.900  29.557  1.00  0.00     0.031 C 
ATOM     46  C   UNL A   1      42.984  27.734  31.948  1.00  0.00     0.029 A 
ATOM     47  N   UNL A   1      41.858  29.321  33.048  1.00  0.00    -0.354 N 
ATOM     48  C   UNL A   1      38.548  31.396  31.188  1.00  0.00     0.074 A 
ATOM     49  C   UNL A   1      38.339  30.932  29.834  1.00  0.00     0.031 C 
ATOM     50  C   UNL A   1      43.549  27.861  33.159  1.00  0.00     0.029 A 
ATOM     51  C   UNL A   1      42.853  28.906  33.902  1.00  0.00     0.049 A 
ATOM     52  H   UNL A   1      41.210  30.026  33.276  1.00  0.00     0.167 HD
ATOM     53  C   UNL A   1      37.806  32.358  31.790  1.00  0.00     0.037 A 
ATOM     54  C   UNL A   1      43.169  29.324  35.144  1.00  0.00     0.037 A 
ATOM     55  C   UNL A   1      38.014  32.802  33.144  1.00  0.00     0.049 A 
ATOM     56  C   UNL A   1      42.348  30.412  35.782  1.00  0.00     0.074 A 
ATOM     57  C   UNL A   1      37.281  33.727  33.867  1.00  0.00     0.029 A 
ATOM     58  N   UNL A   1      39.034  32.362  33.976  1.00  0.00    -0.354 N 
ATOM     59  N   UNL A   1      41.307  31.050  35.301  1.00  0.00    -0.248 NA
ATOM     60  C   UNL A   1      42.741  30.835  37.132  1.00  0.00     0.031 C 
ATOM     61  C   UNL A   1      37.893  33.890  35.115  1.00  0.00     0.029 A 
ATOM     62  C   UNL A   1      38.969  33.020  35.194  1.00  0.00     0.049 A 
ATOM     63  H   UNL A   1      39.705  31.683  33.736  1.00  0.00     0.167 HD
ATOM     64  C   UNL A   1      40.901  31.925  36.303  1.00  0.00     0.074 A 
ATOM     65  C   UNL A   1      41.802  31.726  37.419  1.00  0.00     0.031 C 
ATOM     66  C   UNL A   1      39.871  32.809  36.301  1.00  0.00     0.037 A 
BRANCH  53  67
ATOM     67  C   UNL A   1      36.711  33.001  30.980  1.00  0.00     0.058 A 
ATOM     68  C   UNL A   1      36.984  33.966  29.997  1.00  0.00     0.135 A 
ATOM     69  C   UNL A   1      35.369  32.636  31.178  1.00  0.00     0.135 A 
ATOM     70  F   UNL A   1      38.246  34.364  29.770  1.00  0.00    -0.206 F 
ATOM     71  C   UNL A   1      35.965  34.579  29.273  1.00  0.00     0.059 A 
ATOM     72  C   UNL A   1      34.337  33.209  30.441  1.00  0.00     0.059 A 
ATOM     73  F   UNL A   1      35.048  31.716  32.101  1.00  0.00    -0.206 F 
ATOM     74  C   UNL A   1      34.644  34.195  29.505  1.00  0.00     0.060 A 
BRANCH  74  75
ATOM     75  S   UNL A   1      33.333  35.010  28.569  1.00  0.00     0.124 S 
ATOM     76  O   UNL A   1      32.559  35.635  29.638  1.00  0.00    -0.237 OA
ATOM     77  O   UNL A   1      34.083  35.924  27.714  1.00  0.00    -0.237 OA
ATOM     78  O   UNL A   1      32.671  33.909  27.878  1.00  0.00    -0.744 OA
ENDBRANCH  74  75
ENDBRANCH  53  67
BRANCH  54  79
ATOM     79  C   UNL A   1      44.297  28.688  35.879  1.00  0.00     0.058 A 
ATOM     80  C   UNL A   1      45.608  29.164  35.730  1.00  0.00     0.135 A 
ATOM     81  C   UNL A   1      44.090  27.608  36.749  1.00  0.00     0.135 A 
ATOM     82  F   UNL A   1      45.860  30.190  34.903  1.00  0.00    -0.206 F 
ATOM     83  C   UNL A   1      46.677  28.582  36.403  1.00  0.00     0.059 A 
ATOM     84  C   UNL A   1      45.138  27.026  37.457  1.00  0.00     0.059 A 
ATOM     85  F   UNL A   1      42.852  27.125  36.940  1.00  0.00    -0.206 F 
ATOM     86  C   UNL A   1      46.431  27.515  37.269  1.00  0.00     0.060 A 
BRANCH  86  87
ATOM     87  S   UNL A   1      47.819  26.799  38.175  1.00  0.00     0.124 S 
ATOM     88  O   UNL A   1      48.843  26.731  37.139  1.00  0.00    -0.237 OA
ATOM     89  O   UNL A   1      48.038  27.786  39.228  1.00  0.00    -0.237 OA
ATOM     90  O   UNL A   1      47.295  25.514  38.630  1.00  0.00    -0.744 OA
ENDBRANCH  86  87
ENDBRANCH  54  79
BRANCH  66  91
ATOM     91  C   UNL A   1      39.635  33.602  37.558  1.00  0.00     0.058 A 
ATOM     92  C   UNL A   1      38.719  33.186  38.537  1.00  0.00     0.135 A 
ATOM     93  C   UNL A   1      40.374  34.770  37.807  1.00  0.00     0.135 A 
ATOM     94  F   UNL A   1      37.980  32.082  38.348  1.00  0.00    -0.206 F 
ATOM     95  C   UNL A   1      38.526  33.915  39.707  1.00  0.00     0.059 A 
ATOM     96  C   UNL A   1      40.221  35.496  38.984  1.00  0.00     0.059 A 
ATOM     97  F   UNL A   1      41.272  35.208  36.910  1.00  0.00    -0.206 F 
ATOM     98  C   UNL A   1      39.284  35.067  39.923  1.00  0.00     0.060 A 
BRANCH  98  99
ATOM     99  S   UNL A   1      39.047  35.983  41.461  1.00  0.00     0.124 S 
ATOM    100  O   UNL A   1      37.805  35.404  41.960  1.00  0.00    -0.237 OA
ATOM    101  O   UNL A   1      40.252  35.646  42.213  1.00  0.00    -0.237 OA
ATOM    102  O   UNL A   1      38.959  37.372  41.019  1.00  0.00    -0.744 OA
ENDBRANCH  98  99
ENDBRANCH  66  91
ENDBRANCH  40  41
ENDBRANCH  32  35
ENDBRANCH  30  31
ENDBRANCH  29  30
ENDBRANCH  28  29
ENDBRANCH   1  28
TORSDOF 19
ENDMDL
MODEL 3
REMARK VINA RESULT:     -11.4      6.484     12.404
REMARK SMILES O=C(Cc1cncnc1N1CCC2(CC1)OCCC[C@@H]2O)NCCCCCCNC(=O)c1ccc(-c2c3nc(c(-c4c(F)cc(S(=O)(=O)[O-])cc4F)c4ccc([nH]4)c(-c4c(F)cc(S(=O)(=O)[O-])cc4F)c4nc(c(-c5c(F)cc(S(=O)(=O)[O-])cc5F)c5ccc2[nH]5)C=C4)C=C3)cc1
REMARK SMILES IDX 25 1 24 2 23 3 22 4 1 5 2 6 3 8 4 9 5 10 9 11 6 12 8 13 7 14
REMARK SMILES IDX 10 15 11 16 15 17 12 18 14 19 13 20 16 21 20 22 17 23 19 24
REMARK SMILES IDX 18 25 21 26 26 28 27 29 28 30 29 31 30 32 31 34 32 35 33 36
REMARK SMILES IDX 97 37 34 38 96 39 35 40 36 41 37 42 90 43 38 44 95 45 89 46
REMARK SMILES IDX 91 47 39 48 94 49 88 50 87 51 40 53 74 54 53 55 73 56 54 57
REMARK SMILES IDX 57 58 72 59 92 60 55 61 56 62 71 64 93 65 58 66 41 67 42 68
REMARK SMILES IDX 51 69 43 70 44 71 50 72 52 73 45 74 46 75 47 76 48 77 49 78
REMARK SMILES IDX 75 79 76 80 85 81 77 82 78 83 84 84 86 85 79 86 80 87 81 88
REMARK SMILES IDX 82 89 83 90 59 91 60 92 69 93 61 94 62 95 68 96 70 97 63 98
REMARK SMILES IDX 64 99 65 100 66 101 67 102
REMARK H PARENT 22 7 21 27 29 33 91 52 57 63
REMARK Flexibility Score: inf
ROOT
ATOM      1  C   UNL A   1      34.550  32.157  28.171  1.00  0.00     0.002 C 
ENDROOT
BRANCH   1   2
ATOM      2  C   UNL A   1      34.543  30.629  28.267  1.00  0.00     0.021 C 
BRANCH   2   3
ATOM      3  C   UNL A   1      34.368  29.936  26.927  1.00  0.00     0.116 C 
BRANCH   3   4
ATOM      4  N   UNL A   1      33.094  29.250  26.808  1.00  0.00    -0.356 N 
ATOM      5  O   UNL A   1      33.927  27.485  25.630  1.00  0.00    -0.275 OA
ATOM      6  C   UNL A   1      33.010  27.985  26.284  1.00  0.00     0.224 C 
ATOM      7  H   UNL A   1      32.274  29.702  27.110  1.00  0.00     0.163 HD
BRANCH   6   8
ATOM      8  C   UNL A   1      31.732  27.207  26.527  1.00  0.00     0.141 C 
BRANCH   8   9
ATOM      9  C   UNL A   1      31.466  25.987  25.685  1.00  0.00     0.022 A 
ATOM     10  C   UNL A   1      31.799  24.739  26.186  1.00  0.00     0.121 A 
ATOM     11  C   UNL A   1      30.794  25.994  24.461  1.00  0.00     0.135 A 
ATOM     12  N   UNL A   1      31.517  23.580  25.571  1.00  0.00    -0.244 NA
ATOM     13  N   UNL A   1      30.481  24.845  23.832  1.00  0.00    -0.219 NA
ATOM     14  C   UNL A   1      30.861  23.699  24.413  1.00  0.00     0.224 A 
BRANCH  11  15
ATOM     15  N   UNL A   1      30.341  27.167  23.902  1.00  0.00    -0.356 N 
ATOM     16  C   UNL A   1      29.028  27.208  23.282  1.00  0.00     0.121 C 
ATOM     17  C   UNL A   1      31.270  28.098  23.282  1.00  0.00     0.121 C 
ATOM     18  C   UNL A   1      28.438  28.585  23.606  1.00  0.00     0.060 C 
ATOM     19  C   UNL A   1      30.830  29.490  23.720  1.00  0.00     0.060 C 
ATOM     20  C   UNL A   1      29.384  29.772  23.250  1.00  0.00     0.097 C 
ATOM     21  O   UNL A   1      29.500  29.967  21.824  1.00  0.00    -0.372 OA
ATOM     22  C   UNL A   1      28.866  31.081  23.913  1.00  0.00     0.146 C 
ATOM     23  C   UNL A   1      28.321  30.397  21.153  1.00  0.00     0.161 C 
ATOM     24  C   UNL A   1      27.580  31.572  23.251  1.00  0.00     0.037 C 
ATOM     25  C   UNL A   1      27.764  31.684  21.742  1.00  0.00     0.031 C 
BRANCH  22  26
ATOM     26  O   UNL A   1      29.831  32.135  23.814  1.00  0.00    -0.390 OA
ATOM     27  H   UNL A   1      29.601  32.715  23.072  1.00  0.00     0.211 HD
ENDBRANCH  22  26
ENDBRANCH  11  15
ENDBRANCH   8   9
ENDBRANCH   6   8
ENDBRANCH   3   4
ENDBRANCH   2   3
ENDBRANCH   1   2
BRANCH   1  28
ATOM     28  C   UNL A   1      35.935  32.794  28.005  1.00  0.00     0.002 C 
BRANCH  28  29
ATOM     29  C   UNL A   1      36.314  33.821  29.074  1.00  0.00     0.021 C 
BRANCH  29  30
ATOM     30  C   UNL A   1      37.188  33.279  30.199  1.00  0.00     0.116 C 
BRANCH  30  31
ATOM     31  N   UNL A   1      36.497  32.282  31.002  1.00  0.00    -0.352 N 
ATOM     32  C   UNL A   1      36.798  30.954  31.186  1.00  0.00     0.251 C 
ATOM     33  H   UNL A   1      35.701  32.604  31.482  1.00  0.00     0.163 HD
ATOM     34  O   UNL A   1      36.004  30.218  31.757  1.00  0.00    -0.269 OA
BRANCH  32  35
ATOM     35  C   UNL A   1      38.076  30.418  30.669  1.00  0.00     0.039 A 
ATOM     36  C   UNL A   1      38.239  30.275  29.289  1.00  0.00     0.014 A 
ATOM     37  C   UNL A   1      39.111  30.067  31.540  1.00  0.00     0.014 A 
ATOM     38  C   UNL A   1      39.464  29.835  28.780  1.00  0.00     0.010 A 
ATOM     39  C   UNL A   1      40.354  29.706  31.029  1.00  0.00     0.010 A 
ATOM     40  C   UNL A   1      40.543  29.581  29.644  1.00  0.00    -0.014 A 
BRANCH  40  41
ATOM     41  C   UNL A   1      41.873  29.185  29.117  1.00  0.00     0.031 A 
ATOM     42  C   UNL A   1      42.985  30.197  29.028  1.00  0.00     0.074 A 
ATOM     43  C   UNL A   1      42.064  27.930  28.665  1.00  0.00     0.049 A 
ATOM     44  N   UNL A   1      44.197  30.054  28.557  1.00  0.00    -0.248 NA
ATOM     45  C   UNL A   1      42.684  31.557  29.506  1.00  0.00     0.031 C 
ATOM     46  C   UNL A   1      41.052  26.871  28.659  1.00  0.00     0.029 A 
ATOM     47  N   UNL A   1      43.172  27.331  28.118  1.00  0.00    -0.354 N 
ATOM     48  C   UNL A   1      44.798  31.303  28.669  1.00  0.00     0.074 A 
ATOM     49  C   UNL A   1      43.798  32.204  29.198  1.00  0.00     0.031 C 
ATOM     50  C   UNL A   1      41.595  25.746  28.168  1.00  0.00     0.029 A 
ATOM     51  C   UNL A   1      42.977  26.011  27.783  1.00  0.00     0.049 A 
ATOM     52  H   UNL A   1      44.024  27.803  27.979  1.00  0.00     0.167 HD
ATOM     53  C   UNL A   1      46.073  31.660  28.381  1.00  0.00     0.037 A 
ATOM     54  C   UNL A   1      43.818  25.118  27.225  1.00  0.00     0.037 A 
ATOM     55  C   UNL A   1      47.065  30.750  27.869  1.00  0.00     0.049 A 
ATOM     56  C   UNL A   1      45.222  25.544  26.889  1.00  0.00     0.074 A 
ATOM     57  C   UNL A   1      48.400  30.996  27.600  1.00  0.00     0.029 A 
ATOM     58  N   UNL A   1      46.829  29.423  27.538  1.00  0.00    -0.354 N 
ATOM     59  N   UNL A   1      45.796  26.710  27.070  1.00  0.00    -0.248 NA
ATOM     60  C   UNL A   1      46.093  24.534  26.276  1.00  0.00     0.031 C 
ATOM     61  C   UNL A   1      48.956  29.835  27.051  1.00  0.00     0.029 A 
ATOM     62  C   UNL A   1      47.985  28.846  27.037  1.00  0.00     0.049 A 
ATOM     63  H   UNL A   1      45.967  28.960  27.643  1.00  0.00     0.167 HD
ATOM     64  C   UNL A   1      47.105  26.562  26.625  1.00  0.00     0.074 A 
ATOM     65  C   UNL A   1      47.239  25.192  26.176  1.00  0.00     0.031 C 
ATOM     66  C   UNL A   1      48.107  27.478  26.597  1.00  0.00     0.037 A 
BRANCH  53  67
ATOM     67  C   UNL A   1      46.460  33.098  28.603  1.00  0.00     0.058 A 
ATOM     68  C   UNL A   1      46.967  33.550  29.832  1.00  0.00     0.135 A 
ATOM     69  C   UNL A   1      46.337  34.038  27.566  1.00  0.00     0.135 A 
ATOM     70  F   UNL A   1      47.096  32.700  30.864  1.00  0.00    -0.206 F 
ATOM     71  C   UNL A   1      47.295  34.886  30.041  1.00  0.00     0.059 A 
ATOM     72  C   UNL A   1      46.692  35.373  27.740  1.00  0.00     0.059 A 
ATOM     73  F   UNL A   1      45.862  33.664  26.367  1.00  0.00    -0.206 F 
ATOM     74  C   UNL A   1      47.150  35.791  28.988  1.00  0.00     0.060 A 
BRANCH  74  75
ATOM     75  S   UNL A   1      47.564  37.524  29.279  1.00  0.00     0.124 S 
ATOM     76  O   UNL A   1      46.724  37.834  30.432  1.00  0.00    -0.237 OA
ATOM     77  O   UNL A   1      48.998  37.462  29.540  1.00  0.00    -0.237 OA
ATOM     78  O   UNL A   1      47.183  38.179  28.032  1.00  0.00    -0.744 OA
ENDBRANCH  74  75
ENDBRANCH  53  67
BRANCH  54  79
ATOM     79  C   UNL A   1      43.364  23.722  26.980  1.00  0.00     0.058 A 
ATOM     80  C   UNL A   1      43.248  22.810  28.040  1.00  0.00     0.135 A 
ATOM     81  C   UNL A   1      43.027  23.273  25.694  1.00  0.00     0.135 A 
ATOM     82  F   UNL A   1      43.565  23.187  29.287  1.00  0.00    -0.206 F 
ATOM     83  C   UNL A   1      42.831  21.499  27.833  1.00  0.00     0.059 A 
ATOM     84  C   UNL A   1      42.580  21.976  25.465  1.00  0.00     0.059 A 
ATOM     85  F   UNL A   1      43.105  24.111  24.647  1.00  0.00    -0.206 F 
ATOM     86  C   UNL A   1      42.494  21.093  26.540  1.00  0.00     0.060 A 
BRANCH  86  87
ATOM     87  S   UNL A   1      41.907  19.403  26.291  1.00  0.00     0.124 S 
ATOM     88  O   UNL A   1      40.482  19.616  26.068  1.00  0.00    -0.237 OA
ATOM     89  O   UNL A   1      42.681  18.980  25.128  1.00  0.00    -0.237 OA
ATOM     90  O   UNL A   1      42.258  18.738  27.542  1.00  0.00    -0.744 OA
ENDBRANCH  86  87
ENDBRANCH  54  79
BRANCH  66  91
ATOM     91  C   UNL A   1      49.452  27.018  26.100  1.00  0.00     0.058 A 
ATOM     92  C   UNL A   1      49.817  27.117  24.748  1.00  0.00     0.135 A 
ATOM     93  C   UNL A   1      50.406  26.517  27.001  1.00  0.00     0.135 A 
ATOM     94  F   UNL A   1      48.941  27.581  23.843  1.00  0.00    -0.206 F 
ATOM     95  C   UNL A   1      51.071  26.711  24.303  1.00  0.00     0.059 A 
ATOM     96  C   UNL A   1      51.677  26.136  26.583  1.00  0.00     0.059 A 
ATOM     97  F   UNL A   1      50.114  26.411  28.307  1.00  0.00    -0.206 F 
ATOM     98  C   UNL A   1      51.996  26.224  25.229  1.00  0.00     0.060 A 
BRANCH  98  99
ATOM     99  S   UNL A   1      53.631  25.734  24.642  1.00  0.00     0.124 S 
ATOM    100  O   UNL A   1      53.603  26.207  23.263  1.00  0.00    -0.237 OA
ATOM    101  O   UNL A   1      54.518  26.461  25.545  1.00  0.00    -0.237 OA
ATOM    102  O   UNL A   1      53.631  24.283  24.808  1.00  0.00    -0.744 OA
ENDBRANCH  98  99
ENDBRANCH  66  91
ENDBRANCH  40  41
ENDBRANCH  32  35
ENDBRANCH  30  31
ENDBRANCH  29  30
ENDBRANCH  28  29
ENDBRANCH   1  28
TORSDOF 19
ENDMDL
