MODEL 1
REMARK VINA RESULT:     -10.0      0.000      0.000
REMARK SMILES COc1cc(/N=N/c2ccccc2)ccc1NC(=O)[C@H]1CC=CC[C@@H]1C(=O)NCCCCCCNC(=O)c1ccc(-c2c3nc(c(-c4c(F)cc(S(=O)(=O)[O-])cc4F)c4ccc([nH]4)c(-c4c(F)cc(S(=O)(=O)[O-])cc4F)c4nc(c(-c5c(F)cc(S(=O)(=O)[O-])cc5F)c5ccc2[nH]5)C=C4)C=C3)cc1
REMARK SMILES IDX 31 1 30 2 29 3 28 4 26 5 27 6 25 8 20 9 21 10 22 11 24 12
REMARK SMILES IDX 23 13 18 14 17 15 19 17 16 18 3 19 4 20 5 21 15 22 14 23
REMARK SMILES IDX 2 24 1 25 6 26 7 27 8 28 9 29 13 30 10 31 12 32 11 33 32 34
REMARK SMILES IDX 33 35 34 36 35 37 36 38 37 40 38 41 39 42 103 43 40 44
REMARK SMILES IDX 102 45 41 46 42 47 43 48 96 49 44 50 101 51 95 52 97 53
REMARK SMILES IDX 45 54 100 55 94 56 93 57 46 59 80 60 59 61 79 62 60 63 63 64
REMARK SMILES IDX 78 65 98 66 61 67 62 68 77 70 99 71 64 72 47 73 48 74 57 75
REMARK SMILES IDX 49 76 50 77 56 78 58 79 51 80 52 81 53 82 54 83 55 84 81 85
REMARK SMILES IDX 82 86 91 87 83 88 84 89 90 90 92 91 85 92 86 93 87 94 88 95
REMARK SMILES IDX 89 96 65 97 66 98 75 99 67 100 68 101 74 102 76 103 69 104
REMARK SMILES IDX 70 105 71 106 72 107 73 108
REMARK H PARENT 28 7 17 16 35 39 97 58 63 69
REMARK Flexibility Score: inf
ROOT
ATOM      1  C   UNL A   1      47.878  37.711  25.391  1.00  0.00     0.002 C 
ENDROOT
BRANCH   1   2
ATOM      2  C   UNL A   1      47.097  38.916  25.923  1.00  0.00     0.021 C 
BRANCH   2   3
ATOM      3  C   UNL A   1      45.889  38.585  26.785  1.00  0.00     0.116 C 
BRANCH   3   4
ATOM      4  N   UNL A   1      45.250  37.353  26.395  1.00  0.00    -0.356 N 
ATOM      5  C   UNL A   1      44.140  36.751  26.888  1.00  0.00     0.224 C 
ATOM      6  O   UNL A   1      43.861  35.653  26.395  1.00  0.00    -0.275 OA
ATOM      7  H   UNL A   1      45.688  36.874  25.654  1.00  0.00     0.163 HD
BRANCH   5   8
ATOM      8  C   UNL A   1      43.349  37.338  28.066  1.00  0.00     0.095 C 
ATOM      9  C   UNL A   1      44.360  37.721  29.195  1.00  0.00     0.095 C 
ATOM     10  C   UNL A   1      44.946  36.420  29.808  1.00  0.00     0.041 C 
ATOM     11  C   UNL A   1      44.002  35.266  29.939  1.00  0.00    -0.030 C 
ATOM     12  C   UNL A   1      42.239  36.452  28.675  1.00  0.00     0.041 C 
ATOM     13  C   UNL A   1      42.758  35.289  29.455  1.00  0.00    -0.030 C 
BRANCH   9  14
ATOM     14  C   UNL A   1      43.701  38.728  30.153  1.00  0.00     0.228 C 
ATOM     15  N   UNL A   1      43.191  39.933  29.771  1.00  0.00    -0.323 N 
ATOM     16  H   UNL A   1      42.905  40.505  30.519  1.00  0.00     0.170 HD
ATOM     17  O   UNL A   1      43.579  38.468  31.358  1.00  0.00    -0.274 OA
BRANCH  15  18
ATOM     18  C   UNL A   1      42.998  40.506  28.506  1.00  0.00     0.083 A 
ATOM     19  C   UNL A   1      43.974  41.305  27.882  1.00  0.00     0.144 A 
ATOM     20  C   UNL A   1      43.829  41.592  26.507  1.00  0.00     0.079 A 
ATOM     21  C   UNL A   1      42.725  41.152  25.769  1.00  0.00     0.090 A 
ATOM     22  C   UNL A   1      41.819  40.209  27.808  1.00  0.00     0.032 A 
ATOM     23  C   UNL A   1      41.692  40.511  26.455  1.00  0.00     0.033 A 
BRANCH  19  24
ATOM     24  O   UNL A   1      45.158  41.789  28.369  1.00  0.00    -0.494 OA
ATOM     25  C   UNL A   1      45.355  43.177  28.575  1.00  0.00     0.278 C 
ENDBRANCH  19  24
BRANCH  21  26
ATOM     26  N   UNL A   1      42.647  41.395  24.380  1.00  0.00    -0.150 NA
ATOM     27  N   UNL A   1      42.610  42.629  24.160  1.00  0.00    -0.151 NA
BRANCH  27  28
ATOM     28  C   UNL A   1      42.739  42.923  22.793  1.00  0.00     0.086 A 
ATOM     29  C   UNL A   1      41.607  42.835  21.971  1.00  0.00     0.030 A 
ATOM     30  C   UNL A   1      43.974  43.222  22.211  1.00  0.00     0.030 A 
ATOM     31  C   UNL A   1      41.702  43.061  20.597  1.00  0.00     0.002 A 
ATOM     32  C   UNL A   1      44.073  43.449  20.835  1.00  0.00     0.002 A 
ATOM     33  C   UNL A   1      42.937  43.369  20.030  1.00  0.00     0.000 A 
ENDBRANCH  27  28
ENDBRANCH  21  26
ENDBRANCH  15  18
ENDBRANCH   9  14
ENDBRANCH   5   8
ENDBRANCH   3   4
ENDBRANCH   2   3
ENDBRANCH   1   2
BRANCH   1  34
ATOM     34  C   UNL A   1      49.391  37.730  25.624  1.00  0.00     0.002 C 
BRANCH  34  35
ATOM     35  C   UNL A   1      50.060  36.362  25.764  1.00  0.00     0.021 C 
BRANCH  35  36
ATOM     36  C   UNL A   1      50.437  35.963  27.184  1.00  0.00     0.116 C 
BRANCH  36  37
ATOM     37  N   UNL A   1      49.759  36.761  28.191  1.00  0.00    -0.352 N 
ATOM     38  C   UNL A   1      48.612  36.474  28.891  1.00  0.00     0.251 C 
ATOM     39  H   UNL A   1      50.179  37.626  28.400  1.00  0.00     0.163 HD
ATOM     40  O   UNL A   1      48.097  37.326  29.603  1.00  0.00    -0.269 OA
BRANCH  38  41
ATOM     41  C   UNL A   1      47.986  35.141  28.747  1.00  0.00     0.039 A 
ATOM     42  C   UNL A   1      47.318  34.838  27.560  1.00  0.00     0.014 A 
ATOM     43  C   UNL A   1      48.073  34.189  29.770  1.00  0.00     0.014 A 
ATOM     44  C   UNL A   1      46.788  33.559  27.374  1.00  0.00     0.010 A 
ATOM     45  C   UNL A   1      47.612  32.894  29.550  1.00  0.00     0.010 A 
ATOM     46  C   UNL A   1      46.962  32.565  28.352  1.00  0.00    -0.014 A 
BRANCH  46  47
ATOM     47  C   UNL A   1      46.464  31.182  28.136  1.00  0.00     0.031 A 
ATOM     48  C   UNL A   1      47.395  30.116  27.622  1.00  0.00     0.074 A 
ATOM     49  C   UNL A   1      45.165  30.897  28.360  1.00  0.00     0.049 A 
ATOM     50  N   UNL A   1      47.132  28.875  27.304  1.00  0.00    -0.248 NA
ATOM     51  C   UNL A   1      48.801  30.500  27.417  1.00  0.00     0.031 C 
ATOM     52  C   UNL A   1      44.154  31.855  28.816  1.00  0.00     0.029 A 
ATOM     53  N   UNL A   1      44.466  29.723  28.224  1.00  0.00    -0.354 N 
ATOM     54  C   UNL A   1      48.335  28.331  26.869  1.00  0.00     0.074 A 
ATOM     55  C   UNL A   1      49.314  29.395  26.898  1.00  0.00     0.031 C 
ATOM     56  C   UNL A   1      42.972  31.228  28.937  1.00  0.00     0.029 A 
ATOM     57  C   UNL A   1      43.128  29.836  28.528  1.00  0.00     0.049 A 
ATOM     58  H   UNL A   1      44.882  28.880  27.936  1.00  0.00     0.167 HD
ATOM     59  C   UNL A   1      48.607  27.055  26.510  1.00  0.00     0.037 A 
ATOM     60  C   UNL A   1      42.136  28.926  28.467  1.00  0.00     0.037 A 
ATOM     61  C   UNL A   1      47.631  25.995  26.495  1.00  0.00     0.049 A 
ATOM     62  C   UNL A   1      42.461  27.520  28.032  1.00  0.00     0.074 A 
ATOM     63  C   UNL A   1      47.813  24.663  26.167  1.00  0.00     0.029 A 
ATOM     64  N   UNL A   1      46.293  26.145  26.829  1.00  0.00    -0.354 N 
ATOM     65  N   UNL A   1      43.616  27.014  27.671  1.00  0.00    -0.248 NA
ATOM     66  C   UNL A   1      41.350  26.558  28.004  1.00  0.00     0.031 C 
ATOM     67  C   UNL A   1      46.577  24.016  26.261  1.00  0.00     0.029 A 
ATOM     68  C   UNL A   1      45.636  24.932  26.702  1.00  0.00     0.049 A 
ATOM     69  H   UNL A   1      45.872  26.988  27.113  1.00  0.00     0.167 HD
ATOM     70  C   UNL A   1      43.376  25.669  27.408  1.00  0.00     0.074 A 
ATOM     71  C   UNL A   1      41.972  25.437  27.666  1.00  0.00     0.031 C 
ATOM     72  C   UNL A   1      44.240  24.712  26.986  1.00  0.00     0.037 A 
BRANCH  59  73
ATOM     73  C   UNL A   1      50.022  26.717  26.126  1.00  0.00     0.058 A 
ATOM     74  C   UNL A   1      50.451  26.783  24.791  1.00  0.00     0.135 A 
ATOM     75  C   UNL A   1      50.977  26.396  27.105  1.00  0.00     0.135 A 
ATOM     76  F   UNL A   1      49.577  27.066  23.813  1.00  0.00    -0.206 F 
ATOM     77  C   UNL A   1      51.773  26.533  24.438  1.00  0.00     0.059 A 
ATOM     78  C   UNL A   1      52.311  26.170  26.778  1.00  0.00     0.059 A 
ATOM     79  F   UNL A   1      50.621  26.315  28.397  1.00  0.00    -0.206 F 
ATOM     80  C   UNL A   1      52.697  26.234  25.439  1.00  0.00     0.060 A 
BRANCH  80  81
ATOM     81  S   UNL A   1      54.416  25.955  24.964  1.00  0.00     0.124 S 
ATOM     82  O   UNL A   1      54.495  24.496  25.001  1.00  0.00    -0.237 OA
ATOM     83  O   UNL A   1      54.473  26.558  23.637  1.00  0.00    -0.237 OA
ATOM     84  O   UNL A   1      55.174  26.649  26.000  1.00  0.00    -0.744 OA
ENDBRANCH  80  81
ENDBRANCH  59  73
BRANCH  60  85
ATOM     85  C   UNL A   1      40.739  29.308  28.812  1.00  0.00     0.058 A 
ATOM     86  C   UNL A   1      40.332  29.452  30.148  1.00  0.00     0.135 A 
ATOM     87  C   UNL A   1      39.770  29.497  27.814  1.00  0.00     0.135 A 
ATOM     88  F   UNL A   1      41.218  29.280  31.141  1.00  0.00    -0.206 F 
ATOM     89  C   UNL A   1      39.009  29.726  30.484  1.00  0.00     0.059 A 
ATOM     90  C   UNL A   1      38.449  29.806  28.123  1.00  0.00     0.059 A 
ATOM     91  F   UNL A   1      40.108  29.393  26.519  1.00  0.00    -0.206 F 
ATOM     92  C   UNL A   1      38.073  29.895  29.461  1.00  0.00     0.060 A 
BRANCH  92  93
ATOM     93  S   UNL A   1      36.358  30.244  29.905  1.00  0.00     0.124 S 
ATOM     94  O   UNL A   1      35.634  29.506  28.876  1.00  0.00    -0.237 OA
ATOM     95  O   UNL A   1      36.274  29.705  31.258  1.00  0.00    -0.237 OA
ATOM     96  O   UNL A   1      36.279  31.699  29.813  1.00  0.00    -0.744 OA
ENDBRANCH  92  93
ENDBRANCH  60  85
BRANCH  72  97
ATOM     97  C   UNL A   1      43.706  23.315  26.826  1.00  0.00     0.058 A 
ATOM     98  C   UNL A   1      43.458  22.485  27.929  1.00  0.00     0.135 A 
ATOM     99  C   UNL A   1      43.390  22.821  25.549  1.00  0.00     0.135 A 
ATOM    100  F   UNL A   1      43.747  22.906  29.170  1.00  0.00    -0.206 F 
ATOM    101  C   UNL A   1      42.939  21.204  27.772  1.00  0.00     0.059 A 
ATOM    102  C   UNL A   1      42.840  21.556  25.370  1.00  0.00     0.059 A 
ATOM    103  F   UNL A   1      43.597  23.579  24.460  1.00  0.00    -0.206 F 
ATOM    104  C   UNL A   1      42.631  20.749  26.487  1.00  0.00     0.060 A 
BRANCH 104 105
ATOM    105  S   UNL A   1      41.926  19.098  26.302  1.00  0.00     0.124 S 
ATOM    106  O   UNL A   1      40.604  19.401  25.764  1.00  0.00    -0.237 OA
ATOM    107  O   UNL A   1      42.858  18.462  25.376  1.00  0.00    -0.237 OA
ATOM    108  O   UNL A   1      41.943  18.566  27.662  1.00  0.00    -0.744 OA
ENDBRANCH 104 105
ENDBRANCH  72  97
ENDBRANCH  46  47
ENDBRANCH  38  41
ENDBRANCH  36  37
ENDBRANCH  35  36
ENDBRANCH  34  35
ENDBRANCH   1  34
TORSDOF 21
ENDMDL
MODEL 2
REMARK VINA RESULT:      -9.9      8.067     14.649
REMARK SMILES COc1cc(/N=N/c2ccccc2)ccc1NC(=O)[C@H]1CC=CC[C@@H]1C(=O)NCCCCCCNC(=O)c1ccc(-c2c3nc(c(-c4c(F)cc(S(=O)(=O)[O-])cc4F)c4ccc([nH]4)c(-c4c(F)cc(S(=O)(=O)[O-])cc4F)c4nc(c(-c5c(F)cc(S(=O)(=O)[O-])cc5F)c5ccc2[nH]5)C=C4)C=C3)cc1
REMARK SMILES IDX 31 1 30 2 29 3 28 4 26 5 27 6 25 8 20 9 21 10 22 11 24 12
REMARK SMILES IDX 23 13 18 14 17 15 19 17 16 18 3 19 4 20 5 21 15 22 14 23
REMARK SMILES IDX 2 24 1 25 6 26 7 27 8 28 9 29 13 30 10 31 12 32 11 33 32 34
REMARK SMILES IDX 33 35 34 36 35 37 36 38 37 40 38 41 39 42 103 43 40 44
REMARK SMILES IDX 102 45 41 46 42 47 43 48 96 49 44 50 101 51 95 52 97 53
REMARK SMILES IDX 45 54 100 55 94 56 93 57 46 59 80 60 59 61 79 62 60 63 63 64
REMARK SMILES IDX 78 65 98 66 61 67 62 68 77 70 99 71 64 72 47 73 48 74 57 75
REMARK SMILES IDX 49 76 50 77 56 78 58 79 51 80 52 81 53 82 54 83 55 84 81 85
REMARK SMILES IDX 82 86 91 87 83 88 84 89 90 90 92 91 85 92 86 93 87 94 88 95
REMARK SMILES IDX 89 96 65 97 66 98 75 99 67 100 68 101 74 102 76 103 69 104
REMARK SMILES IDX 70 105 71 106 72 107 73 108
REMARK H PARENT 28 7 17 16 35 39 97 58 63 69
REMARK Flexibility Score: inf
ROOT
ATOM      1  C   UNL A   1      31.460  28.423  26.509  1.00  0.00     0.002 C 
ENDROOT
BRANCH   1   2
ATOM      2  C   UNL A   1      31.166  26.935  26.724  1.00  0.00     0.021 C 
BRANCH   2   3
ATOM      3  C   UNL A   1      32.337  25.995  26.481  1.00  0.00     0.116 C 
BRANCH   3   4
ATOM      4  N   UNL A   1      32.177  24.727  27.147  1.00  0.00    -0.356 N 
ATOM      5  C   UNL A   1      32.364  23.467  26.682  1.00  0.00     0.224 C 
ATOM      6  O   UNL A   1      32.083  22.557  27.469  1.00  0.00    -0.275 OA
ATOM      7  H   UNL A   1      31.887  24.784  28.086  1.00  0.00     0.163 HD
BRANCH   5   8
ATOM      8  C   UNL A   1      32.784  23.187  25.231  1.00  0.00     0.095 C 
ATOM      9  C   UNL A   1      31.923  21.998  24.693  1.00  0.00     0.095 C 
ATOM     10  C   UNL A   1      32.356  20.695  25.418  1.00  0.00     0.041 C 
ATOM     11  C   UNL A   1      33.816  20.554  25.713  1.00  0.00    -0.030 C 
ATOM     12  C   UNL A   1      34.276  22.871  24.982  1.00  0.00     0.041 C 
ATOM     13  C   UNL A   1      34.698  21.529  25.485  1.00  0.00    -0.030 C 
BRANCH   9  14
ATOM     14  C   UNL A   1      31.951  22.002  23.154  1.00  0.00     0.228 C 
ATOM     15  N   UNL A   1      31.616  23.074  22.382  1.00  0.00    -0.323 N 
ATOM     16  H   UNL A   1      31.579  22.880  21.418  1.00  0.00     0.170 HD
ATOM     17  O   UNL A   1      32.316  20.999  22.526  1.00  0.00    -0.274 OA
BRANCH  15  18
ATOM     18  C   UNL A   1      31.314  24.403  22.710  1.00  0.00     0.083 A 
ATOM     19  C   UNL A   1      31.960  25.496  22.103  1.00  0.00     0.144 A 
ATOM     20  C   UNL A   1      31.400  26.782  22.267  1.00  0.00     0.079 A 
ATOM     21  C   UNL A   1      30.263  27.004  23.051  1.00  0.00     0.090 A 
ATOM     22  C   UNL A   1      30.280  24.650  23.623  1.00  0.00     0.032 A 
ATOM     23  C   UNL A   1      29.749  25.928  23.777  1.00  0.00     0.033 A 
BRANCH  19  24
ATOM     24  O   UNL A   1      33.028  25.523  21.248  1.00  0.00    -0.494 OA
ATOM     25  C   UNL A   1      32.842  25.583  19.844  1.00  0.00     0.278 C 
ENDBRANCH  19  24
BRANCH  21  26
ATOM     26  N   UNL A   1      29.687  28.290  23.134  1.00  0.00    -0.150 NA
ATOM     27  N   UNL A   1      30.060  28.993  22.165  1.00  0.00    -0.151 NA
BRANCH  27  28
ATOM     28  C   UNL A   1      29.357  30.205  22.094  1.00  0.00     0.086 A 
ATOM     29  C   UNL A   1      29.172  30.953  23.265  1.00  0.00     0.030 A 
ATOM     30  C   UNL A   1      28.766  30.652  20.908  1.00  0.00     0.030 A 
ATOM     31  C   UNL A   1      28.428  32.134  23.249  1.00  0.00     0.002 A 
ATOM     32  C   UNL A   1      28.020  31.834  20.889  1.00  0.00     0.002 A 
ATOM     33  C   UNL A   1      27.853  32.575  22.059  1.00  0.00     0.000 A 
ENDBRANCH  27  28
ENDBRANCH  21  26
ENDBRANCH  15  18
ENDBRANCH   9  14
ENDBRANCH   5   8
ENDBRANCH   3   4
ENDBRANCH   2   3
ENDBRANCH   1   2
BRANCH   1  34
ATOM     34  C   UNL A   1      32.269  28.778  25.258  1.00  0.00     0.002 C 
BRANCH  34  35
ATOM     35  C   UNL A   1      33.728  28.320  25.257  1.00  0.00     0.021 C 
BRANCH  35  36
ATOM     36  C   UNL A   1      34.626  29.003  26.280  1.00  0.00     0.116 C 
BRANCH  36  37
ATOM     37  N   UNL A   1      34.158  30.329  26.643  1.00  0.00    -0.352 N 
ATOM     38  C   UNL A   1      34.626  31.171  27.622  1.00  0.00     0.251 C 
ATOM     39  H   UNL A   1      33.401  30.671  26.115  1.00  0.00     0.163 HD
ATOM     40  O   UNL A   1      34.020  32.201  27.889  1.00  0.00    -0.269 OA
BRANCH  38  41
ATOM     41  C   UNL A   1      35.847  30.805  28.374  1.00  0.00     0.039 A 
ATOM     42  C   UNL A   1      35.778  29.760  29.297  1.00  0.00     0.014 A 
ATOM     43  C   UNL A   1      37.056  31.476  28.158  1.00  0.00     0.014 A 
ATOM     44  C   UNL A   1      36.936  29.348  29.960  1.00  0.00     0.010 A 
ATOM     45  C   UNL A   1      38.222  31.012  28.762  1.00  0.00     0.010 A 
ATOM     46  C   UNL A   1      38.174  29.946  29.672  1.00  0.00    -0.014 A 
BRANCH  46  47
ATOM     47  C   UNL A   1      39.425  29.470  30.318  1.00  0.00     0.031 A 
ATOM     48  C   UNL A   1      39.936  30.146  31.562  1.00  0.00     0.074 A 
ATOM     49  C   UNL A   1      40.122  28.459  29.761  1.00  0.00     0.049 A 
ATOM     50  N   UNL A   1      41.039  29.923  32.228  1.00  0.00    -0.248 NA
ATOM     51  C   UNL A   1      39.110  31.231  32.120  1.00  0.00     0.031 C 
ATOM     52  C   UNL A   1      39.752  27.752  28.531  1.00  0.00     0.029 A 
ATOM     53  N   UNL A   1      41.293  27.855  30.146  1.00  0.00    -0.354 N 
ATOM     54  C   UNL A   1      41.038  30.831  33.281  1.00  0.00     0.074 A 
ATOM     55  C   UNL A   1      39.859  31.654  33.128  1.00  0.00     0.031 C 
ATOM     56  C   UNL A   1      40.668  26.804  28.273  1.00  0.00     0.029 A 
ATOM     57  C   UNL A   1      41.711  26.860  29.292  1.00  0.00     0.049 A 
ATOM     58  H   UNL A   1      41.787  28.110  30.958  1.00  0.00     0.167 HD
ATOM     59  C   UNL A   1      41.921  30.946  34.301  1.00  0.00     0.037 A 
ATOM     60  C   UNL A   1      42.819  26.092  29.317  1.00  0.00     0.037 A 
ATOM     61  C   UNL A   1      43.087  30.115  34.457  1.00  0.00     0.049 A 
ATOM     62  C   UNL A   1      43.801  26.264  30.448  1.00  0.00     0.074 A 
ATOM     63  C   UNL A   1      44.031  30.139  35.469  1.00  0.00     0.029 A 
ATOM     64  N   UNL A   1      43.463  29.105  33.583  1.00  0.00    -0.354 N 
ATOM     65  N   UNL A   1      43.756  27.096  31.461  1.00  0.00    -0.248 NA
ATOM     66  C   UNL A   1      44.981  25.387  30.444  1.00  0.00     0.031 C 
ATOM     67  C   UNL A   1      45.001  29.174  35.185  1.00  0.00     0.029 A 
ATOM     68  C   UNL A   1      44.633  28.510  34.026  1.00  0.00     0.049 A 
ATOM     69  H   UNL A   1      42.974  28.851  32.769  1.00  0.00     0.167 HD
ATOM     70  C   UNL A   1      44.881  26.818  32.231  1.00  0.00     0.074 A 
ATOM     71  C   UNL A   1      45.577  25.732  31.576  1.00  0.00     0.031 C 
ATOM     72  C   UNL A   1      45.302  27.412  33.375  1.00  0.00     0.037 A 
BRANCH  59  73
ATOM     73  C   UNL A   1      41.652  31.991  35.349  1.00  0.00     0.058 A 
ATOM     74  C   UNL A   1      40.716  31.774  36.373  1.00  0.00     0.135 A 
ATOM     75  C   UNL A   1      42.384  33.190  35.377  1.00  0.00     0.135 A 
ATOM     76  F   UNL A   1      39.975  30.655  36.385  1.00  0.00    -0.206 F 
ATOM     77  C   UNL A   1      40.508  32.710  37.380  1.00  0.00     0.059 A 
ATOM     78  C   UNL A   1      42.213  34.128  36.390  1.00  0.00     0.059 A 
ATOM     79  F   UNL A   1      43.289  33.451  34.420  1.00  0.00    -0.206 F 
ATOM     80  C   UNL A   1      41.267  33.881  37.385  1.00  0.00     0.060 A 
BRANCH  80  81
ATOM     81  S   UNL A   1      41.011  35.063  38.724  1.00  0.00     0.124 S 
ATOM     82  O   UNL A   1      41.556  34.333  39.866  1.00  0.00    -0.237 OA
ATOM     83  O   UNL A   1      41.791  36.212  38.277  1.00  0.00    -0.237 OA
ATOM     84  O   UNL A   1      39.564  35.256  38.738  1.00  0.00    -0.744 OA
ENDBRANCH  80  81
ENDBRANCH  59  73
BRANCH  60  85
ATOM     85  C   UNL A   1      43.072  25.097  28.238  1.00  0.00     0.058 A 
ATOM     86  C   UNL A   1      42.630  23.770  28.352  1.00  0.00     0.135 A 
ATOM     87  C   UNL A   1      43.797  25.444  27.088  1.00  0.00     0.135 A 
ATOM     88  F   UNL A   1      41.934  23.386  29.434  1.00  0.00    -0.206 F 
ATOM     89  C   UNL A   1      42.934  22.813  27.389  1.00  0.00     0.059 A 
ATOM     90  C   UNL A   1      44.085  24.514  26.094  1.00  0.00     0.059 A 
ATOM     91  F   UNL A   1      44.227  26.705  26.916  1.00  0.00    -0.206 F 
ATOM     92  C   UNL A   1      43.670  23.195  26.265  1.00  0.00     0.060 A 
BRANCH  92  93
ATOM     93  S   UNL A   1      44.066  21.946  25.022  1.00  0.00     0.124 S 
ATOM     94  O   UNL A   1      43.790  22.668  23.785  1.00  0.00    -0.237 OA
ATOM     95  O   UNL A   1      45.470  21.668  25.302  1.00  0.00    -0.237 OA
ATOM     96  O   UNL A   1      43.144  20.858  25.338  1.00  0.00    -0.744 OA
ENDBRANCH  92  93
ENDBRANCH  60  85
BRANCH  72  97
ATOM     97  C   UNL A   1      46.547  26.868  34.023  1.00  0.00     0.058 A 
ATOM     98  C   UNL A   1      46.502  25.814  34.947  1.00  0.00     0.135 A 
ATOM     99  C   UNL A   1      47.807  27.378  33.670  1.00  0.00     0.135 A 
ATOM    100  F   UNL A   1      45.322  25.294  35.322  1.00  0.00    -0.206 F 
ATOM    101  C   UNL A   1      47.660  25.301  35.521  1.00  0.00     0.059 A 
ATOM    102  C   UNL A   1      48.982  26.859  34.207  1.00  0.00     0.059 A 
ATOM    103  F   UNL A   1      47.909  28.380  32.782  1.00  0.00    -0.206 F 
ATOM    104  C   UNL A   1      48.896  25.830  35.142  1.00  0.00     0.060 A 
BRANCH 104 105
ATOM    105  S   UNL A   1      50.393  25.130  35.868  1.00  0.00     0.124 S 
ATOM    106  O   UNL A   1      49.851  24.027  36.655  1.00  0.00    -0.237 OA
ATOM    107  O   UNL A   1      51.164  24.749  34.689  1.00  0.00    -0.237 OA
ATOM    108  O   UNL A   1      50.947  26.238  36.641  1.00  0.00    -0.744 OA
ENDBRANCH 104 105
ENDBRANCH  72  97
ENDBRANCH  46  47
ENDBRANCH  38  41
ENDBRANCH  36  37
ENDBRANCH  35  36
ENDBRANCH  34  35
ENDBRANCH   1  34
TORSDOF 21
ENDMDL
MODEL 3
REMARK VINA RESULT:      -9.8      5.296     12.014
REMARK SMILES COc1cc(/N=N/c2ccccc2)ccc1NC(=O)[C@H]1CC=CC[C@@H]1C(=O)NCCCCCCNC(=O)c1ccc(-c2c3nc(c(-c4c(F)cc(S(=O)(=O)[O-])cc4F)c4ccc([nH]4)c(-c4c(F)cc(S(=O)(=O)[O-])cc4F)c4nc(c(-c5c(F)cc(S(=O)(=O)[O-])cc5F)c5ccc2[nH]5)C=C4)C=C3)cc1
REMARK SMILES IDX 31 1 30 2 29 3 28 4 26 5 27 6 25 8 20 9 21 10 22 11 24 12
REMARK SMILES IDX 23 13 18 14 17 15 19 17 16 18 3 19 4 20 5 21 15 22 14 23
REMARK SMILES IDX 2 24 1 25 6 26 7 27 8 28 9 29 13 30 10 31 12 32 11 33 32 34
REMARK SMILES IDX 33 35 34 36 35 37 36 38 37 40 38 41 39 42 103 43 40 44
REMARK SMILES IDX 102 45 41 46 42 47 43 48 96 49 44 50 101 51 95 52 97 53
REMARK SMILES IDX 45 54 100 55 94 56 93 57 46 59 80 60 59 61 79 62 60 63 63 64
REMARK SMILES IDX 78 65 98 66 61 67 62 68 77 70 99 71 64 72 47 73 48 74 57 75
REMARK SMILES IDX 49 76 50 77 56 78 58 79 51 80 52 81 53 82 54 83 55 84 81 85
REMARK SMILES IDX 82 86 91 87 83 88 84 89 90 90 92 91 85 92 86 93 87 94 88 95
REMARK SMILES IDX 89 96 65 97 66 98 75 99 67 100 68 101 74 102 76 103 69 104
REMARK SMILES IDX 70 105 71 106 72 107 73 108
REMARK H PARENT 28 7 17 16 35 39 97 58 63 69
REMARK Flexibility Score: inf
ROOT
ATOM      1  C   UNL A   1      43.089  23.172  27.825  1.00  0.00     0.002 C 
ENDROOT
BRANCH   1   2
ATOM      2  C   UNL A   1      44.207  23.636  28.764  1.00  0.00     0.021 C 
BRANCH   2   3
ATOM      3  C   UNL A   1      43.837  23.703  30.238  1.00  0.00     0.116 C 
BRANCH   3   4
ATOM      4  N   UNL A   1      44.792  24.453  31.016  1.00  0.00    -0.356 N 
ATOM      5  C   UNL A   1      44.790  24.764  32.335  1.00  0.00     0.224 C 
ATOM      6  O   UNL A   1      45.718  25.486  32.717  1.00  0.00    -0.275 OA
ATOM      7  H   UNL A   1      45.566  24.791  30.510  1.00  0.00     0.163 HD
BRANCH   5   8
ATOM      8  C   UNL A   1      43.645  24.348  33.270  1.00  0.00     0.095 C 
ATOM      9  C   UNL A   1      43.637  25.317  34.497  1.00  0.00     0.095 C 
ATOM     10  C   UNL A   1      44.892  25.037  35.368  1.00  0.00     0.041 C 
ATOM     11  C   UNL A   1      45.312  23.605  35.484  1.00  0.00    -0.030 C 
ATOM     12  C   UNL A   1      43.658  22.893  33.789  1.00  0.00     0.041 C 
ATOM     13  C   UNL A   1      44.730  22.622  34.793  1.00  0.00    -0.030 C 
BRANCH   9  14
ATOM     14  C   UNL A   1      42.262  25.259  35.186  1.00  0.00     0.228 C 
ATOM     15  N   UNL A   1      41.456  26.340  35.386  1.00  0.00    -0.323 N 
ATOM     16  H   UNL A   1      40.663  26.154  35.938  1.00  0.00     0.170 HD
ATOM     17  O   UNL A   1      41.799  24.181  35.584  1.00  0.00    -0.274 OA
BRANCH  15  18
ATOM     18  C   UNL A   1      41.550  27.668  34.948  1.00  0.00     0.083 A 
ATOM     19  C   UNL A   1      40.800  28.161  33.863  1.00  0.00     0.144 A 
ATOM     20  C   UNL A   1      40.728  29.558  33.677  1.00  0.00     0.079 A 
ATOM     21  C   UNL A   1      41.417  30.455  34.500  1.00  0.00     0.090 A 
ATOM     22  C   UNL A   1      42.367  28.554  35.664  1.00  0.00     0.032 A 
ATOM     23  C   UNL A   1      42.288  29.928  35.457  1.00  0.00     0.033 A 
BRANCH  19  24
ATOM     24  O   UNL A   1      39.997  27.497  32.976  1.00  0.00    -0.494 OA
ATOM     25  C   UNL A   1      38.721  28.001  32.622  1.00  0.00     0.278 C 
ENDBRANCH  19  24
BRANCH  21  26
ATOM     26  N   UNL A   1      41.265  31.848  34.331  1.00  0.00    -0.150 NA
ATOM     27  N   UNL A   1      40.772  32.357  35.365  1.00  0.00    -0.151 NA
BRANCH  27  28
ATOM     28  C   UNL A   1      40.792  33.760  35.322  1.00  0.00     0.086 A 
ATOM     29  C   UNL A   1      42.027  34.419  35.260  1.00  0.00     0.030 A 
ATOM     30  C   UNL A   1      39.624  34.522  35.421  1.00  0.00     0.030 A 
ATOM     31  C   UNL A   1      42.095  35.814  35.275  1.00  0.00     0.002 A 
ATOM     32  C   UNL A   1      39.689  35.918  35.436  1.00  0.00     0.002 A 
ATOM     33  C   UNL A   1      40.923  36.563  35.362  1.00  0.00     0.000 A 
ENDBRANCH  27  28
ENDBRANCH  21  26
ENDBRANCH  15  18
ENDBRANCH   9  14
ENDBRANCH   5   8
ENDBRANCH   3   4
ENDBRANCH   2   3
ENDBRANCH   1   2
BRANCH   1  34
ATOM     34  C   UNL A   1      42.049  22.225  28.429  1.00  0.00     0.002 C 
BRANCH  34  35
ATOM     35  C   UNL A   1      41.337  21.301  27.440  1.00  0.00     0.021 C 
BRANCH  35  36
ATOM     36  C   UNL A   1      41.031  21.914  26.080  1.00  0.00     0.116 C 
BRANCH  36  37
ATOM     37  N   UNL A   1      39.615  22.176  25.886  1.00  0.00    -0.352 N 
ATOM     38  C   UNL A   1      38.879  23.270  26.273  1.00  0.00     0.251 C 
ATOM     39  H   UNL A   1      39.115  21.473  25.413  1.00  0.00     0.163 HD
ATOM     40  O   UNL A   1      37.661  23.264  26.155  1.00  0.00    -0.269 OA
BRANCH  38  41
ATOM     41  C   UNL A   1      39.569  24.437  26.866  1.00  0.00     0.039 A 
ATOM     42  C   UNL A   1      40.196  25.349  26.015  1.00  0.00     0.014 A 
ATOM     43  C   UNL A   1      39.581  24.641  28.250  1.00  0.00     0.014 A 
ATOM     44  C   UNL A   1      40.785  26.497  26.549  1.00  0.00     0.010 A 
ATOM     45  C   UNL A   1      40.100  25.824  28.771  1.00  0.00     0.010 A 
ATOM     46  C   UNL A   1      40.711  26.763  27.927  1.00  0.00    -0.014 A 
BRANCH  46  47
ATOM     47  C   UNL A   1      41.272  28.015  28.497  1.00  0.00     0.031 A 
ATOM     48  C   UNL A   1      42.763  28.199  28.593  1.00  0.00     0.074 A 
ATOM     49  C   UNL A   1      40.440  28.965  28.969  1.00  0.00     0.049 A 
ATOM     50  N   UNL A   1      43.440  29.185  29.122  1.00  0.00    -0.248 NA
ATOM     51  C   UNL A   1      43.605  27.124  28.041  1.00  0.00     0.031 C 
ATOM     52  C   UNL A   1      38.977  28.884  28.973  1.00  0.00     0.029 A 
ATOM     53  N   UNL A   1      40.702  30.182  29.548  1.00  0.00    -0.354 N 
ATOM     54  C   UNL A   1      44.781  28.853  28.963  1.00  0.00     0.074 A 
ATOM     55  C   UNL A   1      44.823  27.544  28.350  1.00  0.00     0.031 C 
ATOM     56  C   UNL A   1      38.472  30.007  29.511  1.00  0.00     0.029 A 
ATOM     57  C   UNL A   1      39.572  30.870  29.930  1.00  0.00     0.049 A 
ATOM     58  H   UNL A   1      41.613  30.531  29.678  1.00  0.00     0.167 HD
ATOM     59  C   UNL A   1      45.877  29.587  29.270  1.00  0.00     0.037 A 
ATOM     60  C   UNL A   1      39.438  32.053  30.561  1.00  0.00     0.037 A 
ATOM     61  C   UNL A   1      45.830  30.896  29.868  1.00  0.00     0.049 A 
ATOM     62  C   UNL A   1      40.677  32.834  30.920  1.00  0.00     0.074 A 
ATOM     63  C   UNL A   1      46.885  31.730  30.197  1.00  0.00     0.029 A 
ATOM     64  N   UNL A   1      44.667  31.566  30.220  1.00  0.00    -0.354 N 
ATOM     65  N   UNL A   1      41.935  32.524  30.716  1.00  0.00    -0.248 NA
ATOM     66  C   UNL A   1      40.478  34.129  31.585  1.00  0.00     0.031 C 
ATOM     67  C   UNL A   1      46.363  32.885  30.786  1.00  0.00     0.029 A 
ATOM     68  C   UNL A   1      44.980  32.796  30.774  1.00  0.00     0.049 A 
ATOM     69  H   UNL A   1      43.755  31.219  30.095  1.00  0.00     0.167 HD
ATOM     70  C   UNL A   1      42.674  33.601  31.197  1.00  0.00     0.074 A 
ATOM     71  C   UNL A   1      41.722  34.575  31.686  1.00  0.00     0.031 C 
ATOM     72  C   UNL A   1      44.019  33.766  31.235  1.00  0.00     0.037 A 
BRANCH  59  73
ATOM     73  C   UNL A   1      47.226  29.008  28.941  1.00  0.00     0.058 A 
ATOM     74  C   UNL A   1      47.921  28.210  29.865  1.00  0.00     0.135 A 
ATOM     75  C   UNL A   1      47.799  29.188  27.671  1.00  0.00     0.135 A 
ATOM     76  F   UNL A   1      47.430  28.021  31.099  1.00  0.00    -0.206 F 
ATOM     77  C   UNL A   1      49.140  27.621  29.545  1.00  0.00     0.059 A 
ATOM     78  C   UNL A   1      49.002  28.585  27.320  1.00  0.00     0.059 A 
ATOM     79  F   UNL A   1      47.178  29.945  26.751  1.00  0.00    -0.206 F 
ATOM     80  C   UNL A   1      49.669  27.808  28.268  1.00  0.00     0.060 A 
BRANCH  80  81
ATOM     81  S   UNL A   1      51.230  27.000  27.860  1.00  0.00     0.124 S 
ATOM     82  O   UNL A   1      50.774  25.677  27.440  1.00  0.00    -0.237 OA
ATOM     83  O   UNL A   1      51.754  27.854  26.799  1.00  0.00    -0.237 OA
ATOM     84  O   UNL A   1      51.972  27.036  29.116  1.00  0.00    -0.744 OA
ENDBRANCH  80  81
ENDBRANCH  59  73
BRANCH  60  85
ATOM     85  C   UNL A   1      38.087  32.574  30.909  1.00  0.00     0.058 A 
ATOM     86  C   UNL A   1      37.362  33.375  30.013  1.00  0.00     0.135 A 
ATOM     87  C   UNL A   1      37.510  32.315  32.162  1.00  0.00     0.135 A 
ATOM     88  F   UNL A   1      37.870  33.655  28.802  1.00  0.00    -0.206 F 
ATOM     89  C   UNL A   1      36.137  33.936  30.360  1.00  0.00     0.059 A 
ATOM     90  C   UNL A   1      36.271  32.836  32.520  1.00  0.00     0.059 A 
ATOM     91  F   UNL A   1      38.149  31.538  33.050  1.00  0.00    -0.206 F 
ATOM     92  C   UNL A   1      35.602  33.665  31.621  1.00  0.00     0.060 A 
BRANCH  92  93
ATOM     93  S   UNL A   1      34.015  34.401  32.067  1.00  0.00     0.124 S 
ATOM     94  O   UNL A   1      33.370  34.514  30.764  1.00  0.00    -0.237 OA
ATOM     95  O   UNL A   1      33.457  33.403  32.973  1.00  0.00    -0.237 OA
ATOM     96  O   UNL A   1      34.397  35.663  32.694  1.00  0.00    -0.744 OA
ENDBRANCH  92  93
ENDBRANCH  60  85
BRANCH  72  97
ATOM     97  C   UNL A   1      44.544  35.068  31.777  1.00  0.00     0.058 A 
ATOM     98  C   UNL A   1      45.029  35.185  33.087  1.00  0.00     0.135 A 
ATOM     99  C   UNL A   1      44.609  36.202  30.950  1.00  0.00     0.135 A 
ATOM    100  F   UNL A   1      44.986  34.133  33.920  1.00  0.00    -0.206 F 
ATOM    101  C   UNL A   1      45.536  36.387  33.570  1.00  0.00     0.059 A 
ATOM    102  C   UNL A   1      45.142  37.406  31.401  1.00  0.00     0.059 A 
ATOM    103  F   UNL A   1      44.169  36.143  29.683  1.00  0.00    -0.206 F 
ATOM    104  C   UNL A   1      45.591  37.492  32.718  1.00  0.00     0.060 A 
BRANCH 104 105
ATOM    105  S   UNL A   1      46.284  39.034  33.347  1.00  0.00     0.124 S 
ATOM    106  O   UNL A   1      45.177  39.962  33.139  1.00  0.00    -0.237 OA
ATOM    107  O   UNL A   1      46.579  38.700  34.737  1.00  0.00    -0.237 OA
ATOM    108  O   UNL A   1      47.453  39.253  32.501  1.00  0.00    -0.744 OA
ENDBRANCH 104 105
ENDBRANCH  72  97
ENDBRANCH  46  47
ENDBRANCH  38  41
ENDBRANCH  36  37
ENDBRANCH  35  36
ENDBRANCH  34  35
ENDBRANCH   1  34
TORSDOF 21
ENDMDL
