MODEL 1
REMARK VINA RESULT:     -11.8      0.000      0.000
REMARK SMILES Cc1cccc(NC(=O)C[C@H]([NH2+]C(C)C)C(=O)NCCCCCCNC(=O)c2ccc(-c3c4nc(c(-c5c(F)cc(S(=O)(=O)[O-])cc5F)c5ccc([nH]5)c(-c5c(F)cc(S(=O)(=O)[O-])cc5F)c5nc(c(-c6c(F)cc(S(=O)(=O)[O-])cc6F)c6ccc3[nH]6)C=C5)C=C4)cc2)c1
REMARK SMILES IDX 21 1 20 2 19 3 18 4 16 5 17 6 11 8 10 9 8 10 7 11 9 13 6 14
REMARK SMILES IDX 1 15 2 16 3 17 94 18 4 19 5 20 12 21 13 24 14 25 15 26 22 27
REMARK SMILES IDX 23 28 24 29 25 30 26 31 27 33 28 34 29 35 93 36 30 37 92 38
REMARK SMILES IDX 31 39 32 40 33 41 86 42 34 43 91 44 85 45 87 46 35 47 90 48
REMARK SMILES IDX 84 49 83 50 36 52 70 53 49 54 69 55 50 56 53 57 68 58 88 59
REMARK SMILES IDX 51 60 52 61 67 63 89 64 54 65 37 66 38 67 47 68 39 69 40 70
REMARK SMILES IDX 46 71 48 72 41 73 42 74 43 75 44 76 45 77 71 78 72 79 81 80
REMARK SMILES IDX 73 81 74 82 80 83 82 84 75 85 76 86 77 87 78 88 79 89 55 90
REMARK SMILES IDX 56 91 65 92 57 93 58 94 64 95 66 96 59 97 60 98 61 99 62 100
REMARK SMILES IDX 63 101
REMARK H PARENT 18 7 7 12 12 22 12 23 25 32 87 51 53 62
REMARK Flexibility Score: inf
ROOT
ATOM      1  C   UNL A   1      32.506  28.258  27.635  1.00  0.00     0.002 C 
ENDROOT
BRANCH   1   2
ATOM      2  C   UNL A   1      31.423  27.924  26.605  1.00  0.00     0.021 C 
BRANCH   2   3
ATOM      3  C   UNL A   1      31.165  26.226  26.382  1.00  0.00     0.116 C 
BRANCH   3   4
ATOM      4  N   UNL A   1      32.404  24.591  26.716  1.00  0.00    -0.351 N 
ATOM      5  C   UNL A   1      33.043  23.391  26.383  1.00  0.00     0.278 C 
ATOM      6  O   UNL A   1      34.048  23.168  27.089  1.00  0.00    -0.268 OA
ATOM      7  H   UNL A   1      32.722  24.753  27.633  1.00  0.00     0.163 HD
BRANCH   5   8
ATOM      8  C   UNL A   1      32.662  22.297  25.360  1.00  0.00     0.282 C 
BRANCH   8   9
ATOM      9  C   UNL A   1      31.614  22.648  24.271  1.00  0.00     0.175 C 
BRANCH   9  10
ATOM     10  C   UNL A   1      32.080  22.815  22.821  1.00  0.00     0.230 C 
ATOM     11  N   UNL A   1      32.212  24.042  22.228  1.00  0.00    -0.326 N 
ATOM     12  H   UNL A   1      32.347  24.066  21.253  1.00  0.00     0.169 HD
ATOM     13  O   UNL A   1      32.333  21.818  22.135  1.00  0.00    -0.274 OA
BRANCH  11  14
ATOM     14  C   UNL A   1      32.168  25.262  22.908  1.00  0.00     0.041 A 
ATOM     15  C   UNL A   1      29.277  28.720  22.798  1.00  0.00     0.044 C 
ATOM     16  C   UNL A   1      30.551  27.951  22.960  1.00  0.00    -0.049 A 
ATOM     17  C   UNL A   1      32.110  28.861  23.141  1.00  0.00     0.003 A 
ATOM     18  C   UNL A   1      30.588  26.147  22.776  1.00  0.00     0.029 A 
ATOM     19  C   UNL A   1      33.680  27.960  23.334  1.00  0.00     0.002 A 
ATOM     20  C   UNL A   1      33.720  26.162  23.226  1.00  0.00     0.026 A 
ENDBRANCH  11  14
ENDBRANCH   9  10
ENDBRANCH   8   9
BRANCH   8  21
ATOM     21  N   UNL A   1      32.485  20.939  26.000  1.00  0.00    -0.334 N 
ATOM     22  H   UNL A   1      31.510  20.662  25.882  1.00  0.00     0.347 HD
ATOM     23  H   UNL A   1      32.771  21.053  26.972  1.00  0.00     0.347 HD
BRANCH  21  24
ATOM     24  C   UNL A   1      33.334  19.851  25.457  1.00  0.00     0.176 C 
ATOM     25  C   UNL A   1      32.551  19.055  24.403  1.00  0.00     0.075 C 
ATOM     26  C   UNL A   1      34.716  20.232  24.942  1.00  0.00     0.075 C 
ENDBRANCH  21  24
ENDBRANCH   8  21
ENDBRANCH   5   8
ENDBRANCH   3   4
ENDBRANCH   2   3
ENDBRANCH   1   2
BRANCH   1  27
ATOM     27  C   UNL A   1      33.937  28.212  27.091  1.00  0.00     0.002 C 
BRANCH  27  28
ATOM     28  C   UNL A   1      34.486  29.536  26.540  1.00  0.00     0.021 C 
BRANCH  28  29
ATOM     29  C   UNL A   1      33.846  30.790  27.111  1.00  0.00     0.116 C 
BRANCH  29  30
ATOM     30  N   UNL A   1      34.806  31.739  27.642  1.00  0.00    -0.352 N 
ATOM     31  C   UNL A   1      34.972  31.868  29.009  1.00  0.00     0.251 C 
ATOM     32  H   UNL A   1      35.340  32.292  27.027  1.00  0.00     0.163 HD
ATOM     33  O   UNL A   1      34.139  32.280  29.799  1.00  0.00    -0.269 OA
BRANCH  31  34
ATOM     34  C   UNL A   1      36.202  31.187  29.462  1.00  0.00     0.039 A 
ATOM     35  C   UNL A   1      36.266  30.221  30.463  1.00  0.00     0.014 A 
ATOM     36  C   UNL A   1      37.354  31.602  28.795  1.00  0.00     0.014 A 
ATOM     37  C   UNL A   1      37.521  29.741  30.844  1.00  0.00     0.010 A 
ATOM     38  C   UNL A   1      38.576  31.235  29.229  1.00  0.00     0.010 A 
ATOM     39  C   UNL A   1      38.652  30.304  30.250  1.00  0.00    -0.014 A 
BRANCH  39  40
ATOM     40  C   UNL A   1      40.020  29.873  30.395  1.00  0.00     0.031 A 
ATOM     41  C   UNL A   1      40.302  28.544  29.835  1.00  0.00     0.074 A 
ATOM     42  C   UNL A   1      40.887  30.866  30.690  1.00  0.00     0.049 A 
ATOM     43  N   UNL A   1      41.154  27.711  30.302  1.00  0.00    -0.248 NA
ATOM     44  C   UNL A   1      39.543  27.988  28.705  1.00  0.00     0.031 C 
ATOM     45  C   UNL A   1      42.331  30.958  30.572  1.00  0.00     0.029 A 
ATOM     46  N   UNL A   1      40.538  32.060  31.330  1.00  0.00    -0.354 N 
ATOM     47  C   UNL A   1      41.372  26.791  29.293  1.00  0.00     0.074 A 
ATOM     48  C   UNL A   1      40.196  26.847  28.469  1.00  0.00     0.031 C 
ATOM     49  C   UNL A   1      42.766  31.916  31.420  1.00  0.00     0.029 A 
ATOM     50  C   UNL A   1      41.608  32.408  32.163  1.00  0.00     0.049 A 
ATOM     51  H   UNL A   1      39.698  32.562  31.217  1.00  0.00     0.167 HD
ATOM     52  C   UNL A   1      42.642  26.324  29.113  1.00  0.00     0.037 A 
ATOM     53  C   UNL A   1      41.409  32.272  33.511  1.00  0.00     0.037 A 
ATOM     54  C   UNL A   1      43.520  27.015  30.063  1.00  0.00     0.049 A 
ATOM     55  C   UNL A   1      42.153  31.068  34.039  1.00  0.00     0.074 A 
ATOM     56  C   UNL A   1      44.359  28.106  29.911  1.00  0.00     0.029 A 
ATOM     57  N   UNL A   1      43.294  26.877  31.426  1.00  0.00    -0.354 N 
ATOM     58  N   UNL A   1      42.452  30.016  33.323  1.00  0.00    -0.248 NA
ATOM     59  C   UNL A   1      42.709  31.010  35.386  1.00  0.00     0.031 C 
ATOM     60  C   UNL A   1      44.583  28.662  31.199  1.00  0.00     0.029 A 
ATOM     61  C   UNL A   1      43.868  27.921  32.125  1.00  0.00     0.049 A 
ATOM     62  H   UNL A   1      42.794  26.136  31.838  1.00  0.00     0.167 HD
ATOM     63  C   UNL A   1      43.233  29.169  34.063  1.00  0.00     0.074 A 
ATOM     64  C   UNL A   1      43.368  29.841  35.344  1.00  0.00     0.031 C 
ATOM     65  C   UNL A   1      43.731  27.995  33.571  1.00  0.00     0.037 A 
BRANCH  52  66
ATOM     66  C   UNL A   1      43.188  25.538  27.935  1.00  0.00     0.058 A 
ATOM     67  C   UNL A   1      43.365  24.139  28.056  1.00  0.00     0.135 A 
ATOM     68  C   UNL A   1      43.538  26.058  26.670  1.00  0.00     0.135 A 
ATOM     69  F   UNL A   1      43.022  23.479  29.171  1.00  0.00    -0.206 F 
ATOM     70  C   UNL A   1      43.884  23.338  27.041  1.00  0.00     0.059 A 
ATOM     71  C   UNL A   1      44.079  25.275  25.640  1.00  0.00     0.059 A 
ATOM     72  F   UNL A   1      43.330  27.339  26.348  1.00  0.00    -0.206 F 
ATOM     73  C   UNL A   1      44.247  23.913  25.836  1.00  0.00     0.060 A 
BRANCH  73  74
ATOM     74  S   UNL A   1      44.879  22.842  24.533  1.00  0.00     0.124 S 
ATOM     75  O   UNL A   1      45.350  21.688  25.294  1.00  0.00    -0.237 OA
ATOM     76  O   UNL A   1      43.691  22.622  23.716  1.00  0.00    -0.237 OA
ATOM     77  O   UNL A   1      45.926  23.646  23.909  1.00  0.00    -0.744 OA
ENDBRANCH  73  74
ENDBRANCH  52  66
BRANCH  53  78
ATOM     78  C   UNL A   1      40.016  32.697  33.898  1.00  0.00     0.058 A 
ATOM     79  C   UNL A   1      39.740  34.081  33.844  1.00  0.00     0.135 A 
ATOM     80  C   UNL A   1      38.920  31.825  33.792  1.00  0.00     0.135 A 
ATOM     81  F   UNL A   1      40.743  34.968  33.962  1.00  0.00    -0.206 F 
ATOM     82  C   UNL A   1      38.482  34.570  33.498  1.00  0.00     0.059 A 
ATOM     83  C   UNL A   1      37.643  32.298  33.463  1.00  0.00     0.059 A 
ATOM     84  F   UNL A   1      39.101  30.498  33.847  1.00  0.00    -0.206 F 
ATOM     85  C   UNL A   1      37.456  33.663  33.242  1.00  0.00     0.060 A 
BRANCH  85  86
ATOM     86  S   UNL A   1      35.950  34.279  32.452  1.00  0.00     0.124 S 
ATOM     87  O   UNL A   1      36.352  34.366  31.052  1.00  0.00    -0.237 OA
ATOM     88  O   UNL A   1      34.993  33.223  32.776  1.00  0.00    -0.237 OA
ATOM     89  O   UNL A   1      35.702  35.551  33.118  1.00  0.00    -0.744 OA
ENDBRANCH  85  86
ENDBRANCH  53  78
BRANCH  65  90
ATOM     90  C   UNL A   1      44.240  26.846  34.413  1.00  0.00     0.058 A 
ATOM     91  C   UNL A   1      43.404  25.897  35.022  1.00  0.00     0.135 A 
ATOM     92  C   UNL A   1      45.631  26.582  34.521  1.00  0.00     0.135 A 
ATOM     93  F   UNL A   1      42.075  25.915  34.858  1.00  0.00    -0.206 F 
ATOM     94  C   UNL A   1      43.902  24.856  35.800  1.00  0.00     0.059 A 
ATOM     95  C   UNL A   1      46.147  25.492  35.210  1.00  0.00     0.059 A 
ATOM     96  F   UNL A   1      46.556  27.366  33.951  1.00  0.00    -0.206 F 
ATOM     97  C   UNL A   1      45.275  24.668  35.897  1.00  0.00     0.060 A 
BRANCH  97  98
ATOM     98  S   UNL A   1      45.906  23.339  36.923  1.00  0.00     0.124 S 
ATOM     99  O   UNL A   1      47.345  23.503  36.746  1.00  0.00    -0.237 OA
ATOM    100  O   UNL A   1      45.386  23.686  38.242  1.00  0.00    -0.237 OA
ATOM    101  O   UNL A   1      45.329  22.141  36.322  1.00  0.00    -0.744 OA
ENDBRANCH  97  98
ENDBRANCH  65  90
ENDBRANCH  39  40
ENDBRANCH  31  34
ENDBRANCH  29  30
ENDBRANCH  28  29
ENDBRANCH  27  28
ENDBRANCH   1  27
TORSDOF 21
ENDMDL
MODEL 2
REMARK VINA RESULT:     -11.2      4.597      9.224
REMARK SMILES Cc1cccc(NC(=O)C[C@H]([NH2+]C(C)C)C(=O)NCCCCCCNC(=O)c2ccc(-c3c4nc(c(-c5c(F)cc(S(=O)(=O)[O-])cc5F)c5ccc([nH]5)c(-c5c(F)cc(S(=O)(=O)[O-])cc5F)c5nc(c(-c6c(F)cc(S(=O)(=O)[O-])cc6F)c6ccc3[nH]6)C=C5)C=C4)cc2)c1
REMARK SMILES IDX 21 1 20 2 19 3 18 4 16 5 17 6 11 8 10 9 8 10 7 11 9 13 6 14
REMARK SMILES IDX 1 15 2 16 3 17 94 18 4 19 5 20 12 21 13 24 14 25 15 26 22 27
REMARK SMILES IDX 23 28 24 29 25 30 26 31 27 33 28 34 29 35 93 36 30 37 92 38
REMARK SMILES IDX 31 39 32 40 33 41 86 42 34 43 91 44 85 45 87 46 35 47 90 48
REMARK SMILES IDX 84 49 83 50 36 52 70 53 49 54 69 55 50 56 53 57 68 58 88 59
REMARK SMILES IDX 51 60 52 61 67 63 89 64 54 65 37 66 38 67 47 68 39 69 40 70
REMARK SMILES IDX 46 71 48 72 41 73 42 74 43 75 44 76 45 77 71 78 72 79 81 80
REMARK SMILES IDX 73 81 74 82 80 83 82 84 75 85 76 86 77 87 78 88 79 89 55 90
REMARK SMILES IDX 56 91 65 92 57 93 58 94 64 95 66 96 59 97 60 98 61 99 62 100
REMARK SMILES IDX 63 101
REMARK H PARENT 18 7 7 12 12 22 12 23 25 32 87 51 53 62
REMARK Flexibility Score: inf
ROOT
ATOM      1  C   UNL A   1      38.164  33.512  29.162  1.00  0.00     0.002 C 
ENDROOT
BRANCH   1   2
ATOM      2  C   UNL A   1      38.998  34.651  29.753  1.00  0.00     0.021 C 
BRANCH   2   3
ATOM      3  C   UNL A   1      40.172  35.303  28.659  1.00  0.00     0.116 C 
BRANCH   3   4
ATOM      4  N   UNL A   1      42.147  35.884  28.946  1.00  0.00    -0.351 N 
ATOM      5  C   UNL A   1      43.337  36.545  28.622  1.00  0.00     0.278 C 
ATOM      6  O   UNL A   1      44.076  36.721  29.613  1.00  0.00    -0.268 OA
ATOM      7  H   UNL A   1      42.375  35.442  29.795  1.00  0.00     0.163 HD
BRANCH   5   8
ATOM      8  C   UNL A   1      43.895  37.005  27.256  1.00  0.00     0.282 C 
BRANCH   8   9
ATOM      9  C   UNL A   1      43.874  38.523  26.933  1.00  0.00     0.175 C 
BRANCH   9  10
ATOM     10  C   UNL A   1      42.635  39.343  27.308  1.00  0.00     0.230 C 
ATOM     11  N   UNL A   1      42.586  40.704  27.172  1.00  0.00    -0.326 N 
ATOM     12  H   UNL A   1      41.832  41.178  27.590  1.00  0.00     0.169 HD
ATOM     13  O   UNL A   1      41.638  38.778  27.772  1.00  0.00    -0.274 OA
BRANCH  11  14
ATOM     14  C   UNL A   1      43.531  41.468  26.482  1.00  0.00     0.041 A 
ATOM     15  C   UNL A   1      46.527  44.561  27.820  1.00  0.00     0.044 C 
ATOM     16  C   UNL A   1      45.562  43.814  26.953  1.00  0.00    -0.049 A 
ATOM     17  C   UNL A   1      45.051  44.547  25.374  1.00  0.00     0.003 A 
ATOM     18  C   UNL A   1      44.750  42.302  27.539  1.00  0.00     0.029 A 
ATOM     19  C   UNL A   1      43.874  43.671  24.296  1.00  0.00     0.002 A 
ATOM     20  C   UNL A   1      43.114  42.129  24.836  1.00  0.00     0.026 A 
ENDBRANCH  11  14
ENDBRANCH   9  10
ENDBRANCH   8   9
BRANCH   8  21
ATOM     21  N   UNL A   1      43.466  36.106  26.120  1.00  0.00    -0.334 N 
ATOM     22  H   UNL A   1      43.609  36.615  25.247  1.00  0.00     0.347 HD
ATOM     23  H   UNL A   1      42.492  35.868  26.309  1.00  0.00     0.347 HD
BRANCH  21  24
ATOM     24  C   UNL A   1      44.181  34.811  26.012  1.00  0.00     0.176 C 
ATOM     25  C   UNL A   1      43.697  34.049  24.770  1.00  0.00     0.075 C 
ATOM     26  C   UNL A   1      45.702  34.844  26.078  1.00  0.00     0.075 C 
ENDBRANCH  21  24
ENDBRANCH   8  21
ENDBRANCH   5   8
ENDBRANCH   3   4
ENDBRANCH   2   3
ENDBRANCH   1   2
BRANCH   1  27
ATOM     27  C   UNL A   1      36.651  33.681  29.323  1.00  0.00     0.002 C 
BRANCH  27  28
ATOM     28  C   UNL A   1      35.805  33.365  28.081  1.00  0.00     0.021 C 
BRANCH  28  29
ATOM     29  C   UNL A   1      34.388  32.896  28.365  1.00  0.00     0.116 C 
BRANCH  29  30
ATOM     30  N   UNL A   1      34.317  31.528  28.843  1.00  0.00    -0.352 N 
ATOM     31  C   UNL A   1      34.829  30.497  28.077  1.00  0.00     0.251 C 
ATOM     32  H   UNL A   1      33.902  31.333  29.714  1.00  0.00     0.163 HD
ATOM     33  O   UNL A   1      34.411  30.132  26.990  1.00  0.00    -0.269 OA
BRANCH  31  34
ATOM     34  C   UNL A   1      36.135  30.044  28.598  1.00  0.00     0.039 A 
ATOM     35  C   UNL A   1      36.398  29.696  29.921  1.00  0.00     0.014 A 
ATOM     36  C   UNL A   1      37.139  29.993  27.633  1.00  0.00     0.014 A 
ATOM     37  C   UNL A   1      37.710  29.379  30.276  1.00  0.00     0.010 A 
ATOM     38  C   UNL A   1      38.428  29.803  27.983  1.00  0.00     0.010 A 
ATOM     39  C   UNL A   1      38.705  29.494  29.303  1.00  0.00    -0.014 A 
BRANCH  39  40
ATOM     40  C   UNL A   1      40.085  29.097  29.414  1.00  0.00     0.031 A 
ATOM     41  C   UNL A   1      40.356  27.714  28.995  1.00  0.00     0.074 A 
ATOM     42  C   UNL A   1      40.953  30.125  29.541  1.00  0.00     0.049 A 
ATOM     43  N   UNL A   1      41.247  26.949  29.503  1.00  0.00    -0.248 NA
ATOM     44  C   UNL A   1      39.541  27.024  27.984  1.00  0.00     0.031 C 
ATOM     45  C   UNL A   1      42.385  30.216  29.326  1.00  0.00     0.029 A 
ATOM     46  N   UNL A   1      40.622  31.382  30.058  1.00  0.00    -0.354 N 
ATOM     47  C   UNL A   1      41.421  25.920  28.595  1.00  0.00     0.074 A 
ATOM     48  C   UNL A   1      40.198  25.869  27.842  1.00  0.00     0.031 C 
ATOM     49  C   UNL A   1      42.854  31.270  30.031  1.00  0.00     0.029 A 
ATOM     50  C   UNL A   1      41.734  31.833  30.780  1.00  0.00     0.049 A 
ATOM     51  H   UNL A   1      39.768  31.859  29.940  1.00  0.00     0.167 HD
ATOM     52  C   UNL A   1      42.685  25.447  28.394  1.00  0.00     0.037 A 
ATOM     53  C   UNL A   1      41.616  31.853  32.145  1.00  0.00     0.037 A 
ATOM     54  C   UNL A   1      43.606  26.252  29.204  1.00  0.00     0.049 A 
ATOM     55  C   UNL A   1      42.409  30.725  32.761  1.00  0.00     0.074 A 
ATOM     56  C   UNL A   1      44.417  27.326  28.877  1.00  0.00     0.029 A 
ATOM     57  N   UNL A   1      43.463  26.271  30.584  1.00  0.00    -0.354 N 
ATOM     58  N   UNL A   1      42.682  29.600  32.155  1.00  0.00    -0.248 NA
ATOM     59  C   UNL A   1      43.043  30.829  34.071  1.00  0.00     0.031 C 
ATOM     60  C   UNL A   1      44.707  28.030  30.077  1.00  0.00     0.029 A 
ATOM     61  C   UNL A   1      44.059  27.394  31.123  1.00  0.00     0.049 A 
ATOM     62  H   UNL A   1      42.999  25.577  31.109  1.00  0.00     0.167 HD
ATOM     63  C   UNL A   1      43.519  28.852  32.939  1.00  0.00     0.074 A 
ATOM     64  C   UNL A   1      43.718  29.668  34.124  1.00  0.00     0.031 C 
ATOM     65  C   UNL A   1      44.007  27.634  32.557  1.00  0.00     0.037 A 
BRANCH  52  66
ATOM     66  C   UNL A   1      43.174  24.536  27.283  1.00  0.00     0.058 A 
ATOM     67  C   UNL A   1      43.796  23.308  27.616  1.00  0.00     0.135 A 
ATOM     68  C   UNL A   1      43.060  24.768  25.896  1.00  0.00     0.135 A 
ATOM     69  F   UNL A   1      43.926  22.907  28.888  1.00  0.00    -0.206 F 
ATOM     70  C   UNL A   1      44.301  22.419  26.670  1.00  0.00     0.059 A 
ATOM     71  C   UNL A   1      43.576  23.898  24.926  1.00  0.00     0.059 A 
ATOM     72  F   UNL A   1      42.402  25.824  25.406  1.00  0.00    -0.206 F 
ATOM     73  C   UNL A   1      44.194  22.722  25.323  1.00  0.00     0.060 A 
BRANCH  73  74
ATOM     74  S   UNL A   1      44.824  21.533  24.127  1.00  0.00     0.124 S 
ATOM     75  O   UNL A   1      46.261  21.580  24.382  1.00  0.00    -0.237 OA
ATOM     76  O   UNL A   1      44.147  20.305  24.532  1.00  0.00    -0.237 OA
ATOM     77  O   UNL A   1      44.401  22.085  22.843  1.00  0.00    -0.744 OA
ENDBRANCH  73  74
ENDBRANCH  52  66
BRANCH  53  78
ATOM     78  C   UNL A   1      40.242  32.307  32.563  1.00  0.00     0.058 A 
ATOM     79  C   UNL A   1      39.373  31.314  33.066  1.00  0.00     0.135 A 
ATOM     80  C   UNL A   1      39.989  33.632  32.957  1.00  0.00     0.135 A 
ATOM     81  F   UNL A   1      39.548  30.030  32.709  1.00  0.00    -0.206 F 
ATOM     82  C   UNL A   1      38.437  31.585  34.062  1.00  0.00     0.059 A 
ATOM     83  C   UNL A   1      39.039  33.928  33.944  1.00  0.00     0.059 A 
ATOM     84  F   UNL A   1      40.762  34.632  32.512  1.00  0.00    -0.206 F 
ATOM     85  C   UNL A   1      38.328  32.889  34.543  1.00  0.00     0.060 A 
BRANCH  85  86
ATOM     86  S   UNL A   1      37.386  33.160  36.063  1.00  0.00     0.124 S 
ATOM     87  O   UNL A   1      38.150  34.221  36.711  1.00  0.00    -0.237 OA
ATOM     88  O   UNL A   1      36.079  33.547  35.535  1.00  0.00    -0.237 OA
ATOM     89  O   UNL A   1      37.415  31.864  36.727  1.00  0.00    -0.744 OA
ENDBRANCH  85  86
ENDBRANCH  53  78
BRANCH  65  90
ATOM     90  C   UNL A   1      44.582  26.594  33.493  1.00  0.00     0.058 A 
ATOM     91  C   UNL A   1      45.953  26.310  33.593  1.00  0.00     0.135 A 
ATOM     92  C   UNL A   1      43.758  25.930  34.440  1.00  0.00     0.135 A 
ATOM     93  F   UNL A   1      46.870  26.987  32.889  1.00  0.00    -0.206 F 
ATOM     94  C   UNL A   1      46.452  25.340  34.457  1.00  0.00     0.059 A 
ATOM     95  C   UNL A   1      44.250  25.032  35.377  1.00  0.00     0.059 A 
ATOM     96  F   UNL A   1      42.435  26.133  34.506  1.00  0.00    -0.206 F 
ATOM     97  C   UNL A   1      45.590  24.698  35.337  1.00  0.00     0.060 A 
BRANCH  97  98
ATOM     98  S   UNL A   1      46.240  23.431  36.428  1.00  0.00     0.124 S 
ATOM     99  O   UNL A   1      46.075  22.237  35.605  1.00  0.00    -0.237 OA
ATOM    100  O   UNL A   1      47.616  23.870  36.638  1.00  0.00    -0.237 OA
ATOM    101  O   UNL A   1      45.375  23.513  37.600  1.00  0.00    -0.744 OA
ENDBRANCH  97  98
ENDBRANCH  65  90
ENDBRANCH  39  40
ENDBRANCH  31  34
ENDBRANCH  29  30
ENDBRANCH  28  29
ENDBRANCH  27  28
ENDBRANCH   1  27
TORSDOF 21
ENDMDL
MODEL 3
REMARK VINA RESULT:     -10.7      4.143      9.078
REMARK SMILES Cc1cccc(NC(=O)C[C@H]([NH2+]C(C)C)C(=O)NCCCCCCNC(=O)c2ccc(-c3c4nc(c(-c5c(F)cc(S(=O)(=O)[O-])cc5F)c5ccc([nH]5)c(-c5c(F)cc(S(=O)(=O)[O-])cc5F)c5nc(c(-c6c(F)cc(S(=O)(=O)[O-])cc6F)c6ccc3[nH]6)C=C5)C=C4)cc2)c1
REMARK SMILES IDX 21 1 20 2 19 3 18 4 16 5 17 6 11 8 10 9 8 10 7 11 9 13 6 14
REMARK SMILES IDX 1 15 2 16 3 17 94 18 4 19 5 20 12 21 13 24 14 25 15 26 22 27
REMARK SMILES IDX 23 28 24 29 25 30 26 31 27 33 28 34 29 35 93 36 30 37 92 38
REMARK SMILES IDX 31 39 32 40 33 41 86 42 34 43 91 44 85 45 87 46 35 47 90 48
REMARK SMILES IDX 84 49 83 50 36 52 70 53 49 54 69 55 50 56 53 57 68 58 88 59
REMARK SMILES IDX 51 60 52 61 67 63 89 64 54 65 37 66 38 67 47 68 39 69 40 70
REMARK SMILES IDX 46 71 48 72 41 73 42 74 43 75 44 76 45 77 71 78 72 79 81 80
REMARK SMILES IDX 73 81 74 82 80 83 82 84 75 85 76 86 77 87 78 88 79 89 55 90
REMARK SMILES IDX 56 91 65 92 57 93 58 94 64 95 66 96 59 97 60 98 61 99 62 100
REMARK SMILES IDX 63 101
REMARK H PARENT 18 7 7 12 12 22 12 23 25 32 87 51 53 62
REMARK Flexibility Score: inf
ROOT
ATOM      1  C   UNL A   1      38.219  33.669  28.844  1.00  0.00     0.002 C 
ENDROOT
BRANCH   1   2
ATOM      2  C   UNL A   1      39.091  34.619  29.669  1.00  0.00     0.021 C 
BRANCH   2   3
ATOM      3  C   UNL A   1      40.437  35.273  28.798  1.00  0.00     0.116 C 
BRANCH   3   4
ATOM      4  N   UNL A   1      42.483  34.964  28.993  1.00  0.00    -0.351 N 
ATOM      5  C   UNL A   1      43.837  35.241  28.771  1.00  0.00     0.278 C 
ATOM      6  O   UNL A   1      44.580  34.736  29.638  1.00  0.00    -0.268 OA
ATOM      7  H   UNL A   1      42.522  34.170  29.572  1.00  0.00     0.163 HD
BRANCH   5   8
ATOM      8  C   UNL A   1      44.537  35.985  27.612  1.00  0.00     0.282 C 
BRANCH   8   9
ATOM      9  C   UNL A   1      44.895  37.482  27.815  1.00  0.00     0.175 C 
BRANCH   9  10
ATOM     10  C   UNL A   1      44.321  38.519  26.845  1.00  0.00     0.230 C 
ATOM     11  N   UNL A   1      45.105  39.447  26.212  1.00  0.00    -0.326 N 
ATOM     12  H   UNL A   1      44.652  40.184  25.743  1.00  0.00     0.169 HD
ATOM     13  O   UNL A   1      43.105  38.553  26.625  1.00  0.00    -0.274 OA
BRANCH  11  14
ATOM     14  C   UNL A   1      46.502  39.421  26.186  1.00  0.00     0.041 A 
ATOM     15  C   UNL A   1      49.476  36.366  24.720  1.00  0.00     0.044 C 
ATOM     16  C   UNL A   1      48.878  37.485  25.515  1.00  0.00    -0.049 A 
ATOM     17  C   UNL A   1      49.752  38.078  26.991  1.00  0.00     0.003 A 
ATOM     18  C   UNL A   1      47.217  38.113  25.149  1.00  0.00     0.029 A 
ATOM     19  C   UNL A   1      49.053  39.432  27.987  1.00  0.00     0.002 A 
ATOM     20  C   UNL A   1      47.433  40.115  27.590  1.00  0.00     0.026 A 
ENDBRANCH  11  14
ENDBRANCH   9  10
ENDBRANCH   8   9
BRANCH   8  21
ATOM     21  N   UNL A   1      43.943  35.651  26.263  1.00  0.00    -0.334 N 
ATOM     22  H   UNL A   1      43.763  36.528  25.774  1.00  0.00     0.347 HD
ATOM     23  H   UNL A   1      43.104  35.104  26.459  1.00  0.00     0.347 HD
BRANCH  21  24
ATOM     24  C   UNL A   1      44.779  34.801  25.380  1.00  0.00     0.176 C 
ATOM     25  C   UNL A   1      46.055  34.376  26.120  1.00  0.00     0.075 C 
ATOM     26  C   UNL A   1      44.107  33.607  24.715  1.00  0.00     0.075 C 
ENDBRANCH  21  24
ENDBRANCH   8  21
ENDBRANCH   5   8
ENDBRANCH   3   4
ENDBRANCH   2   3
ENDBRANCH   1   2
BRANCH   1  27
ATOM     27  C   UNL A   1      36.737  33.668  29.230  1.00  0.00     0.002 C 
BRANCH  27  28
ATOM     28  C   UNL A   1      35.748  33.385  28.089  1.00  0.00     0.021 C 
BRANCH  28  29
ATOM     29  C   UNL A   1      34.368  32.925  28.529  1.00  0.00     0.116 C 
BRANCH  29  30
ATOM     30  N   UNL A   1      34.312  31.519  28.880  1.00  0.00    -0.352 N 
ATOM     31  C   UNL A   1      34.875  30.571  28.045  1.00  0.00     0.251 C 
ATOM     32  H   UNL A   1      33.873  31.238  29.715  1.00  0.00     0.163 HD
ATOM     33  O   UNL A   1      34.504  30.296  26.915  1.00  0.00    -0.269 OA
BRANCH  31  34
ATOM     34  C   UNL A   1      36.172  30.099  28.572  1.00  0.00     0.039 A 
ATOM     35  C   UNL A   1      36.420  29.732  29.892  1.00  0.00     0.014 A 
ATOM     36  C   UNL A   1      37.184  30.051  27.614  1.00  0.00     0.014 A 
ATOM     37  C   UNL A   1      37.727  29.398  30.254  1.00  0.00     0.010 A 
ATOM     38  C   UNL A   1      38.468  29.845  27.973  1.00  0.00     0.010 A 
ATOM     39  C   UNL A   1      38.731  29.517  29.292  1.00  0.00    -0.014 A 
BRANCH  39  40
ATOM     40  C   UNL A   1      40.106  29.105  29.409  1.00  0.00     0.031 A 
ATOM     41  C   UNL A   1      40.363  27.716  29.001  1.00  0.00     0.074 A 
ATOM     42  C   UNL A   1      40.984  30.124  29.531  1.00  0.00     0.049 A 
ATOM     43  N   UNL A   1      41.244  26.945  29.517  1.00  0.00    -0.248 NA
ATOM     44  C   UNL A   1      39.543  27.028  27.993  1.00  0.00     0.031 C 
ATOM     45  C   UNL A   1      42.419  30.198  29.320  1.00  0.00     0.029 A 
ATOM     46  N   UNL A   1      40.666  31.388  30.038  1.00  0.00    -0.354 N 
ATOM     47  C   UNL A   1      41.409  25.908  28.617  1.00  0.00     0.074 A 
ATOM     48  C   UNL A   1      40.188  25.865  27.861  1.00  0.00     0.031 C 
ATOM     49  C   UNL A   1      42.897  31.252  30.018  1.00  0.00     0.029 A 
ATOM     50  C   UNL A   1      41.781  31.833  30.760  1.00  0.00     0.049 A 
ATOM     51  H   UNL A   1      39.818  31.874  29.914  1.00  0.00     0.167 HD
ATOM     52  C   UNL A   1      42.669  25.420  28.423  1.00  0.00     0.037 A 
ATOM     53  C   UNL A   1      41.659  31.864  32.124  1.00  0.00     0.037 A 
ATOM     54  C   UNL A   1      43.597  26.220  29.229  1.00  0.00     0.049 A 
ATOM     55  C   UNL A   1      42.439  30.732  32.751  1.00  0.00     0.074 A 
ATOM     56  C   UNL A   1      44.420  27.283  28.897  1.00  0.00     0.029 A 
ATOM     57  N   UNL A   1      43.450  26.251  30.609  1.00  0.00    -0.354 N 
ATOM     58  N   UNL A   1      42.701  29.600  32.154  1.00  0.00    -0.248 NA
ATOM     59  C   UNL A   1      43.070  30.838  34.061  1.00  0.00     0.031 C 
ATOM     60  C   UNL A   1      44.714  27.992  30.093  1.00  0.00     0.029 A 
ATOM     61  C   UNL A   1      44.057  27.371  31.142  1.00  0.00     0.049 A 
ATOM     62  H   UNL A   1      42.977  25.566  31.137  1.00  0.00     0.167 HD
ATOM     63  C   UNL A   1      43.528  28.848  32.946  1.00  0.00     0.074 A 
ATOM     64  C   UNL A   1      43.732  29.671  34.125  1.00  0.00     0.031 C 
ATOM     65  C   UNL A   1      44.003  27.622  32.573  1.00  0.00     0.037 A 
BRANCH  52  66
ATOM     66  C   UNL A   1      43.151  24.495  27.320  1.00  0.00     0.058 A 
ATOM     67  C   UNL A   1      43.748  23.258  27.663  1.00  0.00     0.135 A 
ATOM     68  C   UNL A   1      43.053  24.724  25.931  1.00  0.00     0.135 A 
ATOM     69  F   UNL A   1      43.860  22.860  28.938  1.00  0.00    -0.206 F 
ATOM     70  C   UNL A   1      44.245  22.356  26.725  1.00  0.00     0.059 A 
ATOM     71  C   UNL A   1      43.561  23.840  24.968  1.00  0.00     0.059 A 
ATOM     72  F   UNL A   1      42.418  25.789  25.431  1.00  0.00    -0.206 F 
ATOM     73  C   UNL A   1      44.155  22.656  25.376  1.00  0.00     0.060 A 
BRANCH  73  74
ATOM     74  S   UNL A   1      44.773  21.450  24.190  1.00  0.00     0.124 S 
ATOM     75  O   UNL A   1      46.194  21.400  24.523  1.00  0.00    -0.237 OA
ATOM     76  O   UNL A   1      44.000  20.261  24.532  1.00  0.00    -0.237 OA
ATOM     77  O   UNL A   1      44.457  22.051  22.897  1.00  0.00    -0.744 OA
ENDBRANCH  73  74
ENDBRANCH  52  66
BRANCH  53  78
ATOM     78  C   UNL A   1      40.289  32.336  32.535  1.00  0.00     0.058 A 
ATOM     79  C   UNL A   1      39.400  31.352  33.022  1.00  0.00     0.135 A 
ATOM     80  C   UNL A   1      40.053  33.661  32.939  1.00  0.00     0.135 A 
ATOM     81  F   UNL A   1      39.559  30.068  32.655  1.00  0.00    -0.206 F 
ATOM     82  C   UNL A   1      38.460  31.630  34.013  1.00  0.00     0.059 A 
ATOM     83  C   UNL A   1      39.101  33.964  33.921  1.00  0.00     0.059 A 
ATOM     84  F   UNL A   1      40.846  34.653  32.509  1.00  0.00    -0.206 F 
ATOM     85  C   UNL A   1      38.368  32.930  34.504  1.00  0.00     0.060 A 
BRANCH  85  86
ATOM     86  S   UNL A   1      37.419  33.203  36.019  1.00  0.00     0.124 S 
ATOM     87  O   UNL A   1      36.093  33.520  35.498  1.00  0.00    -0.237 OA
ATOM     88  O   UNL A   1      37.549  31.909  36.687  1.00  0.00    -0.237 OA
ATOM     89  O   UNL A   1      38.117  34.300  36.676  1.00  0.00    -0.744 OA
ENDBRANCH  85  86
ENDBRANCH  53  78
BRANCH  65  90
ATOM     90  C   UNL A   1      44.564  26.583  33.519  1.00  0.00     0.058 A 
ATOM     91  C   UNL A   1      43.778  25.828  34.402  1.00  0.00     0.135 A 
ATOM     92  C   UNL A   1      45.934  26.213  33.463  1.00  0.00     0.135 A 
ATOM     93  F   UNL A   1      42.444  25.941  34.437  1.00  0.00    -0.206 F 
ATOM     94  C   UNL A   1      44.326  24.886  35.268  1.00  0.00     0.059 A 
ATOM     95  C   UNL A   1      46.482  25.207  34.248  1.00  0.00     0.059 A 
ATOM     96  F   UNL A   1      46.805  26.805  32.634  1.00  0.00    -0.206 F 
ATOM     97  C   UNL A   1      45.681  24.591  35.191  1.00  0.00     0.060 A 
BRANCH  97  98
ATOM     98  S   UNL A   1      46.381  23.394  36.329  1.00  0.00     0.124 S 
ATOM     99  O   UNL A   1      47.713  23.209  35.762  1.00  0.00    -0.237 OA
ATOM    100  O   UNL A   1      46.328  24.103  37.604  1.00  0.00    -0.237 OA
ATOM    101  O   UNL A   1      45.483  22.249  36.216  1.00  0.00    -0.744 OA
ENDBRANCH  97  98
ENDBRANCH  65  90
ENDBRANCH  39  40
ENDBRANCH  31  34
ENDBRANCH  29  30
ENDBRANCH  28  29
ENDBRANCH  27  28
ENDBRANCH   1  27
TORSDOF 21
ENDMDL
