MODEL 1
REMARK VINA RESULT:     -12.4      0.000      0.000
REMARK SMILES O=C(NCCCCCCNC(=O)[C@H]1[C@H]2CC[C@H](CC2)[C@@H]1C(=O)Nc1ccc(Cc2ccncc2)cc1)c1ccc(-c2c3nc(c(-c4c(F)cc(S(=O)(=O)[O-])cc4F)c4ccc([nH]4)c(-c4c(F)cc(S(=O)(=O)[O-])cc4F)c4nc(c(-c5c(F)cc(S(=O)(=O)[O-])cc5F)c5ccc2[nH]5)C=C4)C=C3)cc1
REMARK SMILES IDX 7 1 6 2 5 3 4 4 3 5 1 6 2 7 37 9 38 10 102 11 39 12 101 13
REMARK SMILES IDX 40 14 41 15 42 16 95 17 43 18 100 19 94 20 96 21 44 22 99 23
REMARK SMILES IDX 93 24 92 25 45 27 79 28 58 29 78 30 59 31 62 32 77 33 97 34
REMARK SMILES IDX 60 35 61 36 76 38 98 39 63 40 46 41 47 42 56 43 48 44 49 45
REMARK SMILES IDX 55 46 57 47 50 48 51 49 52 50 53 51 54 52 80 53 81 54 90 55
REMARK SMILES IDX 82 56 83 57 89 58 91 59 84 60 85 61 86 62 87 63 88 64 64 65
REMARK SMILES IDX 65 66 74 67 66 68 67 69 73 70 75 71 68 72 69 73 70 74 71 75
REMARK SMILES IDX 72 76 8 77 9 78 10 79 11 80 12 82 13 83 14 84 20 85 15 86
REMARK SMILES IDX 19 87 17 88 16 89 18 90 21 91 22 92 23 93 24 95 25 96 36 97
REMARK SMILES IDX 26 98 35 99 27 100 28 101 29 102 30 103 34 104 31 105 33 106
REMARK SMILES IDX 32 107
REMARK H PARENT 3 8 96 26 62 37 10 81 23 94
REMARK Flexibility Score: inf
ROOT
ATOM      1  C   UNL A   1      34.134  30.945  27.505  1.00  0.00     0.002 C 
ENDROOT
BRANCH   1   2
ATOM      2  C   UNL A   1      34.443  32.294  28.161  1.00  0.00     0.002 C 
BRANCH   2   3
ATOM      3  C   UNL A   1      35.877  32.791  27.970  1.00  0.00     0.021 C 
BRANCH   3   4
ATOM      4  C   UNL A   1      36.702  32.840  29.251  1.00  0.00     0.116 C 
BRANCH   4   5
ATOM      5  N   UNL A   1      36.164  31.961  30.276  1.00  0.00    -0.352 N 
ATOM      6  O   UNL A   1      35.942  30.044  31.438  1.00  0.00    -0.269 OA
ATOM      7  C   UNL A   1      36.636  30.750  30.711  1.00  0.00     0.251 C 
ATOM      8  H   UNL A   1      35.346  32.281  30.720  1.00  0.00     0.163 HD
BRANCH   7   9
ATOM      9  C   UNL A   1      37.975  30.293  30.286  1.00  0.00     0.039 A 
ATOM     10  C   UNL A   1      38.984  30.066  31.228  1.00  0.00     0.014 A 
ATOM     11  C   UNL A   1      38.219  30.081  28.927  1.00  0.00     0.014 A 
ATOM     12  C   UNL A   1      40.268  29.743  30.803  1.00  0.00     0.010 A 
ATOM     13  C   UNL A   1      39.489  29.684  28.510  1.00  0.00     0.010 A 
ATOM     14  C   UNL A   1      40.530  29.535  29.442  1.00  0.00    -0.014 A 
BRANCH  14  15
ATOM     15  C   UNL A   1      41.881  29.114  28.995  1.00  0.00     0.031 A 
ATOM     16  C   UNL A   1      42.999  30.112  28.890  1.00  0.00     0.074 A 
ATOM     17  C   UNL A   1      42.082  27.828  28.648  1.00  0.00     0.049 A 
ATOM     18  N   UNL A   1      44.212  29.947  28.428  1.00  0.00    -0.248 NA
ATOM     19  C   UNL A   1      42.714  31.477  29.355  1.00  0.00     0.031 C 
ATOM     20  C   UNL A   1      41.071  26.772  28.711  1.00  0.00     0.029 A 
ATOM     21  N   UNL A   1      43.196  27.195  28.160  1.00  0.00    -0.354 N 
ATOM     22  C   UNL A   1      44.829  31.189  28.521  1.00  0.00     0.074 A 
ATOM     23  C   UNL A   1      43.845  32.103  29.063  1.00  0.00     0.031 C 
ATOM     24  C   UNL A   1      41.611  25.620  28.285  1.00  0.00     0.029 A 
ATOM     25  C   UNL A   1      42.983  25.871  27.858  1.00  0.00     0.049 A 
ATOM     26  H   UNL A   1      44.064  27.644  28.038  1.00  0.00     0.167 HD
ATOM     27  C   UNL A   1      46.097  31.530  28.188  1.00  0.00     0.037 A 
ATOM     28  C   UNL A   1      43.787  24.965  27.268  1.00  0.00     0.037 A 
ATOM     29  C   UNL A   1      47.062  30.605  27.648  1.00  0.00     0.049 A 
ATOM     30  C   UNL A   1      45.176  25.373  26.868  1.00  0.00     0.074 A 
ATOM     31  C   UNL A   1      48.382  30.840  27.304  1.00  0.00     0.029 A 
ATOM     32  N   UNL A   1      46.808  29.270  27.358  1.00  0.00    -0.354 N 
ATOM     33  N   UNL A   1      45.755  26.543  26.989  1.00  0.00    -0.248 NA
ATOM     34  C   UNL A   1      46.022  24.341  26.255  1.00  0.00     0.031 C 
ATOM     35  C   UNL A   1      48.908  29.666  26.756  1.00  0.00     0.029 A 
ATOM     36  C   UNL A   1      47.938  28.677  26.818  1.00  0.00     0.049 A 
ATOM     37  H   UNL A   1      45.950  28.812  27.513  1.00  0.00     0.167 HD
ATOM     38  C   UNL A   1      47.045  26.383  26.497  1.00  0.00     0.074 A 
ATOM     39  C   UNL A   1      47.159  25.000  26.074  1.00  0.00     0.031 C 
ATOM     40  C   UNL A   1      48.043  27.295  26.414  1.00  0.00     0.037 A 
BRANCH  27  41
ATOM     41  C   UNL A   1      46.499  32.971  28.362  1.00  0.00     0.058 A 
ATOM     42  C   UNL A   1      46.345  33.917  27.337  1.00  0.00     0.135 A 
ATOM     43  C   UNL A   1      47.043  33.413  29.580  1.00  0.00     0.135 A 
ATOM     44  F   UNL A   1      45.840  33.550  26.148  1.00  0.00    -0.206 F 
ATOM     45  C   UNL A   1      46.760  35.236  27.494  1.00  0.00     0.059 A 
ATOM     46  C   UNL A   1      47.436  34.735  29.771  1.00  0.00     0.059 A 
ATOM     47  F   UNL A   1      47.208  32.556  30.600  1.00  0.00    -0.206 F 
ATOM     48  C   UNL A   1      47.313  35.634  28.712  1.00  0.00     0.060 A 
BRANCH  48  49
ATOM     49  S   UNL A   1      47.886  37.337  28.886  1.00  0.00     0.124 S 
ATOM     50  O   UNL A   1      49.273  37.222  28.444  1.00  0.00    -0.237 OA
ATOM     51  O   UNL A   1      46.994  38.061  27.986  1.00  0.00    -0.237 OA
ATOM     52  O   UNL A   1      47.701  37.617  30.306  1.00  0.00    -0.744 OA
ENDBRANCH  48  49
ENDBRANCH  27  41
BRANCH  28  53
ATOM     53  C   UNL A   1      43.275  23.591  27.027  1.00  0.00     0.058 A 
ATOM     54  C   UNL A   1      42.865  23.188  25.750  1.00  0.00     0.135 A 
ATOM     55  C   UNL A   1      43.260  22.634  28.055  1.00  0.00     0.135 A 
ATOM     56  F   UNL A   1      42.857  24.067  24.737  1.00  0.00    -0.206 F 
ATOM     57  C   UNL A   1      42.461  21.880  25.497  1.00  0.00     0.059 A 
ATOM     58  C   UNL A   1      42.886  21.316  27.821  1.00  0.00     0.059 A 
ATOM     59  F   UNL A   1      43.662  22.969  29.292  1.00  0.00    -0.206 F 
ATOM     60  C   UNL A   1      42.486  20.949  26.538  1.00  0.00     0.060 A 
BRANCH  60  61
ATOM     61  S   UNL A   1      42.044  19.236  26.174  1.00  0.00     0.124 S 
ATOM     62  O   UNL A   1      42.346  18.579  27.440  1.00  0.00    -0.237 OA
ATOM     63  O   UNL A   1      40.629  19.351  25.834  1.00  0.00    -0.237 OA
ATOM     64  O   UNL A   1      42.922  18.892  25.059  1.00  0.00    -0.744 OA
ENDBRANCH  60  61
ENDBRANCH  28  53
BRANCH  40  65
ATOM     65  C   UNL A   1      49.376  26.827  25.897  1.00  0.00     0.058 A 
ATOM     66  C   UNL A   1      49.768  27.022  24.565  1.00  0.00     0.135 A 
ATOM     67  C   UNL A   1      50.307  26.253  26.779  1.00  0.00     0.135 A 
ATOM     68  F   UNL A   1      48.913  27.555  23.678  1.00  0.00    -0.206 F 
ATOM     69  C   UNL A   1      51.037  26.658  24.122  1.00  0.00     0.059 A 
ATOM     70  C   UNL A   1      51.590  25.908  26.365  1.00  0.00     0.059 A 
ATOM     71  F   UNL A   1      49.984  26.050  28.066  1.00  0.00    -0.206 F 
ATOM     72  C   UNL A   1      51.944  26.111  25.032  1.00  0.00     0.060 A 
BRANCH  72  73
ATOM     73  S   UNL A   1      53.609  25.711  24.462  1.00  0.00     0.124 S 
ATOM     74  O   UNL A   1      54.418  26.650  25.230  1.00  0.00    -0.237 OA
ATOM     75  O   UNL A   1      53.738  24.306  24.838  1.00  0.00    -0.237 OA
ATOM     76  O   UNL A   1      53.548  25.965  23.025  1.00  0.00    -0.744 OA
ENDBRANCH  72  73
ENDBRANCH  40  65
ENDBRANCH  14  15
ENDBRANCH   7   9
ENDBRANCH   4   5
ENDBRANCH   3   4
ENDBRANCH   2   3
ENDBRANCH   1   2
BRANCH   1  77
ATOM     77  C   UNL A   1      32.686  30.775  27.031  1.00  0.00     0.021 C 
BRANCH  77  78
ATOM     78  C   UNL A   1      32.102  29.395  27.310  1.00  0.00     0.116 C 
BRANCH  78  79
ATOM     79  N   UNL A   1      33.052  28.349  26.974  1.00  0.00    -0.356 N 
ATOM     80  C   UNL A   1      32.989  27.412  25.987  1.00  0.00     0.224 C 
ATOM     81  H   UNL A   1      33.857  28.312  27.541  1.00  0.00     0.163 HD
ATOM     82  O   UNL A   1      33.865  26.548  25.944  1.00  0.00    -0.275 OA
BRANCH  80  83
ATOM     83  C   UNL A   1      31.878  27.525  24.952  1.00  0.00     0.094 C 
ATOM     84  C   UNL A   1      32.176  28.715  23.993  1.00  0.00     0.002 C 
ATOM     85  C   UNL A   1      31.686  26.201  24.139  1.00  0.00     0.094 C 
ATOM     86  C   UNL A   1      33.436  28.425  23.163  1.00  0.00     0.005 C 
ATOM     87  C   UNL A   1      30.982  28.868  23.036  1.00  0.00     0.005 C 
ATOM     88  C   UNL A   1      31.853  26.545  22.630  1.00  0.00     0.002 C 
ATOM     89  C   UNL A   1      33.273  27.103  22.416  1.00  0.00     0.005 C 
ATOM     90  C   UNL A   1      30.823  27.599  22.200  1.00  0.00     0.005 C 
BRANCH  85  91
ATOM     91  C   UNL A   1      30.342  25.535  24.508  1.00  0.00     0.228 C 
ATOM     92  O   UNL A   1      29.287  26.175  24.564  1.00  0.00    -0.274 OA
ATOM     93  N   UNL A   1      30.246  24.194  24.754  1.00  0.00    -0.326 N 
ATOM     94  H   UNL A   1      29.334  23.857  24.905  1.00  0.00     0.169 HD
BRANCH  93  95
ATOM     95  C   UNL A   1      31.254  23.233  24.821  1.00  0.00     0.041 A 
ATOM     96  C   UNL A   1      31.868  22.881  23.622  1.00  0.00     0.026 A 
ATOM     97  C   UNL A   1      31.707  22.692  26.026  1.00  0.00     0.026 A 
ATOM     98  C   UNL A   1      33.026  22.109  23.644  1.00  0.00     0.006 A 
ATOM     99  C   UNL A   1      32.839  21.873  26.038  1.00  0.00     0.006 A 
ATOM    100  C   UNL A   1      33.533  21.606  24.850  1.00  0.00    -0.043 A 
BRANCH 100 101
ATOM    101  C   UNL A   1      34.816  20.805  24.864  1.00  0.00     0.071 C 
BRANCH 101 102
ATOM    102  C   UNL A   1      36.039  21.618  25.213  1.00  0.00    -0.041 A 
ATOM    103  C   UNL A   1      37.313  21.042  25.209  1.00  0.00     0.024 A 
ATOM    104  C   UNL A   1      35.926  22.964  25.568  1.00  0.00     0.024 A 
ATOM    105  C   UNL A   1      38.401  21.814  25.581  1.00  0.00     0.111 A 
ATOM    106  C   UNL A   1      37.078  23.660  25.906  1.00  0.00     0.111 A 
ATOM    107  N   UNL A   1      38.313  23.115  25.924  1.00  0.00    -0.265 NA
ENDBRANCH 101 102
ENDBRANCH 100 101
ENDBRANCH  93  95
ENDBRANCH  85  91
ENDBRANCH  80  83
ENDBRANCH  78  79
ENDBRANCH  77  78
ENDBRANCH   1  77
TORSDOF 20
ENDMDL
MODEL 2
REMARK VINA RESULT:     -12.2      6.148     11.544
REMARK SMILES O=C(NCCCCCCNC(=O)[C@H]1[C@H]2CC[C@H](CC2)[C@@H]1C(=O)Nc1ccc(Cc2ccncc2)cc1)c1ccc(-c2c3nc(c(-c4c(F)cc(S(=O)(=O)[O-])cc4F)c4ccc([nH]4)c(-c4c(F)cc(S(=O)(=O)[O-])cc4F)c4nc(c(-c5c(F)cc(S(=O)(=O)[O-])cc5F)c5ccc2[nH]5)C=C4)C=C3)cc1
REMARK SMILES IDX 7 1 6 2 5 3 4 4 3 5 1 6 2 7 37 9 38 10 102 11 39 12 101 13
REMARK SMILES IDX 40 14 41 15 42 16 95 17 43 18 100 19 94 20 96 21 44 22 99 23
REMARK SMILES IDX 93 24 92 25 45 27 79 28 58 29 78 30 59 31 62 32 77 33 97 34
REMARK SMILES IDX 60 35 61 36 76 38 98 39 63 40 46 41 47 42 56 43 48 44 49 45
REMARK SMILES IDX 55 46 57 47 50 48 51 49 52 50 53 51 54 52 80 53 81 54 90 55
REMARK SMILES IDX 82 56 83 57 89 58 91 59 84 60 85 61 86 62 87 63 88 64 64 65
REMARK SMILES IDX 65 66 74 67 66 68 67 69 73 70 75 71 68 72 69 73 70 74 71 75
REMARK SMILES IDX 72 76 8 77 9 78 10 79 11 80 12 82 13 83 14 84 20 85 15 86
REMARK SMILES IDX 19 87 17 88 16 89 18 90 21 91 22 92 23 93 24 95 25 96 36 97
REMARK SMILES IDX 26 98 35 99 27 100 28 101 29 102 30 103 34 104 31 105 33 106
REMARK SMILES IDX 32 107
REMARK H PARENT 3 8 96 26 62 37 10 81 23 94
REMARK Flexibility Score: inf
ROOT
ATOM      1  C   UNL A   1      38.728  22.206  26.184  1.00  0.00     0.002 C 
ENDROOT
BRANCH   1   2
ATOM      2  C   UNL A   1      40.243  22.007  26.287  1.00  0.00     0.002 C 
BRANCH   2   3
ATOM      3  C   UNL A   1      40.843  22.319  27.658  1.00  0.00     0.021 C 
BRANCH   3   4
ATOM      4  C   UNL A   1      41.995  23.317  27.629  1.00  0.00     0.116 C 
BRANCH   4   5
ATOM      5  N   UNL A   1      42.003  24.100  26.404  1.00  0.00    -0.352 N 
ATOM      6  O   UNL A   1      41.516  25.855  25.078  1.00  0.00    -0.269 OA
ATOM      7  C   UNL A   1      41.651  25.412  26.216  1.00  0.00     0.251 C 
ATOM      8  H   UNL A   1      42.302  23.622  25.598  1.00  0.00     0.163 HD
BRANCH   7   9
ATOM      9  C   UNL A   1      41.418  26.281  27.387  1.00  0.00     0.039 A 
ATOM     10  C   UNL A   1      42.294  27.330  27.682  1.00  0.00     0.014 A 
ATOM     11  C   UNL A   1      40.302  26.046  28.193  1.00  0.00     0.014 A 
ATOM     12  C   UNL A   1      42.122  28.069  28.848  1.00  0.00     0.010 A 
ATOM     13  C   UNL A   1      40.090  26.838  29.322  1.00  0.00     0.010 A 
ATOM     14  C   UNL A   1      41.011  27.840  29.672  1.00  0.00    -0.014 A 
BRANCH  14  15
ATOM     15  C   UNL A   1      40.784  28.679  30.874  1.00  0.00     0.031 A 
ATOM     16  C   UNL A   1      39.717  29.738  30.878  1.00  0.00     0.074 A 
ATOM     17  C   UNL A   1      41.573  28.506  31.951  1.00  0.00     0.049 A 
ATOM     18  N   UNL A   1      39.441  30.627  31.798  1.00  0.00    -0.248 NA
ATOM     19  C   UNL A   1      38.854  29.814  29.690  1.00  0.00     0.031 C 
ATOM     20  C   UNL A   1      42.640  27.508  32.059  1.00  0.00     0.029 A 
ATOM     21  N   UNL A   1      41.613  29.169  33.150  1.00  0.00    -0.354 N 
ATOM     22  C   UNL A   1      38.392  31.385  31.292  1.00  0.00     0.074 A 
ATOM     23  C   UNL A   1      38.098  30.865  29.973  1.00  0.00     0.031 C 
ATOM     24  C   UNL A   1      43.225  27.620  33.261  1.00  0.00     0.029 A 
ATOM     25  C   UNL A   1      42.621  28.737  33.979  1.00  0.00     0.049 A 
ATOM     26  H   UNL A   1      40.983  29.884  33.393  1.00  0.00     0.167 HD
ATOM     27  C   UNL A   1      37.736  32.417  31.877  1.00  0.00     0.037 A 
ATOM     28  C   UNL A   1      43.040  29.208  35.169  1.00  0.00     0.037 A 
ATOM     29  C   UNL A   1      38.045  32.923  33.191  1.00  0.00     0.049 A 
ATOM     30  C   UNL A   1      42.327  30.378  35.783  1.00  0.00     0.074 A 
ATOM     31  C   UNL A   1      37.423  33.944  33.889  1.00  0.00     0.029 A 
ATOM     32  N   UNL A   1      39.072  32.456  34.002  1.00  0.00    -0.354 N 
ATOM     33  N   UNL A   1      41.318  31.067  35.307  1.00  0.00    -0.248 NA
ATOM     34  C   UNL A   1      42.805  30.835  37.095  1.00  0.00     0.031 C 
ATOM     35  C   UNL A   1      38.107  34.131  35.094  1.00  0.00     0.029 A 
ATOM     36  C   UNL A   1      39.116  33.184  35.180  1.00  0.00     0.049 A 
ATOM     37  H   UNL A   1      39.681  31.717  33.772  1.00  0.00     0.167 HD
ATOM     38  C   UNL A   1      41.017  32.019  36.273  1.00  0.00     0.074 A 
ATOM     39  C   UNL A   1      41.955  31.818  37.361  1.00  0.00     0.031 C 
ATOM     40  C   UNL A   1      40.046  32.965  36.262  1.00  0.00     0.037 A 
BRANCH  27  41
ATOM     41  C   UNL A   1      36.647  33.090  31.084  1.00  0.00     0.058 A 
ATOM     42  C   UNL A   1      36.930  33.962  30.020  1.00  0.00     0.135 A 
ATOM     43  C   UNL A   1      35.296  32.852  31.388  1.00  0.00     0.135 A 
ATOM     44  F   UNL A   1      38.202  34.234  29.689  1.00  0.00    -0.206 F 
ATOM     45  C   UNL A   1      35.917  34.612  29.321  1.00  0.00     0.059 A 
ATOM     46  C   UNL A   1      34.265  33.466  30.683  1.00  0.00     0.059 A 
ATOM     47  F   UNL A   1      34.964  32.022  32.390  1.00  0.00    -0.206 F 
ATOM     48  C   UNL A   1      34.587  34.364  29.666  1.00  0.00     0.060 A 
BRANCH  48  49
ATOM     49  S   UNL A   1      33.287  35.248  28.779  1.00  0.00     0.124 S 
ATOM     50  O   UNL A   1      32.474  35.751  29.883  1.00  0.00    -0.237 OA
ATOM     51  O   UNL A   1      34.040  36.254  28.038  1.00  0.00    -0.237 OA
ATOM     52  O   UNL A   1      32.663  34.209  27.964  1.00  0.00    -0.744 OA
ENDBRANCH  48  49
ENDBRANCH  27  41
BRANCH  28  53
ATOM     53  C   UNL A   1      44.197  28.558  35.838  1.00  0.00     0.058 A 
ATOM     54  C   UNL A   1      44.011  27.496  36.732  1.00  0.00     0.135 A 
ATOM     55  C   UNL A   1      45.515  28.937  35.533  1.00  0.00     0.135 A 
ATOM     56  F   UNL A   1      42.772  27.101  37.058  1.00  0.00    -0.206 F 
ATOM     57  C   UNL A   1      45.092  26.828  37.300  1.00  0.00     0.059 A 
ATOM     58  C   UNL A   1      46.611  28.268  36.067  1.00  0.00     0.059 A 
ATOM     59  F   UNL A   1      45.744  29.937  34.667  1.00  0.00    -0.206 F 
ATOM     60  C   UNL A   1      46.388  27.215  36.952  1.00  0.00     0.060 A 
BRANCH  60  61
ATOM     61  S   UNL A   1      47.778  26.281  37.629  1.00  0.00     0.124 S 
ATOM     62  O   UNL A   1      47.459  26.268  39.051  1.00  0.00    -0.237 OA
ATOM     63  O   UNL A   1      47.655  25.003  36.933  1.00  0.00    -0.237 OA
ATOM     64  O   UNL A   1      48.938  27.082  37.249  1.00  0.00    -0.744 OA
ENDBRANCH  60  61
ENDBRANCH  28  53
BRANCH  40  65
ATOM     65  C   UNL A   1      39.899  33.829  37.485  1.00  0.00     0.058 A 
ATOM     66  C   UNL A   1      40.487  35.099  37.574  1.00  0.00     0.135 A 
ATOM     67  C   UNL A   1      39.080  33.408  38.546  1.00  0.00     0.135 A 
ATOM     68  F   UNL A   1      41.288  35.545  36.593  1.00  0.00    -0.206 F 
ATOM     69  C   UNL A   1      40.273  35.921  38.677  1.00  0.00     0.059 A 
ATOM     70  C   UNL A   1      38.830  34.224  39.644  1.00  0.00     0.059 A 
ATOM     71  F   UNL A   1      38.489  32.203  38.507  1.00  0.00    -0.206 F 
ATOM     72  C   UNL A   1      39.435  35.479  39.702  1.00  0.00     0.060 A 
BRANCH  72  73
ATOM     73  S   UNL A   1      39.108  36.583  41.092  1.00  0.00     0.124 S 
ATOM     74  O   UNL A   1      38.049  35.868  41.795  1.00  0.00    -0.237 OA
ATOM     75  O   UNL A   1      40.402  36.624  41.768  1.00  0.00    -0.237 OA
ATOM     76  O   UNL A   1      38.704  37.830  40.449  1.00  0.00    -0.744 OA
ENDBRANCH  72  73
ENDBRANCH  40  65
ENDBRANCH  14  15
ENDBRANCH   7   9
ENDBRANCH   4   5
ENDBRANCH   3   4
ENDBRANCH   2   3
ENDBRANCH   1   2
BRANCH   1  77
ATOM     77  C   UNL A   1      38.024  21.289  25.178  1.00  0.00     0.021 C 
BRANCH  77  78
ATOM     78  C   UNL A   1      37.218  22.034  24.121  1.00  0.00     0.116 C 
BRANCH  78  79
ATOM     79  N   UNL A   1      36.678  23.273  24.653  1.00  0.00    -0.356 N 
ATOM     80  C   UNL A   1      35.379  23.639  24.838  1.00  0.00     0.224 C 
ATOM     81  H   UNL A   1      37.348  23.945  24.919  1.00  0.00     0.163 HD
ATOM     82  O   UNL A   1      35.142  24.787  25.214  1.00  0.00    -0.275 OA
BRANCH  80  83
ATOM     83  C   UNL A   1      34.295  22.588  24.636  1.00  0.00     0.094 C 
ATOM     84  C   UNL A   1      34.327  21.570  25.814  1.00  0.00     0.002 C 
ATOM     85  C   UNL A   1      32.871  23.223  24.497  1.00  0.00     0.094 C 
ATOM     86  C   UNL A   1      33.936  22.267  27.127  1.00  0.00     0.005 C 
ATOM     87  C   UNL A   1      33.299  20.466  25.519  1.00  0.00     0.005 C 
ATOM     88  C   UNL A   1      31.966  22.596  25.598  1.00  0.00     0.002 C 
ATOM     89  C   UNL A   1      32.572  22.936  26.973  1.00  0.00     0.005 C 
ATOM     90  C   UNL A   1      31.898  21.070  25.437  1.00  0.00     0.005 C 
BRANCH  85  91
ATOM     91  C   UNL A   1      32.347  23.054  23.053  1.00  0.00     0.228 C 
ATOM     92  O   UNL A   1      32.456  21.990  22.437  1.00  0.00    -0.274 OA
ATOM     93  N   UNL A   1      31.702  24.066  22.399  1.00  0.00    -0.326 N 
ATOM     94  H   UNL A   1      31.341  23.833  21.514  1.00  0.00     0.169 HD
BRANCH  93  95
ATOM     95  C   UNL A   1      31.480  25.381  22.805  1.00  0.00     0.041 A 
ATOM     96  C   UNL A   1      30.509  25.583  23.782  1.00  0.00     0.026 A 
ATOM     97  C   UNL A   1      32.235  26.457  22.335  1.00  0.00     0.026 A 
ATOM     98  C   UNL A   1      30.399  26.827  24.396  1.00  0.00     0.006 A 
ATOM     99  C   UNL A   1      32.084  27.719  22.916  1.00  0.00     0.006 A 
ATOM    100  C   UNL A   1      31.192  27.907  23.980  1.00  0.00    -0.043 A 
BRANCH 100 101
ATOM    101  C   UNL A   1      31.092  29.242  24.683  1.00  0.00     0.071 C 
BRANCH 101 102
ATOM    102  C   UNL A   1      32.201  29.493  25.676  1.00  0.00    -0.041 A 
ATOM    103  C   UNL A   1      33.213  28.550  25.880  1.00  0.00     0.024 A 
ATOM    104  C   UNL A   1      32.233  30.668  26.430  1.00  0.00     0.024 A 
ATOM    105  C   UNL A   1      34.184  28.803  26.834  1.00  0.00     0.111 A 
ATOM    106  C   UNL A   1      33.258  30.839  27.349  1.00  0.00     0.111 A 
ATOM    107  N   UNL A   1      34.234  29.932  27.571  1.00  0.00    -0.265 NA
ENDBRANCH 101 102
ENDBRANCH 100 101
ENDBRANCH  93  95
ENDBRANCH  85  91
ENDBRANCH  80  83
ENDBRANCH  78  79
ENDBRANCH  77  78
ENDBRANCH   1  77
TORSDOF 20
ENDMDL
MODEL 3
REMARK VINA RESULT:     -12.1      1.373      8.106
REMARK SMILES O=C(NCCCCCCNC(=O)[C@H]1[C@H]2CC[C@H](CC2)[C@@H]1C(=O)Nc1ccc(Cc2ccncc2)cc1)c1ccc(-c2c3nc(c(-c4c(F)cc(S(=O)(=O)[O-])cc4F)c4ccc([nH]4)c(-c4c(F)cc(S(=O)(=O)[O-])cc4F)c4nc(c(-c5c(F)cc(S(=O)(=O)[O-])cc5F)c5ccc2[nH]5)C=C4)C=C3)cc1
REMARK SMILES IDX 7 1 6 2 5 3 4 4 3 5 1 6 2 7 37 9 38 10 102 11 39 12 101 13
REMARK SMILES IDX 40 14 41 15 42 16 95 17 43 18 100 19 94 20 96 21 44 22 99 23
REMARK SMILES IDX 93 24 92 25 45 27 79 28 58 29 78 30 59 31 62 32 77 33 97 34
REMARK SMILES IDX 60 35 61 36 76 38 98 39 63 40 46 41 47 42 56 43 48 44 49 45
REMARK SMILES IDX 55 46 57 47 50 48 51 49 52 50 53 51 54 52 80 53 81 54 90 55
REMARK SMILES IDX 82 56 83 57 89 58 91 59 84 60 85 61 86 62 87 63 88 64 64 65
REMARK SMILES IDX 65 66 74 67 66 68 67 69 73 70 75 71 68 72 69 73 70 74 71 75
REMARK SMILES IDX 72 76 8 77 9 78 10 79 11 80 12 82 13 83 14 84 20 85 15 86
REMARK SMILES IDX 19 87 17 88 16 89 18 90 21 91 22 92 23 93 24 95 25 96 36 97
REMARK SMILES IDX 26 98 35 99 27 100 28 101 29 102 30 103 34 104 31 105 33 106
REMARK SMILES IDX 32 107
REMARK H PARENT 3 8 96 26 62 37 10 81 23 94
REMARK Flexibility Score: inf
ROOT
ATOM      1  C   UNL A   1      34.231  30.769  27.318  1.00  0.00     0.002 C 
ENDROOT
BRANCH   1   2
ATOM      2  C   UNL A   1      34.482  31.843  28.381  1.00  0.00     0.002 C 
BRANCH   2   3
ATOM      3  C   UNL A   1      35.807  32.594  28.237  1.00  0.00     0.021 C 
BRANCH   3   4
ATOM      4  C   UNL A   1      36.663  32.607  29.499  1.00  0.00     0.116 C 
BRANCH   4   5
ATOM      5  N   UNL A   1      36.214  31.620  30.468  1.00  0.00    -0.352 N 
ATOM      6  O   UNL A   1      36.122  29.600  31.460  1.00  0.00    -0.269 OA
ATOM      7  C   UNL A   1      36.749  30.393  30.763  1.00  0.00     0.251 C 
ATOM      8  H   UNL A   1      35.415  31.869  30.985  1.00  0.00     0.163 HD
BRANCH   7   9
ATOM      9  C   UNL A   1      38.074  30.025  30.223  1.00  0.00     0.039 A 
ATOM     10  C   UNL A   1      39.170  29.858  31.075  1.00  0.00     0.014 A 
ATOM     11  C   UNL A   1      38.216  29.838  28.846  1.00  0.00     0.014 A 
ATOM     12  C   UNL A   1      40.433  29.619  30.541  1.00  0.00     0.010 A 
ATOM     13  C   UNL A   1      39.470  29.525  28.320  1.00  0.00     0.010 A 
ATOM     14  C   UNL A   1      40.592  29.437  29.160  1.00  0.00    -0.014 A 
BRANCH  14  15
ATOM     15  C   UNL A   1      41.925  29.105  28.598  1.00  0.00     0.031 A 
ATOM     16  C   UNL A   1      42.237  27.708  28.142  1.00  0.00     0.074 A 
ATOM     17  C   UNL A   1      42.865  30.067  28.536  1.00  0.00     0.049 A 
ATOM     18  N   UNL A   1      43.372  27.214  27.717  1.00  0.00    -0.248 NA
ATOM     19  C   UNL A   1      41.134  26.737  28.178  1.00  0.00     0.031 C 
ATOM     20  C   UNL A   1      42.673  31.459  28.949  1.00  0.00     0.029 A 
ATOM     21  N   UNL A   1      44.170  30.020  28.119  1.00  0.00    -0.354 N 
ATOM     22  C   UNL A   1      43.129  25.870  27.459  1.00  0.00     0.074 A 
ATOM     23  C   UNL A   1      41.743  25.623  27.799  1.00  0.00     0.031 C 
ATOM     24  C   UNL A   1      43.816  32.135  28.759  1.00  0.00     0.029 A 
ATOM     25  C   UNL A   1      44.837  31.212  28.274  1.00  0.00     0.049 A 
ATOM     26  H   UNL A   1      44.589  29.212  27.745  1.00  0.00     0.167 HD
ATOM     27  C   UNL A   1      43.984  24.933  26.981  1.00  0.00     0.037 A 
ATOM     28  C   UNL A   1      46.133  31.524  28.085  1.00  0.00     0.037 A 
ATOM     29  C   UNL A   1      45.362  25.198  26.650  1.00  0.00     0.049 A 
ATOM     30  C   UNL A   1      47.075  30.462  27.594  1.00  0.00     0.074 A 
ATOM     31  C   UNL A   1      46.305  24.328  26.132  1.00  0.00     0.029 A 
ATOM     32  N   UNL A   1      46.000  26.420  26.819  1.00  0.00    -0.354 N 
ATOM     33  N   UNL A   1      46.825  29.203  27.326  1.00  0.00    -0.248 NA
ATOM     34  C   UNL A   1      48.471  30.860  27.376  1.00  0.00     0.031 C 
ATOM     35  C   UNL A   1      47.524  25.007  26.040  1.00  0.00     0.029 A 
ATOM     36  C   UNL A   1      47.328  26.320  26.438  1.00  0.00     0.049 A 
ATOM     37  H   UNL A   1      45.571  27.238  27.161  1.00  0.00     0.167 HD
ATOM     38  C   UNL A   1      48.025  28.663  26.877  1.00  0.00     0.074 A 
ATOM     39  C   UNL A   1      49.001  29.735  26.913  1.00  0.00     0.031 C 
ATOM     40  C   UNL A   1      48.287  27.399  26.465  1.00  0.00     0.037 A 
BRANCH  27  41
ATOM     41  C   UNL A   1      43.462  23.529  26.825  1.00  0.00     0.058 A 
ATOM     42  C   UNL A   1      43.179  22.712  27.931  1.00  0.00     0.135 A 
ATOM     43  C   UNL A   1      43.235  22.994  25.546  1.00  0.00     0.135 A 
ATOM     44  F   UNL A   1      43.385  23.165  29.178  1.00  0.00    -0.206 F 
ATOM     45  C   UNL A   1      42.738  21.401  27.775  1.00  0.00     0.059 A 
ATOM     46  C   UNL A   1      42.765  21.696  25.366  1.00  0.00     0.059 A 
ATOM     47  F   UNL A   1      43.481  23.731  24.450  1.00  0.00    -0.206 F 
ATOM     48  C   UNL A   1      42.543  20.899  26.487  1.00  0.00     0.060 A 
BRANCH  48  49
ATOM     49  S   UNL A   1      42.013  19.183  26.301  1.00  0.00     0.124 S 
ATOM     50  O   UNL A   1      42.287  18.650  27.632  1.00  0.00    -0.237 OA
ATOM     51  O   UNL A   1      40.602  19.327  25.956  1.00  0.00    -0.237 OA
ATOM     52  O   UNL A   1      42.868  18.675  25.233  1.00  0.00    -0.744 OA
ENDBRANCH  48  49
ENDBRANCH  27  41
BRANCH  28  53
ATOM     53  C   UNL A   1      46.594  32.907  28.370  1.00  0.00     0.058 A 
ATOM     54  C   UNL A   1      47.086  33.257  29.634  1.00  0.00     0.135 A 
ATOM     55  C   UNL A   1      46.624  33.883  27.360  1.00  0.00     0.135 A 
ATOM     56  F   UNL A   1      47.075  32.361  30.632  1.00  0.00    -0.206 F 
ATOM     57  C   UNL A   1      47.596  34.527  29.889  1.00  0.00     0.059 A 
ATOM     58  C   UNL A   1      47.152  35.150  27.583  1.00  0.00     0.059 A 
ATOM     59  F   UNL A   1      46.181  33.589  26.128  1.00  0.00    -0.206 F 
ATOM     60  C   UNL A   1      47.635  35.463  28.852  1.00  0.00     0.060 A 
BRANCH  60  61
ATOM     61  S   UNL A   1      48.380  37.076  29.174  1.00  0.00     0.124 S 
ATOM     62  O   UNL A   1      48.058  37.273  30.582  1.00  0.00    -0.237 OA
ATOM     63  O   UNL A   1      49.786  36.829  28.868  1.00  0.00    -0.237 OA
ATOM     64  O   UNL A   1      47.689  37.958  28.238  1.00  0.00    -0.744 OA
ENDBRANCH  60  61
ENDBRANCH  28  53
BRANCH  40  65
ATOM     65  C   UNL A   1      49.673  27.103  25.961  1.00  0.00     0.058 A 
ATOM     66  C   UNL A   1      50.669  26.565  26.789  1.00  0.00     0.135 A 
ATOM     67  C   UNL A   1      49.976  27.281  24.600  1.00  0.00     0.135 A 
ATOM     68  F   UNL A   1      50.435  26.386  28.099  1.00  0.00    -0.206 F 
ATOM     69  C   UNL A   1      51.920  26.219  26.288  1.00  0.00     0.059 A 
ATOM     70  C   UNL A   1      51.210  26.917  24.072  1.00  0.00     0.059 A 
ATOM     71  F   UNL A   1      49.056  27.788  23.763  1.00  0.00    -0.206 F 
ATOM     72  C   UNL A   1      52.178  26.389  24.926  1.00  0.00     0.060 A 
BRANCH  72  73
ATOM     73  S   UNL A   1      53.779  25.869  24.275  1.00  0.00     0.124 S 
ATOM     74  O   UNL A   1      53.885  24.512  24.800  1.00  0.00    -0.237 OA
ATOM     75  O   UNL A   1      53.580  25.978  22.833  1.00  0.00    -0.237 OA
ATOM     76  O   UNL A   1      54.711  26.838  24.848  1.00  0.00    -0.744 OA
ENDBRANCH  72  73
ENDBRANCH  40  65
ENDBRANCH  14  15
ENDBRANCH   7   9
ENDBRANCH   4   5
ENDBRANCH   3   4
ENDBRANCH   2   3
ENDBRANCH   1   2
BRANCH   1  77
ATOM     77  C   UNL A   1      32.757  30.403  27.107  1.00  0.00     0.021 C 
BRANCH  77  78
ATOM     78  C   UNL A   1      32.404  30.070  25.662  1.00  0.00     0.116 C 
BRANCH  78  79
ATOM     79  N   UNL A   1      33.327  29.095  25.111  1.00  0.00    -0.356 N 
ATOM     80  C   UNL A   1      33.095  27.811  24.719  1.00  0.00     0.224 C 
ATOM     81  H   UNL A   1      34.256  29.407  25.004  1.00  0.00     0.163 HD
ATOM     82  O   UNL A   1      34.053  27.123  24.370  1.00  0.00    -0.275 OA
BRANCH  80  83
ATOM     83  C   UNL A   1      31.654  27.320  24.670  1.00  0.00     0.094 C 
ATOM     84  C   UNL A   1      30.998  27.756  23.327  1.00  0.00     0.002 C 
ATOM     85  C   UNL A   1      31.548  25.769  24.855  1.00  0.00     0.094 C 
ATOM     86  C   UNL A   1      31.679  27.043  22.149  1.00  0.00     0.005 C 
ATOM     87  C   UNL A   1      29.518  27.342  23.362  1.00  0.00     0.005 C 
ATOM     88  C   UNL A   1      30.802  25.195  23.614  1.00  0.00     0.002 C 
ATOM     89  C   UNL A   1      31.628  25.530  22.357  1.00  0.00     0.005 C 
ATOM     90  C   UNL A   1      29.406  25.823  23.486  1.00  0.00     0.005 C 
BRANCH  85  91
ATOM     91  C   UNL A   1      30.897  25.433  26.215  1.00  0.00     0.228 C 
ATOM     92  O   UNL A   1      30.176  26.238  26.812  1.00  0.00    -0.274 OA
ATOM     93  N   UNL A   1      31.057  24.211  26.807  1.00  0.00    -0.326 N 
ATOM     94  H   UNL A   1      30.539  24.073  27.633  1.00  0.00     0.169 HD
BRANCH  93  95
ATOM     95  C   UNL A   1      31.845  23.132  26.411  1.00  0.00     0.041 A 
ATOM     96  C   UNL A   1      31.376  22.369  25.345  1.00  0.00     0.026 A 
ATOM     97  C   UNL A   1      33.089  22.854  26.979  1.00  0.00     0.026 A 
ATOM     98  C   UNL A   1      32.215  21.430  24.752  1.00  0.00     0.006 A 
ATOM     99  C   UNL A   1      33.907  21.872  26.414  1.00  0.00     0.006 A 
ATOM    100  C   UNL A   1      33.493  21.177  25.269  1.00  0.00    -0.043 A 
BRANCH 100 101
ATOM    101  C   UNL A   1      34.409  20.184  24.590  1.00  0.00     0.071 C 
BRANCH 101 102
ATOM    102  C   UNL A   1      33.987  18.745  24.765  1.00  0.00    -0.041 A 
ATOM    103  C   UNL A   1      32.817  18.416  25.456  1.00  0.00     0.024 A 
ATOM    104  C   UNL A   1      34.767  17.704  24.257  1.00  0.00     0.024 A 
ATOM    105  C   UNL A   1      32.494  17.081  25.631  1.00  0.00     0.111 A 
ATOM    106  C   UNL A   1      34.349  16.399  24.468  1.00  0.00     0.111 A 
ATOM    107  N   UNL A   1      33.232  16.062  25.147  1.00  0.00    -0.265 NA
ENDBRANCH 101 102
ENDBRANCH 100 101
ENDBRANCH  93  95
ENDBRANCH  85  91
ENDBRANCH  80  83
ENDBRANCH  78  79
ENDBRANCH  77  78
ENDBRANCH   1  77
TORSDOF 20
ENDMDL
