MODEL 1
REMARK VINA RESULT:     -10.2      0.000      0.000
REMARK SMILES C[C@H](Nc1ccc(N(C)C)cc1)[C@@H](C)C(=O)NCCCCCCNC(=O)c1ccc(-c2c3nc(c(-c4c(F)cc(S(=O)(=O)[O-])cc4F)c4ccc([nH]4)c(-c4c(F)cc(S(=O)(=O)[O-])cc4F)c4nc(c(-c5c(F)cc(S(=O)(=O)[O-])cc5F)c5ccc2[nH]5)C=C4)C=C3)cc1
REMARK SMILES IDX 20 1 19 2 18 3 17 4 15 5 16 6 13 8 14 9 2 10 1 11 3 12 4 14
REMARK SMILES IDX 5 15 12 16 6 17 11 18 7 19 8 20 9 21 10 22 21 23 22 24 23 25
REMARK SMILES IDX 24 26 25 27 26 29 27 30 28 31 92 32 29 33 91 34 30 35 31 36
REMARK SMILES IDX 32 37 85 38 33 39 90 40 84 41 86 42 34 43 89 44 83 45 82 46
REMARK SMILES IDX 35 48 69 49 48 50 68 51 49 52 52 53 67 54 87 55 50 56 51 57
REMARK SMILES IDX 66 59 88 60 53 61 36 62 37 63 46 64 38 65 39 66 45 67 47 68
REMARK SMILES IDX 40 69 41 70 42 71 43 72 44 73 70 74 71 75 80 76 72 77 73 78
REMARK SMILES IDX 79 79 81 80 74 81 75 82 76 83 77 84 78 85 54 86 55 87 64 88
REMARK SMILES IDX 56 89 57 90 63 91 65 92 58 93 59 94 60 95 61 96 62 97
REMARK H PARENT 17 7 3 13 24 28 86 47 52 58
REMARK Flexibility Score: inf
ROOT
ATOM      1  C   UNL A   1      33.892  24.971  25.651  1.00  0.00     0.002 C 
ENDROOT
BRANCH   1   2
ATOM      2  C   UNL A   1      33.507  26.445  25.823  1.00  0.00     0.021 C 
BRANCH   2   3
ATOM      3  C   UNL A   1      32.011  26.674  26.023  1.00  0.00     0.116 C 
BRANCH   3   4
ATOM      4  N   UNL A   1      31.576  27.887  25.356  1.00  0.00    -0.356 N 
ATOM      5  C   UNL A   1      30.839  28.077  24.231  1.00  0.00     0.224 C 
ATOM      6  O   UNL A   1      30.650  29.241  23.865  1.00  0.00    -0.275 OA
ATOM      7  H   UNL A   1      31.866  28.718  25.795  1.00  0.00     0.163 HD
BRANCH   5   8
ATOM      8  C   UNL A   1      30.235  26.918  23.446  1.00  0.00     0.097 C 
ATOM      9  C   UNL A   1      28.997  26.398  24.186  1.00  0.00     0.020 C 
BRANCH   8  10
ATOM     10  C   UNL A   1      31.286  25.856  23.034  1.00  0.00     0.088 C 
ATOM     11  C   UNL A   1      31.855  26.178  21.637  1.00  0.00     0.031 C 
BRANCH  10  12
ATOM     12  N   UNL A   1      30.671  24.526  23.027  1.00  0.00    -0.382 N 
ATOM     13  H   UNL A   1      29.765  24.454  22.648  1.00  0.00     0.160 HD
BRANCH  12  14
ATOM     14  C   UNL A   1      31.246  23.366  23.506  1.00  0.00     0.034 A 
ATOM     15  C   UNL A   1      32.124  22.670  22.678  1.00  0.00     0.028 A 
ATOM     16  C   UNL A   1      31.087  22.883  24.798  1.00  0.00     0.028 A 
ATOM     17  C   UNL A   1      32.863  21.570  23.143  1.00  0.00     0.028 A 
ATOM     18  C   UNL A   1      31.825  21.777  25.258  1.00  0.00     0.028 A 
ATOM     19  C   UNL A   1      32.761  21.099  24.456  1.00  0.00     0.036 A 
BRANCH  19  20
ATOM     20  N   UNL A   1      33.519  20.044  24.942  1.00  0.00    -0.378 N 
ATOM     21  C   UNL A   1      34.976  20.028  24.966  1.00  0.00     0.143 C 
ATOM     22  C   UNL A   1      32.873  18.903  25.586  1.00  0.00     0.143 C 
ENDBRANCH  19  20
ENDBRANCH  12  14
ENDBRANCH  10  12
ENDBRANCH   8  10
ENDBRANCH   5   8
ENDBRANCH   3   4
ENDBRANCH   2   3
ENDBRANCH   1   2
BRANCH   1  23
ATOM     23  C   UNL A   1      34.728  24.665  24.405  1.00  0.00     0.002 C 
BRANCH  23  24
ATOM     24  C   UNL A   1      35.776  23.563  24.584  1.00  0.00     0.021 C 
BRANCH  24  25
ATOM     25  C   UNL A   1      36.384  23.494  25.980  1.00  0.00     0.116 C 
BRANCH  25  26
ATOM     26  N   UNL A   1      37.454  22.511  26.057  1.00  0.00    -0.352 N 
ATOM     27  C   UNL A   1      38.791  22.704  26.298  1.00  0.00     0.251 C 
ATOM     28  H   UNL A   1      37.180  21.576  25.918  1.00  0.00     0.163 HD
ATOM     29  O   UNL A   1      39.589  21.787  26.113  1.00  0.00    -0.269 OA
BRANCH  27  30
ATOM     30  C   UNL A   1      39.266  24.024  26.759  1.00  0.00     0.039 A 
ATOM     31  C   UNL A   1      39.147  24.355  28.111  1.00  0.00     0.014 A 
ATOM     32  C   UNL A   1      39.846  24.924  25.861  1.00  0.00     0.014 A 
ATOM     33  C   UNL A   1      39.677  25.561  28.575  1.00  0.00     0.010 A 
ATOM     34  C   UNL A   1      40.436  26.092  26.337  1.00  0.00     0.010 A 
ATOM     35  C   UNL A   1      40.364  26.419  27.699  1.00  0.00    -0.014 A 
BRANCH  35  36
ATOM     36  C   UNL A   1      41.043  27.644  28.193  1.00  0.00     0.031 A 
ATOM     37  C   UNL A   1      42.545  27.719  28.224  1.00  0.00     0.074 A 
ATOM     38  C   UNL A   1      40.303  28.656  28.687  1.00  0.00     0.049 A 
ATOM     39  N   UNL A   1      43.313  28.662  28.702  1.00  0.00    -0.248 NA
ATOM     40  C   UNL A   1      43.278  26.572  27.666  1.00  0.00     0.031 C 
ATOM     41  C   UNL A   1      38.839  28.682  28.749  1.00  0.00     0.029 A 
ATOM     42  N   UNL A   1      40.676  29.853  29.246  1.00  0.00    -0.354 N 
ATOM     43  C   UNL A   1      44.618  28.222  28.514  1.00  0.00     0.074 A 
ATOM     44  C   UNL A   1      44.535  26.904  27.924  1.00  0.00     0.031 C 
ATOM     45  C   UNL A   1      38.441  29.841  29.297  1.00  0.00     0.029 A 
ATOM     46  C   UNL A   1      39.617  30.621  29.670  1.00  0.00     0.049 A 
ATOM     47  H   UNL A   1      41.616  30.136  29.334  1.00  0.00     0.167 HD
ATOM     48  C   UNL A   1      45.776  28.867  28.791  1.00  0.00     0.037 A 
ATOM     49  C   UNL A   1      39.593  31.809  30.305  1.00  0.00     0.037 A 
ATOM     50  C   UNL A   1      45.846  30.186  29.366  1.00  0.00     0.049 A 
ATOM     51  C   UNL A   1      40.894  32.493  30.628  1.00  0.00     0.074 A 
ATOM     52  C   UNL A   1      46.970  30.949  29.630  1.00  0.00     0.029 A 
ATOM     53  N   UNL A   1      44.751  30.933  29.776  1.00  0.00    -0.354 N 
ATOM     54  N   UNL A   1      42.119  32.092  30.379  1.00  0.00    -0.248 NA
ATOM     55  C   UNL A   1      40.814  33.788  31.317  1.00  0.00     0.031 C 
ATOM     56  C   UNL A   1      46.559  32.132  30.252  1.00  0.00     0.029 A 
ATOM     57  C   UNL A   1      45.175  32.134  30.320  1.00  0.00     0.049 A 
ATOM     58  H   UNL A   1      43.812  30.651  29.691  1.00  0.00     0.167 HD
ATOM     59  C   UNL A   1      42.952  33.097  30.858  1.00  0.00     0.074 A 
ATOM     60  C   UNL A   1      42.093  34.129  31.398  1.00  0.00     0.031 C 
ATOM     61  C   UNL A   1      44.307  33.158  30.851  1.00  0.00     0.037 A 
BRANCH  48  62
ATOM     62  C   UNL A   1      47.066  28.157  28.477  1.00  0.00     0.058 A 
ATOM     63  C   UNL A   1      47.708  27.339  29.422  1.00  0.00     0.135 A 
ATOM     64  C   UNL A   1      47.645  28.258  27.202  1.00  0.00     0.135 A 
ATOM     65  F   UNL A   1      47.208  27.216  30.662  1.00  0.00    -0.206 F 
ATOM     66  C   UNL A   1      48.892  26.673  29.123  1.00  0.00     0.059 A 
ATOM     67  C   UNL A   1      48.812  27.575  26.871  1.00  0.00     0.059 A 
ATOM     68  F   UNL A   1      47.075  29.026  26.259  1.00  0.00    -0.206 F 
ATOM     69  C   UNL A   1      49.435  26.796  27.843  1.00  0.00     0.060 A 
BRANCH  69  70
ATOM     70  S   UNL A   1      50.967  25.916  27.471  1.00  0.00     0.124 S 
ATOM     71  O   UNL A   1      50.504  24.533  27.424  1.00  0.00    -0.237 OA
ATOM     72  O   UNL A   1      51.357  26.498  26.190  1.00  0.00    -0.237 OA
ATOM     73  O   UNL A   1      51.833  26.249  28.597  1.00  0.00    -0.744 OA
ENDBRANCH  69  70
ENDBRANCH  48  62
BRANCH  49  74
ATOM     74  C   UNL A   1      38.291  32.429  30.673  1.00  0.00     0.058 A 
ATOM     75  C   UNL A   1      37.744  32.255  31.953  1.00  0.00     0.135 A 
ATOM     76  C   UNL A   1      37.575  33.219  29.759  1.00  0.00     0.135 A 
ATOM     77  F   UNL A   1      38.385  31.503  32.860  1.00  0.00    -0.206 F 
ATOM     78  C   UNL A   1      36.527  32.827  32.310  1.00  0.00     0.059 A 
ATOM     79  C   UNL A   1      36.371  33.825  30.101  1.00  0.00     0.059 A 
ATOM     80  F   UNL A   1      38.063  33.431  28.527  1.00  0.00    -0.206 F 
ATOM     81  C   UNL A   1      35.850  33.615  31.377  1.00  0.00     0.060 A 
BRANCH  81  82
ATOM     82  S   UNL A   1      34.296  34.393  31.867  1.00  0.00     0.124 S 
ATOM     83  O   UNL A   1      34.767  35.611  32.514  1.00  0.00    -0.237 OA
ATOM     84  O   UNL A   1      33.625  34.570  30.582  1.00  0.00    -0.237 OA
ATOM     85  O   UNL A   1      33.688  33.402  32.751  1.00  0.00    -0.744 OA
ENDBRANCH  81  82
ENDBRANCH  49  74
BRANCH  61  86
ATOM     86  C   UNL A   1      44.952  34.392  31.419  1.00  0.00     0.058 A 
ATOM     87  C   UNL A   1      45.184  35.532  30.635  1.00  0.00     0.135 A 
ATOM     88  C   UNL A   1      45.281  34.457  32.784  1.00  0.00     0.135 A 
ATOM     89  F   UNL A   1      44.898  35.520  29.323  1.00  0.00    -0.206 F 
ATOM     90  C   UNL A   1      45.730  36.689  31.179  1.00  0.00     0.059 A 
ATOM     91  C   UNL A   1      45.800  35.615  33.356  1.00  0.00     0.059 A 
ATOM     92  F   UNL A   1      45.073  33.398  33.581  1.00  0.00    -0.206 F 
ATOM     93  C   UNL A   1      46.027  36.724  32.543  1.00  0.00     0.060 A 
BRANCH  93  94
ATOM     94  S   UNL A   1      46.684  38.252  33.246  1.00  0.00     0.124 S 
ATOM     95  O   UNL A   1      46.393  38.073  34.664  1.00  0.00    -0.237 OA
ATOM     96  O   UNL A   1      48.094  38.184  32.874  1.00  0.00    -0.237 OA
ATOM     97  O   UNL A   1      45.914  39.295  32.574  1.00  0.00    -0.744 OA
ENDBRANCH  93  94
ENDBRANCH  61  86
ENDBRANCH  35  36
ENDBRANCH  27  30
ENDBRANCH  25  26
ENDBRANCH  24  25
ENDBRANCH  23  24
ENDBRANCH   1  23
TORSDOF 20
ENDMDL
MODEL 2
REMARK VINA RESULT:     -10.0      2.311      2.999
REMARK SMILES C[C@H](Nc1ccc(N(C)C)cc1)[C@@H](C)C(=O)NCCCCCCNC(=O)c1ccc(-c2c3nc(c(-c4c(F)cc(S(=O)(=O)[O-])cc4F)c4ccc([nH]4)c(-c4c(F)cc(S(=O)(=O)[O-])cc4F)c4nc(c(-c5c(F)cc(S(=O)(=O)[O-])cc5F)c5ccc2[nH]5)C=C4)C=C3)cc1
REMARK SMILES IDX 20 1 19 2 18 3 17 4 15 5 16 6 13 8 14 9 2 10 1 11 3 12 4 14
REMARK SMILES IDX 5 15 12 16 6 17 11 18 7 19 8 20 9 21 10 22 21 23 22 24 23 25
REMARK SMILES IDX 24 26 25 27 26 29 27 30 28 31 92 32 29 33 91 34 30 35 31 36
REMARK SMILES IDX 32 37 85 38 33 39 90 40 84 41 86 42 34 43 89 44 83 45 82 46
REMARK SMILES IDX 35 48 69 49 48 50 68 51 49 52 52 53 67 54 87 55 50 56 51 57
REMARK SMILES IDX 66 59 88 60 53 61 36 62 37 63 46 64 38 65 39 66 45 67 47 68
REMARK SMILES IDX 40 69 41 70 42 71 43 72 44 73 70 74 71 75 80 76 72 77 73 78
REMARK SMILES IDX 79 79 81 80 74 81 75 82 76 83 77 84 78 85 54 86 55 87 64 88
REMARK SMILES IDX 56 89 57 90 63 91 65 92 58 93 59 94 60 95 61 96 62 97
REMARK H PARENT 17 7 3 13 24 28 86 47 52 58
REMARK Flexibility Score: inf
ROOT
ATOM      1  C   UNL A   1      34.093  24.861  25.211  1.00  0.00     0.002 C 
ENDROOT
BRANCH   1   2
ATOM      2  C   UNL A   1      33.974  26.388  25.133  1.00  0.00     0.021 C 
BRANCH   2   3
ATOM      3  C   UNL A   1      32.815  26.959  25.947  1.00  0.00     0.116 C 
BRANCH   3   4
ATOM      4  N   UNL A   1      32.117  27.993  25.205  1.00  0.00    -0.356 N 
ATOM      5  C   UNL A   1      31.098  27.922  24.310  1.00  0.00     0.224 C 
ATOM      6  O   UNL A   1      30.721  28.978  23.794  1.00  0.00    -0.275 OA
ATOM      7  H   UNL A   1      32.440  28.905  25.380  1.00  0.00     0.163 HD
BRANCH   5   8
ATOM      8  C   UNL A   1      30.412  26.607  23.958  1.00  0.00     0.097 C 
ATOM      9  C   UNL A   1      29.762  26.023  25.219  1.00  0.00     0.020 C 
BRANCH   8  10
ATOM     10  C   UNL A   1      31.321  25.649  23.147  1.00  0.00     0.088 C 
ATOM     11  C   UNL A   1      31.600  26.231  21.746  1.00  0.00     0.031 C 
BRANCH  10  12
ATOM     12  N   UNL A   1      30.677  24.338  23.024  1.00  0.00    -0.382 N 
ATOM     13  H   UNL A   1      29.810  24.308  22.561  1.00  0.00     0.160 HD
BRANCH  12  14
ATOM     14  C   UNL A   1      31.178  23.143  23.499  1.00  0.00     0.034 A 
ATOM     15  C   UNL A   1      31.731  22.246  22.589  1.00  0.00     0.028 A 
ATOM     16  C   UNL A   1      31.256  22.801  24.843  1.00  0.00     0.028 A 
ATOM     17  C   UNL A   1      32.394  21.081  23.009  1.00  0.00     0.028 A 
ATOM     18  C   UNL A   1      31.917  21.630  25.260  1.00  0.00     0.028 A 
ATOM     19  C   UNL A   1      32.535  20.744  24.359  1.00  0.00     0.036 A 
BRANCH  19  20
ATOM     20  N   UNL A   1      33.227  19.622  24.790  1.00  0.00    -0.378 N 
ATOM     21  C   UNL A   1      32.605  18.332  25.062  1.00  0.00     0.143 C 
ATOM     22  C   UNL A   1      34.685  19.641  24.882  1.00  0.00     0.143 C 
ENDBRANCH  19  20
ENDBRANCH  12  14
ENDBRANCH  10  12
ENDBRANCH   8  10
ENDBRANCH   5   8
ENDBRANCH   3   4
ENDBRANCH   2   3
ENDBRANCH   1   2
BRANCH   1  23
ATOM     23  C   UNL A   1      34.675  24.196  23.959  1.00  0.00     0.002 C 
BRANCH  23  24
ATOM     24  C   UNL A   1      35.835  23.232  24.220  1.00  0.00     0.021 C 
BRANCH  24  25
ATOM     25  C   UNL A   1      36.834  23.717  25.265  1.00  0.00     0.116 C 
BRANCH  25  26
ATOM     26  N   UNL A   1      37.938  22.785  25.431  1.00  0.00    -0.352 N 
ATOM     27  C   UNL A   1      39.176  22.999  25.984  1.00  0.00     0.251 C 
ATOM     28  H   UNL A   1      37.774  21.872  25.102  1.00  0.00     0.163 HD
ATOM     29  O   UNL A   1      40.064  22.161  25.849  1.00  0.00    -0.269 OA
BRANCH  27  30
ATOM     30  C   UNL A   1      39.437  24.250  26.724  1.00  0.00     0.039 A 
ATOM     31  C   UNL A   1      38.891  24.412  28.000  1.00  0.00     0.014 A 
ATOM     32  C   UNL A   1      40.237  25.252  26.166  1.00  0.00     0.014 A 
ATOM     33  C   UNL A   1      39.208  25.549  28.745  1.00  0.00     0.010 A 
ATOM     34  C   UNL A   1      40.608  26.349  26.938  1.00  0.00     0.010 A 
ATOM     35  C   UNL A   1      40.104  26.506  28.238  1.00  0.00    -0.014 A 
BRANCH  35  36
ATOM     36  C   UNL A   1      40.552  27.658  29.061  1.00  0.00     0.031 A 
ATOM     37  C   UNL A   1      41.864  27.601  29.794  1.00  0.00     0.074 A 
ATOM     38  C   UNL A   1      39.737  28.721  29.209  1.00  0.00     0.049 A 
ATOM     39  N   UNL A   1      42.379  28.466  30.629  1.00  0.00    -0.248 NA
ATOM     40  C   UNL A   1      42.694  26.406  29.579  1.00  0.00     0.031 C 
ATOM     41  C   UNL A   1      38.422  28.874  28.581  1.00  0.00     0.029 A 
ATOM     42  N   UNL A   1      39.884  29.871  29.945  1.00  0.00    -0.354 N 
ATOM     43  C   UNL A   1      43.585  27.917  31.048  1.00  0.00     0.074 A 
ATOM     44  C   UNL A   1      43.701  26.622  30.412  1.00  0.00     0.031 C 
ATOM     45  C   UNL A   1      37.893  30.052  28.945  1.00  0.00     0.029 A 
ATOM     46  C   UNL A   1      38.805  30.719  29.868  1.00  0.00     0.049 A 
ATOM     47  H   UNL A   1      40.688  30.069  30.478  1.00  0.00     0.167 HD
ATOM     48  C   UNL A   1      44.518  28.454  31.870  1.00  0.00     0.037 A 
ATOM     49  C   UNL A   1      38.566  31.893  30.485  1.00  0.00     0.037 A 
ATOM     50  C   UNL A   1      44.399  29.750  32.486  1.00  0.00     0.049 A 
ATOM     51  C   UNL A   1      39.605  32.455  31.418  1.00  0.00     0.074 A 
ATOM     52  C   UNL A   1      45.316  30.408  33.288  1.00  0.00     0.029 A 
ATOM     53  N   UNL A   1      43.294  30.583  32.379  1.00  0.00    -0.354 N 
ATOM     54  N   UNL A   1      40.772  31.954  31.747  1.00  0.00    -0.248 NA
ATOM     55  C   UNL A   1      39.299  33.739  32.062  1.00  0.00     0.031 C 
ATOM     56  C   UNL A   1      44.742  31.610  33.712  1.00  0.00     0.029 A 
ATOM     57  C   UNL A   1      43.492  31.731  33.126  1.00  0.00     0.049 A 
ATOM     58  H   UNL A   1      42.488  30.385  31.849  1.00  0.00     0.167 HD
ATOM     59  C   UNL A   1      41.348  32.874  32.617  1.00  0.00     0.074 A 
ATOM     60  C   UNL A   1      40.409  33.967  32.751  1.00  0.00     0.031 C 
ATOM     61  C   UNL A   1      42.548  32.817  33.247  1.00  0.00     0.037 A 
BRANCH  48  62
ATOM     62  C   UNL A   1      45.753  27.640  32.155  1.00  0.00     0.058 A 
ATOM     63  C   UNL A   1      46.897  27.723  31.343  1.00  0.00     0.135 A 
ATOM     64  C   UNL A   1      45.811  26.802  33.280  1.00  0.00     0.135 A 
ATOM     65  F   UNL A   1      46.894  28.498  30.247  1.00  0.00    -0.206 F 
ATOM     66  C   UNL A   1      48.041  26.981  31.620  1.00  0.00     0.059 A 
ATOM     67  C   UNL A   1      46.956  26.075  33.594  1.00  0.00     0.059 A 
ATOM     68  F   UNL A   1      44.747  26.684  34.091  1.00  0.00    -0.206 F 
ATOM     69  C   UNL A   1      48.061  26.161  32.750  1.00  0.00     0.060 A 
BRANCH  69  70
ATOM     70  S   UNL A   1      49.558  25.214  33.097  1.00  0.00     0.124 S 
ATOM     71  O   UNL A   1      49.015  24.067  33.819  1.00  0.00    -0.237 OA
ATOM     72  O   UNL A   1      50.067  24.935  31.758  1.00  0.00    -0.237 OA
ATOM     73  O   UNL A   1      50.365  26.132  33.894  1.00  0.00    -0.744 OA
ENDBRANCH  69  70
ENDBRANCH  48  62
BRANCH  49  74
ATOM     74  C   UNL A   1      37.290  32.617  30.237  1.00  0.00     0.058 A 
ATOM     75  C   UNL A   1      36.177  32.426  31.070  1.00  0.00     0.135 A 
ATOM     76  C   UNL A   1      37.161  33.525  29.173  1.00  0.00     0.135 A 
ATOM     77  F   UNL A   1      36.247  31.564  32.095  1.00  0.00    -0.206 F 
ATOM     78  C   UNL A   1      34.977  33.095  30.848  1.00  0.00     0.059 A 
ATOM     79  C   UNL A   1      35.981  34.226  28.948  1.00  0.00     0.059 A 
ATOM     80  F   UNL A   1      38.200  33.756  28.357  1.00  0.00    -0.206 F 
ATOM     81  C   UNL A   1      34.890  33.997  29.786  1.00  0.00     0.060 A 
BRANCH  81  82
ATOM     82  S   UNL A   1      33.344  34.895  29.538  1.00  0.00     0.124 S 
ATOM     83  O   UNL A   1      33.817  36.129  28.921  1.00  0.00    -0.237 OA
ATOM     84  O   UNL A   1      32.602  33.989  28.667  1.00  0.00    -0.237 OA
ATOM     85  O   UNL A   1      32.812  35.029  30.891  1.00  0.00    -0.744 OA
ENDBRANCH  81  82
ENDBRANCH  49  74
BRANCH  61  86
ATOM     86  C   UNL A   1      42.933  33.979  34.121  1.00  0.00     0.058 A 
ATOM     87  C   UNL A   1      42.783  33.935  35.515  1.00  0.00     0.135 A 
ATOM     88  C   UNL A   1      43.522  35.124  33.560  1.00  0.00     0.135 A 
ATOM     89  F   UNL A   1      42.216  32.869  36.102  1.00  0.00    -0.206 F 
ATOM     90  C   UNL A   1      43.192  34.992  36.323  1.00  0.00     0.059 A 
ATOM     91  C   UNL A   1      43.966  36.179  34.351  1.00  0.00     0.059 A 
ATOM     92  F   UNL A   1      43.696  35.214  32.232  1.00  0.00    -0.206 F 
ATOM     93  C   UNL A   1      43.791  36.106  35.732  1.00  0.00     0.060 A 
BRANCH  93  94
ATOM     94  S   UNL A   1      44.367  37.445  36.798  1.00  0.00     0.124 S 
ATOM     95  O   UNL A   1      43.134  37.834  37.475  1.00  0.00    -0.237 OA
ATOM     96  O   UNL A   1      45.361  36.773  37.630  1.00  0.00    -0.237 OA
ATOM     97  O   UNL A   1      44.902  38.424  35.858  1.00  0.00    -0.744 OA
ENDBRANCH  93  94
ENDBRANCH  61  86
ENDBRANCH  35  36
ENDBRANCH  27  30
ENDBRANCH  25  26
ENDBRANCH  24  25
ENDBRANCH  23  24
ENDBRANCH   1  23
TORSDOF 20
ENDMDL
MODEL 3
REMARK VINA RESULT:      -9.7      4.589      5.757
REMARK SMILES C[C@H](Nc1ccc(N(C)C)cc1)[C@@H](C)C(=O)NCCCCCCNC(=O)c1ccc(-c2c3nc(c(-c4c(F)cc(S(=O)(=O)[O-])cc4F)c4ccc([nH]4)c(-c4c(F)cc(S(=O)(=O)[O-])cc4F)c4nc(c(-c5c(F)cc(S(=O)(=O)[O-])cc5F)c5ccc2[nH]5)C=C4)C=C3)cc1
REMARK SMILES IDX 20 1 19 2 18 3 17 4 15 5 16 6 13 8 14 9 2 10 1 11 3 12 4 14
REMARK SMILES IDX 5 15 12 16 6 17 11 18 7 19 8 20 9 21 10 22 21 23 22 24 23 25
REMARK SMILES IDX 24 26 25 27 26 29 27 30 28 31 92 32 29 33 91 34 30 35 31 36
REMARK SMILES IDX 32 37 85 38 33 39 90 40 84 41 86 42 34 43 89 44 83 45 82 46
REMARK SMILES IDX 35 48 69 49 48 50 68 51 49 52 52 53 67 54 87 55 50 56 51 57
REMARK SMILES IDX 66 59 88 60 53 61 36 62 37 63 46 64 38 65 39 66 45 67 47 68
REMARK SMILES IDX 40 69 41 70 42 71 43 72 44 73 70 74 71 75 80 76 72 77 73 78
REMARK SMILES IDX 79 79 81 80 74 81 75 82 76 83 77 84 78 85 54 86 55 87 64 88
REMARK SMILES IDX 56 89 57 90 63 91 65 92 58 93 59 94 60 95 61 96 62 97
REMARK H PARENT 17 7 3 13 24 28 86 47 52 58
REMARK Flexibility Score: inf
ROOT
ATOM      1  C   UNL A   1      36.241  22.929  25.290  1.00  0.00     0.002 C 
ENDROOT
BRANCH   1   2
ATOM      2  C   UNL A   1      35.366  24.187  25.240  1.00  0.00     0.021 C 
BRANCH   2   3
ATOM      3  C   UNL A   1      34.104  24.096  26.095  1.00  0.00     0.116 C 
BRANCH   3   4
ATOM      4  N   UNL A   1      33.146  25.120  25.720  1.00  0.00    -0.356 N 
ATOM      5  C   UNL A   1      32.022  25.062  24.962  1.00  0.00     0.224 C 
ATOM      6  O   UNL A   1      31.408  26.116  24.772  1.00  0.00    -0.275 OA
ATOM      7  H   UNL A   1      33.348  26.014  26.078  1.00  0.00     0.163 HD
BRANCH   5   8
ATOM      8  C   UNL A   1      31.500  23.754  24.376  1.00  0.00     0.097 C 
ATOM      9  C   UNL A   1      30.815  22.943  25.483  1.00  0.00     0.020 C 
BRANCH   8  10
ATOM     10  C   UNL A   1      32.561  23.005  23.531  1.00  0.00     0.088 C 
ATOM     11  C   UNL A   1      32.973  23.853  22.310  1.00  0.00     0.031 C 
BRANCH  10  12
ATOM     12  N   UNL A   1      32.022  21.717  23.085  1.00  0.00    -0.382 N 
ATOM     13  H   UNL A   1      31.249  21.743  22.476  1.00  0.00     0.160 HD
BRANCH  12  14
ATOM     14  C   UNL A   1      32.499  20.472  23.442  1.00  0.00     0.034 A 
ATOM     15  C   UNL A   1      33.295  20.368  24.579  1.00  0.00     0.028 A 
ATOM     16  C   UNL A   1      32.167  19.288  22.798  1.00  0.00     0.028 A 
ATOM     17  C   UNL A   1      33.693  19.122  25.091  1.00  0.00     0.028 A 
ATOM     18  C   UNL A   1      32.572  18.041  23.311  1.00  0.00     0.028 A 
ATOM     19  C   UNL A   1      33.324  17.913  24.492  1.00  0.00     0.036 A 
BRANCH  19  20
ATOM     20  N   UNL A   1      33.670  16.675  25.013  1.00  0.00    -0.378 N 
ATOM     21  C   UNL A   1      35.031  16.154  25.047  1.00  0.00     0.143 C 
ATOM     22  C   UNL A   1      32.671  15.849  25.686  1.00  0.00     0.143 C 
ENDBRANCH  19  20
ENDBRANCH  12  14
ENDBRANCH  10  12
ENDBRANCH   8  10
ENDBRANCH   5   8
ENDBRANCH   3   4
ENDBRANCH   2   3
ENDBRANCH   1   2
BRANCH   1  23
ATOM     23  C   UNL A   1      37.742  23.181  25.116  1.00  0.00     0.002 C 
BRANCH  23  24
ATOM     24  C   UNL A   1      38.646  22.354  26.034  1.00  0.00     0.021 C 
BRANCH  24  25
ATOM     25  C   UNL A   1      39.613  23.179  26.875  1.00  0.00     0.116 C 
BRANCH  25  26
ATOM     26  N   UNL A   1      40.865  23.425  26.176  1.00  0.00    -0.352 N 
ATOM     27  C   UNL A   1      41.655  24.547  26.182  1.00  0.00     0.251 C 
ATOM     28  H   UNL A   1      41.193  22.680  25.621  1.00  0.00     0.163 HD
ATOM     29  O   UNL A   1      42.566  24.663  25.365  1.00  0.00    -0.269 OA
BRANCH  27  30
ATOM     30  C   UNL A   1      41.390  25.619  27.162  1.00  0.00     0.039 A 
ATOM     31  C   UNL A   1      40.380  25.439  28.111  1.00  0.00     0.014 A 
ATOM     32  C   UNL A   1      42.150  26.792  27.154  1.00  0.00     0.014 A 
ATOM     33  C   UNL A   1      40.183  26.405  29.099  1.00  0.00     0.010 A 
ATOM     34  C   UNL A   1      42.000  27.719  28.182  1.00  0.00     0.010 A 
ATOM     35  C   UNL A   1      41.021  27.532  29.169  1.00  0.00    -0.014 A 
BRANCH  35  36
ATOM     36  C   UNL A   1      40.911  28.508  30.283  1.00  0.00     0.031 A 
ATOM     37  C   UNL A   1      41.780  28.368  31.502  1.00  0.00     0.074 A 
ATOM     38  C   UNL A   1      39.971  29.472  30.227  1.00  0.00     0.049 A 
ATOM     39  N   UNL A   1      41.765  29.064  32.609  1.00  0.00    -0.248 NA
ATOM     40  C   UNL A   1      42.780  27.290  31.484  1.00  0.00     0.031 C 
ATOM     41  C   UNL A   1      39.039  29.683  29.115  1.00  0.00     0.029 A 
ATOM     42  N   UNL A   1      39.628  30.448  31.130  1.00  0.00    -0.354 N 
ATOM     43  C   UNL A   1      42.742  28.505  33.423  1.00  0.00     0.074 A 
ATOM     44  C   UNL A   1      43.297  27.380  32.701  1.00  0.00     0.031 C 
ATOM     45  C   UNL A   1      38.248  30.730  29.395  1.00  0.00     0.029 A 
ATOM     46  C   UNL A   1      38.578  31.236  30.723  1.00  0.00     0.049 A 
ATOM     47  H   UNL A   1      40.093  30.572  31.990  1.00  0.00     0.167 HD
ATOM     48  C   UNL A   1      43.153  28.905  34.650  1.00  0.00     0.037 A 
ATOM     49  C   UNL A   1      37.937  32.240  31.354  1.00  0.00     0.037 A 
ATOM     50  C   UNL A   1      42.603  30.036  35.354  1.00  0.00     0.049 A 
ATOM     51  C   UNL A   1      38.392  32.648  32.729  1.00  0.00     0.074 A 
ATOM     52  C   UNL A   1      42.990  30.558  36.576  1.00  0.00     0.029 A 
ATOM     53  N   UNL A   1      41.544  30.813  34.905  1.00  0.00    -0.354 N 
ATOM     54  N   UNL A   1      39.366  32.151  33.456  1.00  0.00    -0.248 NA
ATOM     55  C   UNL A   1      37.665  33.750  33.372  1.00  0.00     0.031 C 
ATOM     56  C   UNL A   1      42.129  31.612  36.892  1.00  0.00     0.029 A 
ATOM     57  C   UNL A   1      41.243  31.788  35.841  1.00  0.00     0.049 A 
ATOM     58  H   UNL A   1      41.076  30.688  34.048  1.00  0.00     0.167 HD
ATOM     59  C   UNL A   1      39.383  32.897  34.629  1.00  0.00     0.074 A 
ATOM     60  C   UNL A   1      38.333  33.886  34.510  1.00  0.00     0.031 C 
ATOM     61  C   UNL A   1      40.196  32.772  35.708  1.00  0.00     0.037 A 
BRANCH  48  62
ATOM     62  C   UNL A   1      44.249  28.116  35.316  1.00  0.00     0.058 A 
ATOM     63  C   UNL A   1      45.605  28.430  35.126  1.00  0.00     0.135 A 
ATOM     64  C   UNL A   1      43.940  27.062  36.190  1.00  0.00     0.135 A 
ATOM     65  F   UNL A   1      45.960  29.420  34.291  1.00  0.00    -0.206 F 
ATOM     66  C   UNL A   1      46.614  27.709  35.756  1.00  0.00     0.059 A 
ATOM     67  C   UNL A   1      44.932  26.347  36.855  1.00  0.00     0.059 A 
ATOM     68  F   UNL A   1      42.660  26.718  36.409  1.00  0.00    -0.206 F 
ATOM     69  C   UNL A   1      46.266  26.669  36.620  1.00  0.00     0.060 A 
BRANCH  69  70
ATOM     70  S   UNL A   1      47.589  25.750  37.435  1.00  0.00     0.124 S 
ATOM     71  O   UNL A   1      48.761  26.542  37.071  1.00  0.00    -0.237 OA
ATOM     72  O   UNL A   1      47.194  25.813  38.839  1.00  0.00    -0.237 OA
ATOM     73  O   UNL A   1      47.512  24.428  36.823  1.00  0.00    -0.744 OA
ENDBRANCH  69  70
ENDBRANCH  48  62
BRANCH  49  74
ATOM     74  C   UNL A   1      36.801  32.931  30.688  1.00  0.00     0.058 A 
ATOM     75  C   UNL A   1      35.473  32.584  30.980  1.00  0.00     0.135 A 
ATOM     76  C   UNL A   1      37.017  33.961  29.758  1.00  0.00     0.135 A 
ATOM     77  F   UNL A   1      35.213  31.602  31.855  1.00  0.00    -0.206 F 
ATOM     78  C   UNL A   1      34.401  33.221  30.363  1.00  0.00     0.059 A 
ATOM     79  C   UNL A   1      35.961  34.632  29.150  1.00  0.00     0.059 A 
ATOM     80  F   UNL A   1      38.268  34.342  29.455  1.00  0.00    -0.206 F 
ATOM     81  C   UNL A   1      34.655  34.248  29.452  1.00  0.00     0.060 A 
BRANCH  81  82
ATOM     82  S   UNL A   1      33.256  35.100  28.695  1.00  0.00     0.124 S 
ATOM     83  O   UNL A   1      33.927  36.126  27.906  1.00  0.00    -0.237 OA
ATOM     84  O   UNL A   1      32.619  34.027  27.937  1.00  0.00    -0.237 OA
ATOM     85  O   UNL A   1      32.494  35.583  29.843  1.00  0.00    -0.744 OA
ENDBRANCH  81  82
ENDBRANCH  49  74
BRANCH  61  86
ATOM     86  C   UNL A   1      40.006  33.744  36.840  1.00  0.00     0.058 A 
ATOM     87  C   UNL A   1      40.643  34.994  36.854  1.00  0.00     0.135 A 
ATOM     88  C   UNL A   1      39.122  33.447  37.890  1.00  0.00     0.135 A 
ATOM     89  F   UNL A   1      41.505  35.325  35.880  1.00  0.00    -0.206 F 
ATOM     90  C   UNL A   1      40.420  35.912  37.875  1.00  0.00     0.059 A 
ATOM     91  C   UNL A   1      38.861  34.361  38.906  1.00  0.00     0.059 A 
ATOM     92  F   UNL A   1      38.481  32.268  37.922  1.00  0.00    -0.206 F 
ATOM     93  C   UNL A   1      39.520  35.589  38.894  1.00  0.00     0.060 A 
BRANCH  93  94
ATOM     94  S   UNL A   1      39.200  36.812  40.183  1.00  0.00     0.124 S 
ATOM     95  O   UNL A   1      38.652  37.920  39.408  1.00  0.00    -0.237 OA
ATOM     96  O   UNL A   1      38.253  36.112  41.046  1.00  0.00    -0.237 OA
ATOM     97  O   UNL A   1      40.517  37.045  40.767  1.00  0.00    -0.744 OA
ENDBRANCH  93  94
ENDBRANCH  61  86
ENDBRANCH  35  36
ENDBRANCH  27  30
ENDBRANCH  25  26
ENDBRANCH  24  25
ENDBRANCH  23  24
ENDBRANCH   1  23
TORSDOF 20
ENDMDL
