MODEL 1
REMARK VINA RESULT:     -12.4      0.000      0.000
REMARK SMILES Cc1nn(C)c(=O)c(C(=O)N2CC[C@@H](C(=O)NCCCCCCNC(=O)c3ccc(-c4c5nc(c(-c6c(F)cc(S(=O)(=O)[O-])cc6F)c6ccc([nH]6)c(-c6c(F)cc(S(=O)(=O)[O-])cc6F)c6nc(c(-c7c(F)cc(S(=O)(=O)[O-])cc7F)c7ccc4[nH]7)C=C6)C=C5)cc3)[C@@H]2C)c1C
REMARK SMILES IDX 21 1 20 2 19 3 18 4 17 5 15 6 16 7 14 9 11 10 12 11 93 12
REMARK SMILES IDX 13 13 94 14 9 15 10 16 8 17 1 18 2 19 3 20 95 21 4 22 96 23
REMARK SMILES IDX 5 24 6 25 7 26 22 27 23 28 24 29 25 30 26 32 27 33 28 34
REMARK SMILES IDX 92 35 29 36 91 37 30 38 31 39 32 40 85 41 33 42 90 43 84 44
REMARK SMILES IDX 86 45 34 46 89 47 83 48 82 49 35 51 69 52 48 53 68 54 49 55
REMARK SMILES IDX 52 56 67 57 87 58 50 59 51 60 66 62 88 63 53 64 36 65 37 66
REMARK SMILES IDX 46 67 38 68 39 69 45 70 47 71 40 72 41 73 42 74 43 75 44 76
REMARK SMILES IDX 70 77 71 78 80 79 72 80 73 81 79 82 81 83 74 84 75 85 76 86
REMARK SMILES IDX 77 87 78 88 54 89 55 90 64 91 56 92 57 93 63 94 65 95 58 96
REMARK SMILES IDX 59 97 60 98 61 99 62 100
REMARK H PARENT 17 8 24 31 86 50 52 61
REMARK Flexibility Score: inf
ROOT
ATOM      1  C   UNL A   1      39.808  22.005  26.194  1.00  0.00     0.002 C 
ENDROOT
BRANCH   1   2
ATOM      2  C   UNL A   1      38.284  22.166  26.174  1.00  0.00     0.002 C 
BRANCH   2   3
ATOM      3  C   UNL A   1      37.570  21.769  24.880  1.00  0.00     0.021 C 
BRANCH   3   4
ATOM      4  C   UNL A   1      36.316  20.907  25.027  1.00  0.00     0.116 C 
BRANCH   4   5
ATOM      5  N   UNL A   1      35.596  21.203  26.254  1.00  0.00    -0.356 N 
ATOM      6  C   UNL A   1      34.628  22.111  26.552  1.00  0.00     0.225 C 
ATOM      7  O   UNL A   1      34.226  22.120  27.721  1.00  0.00    -0.275 OA
ATOM      8  H   UNL A   1      35.859  20.638  27.016  1.00  0.00     0.163 HD
BRANCH   6   9
ATOM      9  C   UNL A   1      34.076  23.144  25.571  1.00  0.00     0.102 C 
ATOM     10  N   UNL A   1      32.511  24.845  26.186  1.00  0.00    -0.335 N 
ATOM     11  C   UNL A   1      33.634  25.525  25.562  1.00  0.00     0.121 C 
ATOM     12  C   UNL A   1      32.585  23.426  25.816  1.00  0.00     0.094 C 
ATOM     13  C   UNL A   1      34.767  24.506  25.521  1.00  0.00     0.037 C 
ATOM     14  C   UNL A   1      31.744  23.068  24.585  1.00  0.00     0.032 C 
BRANCH  10  15
ATOM     15  C   UNL A   1      31.287  25.523  26.202  1.00  0.00     0.260 C 
ATOM     16  O   UNL A   1      30.268  25.020  26.665  1.00  0.00    -0.269 OA
BRANCH  15  17
ATOM     17  C   UNL A   1      31.278  26.883  25.573  1.00  0.00     0.111 A 
ATOM     18  C   UNL A   1      32.328  30.446  26.085  1.00  0.00     0.069 C 
ATOM     19  C   UNL A   1      31.556  29.272  25.526  1.00  0.00     0.062 A 
ATOM     20  N   UNL A   1      31.035  29.433  24.357  1.00  0.00    -0.175 NA
ATOM     21  C   UNL A   1      31.524  27.997  26.289  1.00  0.00    -0.010 A 
ATOM     22  N   UNL A   1      30.509  28.329  23.747  1.00  0.00    -0.232 N 
ATOM     23  C   UNL A   1      31.640  28.079  27.772  1.00  0.00     0.047 C 
ATOM     24  C   UNL A   1      29.806  28.594  22.503  1.00  0.00     0.178 C 
ATOM     25  C   UNL A   1      30.748  27.026  24.177  1.00  0.00     0.279 A 
ATOM     26  O   UNL A   1      30.509  26.035  23.491  1.00  0.00    -0.267 OA
ENDBRANCH  15  17
ENDBRANCH  10  15
ENDBRANCH   6   9
ENDBRANCH   4   5
ENDBRANCH   3   4
ENDBRANCH   2   3
ENDBRANCH   1   2
BRANCH   1  27
ATOM     27  C   UNL A   1      40.540  22.503  27.444  1.00  0.00     0.021 C 
BRANCH  27  28
ATOM     28  C   UNL A   1      41.817  23.305  27.203  1.00  0.00     0.116 C 
BRANCH  28  29
ATOM     29  N   UNL A   1      41.730  24.230  26.091  1.00  0.00    -0.352 N 
ATOM     30  C   UNL A   1      41.460  25.580  26.074  1.00  0.00     0.251 C 
ATOM     31  H   UNL A   1      41.890  23.829  25.206  1.00  0.00     0.163 HD
ATOM     32  O   UNL A   1      41.389  26.165  25.002  1.00  0.00    -0.269 OA
BRANCH  30  33
ATOM     33  C   UNL A   1      41.204  26.319  27.334  1.00  0.00     0.039 A 
ATOM     34  C   UNL A   1      42.119  27.307  27.710  1.00  0.00     0.014 A 
ATOM     35  C   UNL A   1      40.102  26.047  28.151  1.00  0.00     0.014 A 
ATOM     36  C   UNL A   1      41.894  28.065  28.861  1.00  0.00     0.010 A 
ATOM     37  C   UNL A   1      39.845  26.847  29.269  1.00  0.00     0.010 A 
ATOM     38  C   UNL A   1      40.738  27.867  29.633  1.00  0.00    -0.014 A 
BRANCH  38  39
ATOM     39  C   UNL A   1      40.475  28.736  30.812  1.00  0.00     0.031 A 
ATOM     40  C   UNL A   1      41.318  28.620  32.052  1.00  0.00     0.074 A 
ATOM     41  C   UNL A   1      39.484  29.649  30.755  1.00  0.00     0.049 A 
ATOM     42  N   UNL A   1      41.291  29.353  33.135  1.00  0.00    -0.248 NA
ATOM     43  C   UNL A   1      42.313  27.538  32.084  1.00  0.00     0.031 C 
ATOM     44  C   UNL A   1      38.575  29.836  29.623  1.00  0.00     0.029 A 
ATOM     45  N   UNL A   1      39.088  30.606  31.658  1.00  0.00    -0.354 N 
ATOM     46  C   UNL A   1      42.274  28.836  33.969  1.00  0.00     0.074 A 
ATOM     47  C   UNL A   1      42.834  27.684  33.294  1.00  0.00     0.031 C 
ATOM     48  C   UNL A   1      37.762  30.874  29.877  1.00  0.00     0.029 A 
ATOM     49  C   UNL A   1      38.073  31.412  31.198  1.00  0.00     0.049 A 
ATOM     50  H   UNL A   1      39.493  30.704  32.550  1.00  0.00     0.167 HD
ATOM     51  C   UNL A   1      42.698  29.297  35.170  1.00  0.00     0.037 A 
ATOM     52  C   UNL A   1      37.472  32.477  31.768  1.00  0.00     0.037 A 
ATOM     53  C   UNL A   1      42.144  30.446  35.836  1.00  0.00     0.049 A 
ATOM     54  C   UNL A   1      37.930  32.946  33.122  1.00  0.00     0.074 A 
ATOM     55  C   UNL A   1      42.525  31.006  37.042  1.00  0.00     0.029 A 
ATOM     56  N   UNL A   1      41.090  31.209  35.356  1.00  0.00    -0.354 N 
ATOM     57  N   UNL A   1      38.902  32.480  33.867  1.00  0.00    -0.248 NA
ATOM     58  C   UNL A   1      37.212  34.085  33.713  1.00  0.00     0.031 C 
ATOM     59  C   UNL A   1      41.678  32.086  37.309  1.00  0.00     0.029 A 
ATOM     60  C   UNL A   1      40.794  32.223  36.251  1.00  0.00     0.049 A 
ATOM     61  H   UNL A   1      40.621  31.053  34.504  1.00  0.00     0.167 HD
ATOM     62  C   UNL A   1      38.927  33.279  35.004  1.00  0.00     0.074 A 
ATOM     63  C   UNL A   1      37.877  34.264  34.848  1.00  0.00     0.031 C 
ATOM     64  C   UNL A   1      39.749  33.201  36.079  1.00  0.00     0.037 A 
BRANCH  51  65
ATOM     65  C   UNL A   1      43.833  28.570  35.831  1.00  0.00     0.058 A 
ATOM     66  C   UNL A   1      43.597  27.513  36.726  1.00  0.00     0.135 A 
ATOM     67  C   UNL A   1      45.167  28.899  35.545  1.00  0.00     0.135 A 
ATOM     68  F   UNL A   1      42.339  27.166  37.043  1.00  0.00    -0.206 F 
ATOM     69  C   UNL A   1      44.642  26.827  37.335  1.00  0.00     0.059 A 
ATOM     70  C   UNL A   1      46.230  28.210  36.124  1.00  0.00     0.059 A 
ATOM     71  F   UNL A   1      45.449  29.900  34.695  1.00  0.00    -0.206 F 
ATOM     72  C   UNL A   1      45.956  27.186  37.029  1.00  0.00     0.060 A 
BRANCH  72  73
ATOM     73  S   UNL A   1      47.300  26.288  37.835  1.00  0.00     0.124 S 
ATOM     74  O   UNL A   1      47.941  25.641  36.694  1.00  0.00    -0.237 OA
ATOM     75  O   UNL A   1      48.060  27.363  38.463  1.00  0.00    -0.237 OA
ATOM     76  O   UNL A   1      46.607  25.392  38.755  1.00  0.00    -0.744 OA
ENDBRANCH  72  73
ENDBRANCH  51  65
BRANCH  52  77
ATOM     77  C   UNL A   1      36.406  33.204  31.028  1.00  0.00     0.058 A 
ATOM     78  C   UNL A   1      35.063  33.098  31.419  1.00  0.00     0.135 A 
ATOM     79  C   UNL A   1      36.707  34.041  29.944  1.00  0.00     0.135 A 
ATOM     80  F   UNL A   1      34.724  32.303  32.446  1.00  0.00    -0.206 F 
ATOM     81  C   UNL A   1      34.055  33.797  30.762  1.00  0.00     0.059 A 
ATOM     82  C   UNL A   1      35.720  34.765  29.282  1.00  0.00     0.059 A 
ATOM     83  F   UNL A   1      37.979  34.185  29.539  1.00  0.00    -0.206 F 
ATOM     84  C   UNL A   1      34.395  34.634  29.699  1.00  0.00     0.060 A 
BRANCH  84  85
ATOM     85  S   UNL A   1      33.087  35.589  28.898  1.00  0.00     0.124 S 
ATOM     86  O   UNL A   1      33.857  36.555  28.125  1.00  0.00    -0.237 OA
ATOM     87  O   UNL A   1      32.388  34.564  28.128  1.00  0.00    -0.237 OA
ATOM     88  O   UNL A   1      32.334  36.136  30.023  1.00  0.00    -0.744 OA
ENDBRANCH  84  85
ENDBRANCH  52  77
BRANCH  64  89
ATOM     89  C   UNL A   1      39.567  34.207  37.180  1.00  0.00     0.058 A 
ATOM     90  C   UNL A   1      38.833  33.897  38.335  1.00  0.00     0.135 A 
ATOM     91  C   UNL A   1      40.234  35.441  37.136  1.00  0.00     0.135 A 
ATOM     92  F   UNL A   1      38.169  32.733  38.421  1.00  0.00    -0.206 F 
ATOM     93  C   UNL A   1      38.777  34.772  39.414  1.00  0.00     0.059 A 
ATOM     94  C   UNL A   1      40.209  36.323  38.211  1.00  0.00     0.059 A 
ATOM     95  F   UNL A   1      40.955  35.782  36.055  1.00  0.00    -0.206 F 
ATOM     96  C   UNL A   1      39.480  35.978  39.350  1.00  0.00     0.060 A 
BRANCH  96  97
ATOM     97  S   UNL A   1      39.476  37.056  40.797  1.00  0.00     0.124 S 
ATOM     98  O   UNL A   1      38.751  38.219  40.298  1.00  0.00    -0.237 OA
ATOM     99  O   UNL A   1      38.773  36.247  41.787  1.00  0.00    -0.237 OA
ATOM    100  O   UNL A   1      40.896  37.270  41.067  1.00  0.00    -0.744 OA
ENDBRANCH  96  97
ENDBRANCH  64  89
ENDBRANCH  38  39
ENDBRANCH  30  33
ENDBRANCH  28  29
ENDBRANCH  27  28
ENDBRANCH   1  27
TORSDOF 18
ENDMDL
MODEL 2
REMARK VINA RESULT:     -11.9      6.445     12.175
REMARK SMILES Cc1nn(C)c(=O)c(C(=O)N2CC[C@@H](C(=O)NCCCCCCNC(=O)c3ccc(-c4c5nc(c(-c6c(F)cc(S(=O)(=O)[O-])cc6F)c6ccc([nH]6)c(-c6c(F)cc(S(=O)(=O)[O-])cc6F)c6nc(c(-c7c(F)cc(S(=O)(=O)[O-])cc7F)c7ccc4[nH]7)C=C6)C=C5)cc3)[C@@H]2C)c1C
REMARK SMILES IDX 21 1 20 2 19 3 18 4 17 5 15 6 16 7 14 9 11 10 12 11 93 12
REMARK SMILES IDX 13 13 94 14 9 15 10 16 8 17 1 18 2 19 3 20 95 21 4 22 96 23
REMARK SMILES IDX 5 24 6 25 7 26 22 27 23 28 24 29 25 30 26 32 27 33 28 34
REMARK SMILES IDX 92 35 29 36 91 37 30 38 31 39 32 40 85 41 33 42 90 43 84 44
REMARK SMILES IDX 86 45 34 46 89 47 83 48 82 49 35 51 69 52 48 53 68 54 49 55
REMARK SMILES IDX 52 56 67 57 87 58 50 59 51 60 66 62 88 63 53 64 36 65 37 66
REMARK SMILES IDX 46 67 38 68 39 69 45 70 47 71 40 72 41 73 42 74 43 75 44 76
REMARK SMILES IDX 70 77 71 78 80 79 72 80 73 81 79 82 81 83 74 84 75 85 76 86
REMARK SMILES IDX 77 87 78 88 54 89 55 90 64 91 56 92 57 93 63 94 65 95 58 96
REMARK SMILES IDX 59 97 60 98 61 99 62 100
REMARK H PARENT 17 8 24 31 86 50 52 61
REMARK Flexibility Score: inf
ROOT
ATOM      1  C   UNL A   1      35.266  30.021  27.230  1.00  0.00     0.002 C 
ENDROOT
BRANCH   1   2
ATOM      2  C   UNL A   1      34.256  29.069  26.579  1.00  0.00     0.002 C 
BRANCH   2   3
ATOM      3  C   UNL A   1      33.223  28.425  27.508  1.00  0.00     0.021 C 
BRANCH   3   4
ATOM      4  C   UNL A   1      31.768  28.455  27.039  1.00  0.00     0.116 C 
BRANCH   4   5
ATOM      5  N   UNL A   1      31.154  27.139  27.097  1.00  0.00    -0.356 N 
ATOM      6  C   UNL A   1      31.051  26.135  26.185  1.00  0.00     0.225 C 
ATOM      7  O   UNL A   1      30.437  25.125  26.548  1.00  0.00    -0.275 OA
ATOM      8  H   UNL A   1      30.731  26.935  27.962  1.00  0.00     0.163 HD
BRANCH   6   9
ATOM      9  C   UNL A   1      31.571  26.210  24.751  1.00  0.00     0.102 C 
ATOM     10  N   UNL A   1      32.404  24.318  23.546  1.00  0.00    -0.335 N 
ATOM     11  C   UNL A   1      31.366  24.910  22.717  1.00  0.00     0.121 C 
ATOM     12  C   UNL A   1      32.806  25.320  24.542  1.00  0.00     0.094 C 
ATOM     13  C   UNL A   1      30.594  25.858  23.629  1.00  0.00     0.037 C 
ATOM     14  C   UNL A   1      34.023  26.151  24.118  1.00  0.00     0.032 C 
BRANCH  10  15
ATOM     15  C   UNL A   1      33.354  23.521  22.901  1.00  0.00     0.260 C 
ATOM     16  O   UNL A   1      33.618  23.654  21.709  1.00  0.00    -0.269 OA
BRANCH  15  17
ATOM     17  C   UNL A   1      33.999  22.456  23.735  1.00  0.00     0.111 A 
ATOM     18  C   UNL A   1      37.135  21.569  25.589  1.00  0.00     0.069 C 
ATOM     19  C   UNL A   1      35.825  21.367  24.862  1.00  0.00     0.062 A 
ATOM     20  N   UNL A   1      35.169  20.294  25.148  1.00  0.00    -0.175 NA
ATOM     21  C   UNL A   1      35.328  22.436  23.956  1.00  0.00    -0.010 A 
ATOM     22  N   UNL A   1      33.897  20.187  24.661  1.00  0.00    -0.232 N 
ATOM     23  C   UNL A   1      36.342  23.297  23.285  1.00  0.00     0.047 C 
ATOM     24  C   UNL A   1      33.261  18.901  24.889  1.00  0.00     0.178 C 
ATOM     25  C   UNL A   1      33.185  21.260  24.129  1.00  0.00     0.279 A 
ATOM     26  O   UNL A   1      31.970  21.237  23.943  1.00  0.00    -0.267 OA
ENDBRANCH  15  17
ENDBRANCH  10  15
ENDBRANCH   6   9
ENDBRANCH   4   5
ENDBRANCH   3   4
ENDBRANCH   2   3
ENDBRANCH   1   2
BRANCH   1  27
ATOM     27  C   UNL A   1      34.733  30.949  28.326  1.00  0.00     0.021 C 
BRANCH  27  28
ATOM     28  C   UNL A   1      35.772  31.528  29.283  1.00  0.00     0.116 C 
BRANCH  28  29
ATOM     29  N   UNL A   1      35.791  30.894  30.586  1.00  0.00    -0.352 N 
ATOM     30  C   UNL A   1      36.779  30.166  31.208  1.00  0.00     0.251 C 
ATOM     31  H   UNL A   1      34.964  31.002  31.110  1.00  0.00     0.163 HD
ATOM     32  O   UNL A   1      36.562  29.675  32.308  1.00  0.00    -0.269 OA
BRANCH  30  33
ATOM     33  C   UNL A   1      38.082  29.927  30.539  1.00  0.00     0.039 A 
ATOM     34  C   UNL A   1      39.193  29.672  31.348  1.00  0.00     0.014 A 
ATOM     35  C   UNL A   1      38.229  29.968  29.149  1.00  0.00     0.014 A 
ATOM     36  C   UNL A   1      40.430  29.390  30.763  1.00  0.00     0.010 A 
ATOM     37  C   UNL A   1      39.451  29.626  28.565  1.00  0.00     0.010 A 
ATOM     38  C   UNL A   1      40.564  29.330  29.366  1.00  0.00    -0.014 A 
BRANCH  38  39
ATOM     39  C   UNL A   1      41.871  28.952  28.762  1.00  0.00     0.031 A 
ATOM     40  C   UNL A   1      42.994  29.950  28.680  1.00  0.00     0.074 A 
ATOM     41  C   UNL A   1      42.052  27.696  28.305  1.00  0.00     0.049 A 
ATOM     42  N   UNL A   1      44.223  29.770  28.270  1.00  0.00    -0.248 NA
ATOM     43  C   UNL A   1      42.696  31.326  29.102  1.00  0.00     0.031 C 
ATOM     44  C   UNL A   1      41.030  26.647  28.297  1.00  0.00     0.029 A 
ATOM     45  N   UNL A   1      43.161  27.081  27.780  1.00  0.00    -0.354 N 
ATOM     46  C   UNL A   1      44.852  31.002  28.403  1.00  0.00     0.074 A 
ATOM     47  C   UNL A   1      43.849  31.937  28.868  1.00  0.00     0.031 C 
ATOM     48  C   UNL A   1      41.572  25.508  27.840  1.00  0.00     0.029 A 
ATOM     49  C   UNL A   1      42.972  25.747  27.498  1.00  0.00     0.049 A 
ATOM     50  H   UNL A   1      44.012  27.550  27.620  1.00  0.00     0.167 HD
ATOM     51  C   UNL A   1      46.152  31.319  28.192  1.00  0.00     0.037 A 
ATOM     52  C   UNL A   1      43.832  24.818  27.035  1.00  0.00     0.037 A 
ATOM     53  C   UNL A   1      47.148  30.386  27.737  1.00  0.00     0.049 A 
ATOM     54  C   UNL A   1      45.261  25.202  26.767  1.00  0.00     0.074 A 
ATOM     55  C   UNL A   1      48.496  30.607  27.521  1.00  0.00     0.029 A 
ATOM     56  N   UNL A   1      46.904  29.057  27.424  1.00  0.00    -0.354 N 
ATOM     57  N   UNL A   1      45.850  26.358  26.957  1.00  0.00    -0.248 NA
ATOM     58  C   UNL A   1      46.144  24.159  26.224  1.00  0.00     0.031 C 
ATOM     59  C   UNL A   1      49.062  29.421  27.042  1.00  0.00     0.029 A 
ATOM     60  C   UNL A   1      48.074  28.451  26.996  1.00  0.00     0.049 A 
ATOM     61  H   UNL A   1      46.030  28.610  27.495  1.00  0.00     0.167 HD
ATOM     62  C   UNL A   1      47.175  26.177  26.577  1.00  0.00     0.074 A 
ATOM     63  C   UNL A   1      47.305  24.799  26.152  1.00  0.00     0.031 C 
ATOM     64  C   UNL A   1      48.190  27.074  26.582  1.00  0.00     0.037 A 
BRANCH  51  65
ATOM     65  C   UNL A   1      46.576  32.731  28.477  1.00  0.00     0.058 A 
ATOM     66  C   UNL A   1      46.534  33.718  27.478  1.00  0.00     0.135 A 
ATOM     67  C   UNL A   1      46.992  33.116  29.761  1.00  0.00     0.135 A 
ATOM     68  F   UNL A   1      46.155  33.400  26.230  1.00  0.00    -0.206 F 
ATOM     69  C   UNL A   1      46.915  35.030  27.735  1.00  0.00     0.059 A 
ATOM     70  C   UNL A   1      47.355  34.430  30.047  1.00  0.00     0.059 A 
ATOM     71  F   UNL A   1      47.049  32.212  30.753  1.00  0.00    -0.206 F 
ATOM     72  C   UNL A   1      47.327  35.376  29.024  1.00  0.00     0.060 A 
BRANCH  72  73
ATOM     73  S   UNL A   1      47.824  37.083  29.336  1.00  0.00     0.124 S 
ATOM     74  O   UNL A   1      47.968  37.597  27.977  1.00  0.00    -0.237 OA
ATOM     75  O   UNL A   1      46.691  37.605  30.094  1.00  0.00    -0.237 OA
ATOM     76  O   UNL A   1      49.067  36.943  30.088  1.00  0.00    -0.744 OA
ENDBRANCH  72  73
ENDBRANCH  51  65
BRANCH  52  77
ATOM     77  C   UNL A   1      43.370  23.416  26.847  1.00  0.00     0.058 A 
ATOM     78  C   UNL A   1      43.151  22.899  25.562  1.00  0.00     0.135 A 
ATOM     79  C   UNL A   1      43.174  22.557  27.940  1.00  0.00     0.135 A 
ATOM     80  F   UNL A   1      43.318  23.684  24.487  1.00  0.00    -0.206 F 
ATOM     81  C   UNL A   1      42.752  21.581  25.364  1.00  0.00     0.059 A 
ATOM     82  C   UNL A   1      42.794  21.230  27.767  1.00  0.00     0.059 A 
ATOM     83  F   UNL A   1      43.383  23.001  29.189  1.00  0.00    -0.206 F 
ATOM     84  C   UNL A   1      42.583  20.752  26.474  1.00  0.00     0.060 A 
BRANCH  84  85
ATOM     85  S   UNL A   1      42.133  19.023  26.200  1.00  0.00     0.124 S 
ATOM     86  O   UNL A   1      43.022  18.656  25.105  1.00  0.00    -0.237 OA
ATOM     87  O   UNL A   1      42.433  18.421  27.497  1.00  0.00    -0.237 OA
ATOM     88  O   UNL A   1      40.714  19.095  25.866  1.00  0.00    -0.744 OA
ENDBRANCH  84  85
ENDBRANCH  52  77
BRANCH  64  89
ATOM     89  C   UNL A   1      49.544  26.611  26.125  1.00  0.00     0.058 A 
ATOM     90  C   UNL A   1      49.989  26.843  24.815  1.00  0.00     0.135 A 
ATOM     91  C   UNL A   1      50.449  26.044  27.037  1.00  0.00     0.135 A 
ATOM     92  F   UNL A   1      49.157  27.373  23.903  1.00  0.00    -0.206 F 
ATOM     93  C   UNL A   1      51.289  26.540  24.427  1.00  0.00     0.059 A 
ATOM     94  C   UNL A   1      51.760  25.752  26.676  1.00  0.00     0.059 A 
ATOM     95  F   UNL A   1      50.073  25.809  28.304  1.00  0.00    -0.206 F 
ATOM     96  C   UNL A   1      52.173  26.007  25.368  1.00  0.00     0.060 A 
BRANCH  96  97
ATOM     97  S   UNL A   1      53.884  25.712  24.874  1.00  0.00     0.124 S 
ATOM     98  O   UNL A   1      54.618  26.450  25.895  1.00  0.00    -0.237 OA
ATOM     99  O   UNL A   1      53.983  24.259  24.947  1.00  0.00    -0.237 OA
ATOM    100  O   UNL A   1      53.950  26.272  23.526  1.00  0.00    -0.744 OA
ENDBRANCH  96  97
ENDBRANCH  64  89
ENDBRANCH  38  39
ENDBRANCH  30  33
ENDBRANCH  28  29
ENDBRANCH  27  28
ENDBRANCH   1  27
TORSDOF 18
ENDMDL
MODEL 3
REMARK VINA RESULT:     -11.9      6.483     11.767
REMARK SMILES Cc1nn(C)c(=O)c(C(=O)N2CC[C@@H](C(=O)NCCCCCCNC(=O)c3ccc(-c4c5nc(c(-c6c(F)cc(S(=O)(=O)[O-])cc6F)c6ccc([nH]6)c(-c6c(F)cc(S(=O)(=O)[O-])cc6F)c6nc(c(-c7c(F)cc(S(=O)(=O)[O-])cc7F)c7ccc4[nH]7)C=C6)C=C5)cc3)[C@@H]2C)c1C
REMARK SMILES IDX 21 1 20 2 19 3 18 4 17 5 15 6 16 7 14 9 11 10 12 11 93 12
REMARK SMILES IDX 13 13 94 14 9 15 10 16 8 17 1 18 2 19 3 20 95 21 4 22 96 23
REMARK SMILES IDX 5 24 6 25 7 26 22 27 23 28 24 29 25 30 26 32 27 33 28 34
REMARK SMILES IDX 92 35 29 36 91 37 30 38 31 39 32 40 85 41 33 42 90 43 84 44
REMARK SMILES IDX 86 45 34 46 89 47 83 48 82 49 35 51 69 52 48 53 68 54 49 55
REMARK SMILES IDX 52 56 67 57 87 58 50 59 51 60 66 62 88 63 53 64 36 65 37 66
REMARK SMILES IDX 46 67 38 68 39 69 45 70 47 71 40 72 41 73 42 74 43 75 44 76
REMARK SMILES IDX 70 77 71 78 80 79 72 80 73 81 79 82 81 83 74 84 75 85 76 86
REMARK SMILES IDX 77 87 78 88 54 89 55 90 64 91 56 92 57 93 63 94 65 95 58 96
REMARK SMILES IDX 59 97 60 98 61 99 62 100
REMARK H PARENT 17 8 24 31 86 50 52 61
REMARK Flexibility Score: inf
ROOT
ATOM      1  C   UNL A   1      34.360  30.870  27.765  1.00  0.00     0.002 C 
ENDROOT
BRANCH   1   2
ATOM      2  C   UNL A   1      34.768  29.441  27.392  1.00  0.00     0.002 C 
BRANCH   2   3
ATOM      3  C   UNL A   1      33.808  28.668  26.484  1.00  0.00     0.021 C 
BRANCH   3   4
ATOM      4  C   UNL A   1      32.326  28.712  26.859  1.00  0.00     0.116 C 
BRANCH   4   5
ATOM      5  N   UNL A   1      31.806  27.390  27.166  1.00  0.00    -0.356 N 
ATOM      6  C   UNL A   1      31.512  26.317  26.384  1.00  0.00     0.225 C 
ATOM      7  O   UNL A   1      31.058  25.323  26.965  1.00  0.00    -0.275 OA
ATOM      8  H   UNL A   1      31.634  27.242  28.125  1.00  0.00     0.163 HD
BRANCH   6   9
ATOM      9  C   UNL A   1      31.633  26.293  24.862  1.00  0.00     0.102 C 
ATOM     10  N   UNL A   1      32.376  24.386  23.624  1.00  0.00    -0.335 N 
ATOM     11  C   UNL A   1      31.091  24.768  23.060  1.00  0.00     0.121 C 
ATOM     12  C   UNL A   1      32.882  25.528  24.399  1.00  0.00     0.094 C 
ATOM     13  C   UNL A   1      30.459  25.717  24.072  1.00  0.00     0.037 C 
ATOM     14  C   UNL A   1      33.827  26.437  23.605  1.00  0.00     0.032 C 
BRANCH  10  15
ATOM     15  C   UNL A   1      33.229  23.633  22.810  1.00  0.00     0.260 C 
ATOM     16  O   UNL A   1      33.327  23.836  21.604  1.00  0.00    -0.269 OA
BRANCH  15  17
ATOM     17  C   UNL A   1      33.983  22.528  23.487  1.00  0.00     0.111 A 
ATOM     18  C   UNL A   1      33.613  19.121  25.007  1.00  0.00     0.069 C 
ATOM     19  C   UNL A   1      34.215  20.479  24.725  1.00  0.00     0.062 A 
ATOM     20  N   UNL A   1      35.485  20.594  24.913  1.00  0.00    -0.175 NA
ATOM     21  C   UNL A   1      33.351  21.552  24.166  1.00  0.00    -0.010 A 
ATOM     22  N   UNL A   1      36.084  21.742  24.477  1.00  0.00    -0.232 N 
ATOM     23  C   UNL A   1      31.901  21.518  24.510  1.00  0.00     0.047 C 
ATOM     24  C   UNL A   1      37.483  21.881  24.846  1.00  0.00     0.178 C 
ATOM     25  C   UNL A   1      35.472  22.647  23.612  1.00  0.00     0.279 A 
ATOM     26  O   UNL A   1      36.087  23.524  23.010  1.00  0.00    -0.267 OA
ENDBRANCH  15  17
ENDBRANCH  10  15
ENDBRANCH   6   9
ENDBRANCH   4   5
ENDBRANCH   3   4
ENDBRANCH   2   3
ENDBRANCH   1   2
BRANCH   1  27
ATOM     27  C   UNL A   1      35.469  31.927  27.770  1.00  0.00     0.021 C 
BRANCH  27  28
ATOM     28  C   UNL A   1      36.020  32.319  29.140  1.00  0.00     0.116 C 
BRANCH  28  29
ATOM     29  N   UNL A   1      35.730  31.360  30.187  1.00  0.00    -0.352 N 
ATOM     30  C   UNL A   1      36.508  30.353  30.712  1.00  0.00     0.251 C 
ATOM     31  H   UNL A   1      34.835  31.443  30.588  1.00  0.00     0.163 HD
ATOM     32  O   UNL A   1      36.040  29.620  31.573  1.00  0.00    -0.269 OA
BRANCH  30  33
ATOM     33  C   UNL A   1      37.883  30.114  30.209  1.00  0.00     0.039 A 
ATOM     34  C   UNL A   1      38.935  30.182  31.127  1.00  0.00     0.014 A 
ATOM     35  C   UNL A   1      38.151  29.844  28.863  1.00  0.00     0.014 A 
ATOM     36  C   UNL A   1      40.241  29.914  30.711  1.00  0.00     0.010 A 
ATOM     37  C   UNL A   1      39.450  29.516  28.461  1.00  0.00     0.010 A 
ATOM     38  C   UNL A   1      40.507  29.545  29.382  1.00  0.00    -0.014 A 
BRANCH  38  39
ATOM     39  C   UNL A   1      41.893  29.187  28.976  1.00  0.00     0.031 A 
ATOM     40  C   UNL A   1      42.225  27.787  28.536  1.00  0.00     0.074 A 
ATOM     41  C   UNL A   1      42.853  30.135  28.982  1.00  0.00     0.049 A 
ATOM     42  N   UNL A   1      43.352  27.320  28.064  1.00  0.00    -0.248 NA
ATOM     43  C   UNL A   1      41.159  26.781  28.649  1.00  0.00     0.031 C 
ATOM     44  C   UNL A   1      42.665  31.520  29.419  1.00  0.00     0.029 A 
ATOM     45  N   UNL A   1      44.168  30.087  28.591  1.00  0.00    -0.354 N 
ATOM     46  C   UNL A   1      43.127  25.974  27.805  1.00  0.00     0.074 A 
ATOM     47  C   UNL A   1      41.776  25.683  28.236  1.00  0.00     0.031 C 
ATOM     48  C   UNL A   1      43.805  32.201  29.226  1.00  0.00     0.029 A 
ATOM     49  C   UNL A   1      44.814  31.299  28.675  1.00  0.00     0.049 A 
ATOM     50  H   UNL A   1      44.607  29.263  28.280  1.00  0.00     0.167 HD
ATOM     51  C   UNL A   1      43.955  25.070  27.229  1.00  0.00     0.037 A 
ATOM     52  C   UNL A   1      46.069  31.650  28.331  1.00  0.00     0.037 A 
ATOM     53  C   UNL A   1      45.295  25.362  26.795  1.00  0.00     0.049 A 
ATOM     54  C   UNL A   1      46.986  30.620  27.732  1.00  0.00     0.074 A 
ATOM     55  C   UNL A   1      46.201  24.519  26.176  1.00  0.00     0.029 A 
ATOM     56  N   UNL A   1      45.924  26.590  26.938  1.00  0.00    -0.354 N 
ATOM     57  N   UNL A   1      46.734  29.366  27.440  1.00  0.00    -0.248 NA
ATOM     58  C   UNL A   1      48.357  31.047  27.415  1.00  0.00     0.031 C 
ATOM     59  C   UNL A   1      47.390  25.227  25.976  1.00  0.00     0.029 A 
ATOM     60  C   UNL A   1      47.213  26.522  26.436  1.00  0.00     0.049 A 
ATOM     61  H   UNL A   1      45.515  27.392  27.336  1.00  0.00     0.167 HD
ATOM     62  C   UNL A   1      47.905  28.862  26.887  1.00  0.00     0.074 A 
ATOM     63  C   UNL A   1      48.866  29.945  26.877  1.00  0.00     0.031 C 
ATOM     64  C   UNL A   1      48.157  27.612  26.427  1.00  0.00     0.037 A 
BRANCH  51  65
ATOM     65  C   UNL A   1      43.424  23.682  27.013  1.00  0.00     0.058 A 
ATOM     66  C   UNL A   1      43.067  23.232  25.731  1.00  0.00     0.135 A 
ATOM     67  C   UNL A   1      43.303  22.779  28.081  1.00  0.00     0.135 A 
ATOM     68  F   UNL A   1      43.151  24.059  24.677  1.00  0.00    -0.206 F 
ATOM     69  C   UNL A   1      42.583  21.946  25.519  1.00  0.00     0.059 A 
ATOM     70  C   UNL A   1      42.844  21.479  27.889  1.00  0.00     0.059 A 
ATOM     71  F   UNL A   1      43.632  23.158  29.327  1.00  0.00    -0.206 F 
ATOM     72  C   UNL A   1      42.473  21.076  26.607  1.00  0.00     0.060 A 
BRANCH  72  73
ATOM     73  S   UNL A   1      41.836  19.412  26.313  1.00  0.00     0.124 S 
ATOM     74  O   UNL A   1      42.466  19.082  25.039  1.00  0.00    -0.237 OA
ATOM     75  O   UNL A   1      42.333  18.680  27.474  1.00  0.00    -0.237 OA
ATOM     76  O   UNL A   1      40.390  19.604  26.267  1.00  0.00    -0.744 OA
ENDBRANCH  72  73
ENDBRANCH  51  65
BRANCH  52  77
ATOM     77  C   UNL A   1      46.511  33.061  28.497  1.00  0.00     0.058 A 
ATOM     78  C   UNL A   1      47.188  33.468  29.656  1.00  0.00     0.135 A 
ATOM     79  C   UNL A   1      46.299  34.018  27.493  1.00  0.00     0.135 A 
ATOM     80  F   UNL A   1      47.408  32.591  30.648  1.00  0.00    -0.206 F 
ATOM     81  C   UNL A   1      47.640  34.774  29.816  1.00  0.00     0.059 A 
ATOM     82  C   UNL A   1      46.758  35.326  27.621  1.00  0.00     0.059 A 
ATOM     83  F   UNL A   1      45.667  33.674  26.360  1.00  0.00    -0.206 F 
ATOM     84  C   UNL A   1      47.426  35.694  28.788  1.00  0.00     0.060 A 
BRANCH  84  85
ATOM     85  S   UNL A   1      48.079  37.368  28.978  1.00  0.00     0.124 S 
ATOM     86  O   UNL A   1      47.325  38.096  27.964  1.00  0.00    -0.237 OA
ATOM     87  O   UNL A   1      47.741  37.672  30.366  1.00  0.00    -0.237 OA
ATOM     88  O   UNL A   1      49.505  37.206  28.711  1.00  0.00    -0.744 OA
ENDBRANCH  84  85
ENDBRANCH  52  77
BRANCH  64  89
ATOM     89  C   UNL A   1      49.520  27.330  25.862  1.00  0.00     0.058 A 
ATOM     90  C   UNL A   1      50.572  26.892  26.682  1.00  0.00     0.135 A 
ATOM     91  C   UNL A   1      49.742  27.376  24.477  1.00  0.00     0.135 A 
ATOM     92  F   UNL A   1      50.413  26.841  28.014  1.00  0.00    -0.206 F 
ATOM     93  C   UNL A   1      51.793  26.499  26.146  1.00  0.00     0.059 A 
ATOM     94  C   UNL A   1      50.948  26.968  23.917  1.00  0.00     0.059 A 
ATOM     95  F   UNL A   1      48.765  27.782  23.649  1.00  0.00    -0.206 F 
ATOM     96  C   UNL A   1      51.967  26.526  24.760  1.00  0.00     0.060 A 
BRANCH  96  97
ATOM     97  S   UNL A   1      53.524  25.919  24.075  1.00  0.00     0.124 S 
ATOM     98  O   UNL A   1      53.576  24.566  24.616  1.00  0.00    -0.237 OA
ATOM     99  O   UNL A   1      53.293  26.020  22.639  1.00  0.00    -0.237 OA
ATOM    100  O   UNL A   1      54.517  26.847  24.611  1.00  0.00    -0.744 OA
ENDBRANCH  96  97
ENDBRANCH  64  89
ENDBRANCH  38  39
ENDBRANCH  30  33
ENDBRANCH  28  29
ENDBRANCH  27  28
ENDBRANCH   1  27
TORSDOF 18
ENDMDL
