MODEL 1
REMARK VINA RESULT:     -10.9      0.000      0.000
REMARK SMILES CC(C)(C)NC(=O)c1ccccc1C(=O)NCCCCCCNC(=O)c1ccc(-c2c3nc(c(-c4c(F)cc(S(=O)(=O)[O-])cc4F)c4ccc([nH]4)c(-c4c(F)cc(S(=O)(=O)[O-])cc4F)c4nc(c(-c5c(F)cc(S(=O)(=O)[O-])cc5F)c5ccc2[nH]5)C=C4)C=C3)cc1
REMARK SMILES IDX 20 1 19 2 18 3 17 4 16 5 14 6 15 7 13 9 8 10 9 11 10 12
REMARK SMILES IDX 12 13 11 14 6 15 5 16 7 18 2 19 1 20 3 21 4 22 21 23 22 24
REMARK SMILES IDX 23 25 24 26 25 28 26 29 27 30 91 31 28 32 90 33 29 34 30 35
REMARK SMILES IDX 31 36 84 37 32 38 89 39 83 40 85 41 33 42 88 43 82 44 81 45
REMARK SMILES IDX 34 47 68 48 47 49 67 50 48 51 51 52 66 53 86 54 49 55 50 56
REMARK SMILES IDX 65 58 87 59 52 60 35 61 36 62 45 63 37 64 38 65 44 66 46 67
REMARK SMILES IDX 39 68 40 69 41 70 42 71 43 72 69 73 70 74 79 75 71 76 72 77
REMARK SMILES IDX 78 78 80 79 73 80 74 81 75 82 76 83 77 84 53 85 54 86 63 87
REMARK SMILES IDX 55 88 56 89 62 90 64 91 57 92 58 93 59 94 60 95 61 96
REMARK H PARENT 16 8 5 17 23 27 85 46 51 57
REMARK Flexibility Score: inf
ROOT
ATOM      1  C   UNL A   1      33.983  26.729  25.360  1.00  0.00     0.002 C 
ENDROOT
BRANCH   1   2
ATOM      2  C   UNL A   1      33.330  25.684  26.273  1.00  0.00     0.002 C 
BRANCH   2   3
ATOM      3  C   UNL A   1      31.905  25.228  25.923  1.00  0.00     0.021 C 
BRANCH   3   4
ATOM      4  C   UNL A   1      30.791  26.188  26.328  1.00  0.00     0.116 C 
BRANCH   4   5
ATOM      5  N   UNL A   1      29.712  26.253  25.365  1.00  0.00    -0.352 N 
ATOM      6  C   UNL A   1      29.690  26.703  24.073  1.00  0.00     0.252 C 
ATOM      7  O   UNL A   1      28.609  26.690  23.477  1.00  0.00    -0.269 OA
ATOM      8  H   UNL A   1      28.848  25.916  25.695  1.00  0.00     0.163 HD
BRANCH   6   9
ATOM      9  C   UNL A   1      30.862  27.262  23.361  1.00  0.00     0.052 A 
ATOM     10  C   UNL A   1      31.387  28.551  23.490  1.00  0.00     0.052 A 
ATOM     11  C   UNL A   1      32.519  28.929  22.741  1.00  0.00     0.014 A 
ATOM     12  C   UNL A   1      33.181  28.009  21.932  1.00  0.00     0.001 A 
ATOM     13  C   UNL A   1      31.566  26.335  22.562  1.00  0.00     0.014 A 
ATOM     14  C   UNL A   1      32.716  26.703  21.858  1.00  0.00     0.001 A 
BRANCH  10  15
ATOM     15  C   UNL A   1      30.813  29.623  24.303  1.00  0.00     0.252 C 
ATOM     16  N   UNL A   1      29.775  30.414  23.907  1.00  0.00    -0.347 N 
ATOM     17  H   UNL A   1      29.570  31.106  24.576  1.00  0.00     0.164 HD
ATOM     18  O   UNL A   1      31.273  29.773  25.436  1.00  0.00    -0.269 OA
BRANCH  16  19
ATOM     19  C   UNL A   1      28.878  30.502  22.738  1.00  0.00     0.032 C 
ATOM     20  C   UNL A   1      27.635  29.610  22.822  1.00  0.00     0.034 C 
ATOM     21  C   UNL A   1      29.658  30.214  21.448  1.00  0.00     0.034 C 
ATOM     22  C   UNL A   1      28.398  31.967  22.670  1.00  0.00     0.034 C 
ENDBRANCH  16  19
ENDBRANCH  10  15
ENDBRANCH   6   9
ENDBRANCH   4   5
ENDBRANCH   3   4
ENDBRANCH   2   3
ENDBRANCH   1   2
BRANCH   1  23
ATOM     23  C   UNL A   1      34.077  28.160  25.889  1.00  0.00     0.021 C 
BRANCH  23  24
ATOM     24  C   UNL A   1      33.568  28.389  27.306  1.00  0.00     0.116 C 
BRANCH  24  25
ATOM     25  N   UNL A   1      33.507  29.788  27.694  1.00  0.00    -0.352 N 
ATOM     26  C   UNL A   1      34.516  30.577  28.201  1.00  0.00     0.251 C 
ATOM     27  H   UNL A   1      32.634  30.228  27.581  1.00  0.00     0.163 HD
ATOM     28  O   UNL A   1      34.289  31.734  28.537  1.00  0.00    -0.269 OA
BRANCH  26  29
ATOM     29  C   UNL A   1      35.868  29.997  28.382  1.00  0.00     0.039 A 
ATOM     30  C   UNL A   1      36.771  30.046  27.316  1.00  0.00     0.014 A 
ATOM     31  C   UNL A   1      36.257  29.456  29.610  1.00  0.00     0.014 A 
ATOM     32  C   UNL A   1      38.092  29.632  27.507  1.00  0.00     0.010 A 
ATOM     33  C   UNL A   1      37.588  29.103  29.816  1.00  0.00     0.010 A 
ATOM     34  C   UNL A   1      38.522  29.200  28.772  1.00  0.00    -0.014 A 
BRANCH  34  35
ATOM     35  C   UNL A   1      39.938  28.847  29.047  1.00  0.00     0.031 A 
ATOM     36  C   UNL A   1      40.883  29.903  29.549  1.00  0.00     0.074 A 
ATOM     37  C   UNL A   1      40.399  27.617  28.742  1.00  0.00     0.049 A 
ATOM     38  N   UNL A   1      42.184  29.861  29.668  1.00  0.00    -0.248 NA
ATOM     39  C   UNL A   1      40.283  31.188  29.944  1.00  0.00     0.031 C 
ATOM     40  C   UNL A   1      39.589  26.513  28.222  1.00  0.00     0.029 A 
ATOM     41  N   UNL A   1      41.668  27.097  28.797  1.00  0.00    -0.354 N 
ATOM     42  C   UNL A   1      42.564  31.120  30.118  1.00  0.00     0.074 A 
ATOM     43  C   UNL A   1      41.356  31.912  30.223  1.00  0.00     0.031 C 
ATOM     44  C   UNL A   1      40.379  25.448  28.012  1.00  0.00     0.029 A 
ATOM     45  C   UNL A   1      41.757  25.805  28.335  1.00  0.00     0.049 A 
ATOM     46  H   UNL A   1      42.442  27.602  29.138  1.00  0.00     0.167 HD
ATOM     47  C   UNL A   1      43.802  31.571  30.427  1.00  0.00     0.037 A 
ATOM     48  C   UNL A   1      42.830  25.006  28.166  1.00  0.00     0.037 A 
ATOM     49  C   UNL A   1      44.993  30.766  30.352  1.00  0.00     0.049 A 
ATOM     50  C   UNL A   1      44.197  25.527  28.519  1.00  0.00     0.074 A 
ATOM     51  C   UNL A   1      46.290  31.117  30.685  1.00  0.00     0.029 A 
ATOM     52  N   UNL A   1      45.033  29.448  29.922  1.00  0.00    -0.354 N 
ATOM     53  N   UNL A   1      44.536  26.711  28.968  1.00  0.00    -0.248 NA
ATOM     54  C   UNL A   1      45.329  24.606  28.339  1.00  0.00     0.031 C 
ATOM     55  C   UNL A   1      47.118  30.018  30.431  1.00  0.00     0.029 A 
ATOM     56  C   UNL A   1      46.331  28.972  29.975  1.00  0.00     0.049 A 
ATOM     57  H   UNL A   1      44.252  28.928  29.624  1.00  0.00     0.167 HD
ATOM     58  C   UNL A   1      45.912  26.667  29.157  1.00  0.00     0.074 A 
ATOM     59  C   UNL A   1      46.346  25.341  28.771  1.00  0.00     0.031 C 
ATOM     60  C   UNL A   1      46.741  27.638  29.613  1.00  0.00     0.037 A 
BRANCH  47  61
ATOM     61  C   UNL A   1      43.930  33.000  30.871  1.00  0.00     0.058 A 
ATOM     62  C   UNL A   1      44.164  34.036  29.954  1.00  0.00     0.135 A 
ATOM     63  C   UNL A   1      43.795  33.341  32.226  1.00  0.00     0.135 A 
ATOM     64  F   UNL A   1      44.316  33.762  28.648  1.00  0.00    -0.206 F 
ATOM     65  C   UNL A   1      44.297  35.357  30.369  1.00  0.00     0.059 A 
ATOM     66  C   UNL A   1      43.898  34.660  32.660  1.00  0.00     0.059 A 
ATOM     67  F   UNL A   1      43.568  32.389  33.144  1.00  0.00    -0.206 F 
ATOM     68  C   UNL A   1      44.166  35.658  31.725  1.00  0.00     0.060 A 
BRANCH  68  69
ATOM     69  S   UNL A   1      44.350  37.376  32.251  1.00  0.00     0.124 S 
ATOM     70  O   UNL A   1      45.785  37.448  32.510  1.00  0.00    -0.237 OA
ATOM     71  O   UNL A   1      43.879  38.114  31.084  1.00  0.00    -0.237 OA
ATOM     72  O   UNL A   1      43.494  37.462  33.431  1.00  0.00    -0.744 OA
ENDBRANCH  68  69
ENDBRANCH  47  61
BRANCH  48  73
ATOM     73  C   UNL A   1      42.652  23.623  27.649  1.00  0.00     0.058 A 
ATOM     74  C   UNL A   1      42.592  23.377  26.270  1.00  0.00     0.135 A 
ATOM     75  C   UNL A   1      42.554  22.524  28.516  1.00  0.00     0.135 A 
ATOM     76  F   UNL A   1      42.673  24.396  25.403  1.00  0.00    -0.206 F 
ATOM     77  C   UNL A   1      42.431  22.090  25.767  1.00  0.00     0.059 A 
ATOM     78  C   UNL A   1      42.413  21.225  28.035  1.00  0.00     0.059 A 
ATOM     79  F   UNL A   1      42.620  22.705  29.844  1.00  0.00    -0.206 F 
ATOM     80  C   UNL A   1      42.344  21.020  26.658  1.00  0.00     0.060 A 
BRANCH  80  81
ATOM     81  S   UNL A   1      42.186  19.347  25.993  1.00  0.00     0.124 S 
ATOM     82  O   UNL A   1      42.666  18.541  27.109  1.00  0.00    -0.237 OA
ATOM     83  O   UNL A   1      40.756  19.261  25.711  1.00  0.00    -0.237 OA
ATOM     84  O   UNL A   1      43.049  19.373  24.815  1.00  0.00    -0.744 OA
ENDBRANCH  80  81
ENDBRANCH  48  73
BRANCH  60  85
ATOM     85  C   UNL A   1      48.195  27.298  29.774  1.00  0.00     0.058 A 
ATOM     86  C   UNL A   1      49.136  27.598  28.778  1.00  0.00     0.135 A 
ATOM     87  C   UNL A   1      48.661  26.752  30.980  1.00  0.00     0.135 A 
ATOM     88  F   UNL A   1      48.738  28.114  27.604  1.00  0.00    -0.206 F 
ATOM     89  C   UNL A   1      50.493  27.367  28.974  1.00  0.00     0.059 A 
ATOM     90  C   UNL A   1      50.015  26.532  31.205  1.00  0.00     0.059 A 
ATOM     91  F   UNL A   1      47.798  26.455  31.965  1.00  0.00    -0.206 F 
ATOM     92  C   UNL A   1      50.925  26.841  30.194  1.00  0.00     0.060 A 
BRANCH  92  93
ATOM     93  S   UNL A   1      52.696  26.616  30.465  1.00  0.00     0.124 S 
ATOM     94  O   UNL A   1      53.083  27.923  30.987  1.00  0.00    -0.237 OA
ATOM     95  O   UNL A   1      52.729  25.515  31.423  1.00  0.00    -0.237 OA
ATOM     96  O   UNL A   1      53.205  26.294  29.135  1.00  0.00    -0.744 OA
ENDBRANCH  92  93
ENDBRANCH  60  85
ENDBRANCH  34  35
ENDBRANCH  26  29
ENDBRANCH  24  25
ENDBRANCH  23  24
ENDBRANCH   1  23
TORSDOF 18
ENDMDL
MODEL 2
REMARK VINA RESULT:     -10.9      2.301      3.960
REMARK SMILES CC(C)(C)NC(=O)c1ccccc1C(=O)NCCCCCCNC(=O)c1ccc(-c2c3nc(c(-c4c(F)cc(S(=O)(=O)[O-])cc4F)c4ccc([nH]4)c(-c4c(F)cc(S(=O)(=O)[O-])cc4F)c4nc(c(-c5c(F)cc(S(=O)(=O)[O-])cc5F)c5ccc2[nH]5)C=C4)C=C3)cc1
REMARK SMILES IDX 20 1 19 2 18 3 17 4 16 5 14 6 15 7 13 9 8 10 9 11 10 12
REMARK SMILES IDX 12 13 11 14 6 15 5 16 7 18 2 19 1 20 3 21 4 22 21 23 22 24
REMARK SMILES IDX 23 25 24 26 25 28 26 29 27 30 91 31 28 32 90 33 29 34 30 35
REMARK SMILES IDX 31 36 84 37 32 38 89 39 83 40 85 41 33 42 88 43 82 44 81 45
REMARK SMILES IDX 34 47 68 48 47 49 67 50 48 51 51 52 66 53 86 54 49 55 50 56
REMARK SMILES IDX 65 58 87 59 52 60 35 61 36 62 45 63 37 64 38 65 44 66 46 67
REMARK SMILES IDX 39 68 40 69 41 70 42 71 43 72 69 73 70 74 79 75 71 76 72 77
REMARK SMILES IDX 78 78 80 79 73 80 74 81 75 82 76 83 77 84 53 85 54 86 63 87
REMARK SMILES IDX 55 88 56 89 62 90 64 91 57 92 58 93 59 94 60 95 61 96
REMARK H PARENT 16 8 5 17 23 27 85 46 51 57
REMARK Flexibility Score: inf
ROOT
ATOM      1  C   UNL A   1      31.396  28.051  26.642  1.00  0.00     0.002 C 
ENDROOT
BRANCH   1   2
ATOM      2  C   UNL A   1      30.836  26.691  26.207  1.00  0.00     0.002 C 
BRANCH   2   3
ATOM      3  C   UNL A   1      31.780  25.481  26.273  1.00  0.00     0.021 C 
BRANCH   3   4
ATOM      4  C   UNL A   1      31.646  24.481  25.128  1.00  0.00     0.116 C 
BRANCH   4   5
ATOM      5  N   UNL A   1      32.736  24.547  24.179  1.00  0.00    -0.352 N 
ATOM      6  C   UNL A   1      33.508  23.558  23.630  1.00  0.00     0.252 C 
ATOM      7  O   UNL A   1      34.418  23.894  22.868  1.00  0.00    -0.269 OA
ATOM      8  H   UNL A   1      32.961  25.456  23.875  1.00  0.00     0.163 HD
BRANCH   6   9
ATOM      9  C   UNL A   1      33.363  22.117  23.938  1.00  0.00     0.052 A 
ATOM     10  C   UNL A   1      33.861  21.443  25.058  1.00  0.00     0.052 A 
ATOM     11  C   UNL A   1      33.632  20.061  25.208  1.00  0.00     0.014 A 
ATOM     12  C   UNL A   1      32.842  19.364  24.297  1.00  0.00     0.001 A 
ATOM     13  C   UNL A   1      32.538  21.400  23.045  1.00  0.00     0.014 A 
ATOM     14  C   UNL A   1      32.276  20.040  23.224  1.00  0.00     0.001 A 
BRANCH  10  15
ATOM     15  C   UNL A   1      34.696  22.035  26.103  1.00  0.00     0.252 C 
ATOM     16  N   UNL A   1      36.059  22.046  26.079  1.00  0.00    -0.347 N 
ATOM     17  H   UNL A   1      36.433  22.447  26.897  1.00  0.00     0.164 HD
ATOM     18  O   UNL A   1      34.115  22.603  27.028  1.00  0.00    -0.269 OA
BRANCH  16  19
ATOM     19  C   UNL A   1      37.121  21.614  25.148  1.00  0.00     0.032 C 
ATOM     20  C   UNL A   1      37.063  22.275  23.767  1.00  0.00     0.034 C 
ATOM     21  C   UNL A   1      37.117  20.086  25.013  1.00  0.00     0.034 C 
ATOM     22  C   UNL A   1      38.460  22.015  25.802  1.00  0.00     0.034 C 
ENDBRANCH  16  19
ENDBRANCH  10  15
ENDBRANCH   6   9
ENDBRANCH   4   5
ENDBRANCH   3   4
ENDBRANCH   2   3
ENDBRANCH   1   2
BRANCH   1  23
ATOM     23  C   UNL A   1      32.798  28.419  26.154  1.00  0.00     0.021 C 
BRANCH  23  24
ATOM     24  C   UNL A   1      33.838  28.685  27.234  1.00  0.00     0.116 C 
BRANCH  24  25
ATOM     25  N   UNL A   1      33.759  30.013  27.818  1.00  0.00    -0.352 N 
ATOM     26  C   UNL A   1      34.751  30.724  28.456  1.00  0.00     0.251 C 
ATOM     27  H   UNL A   1      32.886  30.461  27.749  1.00  0.00     0.163 HD
ATOM     28  O   UNL A   1      34.510  31.819  28.950  1.00  0.00    -0.269 OA
BRANCH  26  29
ATOM     29  C   UNL A   1      36.102  30.128  28.583  1.00  0.00     0.039 A 
ATOM     30  C   UNL A   1      36.955  30.148  27.475  1.00  0.00     0.014 A 
ATOM     31  C   UNL A   1      36.542  29.600  29.799  1.00  0.00     0.014 A 
ATOM     32  C   UNL A   1      38.278  29.719  27.611  1.00  0.00     0.010 A 
ATOM     33  C   UNL A   1      37.877  29.232  29.949  1.00  0.00     0.010 A 
ATOM     34  C   UNL A   1      38.761  29.300  28.860  1.00  0.00    -0.014 A 
BRANCH  34  35
ATOM     35  C   UNL A   1      40.185  28.932  29.074  1.00  0.00     0.031 A 
ATOM     36  C   UNL A   1      41.162  29.978  29.534  1.00  0.00     0.074 A 
ATOM     37  C   UNL A   1      40.618  27.697  28.751  1.00  0.00     0.049 A 
ATOM     38  N   UNL A   1      42.466  29.923  29.596  1.00  0.00    -0.248 NA
ATOM     39  C   UNL A   1      40.593  31.270  29.953  1.00  0.00     0.031 C 
ATOM     40  C   UNL A   1      39.774  26.602  28.268  1.00  0.00     0.029 A 
ATOM     41  N   UNL A   1      41.883  27.164  28.752  1.00  0.00    -0.354 N 
ATOM     42  C   UNL A   1      42.878  31.177  30.028  1.00  0.00     0.074 A 
ATOM     43  C   UNL A   1      41.685  31.983  30.185  1.00  0.00     0.031 C 
ATOM     44  C   UNL A   1      40.543  25.528  28.024  1.00  0.00     0.029 A 
ATOM     45  C   UNL A   1      41.938  25.870  28.287  1.00  0.00     0.049 A 
ATOM     46  H   UNL A   1      42.676  27.660  29.058  1.00  0.00     0.167 HD
ATOM     47  C   UNL A   1      44.134  31.614  30.283  1.00  0.00     0.037 A 
ATOM     48  C   UNL A   1      42.994  25.060  28.073  1.00  0.00     0.037 A 
ATOM     49  C   UNL A   1      45.312  30.797  30.158  1.00  0.00     0.049 A 
ATOM     50  C   UNL A   1      44.381  25.566  28.365  1.00  0.00     0.074 A 
ATOM     51  C   UNL A   1      46.626  31.134  30.434  1.00  0.00     0.029 A 
ATOM     52  N   UNL A   1      45.318  29.479  29.727  1.00  0.00    -0.354 N 
ATOM     53  N   UNL A   1      44.751  26.747  28.799  1.00  0.00    -0.248 NA
ATOM     54  C   UNL A   1      45.494  24.632  28.138  1.00  0.00     0.031 C 
ATOM     55  C   UNL A   1      47.430  30.026  30.145  1.00  0.00     0.029 A 
ATOM     56  C   UNL A   1      46.613  28.989  29.724  1.00  0.00     0.049 A 
ATOM     57  H   UNL A   1      44.520  28.967  29.464  1.00  0.00     0.167 HD
ATOM     58  C   UNL A   1      46.134  26.688  28.928  1.00  0.00     0.074 A 
ATOM     59  C   UNL A   1      46.536  25.357  28.525  1.00  0.00     0.031 C 
ATOM     60  C   UNL A   1      46.992  27.650  29.346  1.00  0.00     0.037 A 
BRANCH  47  61
ATOM     61  C   UNL A   1      44.296  33.043  30.720  1.00  0.00     0.058 A 
ATOM     62  C   UNL A   1      44.493  34.077  29.792  1.00  0.00     0.135 A 
ATOM     63  C   UNL A   1      44.233  33.385  32.080  1.00  0.00     0.135 A 
ATOM     64  F   UNL A   1      44.576  33.802  28.480  1.00  0.00    -0.206 F 
ATOM     65  C   UNL A   1      44.657  35.397  30.199  1.00  0.00     0.059 A 
ATOM     66  C   UNL A   1      44.369  34.703  32.508  1.00  0.00     0.059 A 
ATOM     67  F   UNL A   1      44.045  32.434  33.008  1.00  0.00    -0.206 F 
ATOM     68  C   UNL A   1      44.598  35.699  31.561  1.00  0.00     0.060 A 
BRANCH  68  69
ATOM     69  S   UNL A   1      44.823  37.414  32.076  1.00  0.00     0.124 S 
ATOM     70  O   UNL A   1      44.308  38.135  30.916  1.00  0.00    -0.237 OA
ATOM     71  O   UNL A   1      44.008  37.490  33.283  1.00  0.00    -0.237 OA
ATOM     72  O   UNL A   1      46.264  37.518  32.290  1.00  0.00    -0.744 OA
ENDBRANCH  68  69
ENDBRANCH  47  61
BRANCH  48  73
ATOM     73  C   UNL A   1      42.778  23.679  27.565  1.00  0.00     0.058 A 
ATOM     74  C   UNL A   1      42.852  23.401  26.193  1.00  0.00     0.135 A 
ATOM     75  C   UNL A   1      42.512  22.611  28.436  1.00  0.00     0.135 A 
ATOM     76  F   UNL A   1      43.096  24.390  25.321  1.00  0.00    -0.206 F 
ATOM     77  C   UNL A   1      42.658  22.115  25.699  1.00  0.00     0.059 A 
ATOM     78  C   UNL A   1      42.336  21.313  27.967  1.00  0.00     0.059 A 
ATOM     79  F   UNL A   1      42.446  22.823  29.760  1.00  0.00    -0.206 F 
ATOM     80  C   UNL A   1      42.402  21.077  26.595  1.00  0.00     0.060 A 
BRANCH  80  81
ATOM     81  S   UNL A   1      42.203  19.401  25.948  1.00  0.00     0.124 S 
ATOM     82  O   UNL A   1      43.041  19.446  24.756  1.00  0.00    -0.237 OA
ATOM     83  O   UNL A   1      42.704  18.584  27.050  1.00  0.00    -0.237 OA
ATOM     84  O   UNL A   1      40.766  19.303  25.708  1.00  0.00    -0.744 OA
ENDBRANCH  80  81
ENDBRANCH  48  73
BRANCH  60  85
ATOM     85  C   UNL A   1      48.448  27.295  29.445  1.00  0.00     0.058 A 
ATOM     86  C   UNL A   1      49.353  27.606  28.420  1.00  0.00     0.135 A 
ATOM     87  C   UNL A   1      48.954  26.720  30.622  1.00  0.00     0.135 A 
ATOM     88  F   UNL A   1      48.915  28.148  27.272  1.00  0.00    -0.206 F 
ATOM     89  C   UNL A   1      50.714  27.359  28.559  1.00  0.00     0.059 A 
ATOM     90  C   UNL A   1      50.314  26.484  30.789  1.00  0.00     0.059 A 
ATOM     91  F   UNL A   1      48.127  26.411  31.633  1.00  0.00    -0.206 F 
ATOM     92  C   UNL A   1      51.187  26.805  29.751  1.00  0.00     0.060 A 
BRANCH  92  93
ATOM     93  S   UNL A   1      52.965  26.560  29.949  1.00  0.00     0.124 S 
ATOM     94  O   UNL A   1      53.013  25.676  31.109  1.00  0.00    -0.237 OA
ATOM     95  O   UNL A   1      53.342  25.955  28.675  1.00  0.00    -0.237 OA
ATOM     96  O   UNL A   1      53.473  27.911  30.166  1.00  0.00    -0.744 OA
ENDBRANCH  92  93
ENDBRANCH  60  85
ENDBRANCH  34  35
ENDBRANCH  26  29
ENDBRANCH  24  25
ENDBRANCH  23  24
ENDBRANCH   1  23
TORSDOF 18
ENDMDL
MODEL 3
REMARK VINA RESULT:     -10.8      3.290      9.120
REMARK SMILES CC(C)(C)NC(=O)c1ccccc1C(=O)NCCCCCCNC(=O)c1ccc(-c2c3nc(c(-c4c(F)cc(S(=O)(=O)[O-])cc4F)c4ccc([nH]4)c(-c4c(F)cc(S(=O)(=O)[O-])cc4F)c4nc(c(-c5c(F)cc(S(=O)(=O)[O-])cc5F)c5ccc2[nH]5)C=C4)C=C3)cc1
REMARK SMILES IDX 20 1 19 2 18 3 17 4 16 5 14 6 15 7 13 9 8 10 9 11 10 12
REMARK SMILES IDX 12 13 11 14 6 15 5 16 7 18 2 19 1 20 3 21 4 22 21 23 22 24
REMARK SMILES IDX 23 25 24 26 25 28 26 29 27 30 91 31 28 32 90 33 29 34 30 35
REMARK SMILES IDX 31 36 84 37 32 38 89 39 83 40 85 41 33 42 88 43 82 44 81 45
REMARK SMILES IDX 34 47 68 48 47 49 67 50 48 51 51 52 66 53 86 54 49 55 50 56
REMARK SMILES IDX 65 58 87 59 52 60 35 61 36 62 45 63 37 64 38 65 44 66 46 67
REMARK SMILES IDX 39 68 40 69 41 70 42 71 43 72 69 73 70 74 79 75 71 76 72 77
REMARK SMILES IDX 78 78 80 79 73 80 74 81 75 82 76 83 77 84 53 85 54 86 63 87
REMARK SMILES IDX 55 88 56 89 62 90 64 91 57 92 58 93 59 94 60 95 61 96
REMARK H PARENT 16 8 5 17 23 27 85 46 51 57
REMARK Flexibility Score: inf
ROOT
ATOM      1  C   UNL A   1      34.492  22.977  24.967  1.00  0.00     0.002 C 
ENDROOT
BRANCH   1   2
ATOM      2  C   UNL A   1      33.781  24.273  25.376  1.00  0.00     0.002 C 
BRANCH   2   3
ATOM      3  C   UNL A   1      34.042  25.524  24.523  1.00  0.00     0.021 C 
BRANCH   3   4
ATOM      4  C   UNL A   1      33.170  25.663  23.279  1.00  0.00     0.116 C 
BRANCH   4   5
ATOM      5  N   UNL A   1      31.756  25.526  23.551  1.00  0.00    -0.352 N 
ATOM      6  C   UNL A   1      30.911  26.286  24.314  1.00  0.00     0.252 C 
ATOM      7  O   UNL A   1      29.739  25.917  24.417  1.00  0.00    -0.269 OA
ATOM      8  H   UNL A   1      31.327  24.755  23.113  1.00  0.00     0.163 HD
BRANCH   6   9
ATOM      9  C   UNL A   1      31.325  27.489  25.073  1.00  0.00     0.052 A 
ATOM     10  C   UNL A   1      31.644  28.744  24.548  1.00  0.00     0.052 A 
ATOM     11  C   UNL A   1      32.018  29.795  25.411  1.00  0.00     0.014 A 
ATOM     12  C   UNL A   1      31.993  29.628  26.794  1.00  0.00     0.001 A 
ATOM     13  C   UNL A   1      31.274  27.349  26.477  1.00  0.00     0.014 A 
ATOM     14  C   UNL A   1      31.600  28.408  27.329  1.00  0.00     0.001 A 
BRANCH  10  15
ATOM     15  C   UNL A   1      31.705  29.079  23.126  1.00  0.00     0.252 C 
ATOM     16  N   UNL A   1      30.655  29.569  22.408  1.00  0.00    -0.347 N 
ATOM     17  H   UNL A   1      30.885  29.682  21.457  1.00  0.00     0.164 HD
ATOM     18  O   UNL A   1      32.797  28.955  22.569  1.00  0.00    -0.269 OA
BRANCH  16  19
ATOM     19  C   UNL A   1      29.262  29.974  22.683  1.00  0.00     0.032 C 
ATOM     20  C   UNL A   1      29.110  31.008  23.803  1.00  0.00     0.034 C 
ATOM     21  C   UNL A   1      28.398  28.739  22.972  1.00  0.00     0.034 C 
ATOM     22  C   UNL A   1      28.731  30.612  21.382  1.00  0.00     0.034 C 
ENDBRANCH  16  19
ENDBRANCH  10  15
ENDBRANCH   6   9
ENDBRANCH   4   5
ENDBRANCH   3   4
ENDBRANCH   2   3
ENDBRANCH   1   2
BRANCH   1  23
ATOM     23  C   UNL A   1      35.891  23.106  24.363  1.00  0.00     0.021 C 
BRANCH  23  24
ATOM     24  C   UNL A   1      36.979  23.630  25.290  1.00  0.00     0.116 C 
BRANCH  24  25
ATOM     25  N   UNL A   1      38.134  22.755  25.399  1.00  0.00    -0.352 N 
ATOM     26  C   UNL A   1      39.329  22.996  26.043  1.00  0.00     0.251 C 
ATOM     27  H   UNL A   1      38.054  21.880  24.957  1.00  0.00     0.163 HD
ATOM     28  O   UNL A   1      40.236  22.174  25.994  1.00  0.00    -0.269 OA
BRANCH  26  29
ATOM     29  C   UNL A   1      39.522  24.283  26.752  1.00  0.00     0.039 A 
ATOM     30  C   UNL A   1      38.948  24.450  28.016  1.00  0.00     0.014 A 
ATOM     31  C   UNL A   1      40.306  25.297  26.197  1.00  0.00     0.014 A 
ATOM     32  C   UNL A   1      39.231  25.598  28.761  1.00  0.00     0.010 A 
ATOM     33  C   UNL A   1      40.638  26.410  26.965  1.00  0.00     0.010 A 
ATOM     34  C   UNL A   1      40.115  26.566  28.259  1.00  0.00    -0.014 A 
BRANCH  34  35
ATOM     35  C   UNL A   1      40.524  27.751  29.056  1.00  0.00     0.031 A 
ATOM     36  C   UNL A   1      41.805  27.710  29.844  1.00  0.00     0.074 A 
ATOM     37  C   UNL A   1      39.699  28.812  29.160  1.00  0.00     0.049 A 
ATOM     38  N   UNL A   1      42.248  28.545  30.746  1.00  0.00    -0.248 NA
ATOM     39  C   UNL A   1      42.689  26.559  29.601  1.00  0.00     0.031 C 
ATOM     40  C   UNL A   1      38.417  28.960  28.467  1.00  0.00     0.029 A 
ATOM     41  N   UNL A   1      39.802  29.955  29.913  1.00  0.00    -0.354 N 
ATOM     42  C   UNL A   1      43.444  28.007  31.204  1.00  0.00     0.074 A 
ATOM     43  C   UNL A   1      43.642  26.758  30.500  1.00  0.00     0.031 C 
ATOM     44  C   UNL A   1      37.857  30.128  28.824  1.00  0.00     0.029 A 
ATOM     45  C   UNL A   1      38.713  30.788  29.804  1.00  0.00     0.049 A 
ATOM     46  H   UNL A   1      40.583  30.160  30.477  1.00  0.00     0.167 HD
ATOM     47  C   UNL A   1      44.305  28.513  32.119  1.00  0.00     0.037 A 
ATOM     48  C   UNL A   1      38.425  31.942  30.440  1.00  0.00     0.037 A 
ATOM     49  C   UNL A   1      44.118  29.773  32.789  1.00  0.00     0.049 A 
ATOM     50  C   UNL A   1      39.397  32.487  31.451  1.00  0.00     0.074 A 
ATOM     51  C   UNL A   1      44.954  30.394  33.701  1.00  0.00     0.029 A 
ATOM     52  N   UNL A   1      43.023  30.607  32.616  1.00  0.00    -0.354 N 
ATOM     53  N   UNL A   1      40.537  31.979  31.853  1.00  0.00    -0.248 NA
ATOM     54  C   UNL A   1      39.045  33.760  32.096  1.00  0.00     0.031 C 
ATOM     55  C   UNL A   1      44.352  31.593  34.098  1.00  0.00     0.029 A 
ATOM     56  C   UNL A   1      43.159  31.734  33.407  1.00  0.00     0.049 A 
ATOM     57  H   UNL A   1      42.263  30.424  32.018  1.00  0.00     0.167 HD
ATOM     58  C   UNL A   1      41.053  32.884  32.773  1.00  0.00     0.074 A 
ATOM     59  C   UNL A   1      40.102  33.972  32.870  1.00  0.00     0.031 C 
ATOM     60  C   UNL A   1      42.214  32.821  33.470  1.00  0.00     0.037 A 
BRANCH  47  61
ATOM     61  C   UNL A   1      45.525  27.700  32.447  1.00  0.00     0.058 A 
ATOM     62  C   UNL A   1      46.726  27.859  31.738  1.00  0.00     0.135 A 
ATOM     63  C   UNL A   1      45.500  26.767  33.496  1.00  0.00     0.135 A 
ATOM     64  F   UNL A   1      46.798  28.727  30.716  1.00  0.00    -0.206 F 
ATOM     65  C   UNL A   1      47.850  27.095  32.034  1.00  0.00     0.059 A 
ATOM     66  C   UNL A   1      46.622  26.011  33.826  1.00  0.00     0.059 A 
ATOM     67  F   UNL A   1      44.377  26.578  34.206  1.00  0.00    -0.206 F 
ATOM     68  C   UNL A   1      47.786  26.170  33.077  1.00  0.00     0.060 A 
BRANCH  68  69
ATOM     69  S   UNL A   1      49.250  25.179  33.444  1.00  0.00     0.124 S 
ATOM     70  O   UNL A   1      49.987  26.069  34.334  1.00  0.00    -0.237 OA
ATOM     71  O   UNL A   1      48.677  23.990  34.067  1.00  0.00    -0.237 OA
ATOM     72  O   UNL A   1      49.851  24.964  32.131  1.00  0.00    -0.744 OA
ENDBRANCH  68  69
ENDBRANCH  47  61
BRANCH  48  73
ATOM     73  C   UNL A   1      37.163  32.665  30.129  1.00  0.00     0.058 A 
ATOM     74  C   UNL A   1      37.127  33.644  29.126  1.00  0.00     0.135 A 
ATOM     75  C   UNL A   1      35.971  32.384  30.813  1.00  0.00     0.135 A 
ATOM     76  F   UNL A   1      38.243  33.952  28.450  1.00  0.00    -0.206 F 
ATOM     77  C   UNL A   1      35.956  34.328  28.818  1.00  0.00     0.059 A 
ATOM     78  C   UNL A   1      34.782  33.041  30.509  1.00  0.00     0.059 A 
ATOM     79  F   UNL A   1      35.949  31.446  31.773  1.00  0.00    -0.206 F 
ATOM     80  C   UNL A   1      34.787  34.018  29.514  1.00  0.00     0.060 A 
BRANCH  80  81
ATOM     81  S   UNL A   1      33.259  34.876  29.071  1.00  0.00     0.124 S 
ATOM     82  O   UNL A   1      32.578  34.945  30.358  1.00  0.00    -0.237 OA
ATOM     83  O   UNL A   1      33.759  36.143  28.544  1.00  0.00    -0.237 OA
ATOM     84  O   UNL A   1      32.653  33.990  28.081  1.00  0.00    -0.744 OA
ENDBRANCH  80  81
ENDBRANCH  48  73
BRANCH  60  85
ATOM     85  C   UNL A   1      42.556  33.979  34.364  1.00  0.00     0.058 A 
ATOM     86  C   UNL A   1      42.260  33.964  35.735  1.00  0.00     0.135 A 
ATOM     87  C   UNL A   1      43.275  35.073  33.855  1.00  0.00     0.135 A 
ATOM     88  F   UNL A   1      41.567  32.945  36.266  1.00  0.00    -0.206 F 
ATOM     89  C   UNL A   1      42.665  34.998  36.572  1.00  0.00     0.059 A 
ATOM     90  C   UNL A   1      43.707  36.106  34.679  1.00  0.00     0.059 A 
ATOM     91  F   UNL A   1      43.588  35.128  32.551  1.00  0.00    -0.206 F 
ATOM     92  C   UNL A   1      43.396  36.061  36.037  1.00  0.00     0.060 A 
BRANCH  92  93
ATOM     93  S   UNL A   1      43.981  37.359  37.147  1.00  0.00     0.124 S 
ATOM     94  O   UNL A   1      42.846  37.507  38.052  1.00  0.00    -0.237 OA
ATOM     95  O   UNL A   1      45.180  36.760  37.726  1.00  0.00    -0.237 OA
ATOM     96  O   UNL A   1      44.223  38.487  36.253  1.00  0.00    -0.744 OA
ENDBRANCH  92  93
ENDBRANCH  60  85
ENDBRANCH  34  35
ENDBRANCH  26  29
ENDBRANCH  24  25
ENDBRANCH  23  24
ENDBRANCH   1  23
TORSDOF 18
ENDMDL
