MODEL 1
REMARK VINA RESULT:     -10.7      0.000      0.000
REMARK SMILES O=C(NCCCCCCNC(=O)c1cccc([C@@H]2CCC[N@@H+](Cc3cccc(OCCO)c3)C2)c1)c1ccc(-c2c3nc(c(-c4c(F)cc(S(=O)(=O)[O-])cc4F)c4ccc([nH]4)c(-c4c(F)cc(S(=O)(=O)[O-])cc4F)c4nc(c(-c5c(F)cc(S(=O)(=O)[O-])cc5F)c5ccc2[nH]5)C=C4)C=C3)cc1
REMARK SMILES IDX 8 1 7 2 6 3 5 4 4 5 3 6 1 7 2 8 36 10 37 11 101 12 38 13
REMARK SMILES IDX 100 14 39 15 40 16 41 17 94 18 42 19 99 20 93 21 95 22 43 23
REMARK SMILES IDX 98 24 92 25 91 26 44 28 78 29 57 30 77 31 58 32 61 33 76 34
REMARK SMILES IDX 96 35 59 36 60 37 75 39 97 40 62 41 45 42 46 43 55 44 47 45
REMARK SMILES IDX 48 46 54 47 56 48 49 49 50 50 51 51 52 52 53 53 79 54 80 55
REMARK SMILES IDX 89 56 81 57 82 58 88 59 90 60 83 61 84 62 85 63 86 64 87 65
REMARK SMILES IDX 63 66 64 67 73 68 65 69 66 70 72 71 74 72 67 73 68 74 69 75
REMARK SMILES IDX 70 76 71 77 9 78 10 79 11 80 12 82 13 83 14 84 35 85 15 86
REMARK SMILES IDX 17 87 16 88 18 89 19 90 34 91 20 92 22 93 21 94 23 96 24 97
REMARK SMILES IDX 25 98 33 99 26 100 28 101 27 102 29 103 30 104 31 105 32 106
REMARK H PARENT 3 9 95 27 61 38 10 81 22 95 32 107
REMARK Flexibility Score: inf
ROOT
ATOM      1  C   UNL A   1      35.196  29.688  28.168  1.00  0.00     0.021 C 
ENDROOT
BRANCH   1   2
ATOM      2  C   UNL A   1      35.849  30.906  27.494  1.00  0.00     0.002 C 
BRANCH   2   3
ATOM      3  C   UNL A   1      35.553  32.286  28.097  1.00  0.00     0.002 C 
BRANCH   3   4
ATOM      4  C   UNL A   1      34.093  32.740  28.086  1.00  0.00     0.021 C 
BRANCH   4   5
ATOM      5  C   UNL A   1      33.832  34.214  27.790  1.00  0.00     0.116 C 
BRANCH   5   6
ATOM      6  N   UNL A   1      33.086  34.883  28.843  1.00  0.00    -0.352 N 
ATOM      7  O   UNL A   1      32.426  35.422  30.920  1.00  0.00    -0.269 OA
ATOM      8  C   UNL A   1      33.280  34.897  30.202  1.00  0.00     0.251 C 
ATOM      9  H   UNL A   1      32.316  35.412  28.531  1.00  0.00     0.163 HD
BRANCH   8  10
ATOM     10  C   UNL A   1      34.476  34.280  30.825  1.00  0.00     0.039 A 
ATOM     11  C   UNL A   1      34.388  33.137  31.626  1.00  0.00     0.014 A 
ATOM     12  C   UNL A   1      35.735  34.825  30.542  1.00  0.00     0.014 A 
ATOM     13  C   UNL A   1      35.533  32.614  32.233  1.00  0.00     0.010 A 
ATOM     14  C   UNL A   1      36.888  34.258  31.093  1.00  0.00     0.010 A 
ATOM     15  C   UNL A   1      36.796  33.160  31.963  1.00  0.00    -0.014 A 
BRANCH  15  16
ATOM     16  C   UNL A   1      38.027  32.558  32.542  1.00  0.00     0.031 A 
ATOM     17  C   UNL A   1      38.724  31.421  31.848  1.00  0.00     0.074 A 
ATOM     18  C   UNL A   1      38.490  33.008  33.724  1.00  0.00     0.049 A 
ATOM     19  N   UNL A   1      39.743  30.705  32.253  1.00  0.00    -0.248 NA
ATOM     20  C   UNL A   1      38.201  31.030  30.531  1.00  0.00     0.031 C 
ATOM     21  C   UNL A   1      37.900  34.102  34.498  1.00  0.00     0.029 A 
ATOM     22  N   UNL A   1      39.550  32.592  34.494  1.00  0.00    -0.354 N 
ATOM     23  C   UNL A   1      39.968  29.762  31.256  1.00  0.00     0.074 A 
ATOM     24  C   UNL A   1      38.963  29.985  30.237  1.00  0.00     0.031 C 
ATOM     25  C   UNL A   1      38.602  34.271  35.627  1.00  0.00     0.029 A 
ATOM     26  C   UNL A   1      39.654  33.261  35.690  1.00  0.00     0.049 A 
ATOM     27  H   UNL A   1      40.173  31.882  34.215  1.00  0.00     0.167 HD
ATOM     28  C   UNL A   1      40.923  28.802  31.198  1.00  0.00     0.037 A 
ATOM     29  C   UNL A   1      40.477  33.066  36.739  1.00  0.00     0.037 A 
ATOM     30  C   UNL A   1      41.918  28.590  32.221  1.00  0.00     0.049 A 
ATOM     31  C   UNL A   1      41.507  31.975  36.672  1.00  0.00     0.074 A 
ATOM     32  C   UNL A   1      42.950  27.668  32.238  1.00  0.00     0.029 A 
ATOM     33  N   UNL A   1      41.996  29.298  33.412  1.00  0.00    -0.354 N 
ATOM     34  N   UNL A   1      41.730  31.114  35.707  1.00  0.00    -0.248 NA
ATOM     35  C   UNL A   1      42.400  31.827  37.830  1.00  0.00     0.031 C 
ATOM     36  C   UNL A   1      43.617  27.781  33.462  1.00  0.00     0.029 A 
ATOM     37  C   UNL A   1      43.043  28.817  34.182  1.00  0.00     0.049 A 
ATOM     38  H   UNL A   1      41.395  30.033  33.673  1.00  0.00     0.167 HD
ATOM     39  C   UNL A   1      42.807  30.343  36.127  1.00  0.00     0.074 A 
ATOM     40  C   UNL A   1      43.190  30.835  37.435  1.00  0.00     0.031 C 
ATOM     41  C   UNL A   1      43.426  29.325  35.479  1.00  0.00     0.037 A 
BRANCH  28  42
ATOM     42  C   UNL A   1      40.913  27.884  30.004  1.00  0.00     0.058 A 
ATOM     43  C   UNL A   1      41.888  27.961  28.996  1.00  0.00     0.135 A 
ATOM     44  C   UNL A   1      39.912  26.906  29.869  1.00  0.00     0.135 A 
ATOM     45  F   UNL A   1      42.864  28.881  29.069  1.00  0.00    -0.206 F 
ATOM     46  C   UNL A   1      41.840  27.143  27.871  1.00  0.00     0.059 A 
ATOM     47  C   UNL A   1      39.863  26.056  28.768  1.00  0.00     0.059 A 
ATOM     48  F   UNL A   1      38.960  26.778  30.806  1.00  0.00    -0.206 F 
ATOM     49  C   UNL A   1      40.816  26.200  27.761  1.00  0.00     0.060 A 
BRANCH  49  50
ATOM     50  S   UNL A   1      40.738  25.183  26.272  1.00  0.00     0.124 S 
ATOM     51  O   UNL A   1      41.220  26.118  25.259  1.00  0.00    -0.237 OA
ATOM     52  O   UNL A   1      41.635  24.082  26.595  1.00  0.00    -0.237 OA
ATOM     53  O   UNL A   1      39.323  24.830  26.175  1.00  0.00    -0.744 OA
ENDBRANCH  49  50
ENDBRANCH  28  42
BRANCH  29  54
ATOM     54  C   UNL A   1      40.337  33.933  37.937  1.00  0.00     0.058 A 
ATOM     55  C   UNL A   1      41.113  35.091  38.087  1.00  0.00     0.135 A 
ATOM     56  C   UNL A   1      39.366  33.665  38.916  1.00  0.00     0.135 A 
ATOM     57  F   UNL A   1      42.059  35.385  37.182  1.00  0.00    -0.206 F 
ATOM     58  C   UNL A   1      40.924  35.959  39.157  1.00  0.00     0.059 A 
ATOM     59  C   UNL A   1      39.140  34.531  39.980  1.00  0.00     0.059 A 
ATOM     60  F   UNL A   1      38.586  32.577  38.807  1.00  0.00    -0.206 F 
ATOM     61  C   UNL A   1      39.925  35.677  40.091  1.00  0.00     0.060 A 
BRANCH  61  62
ATOM     62  S   UNL A   1      39.624  36.865  41.418  1.00  0.00     0.124 S 
ATOM     63  O   UNL A   1      38.867  36.058  42.369  1.00  0.00    -0.237 OA
ATOM     64  O   UNL A   1      40.980  37.223  41.820  1.00  0.00    -0.237 OA
ATOM     65  O   UNL A   1      38.874  37.928  40.754  1.00  0.00    -0.744 OA
ENDBRANCH  61  62
ENDBRANCH  29  54
BRANCH  41  66
ATOM     66  C   UNL A   1      44.623  28.697  36.139  1.00  0.00     0.058 A 
ATOM     67  C   UNL A   1      45.911  29.236  36.012  1.00  0.00     0.135 A 
ATOM     68  C   UNL A   1      44.455  27.592  36.990  1.00  0.00     0.135 A 
ATOM     69  F   UNL A   1      46.128  30.285  35.202  1.00  0.00    -0.206 F 
ATOM     70  C   UNL A   1      46.992  28.705  36.709  1.00  0.00     0.059 A 
ATOM     71  C   UNL A   1      45.516  27.059  37.714  1.00  0.00     0.059 A 
ATOM     72  F   UNL A   1      43.241  27.040  37.150  1.00  0.00    -0.206 F 
ATOM     73  C   UNL A   1      46.782  27.622  37.566  1.00  0.00     0.060 A 
BRANCH  73  74
ATOM     74  S   UNL A   1      48.177  26.992  38.525  1.00  0.00     0.124 S 
ATOM     75  O   UNL A   1      48.054  27.756  39.761  1.00  0.00    -0.237 OA
ATOM     76  O   UNL A   1      47.869  25.569  38.625  1.00  0.00    -0.237 OA
ATOM     77  O   UNL A   1      49.334  27.320  37.698  1.00  0.00    -0.744 OA
ENDBRANCH  73  74
ENDBRANCH  41  66
ENDBRANCH  15  16
ENDBRANCH   8  10
ENDBRANCH   5   6
ENDBRANCH   4   5
ENDBRANCH   3   4
ENDBRANCH   2   3
ENDBRANCH   1   2
BRANCH   1  78
ATOM     78  C   UNL A   1      33.987  29.079  27.450  1.00  0.00     0.116 C 
BRANCH  78  79
ATOM     79  N   UNL A   1      33.896  29.409  26.036  1.00  0.00    -0.352 N 
ATOM     80  C   UNL A   1      33.152  28.807  25.047  1.00  0.00     0.251 C 
ATOM     81  H   UNL A   1      34.446  30.172  25.746  1.00  0.00     0.163 HD
ATOM     82  O   UNL A   1      33.185  29.247  23.895  1.00  0.00    -0.269 OA
BRANCH  80  83
ATOM     83  C   UNL A   1      32.344  27.602  25.328  1.00  0.00     0.040 A 
ATOM     84  C   UNL A   1      31.034  27.544  24.850  1.00  0.00     0.014 A 
ATOM     85  C   UNL A   1      32.876  26.527  26.047  1.00  0.00     0.018 A 
ATOM     86  C   UNL A   1      30.274  26.393  25.060  1.00  0.00     0.001 A 
ATOM     87  C   UNL A   1      32.163  25.313  26.162  1.00  0.00    -0.039 A 
ATOM     88  C   UNL A   1      30.836  25.282  25.701  1.00  0.00     0.004 A 
BRANCH  87  89
ATOM     89  C   UNL A   1      32.870  23.981  26.455  1.00  0.00     0.074 C 
ATOM     90  C   UNL A   1      34.402  23.898  26.438  1.00  0.00     0.020 C 
ATOM     91  C   UNL A   1      32.259  22.871  25.587  1.00  0.00     0.270 C 
ATOM     92  C   UNL A   1      35.010  23.540  25.078  1.00  0.00     0.062 C 
ATOM     93  N   UNL A   1      32.849  22.814  24.253  1.00  0.00    -0.331 N 
ATOM     94  C   UNL A   1      34.250  22.439  24.322  1.00  0.00     0.262 C 
ATOM     95  H   UNL A   1      32.816  23.772  23.904  1.00  0.00     0.348 HD
BRANCH  93  96
ATOM     96  C   UNL A   1      32.063  22.187  23.193  1.00  0.00     0.299 C 
BRANCH  96  97
ATOM     97  C   UNL A   1      32.199  20.705  22.923  1.00  0.00     0.010 A 
ATOM     98  C   UNL A   1      31.996  20.220  21.628  1.00  0.00     0.010 A 
ATOM     99  C   UNL A   1      32.408  19.763  23.948  1.00  0.00     0.056 A 
ATOM    100  C   UNL A   1      32.070  18.852  21.366  1.00  0.00     0.004 A 
ATOM    101  C   UNL A   1      32.587  18.408  23.687  1.00  0.00     0.119 A 
ATOM    102  C   UNL A   1      32.392  17.955  22.386  1.00  0.00     0.046 A 
BRANCH 101 103
ATOM    103  O   UNL A   1      32.951  17.462  24.603  1.00  0.00    -0.491 OA
BRANCH 103 104
ATOM    104  C   UNL A   1      33.822  16.388  24.220  1.00  0.00     0.257 C 
BRANCH 104 105
ATOM    105  C   UNL A   1      34.947  16.140  25.230  1.00  0.00     0.197 C 
BRANCH 105 106
ATOM    106  O   UNL A   1      35.552  14.863  25.075  1.00  0.00    -0.393 OA
ATOM    107  H   UNL A   1      36.456  14.889  25.424  1.00  0.00     0.210 HD
ENDBRANCH 105 106
ENDBRANCH 104 105
ENDBRANCH 103 104
ENDBRANCH 101 103
ENDBRANCH  96  97
ENDBRANCH  93  96
ENDBRANCH  87  89
ENDBRANCH  80  83
ENDBRANCH  78  79
ENDBRANCH   1  78
TORSDOF 23
ENDMDL
MODEL 2
REMARK VINA RESULT:     -10.7      6.788     11.506
REMARK SMILES O=C(NCCCCCCNC(=O)c1cccc([C@@H]2CCC[N@@H+](Cc3cccc(OCCO)c3)C2)c1)c1ccc(-c2c3nc(c(-c4c(F)cc(S(=O)(=O)[O-])cc4F)c4ccc([nH]4)c(-c4c(F)cc(S(=O)(=O)[O-])cc4F)c4nc(c(-c5c(F)cc(S(=O)(=O)[O-])cc5F)c5ccc2[nH]5)C=C4)C=C3)cc1
REMARK SMILES IDX 8 1 7 2 6 3 5 4 4 5 3 6 1 7 2 8 36 10 37 11 101 12 38 13
REMARK SMILES IDX 100 14 39 15 40 16 41 17 94 18 42 19 99 20 93 21 95 22 43 23
REMARK SMILES IDX 98 24 92 25 91 26 44 28 78 29 57 30 77 31 58 32 61 33 76 34
REMARK SMILES IDX 96 35 59 36 60 37 75 39 97 40 62 41 45 42 46 43 55 44 47 45
REMARK SMILES IDX 48 46 54 47 56 48 49 49 50 50 51 51 52 52 53 53 79 54 80 55
REMARK SMILES IDX 89 56 81 57 82 58 88 59 90 60 83 61 84 62 85 63 86 64 87 65
REMARK SMILES IDX 63 66 64 67 73 68 65 69 66 70 72 71 74 72 67 73 68 74 69 75
REMARK SMILES IDX 70 76 71 77 9 78 10 79 11 80 12 82 13 83 14 84 35 85 15 86
REMARK SMILES IDX 17 87 16 88 18 89 19 90 34 91 20 92 22 93 21 94 23 96 24 97
REMARK SMILES IDX 25 98 33 99 26 100 28 101 27 102 29 103 30 104 31 105 32 106
REMARK H PARENT 3 9 95 27 61 38 10 81 22 95 32 107
REMARK Flexibility Score: inf
ROOT
ATOM      1  C   UNL A   1      39.704  23.915  27.407  1.00  0.00     0.021 C 
ENDROOT
BRANCH   1   2
ATOM      2  C   UNL A   1      41.037  23.157  27.294  1.00  0.00     0.002 C 
BRANCH   2   3
ATOM      3  C   UNL A   1      41.143  21.811  28.022  1.00  0.00     0.002 C 
BRANCH   3   4
ATOM      4  C   UNL A   1      41.155  20.557  27.146  1.00  0.00     0.021 C 
BRANCH   4   5
ATOM      5  C   UNL A   1      42.276  19.552  27.396  1.00  0.00     0.116 C 
BRANCH   5   6
ATOM      6  N   UNL A   1      42.937  19.120  26.176  1.00  0.00    -0.352 N 
ATOM      7  O   UNL A   1      44.001  19.278  24.206  1.00  0.00    -0.269 OA
ATOM      8  C   UNL A   1      43.651  19.836  25.248  1.00  0.00     0.251 C 
ATOM      9  H   UNL A   1      42.860  18.157  25.984  1.00  0.00     0.163 HD
BRANCH   8  10
ATOM     10  C   UNL A   1      43.992  21.265  25.459  1.00  0.00     0.039 A 
ATOM     11  C   UNL A   1      43.545  22.268  24.594  1.00  0.00     0.014 A 
ATOM     12  C   UNL A   1      44.726  21.616  26.598  1.00  0.00     0.014 A 
ATOM     13  C   UNL A   1      43.926  23.596  24.801  1.00  0.00     0.010 A 
ATOM     14  C   UNL A   1      45.048  22.955  26.843  1.00  0.00     0.010 A 
ATOM     15  C   UNL A   1      44.670  23.956  25.933  1.00  0.00    -0.014 A 
BRANCH  15  16
ATOM     16  C   UNL A   1      45.011  25.379  26.202  1.00  0.00     0.031 A 
ATOM     17  C   UNL A   1      46.425  25.870  26.062  1.00  0.00     0.074 A 
ATOM     18  C   UNL A   1      44.047  26.221  26.622  1.00  0.00     0.049 A 
ATOM     19  N   UNL A   1      46.927  27.043  26.353  1.00  0.00    -0.248 NA
ATOM     20  C   UNL A   1      47.408  24.911  25.535  1.00  0.00     0.031 C 
ATOM     21  C   UNL A   1      42.638  25.865  26.802  1.00  0.00     0.029 A 
ATOM     22  N   UNL A   1      44.105  27.543  26.993  1.00  0.00    -0.354 N 
ATOM     23  C   UNL A   1      48.285  26.959  26.072  1.00  0.00     0.074 A 
ATOM     24  C   UNL A   1      48.532  25.610  25.606  1.00  0.00     0.031 C 
ATOM     25  C   UNL A   1      41.967  26.937  27.247  1.00  0.00     0.029 A 
ATOM     26  C   UNL A   1      42.904  28.039  27.443  1.00  0.00     0.049 A 
ATOM     27  H   UNL A   1      44.927  28.082  26.943  1.00  0.00     0.167 HD
ATOM     28  C   UNL A   1      49.236  27.919  26.189  1.00  0.00     0.037 A 
ATOM     29  C   UNL A   1      42.593  29.232  27.986  1.00  0.00     0.037 A 
ATOM     30  C   UNL A   1      48.977  29.259  26.655  1.00  0.00     0.049 A 
ATOM     31  C   UNL A   1      43.666  30.272  28.141  1.00  0.00     0.074 A 
ATOM     32  C   UNL A   1      49.864  30.314  26.776  1.00  0.00     0.029 A 
ATOM     33  N   UNL A   1      47.743  29.725  27.089  1.00  0.00    -0.354 N 
ATOM     34  N   UNL A   1      44.939  30.189  27.837  1.00  0.00    -0.248 NA
ATOM     35  C   UNL A   1      43.264  31.566  28.709  1.00  0.00     0.031 C 
ATOM     36  C   UNL A   1      49.181  31.399  27.334  1.00  0.00     0.029 A 
ATOM     37  C   UNL A   1      47.852  31.043  27.502  1.00  0.00     0.049 A 
ATOM     38  H   UNL A   1      46.913  29.195  27.104  1.00  0.00     0.167 HD
ATOM     39  C   UNL A   1      45.486  31.428  28.148  1.00  0.00     0.074 A 
ATOM     40  C   UNL A   1      44.406  32.244  28.667  1.00  0.00     0.031 C 
ATOM     41  C   UNL A   1      46.766  31.851  28.004  1.00  0.00     0.037 A 
BRANCH  28  42
ATOM     42  C   UNL A   1      50.652  27.539  25.844  1.00  0.00     0.058 A 
ATOM     43  C   UNL A   1      51.174  27.707  24.551  1.00  0.00     0.135 A 
ATOM     44  C   UNL A   1      51.503  27.002  26.826  1.00  0.00     0.135 A 
ATOM     45  F   UNL A   1      50.405  28.209  23.571  1.00  0.00    -0.206 F 
ATOM     46  C   UNL A   1      52.467  27.305  24.230  1.00  0.00     0.059 A 
ATOM     47  C   UNL A   1      52.810  26.622  26.535  1.00  0.00     0.059 A 
ATOM     48  F   UNL A   1      51.062  26.829  28.081  1.00  0.00    -0.206 F 
ATOM     49  C   UNL A   1      53.274  26.753  25.227  1.00  0.00     0.060 A 
BRANCH  49  50
ATOM     50  S   UNL A   1      54.930  26.188  24.781  1.00  0.00     0.124 S 
ATOM     51  O   UNL A   1      54.813  24.750  25.001  1.00  0.00    -0.237 OA
ATOM     52  O   UNL A   1      55.043  26.610  23.391  1.00  0.00    -0.237 OA
ATOM     53  O   UNL A   1      55.795  26.897  25.722  1.00  0.00    -0.744 OA
ENDBRANCH  49  50
ENDBRANCH  28  42
BRANCH  29  54
ATOM     54  C   UNL A   1      41.195  29.484  28.422  1.00  0.00     0.058 A 
ATOM     55  C   UNL A   1      40.140  29.494  27.500  1.00  0.00     0.135 A 
ATOM     56  C   UNL A   1      40.878  29.635  29.782  1.00  0.00     0.135 A 
ATOM     57  F   UNL A   1      40.394  29.361  26.189  1.00  0.00    -0.206 F 
ATOM     58  C   UNL A   1      38.818  29.634  27.909  1.00  0.00     0.059 A 
ATOM     59  C   UNL A   1      39.562  29.751  30.218  1.00  0.00     0.059 A 
ATOM     60  F   UNL A   1      41.852  29.615  30.705  1.00  0.00    -0.206 F 
ATOM     61  C   UNL A   1      38.538  29.749  29.273  1.00  0.00     0.060 A 
BRANCH  61  62
ATOM     62  S   UNL A   1      36.812  29.829  29.797  1.00  0.00     0.124 S 
ATOM     63  O   UNL A   1      36.654  31.252  30.075  1.00  0.00    -0.237 OA
ATOM     64  O   UNL A   1      36.112  29.327  28.618  1.00  0.00    -0.237 OA
ATOM     65  O   UNL A   1      36.773  28.949  30.961  1.00  0.00    -0.744 OA
ENDBRANCH  61  62
ENDBRANCH  29  54
BRANCH  41  66
ATOM     66  C   UNL A   1      47.078  33.280  28.360  1.00  0.00     0.058 A 
ATOM     67  C   UNL A   1      47.544  33.646  29.631  1.00  0.00     0.135 A 
ATOM     68  C   UNL A   1      46.999  34.280  27.377  1.00  0.00     0.135 A 
ATOM     69  F   UNL A   1      47.627  32.730  30.610  1.00  0.00    -0.206 F 
ATOM     70  C   UNL A   1      47.925  34.954  29.915  1.00  0.00     0.059 A 
ATOM     71  C   UNL A   1      47.397  35.588  27.631  1.00  0.00     0.059 A 
ATOM     72  F   UNL A   1      46.563  33.982  26.142  1.00  0.00    -0.206 F 
ATOM     73  C   UNL A   1      47.857  35.916  28.905  1.00  0.00     0.060 A 
BRANCH  73  74
ATOM     74  S   UNL A   1      48.430  37.591  29.263  1.00  0.00     0.124 S 
ATOM     75  O   UNL A   1      49.116  37.402  30.536  1.00  0.00    -0.237 OA
ATOM     76  O   UNL A   1      49.286  37.880  28.118  1.00  0.00    -0.237 OA
ATOM     77  O   UNL A   1      47.194  38.366  29.326  1.00  0.00    -0.744 OA
ENDBRANCH  73  74
ENDBRANCH  41  66
ENDBRANCH  15  16
ENDBRANCH   8  10
ENDBRANCH   5   6
ENDBRANCH   4   5
ENDBRANCH   3   4
ENDBRANCH   2   3
ENDBRANCH   1   2
BRANCH   1  78
ATOM     78  C   UNL A   1      38.731  23.762  26.232  1.00  0.00     0.116 C 
BRANCH  78  79
ATOM     79  N   UNL A   1      38.623  22.408  25.712  1.00  0.00    -0.352 N 
ATOM     80  C   UNL A   1      37.597  21.827  25.002  1.00  0.00     0.251 C 
ATOM     81  H   UNL A   1      39.394  21.825  25.894  1.00  0.00     0.163 HD
ATOM     82  O   UNL A   1      37.695  20.659  24.620  1.00  0.00    -0.269 OA
BRANCH  80  83
ATOM     83  C   UNL A   1      36.346  22.566  24.729  1.00  0.00     0.040 A 
ATOM     84  C   UNL A   1      36.066  22.951  23.417  1.00  0.00     0.014 A 
ATOM     85  C   UNL A   1      35.445  22.867  25.755  1.00  0.00     0.018 A 
ATOM     86  C   UNL A   1      34.866  23.604  23.131  1.00  0.00     0.001 A 
ATOM     87  C   UNL A   1      34.177  23.416  25.463  1.00  0.00    -0.039 A 
ATOM     88  C   UNL A   1      33.924  23.824  24.143  1.00  0.00     0.004 A 
BRANCH  87  89
ATOM     89  C   UNL A   1      32.991  23.277  26.429  1.00  0.00     0.074 C 
ATOM     90  C   UNL A   1      31.780  22.415  26.048  1.00  0.00     0.020 C 
ATOM     91  C   UNL A   1      32.537  24.669  26.894  1.00  0.00     0.270 C 
ATOM     92  C   UNL A   1      30.664  23.165  25.312  1.00  0.00     0.062 C 
ATOM     93  N   UNL A   1      31.614  25.300  25.956  1.00  0.00    -0.331 N 
ATOM     94  C   UNL A   1      30.366  24.561  25.880  1.00  0.00     0.262 C 
ATOM     95  H   UNL A   1      32.063  25.219  25.043  1.00  0.00     0.348 HD
BRANCH  93  96
ATOM     96  C   UNL A   1      31.502  26.757  25.995  1.00  0.00     0.299 C 
BRANCH  96  97
ATOM     97  C   UNL A   1      31.599  27.560  24.718  1.00  0.00     0.010 A 
ATOM     98  C   UNL A   1      32.853  27.971  24.257  1.00  0.00     0.010 A 
ATOM     99  C   UNL A   1      30.464  28.021  24.023  1.00  0.00     0.056 A 
ATOM    100  C   UNL A   1      32.962  28.752  23.106  1.00  0.00     0.004 A 
ATOM    101  C   UNL A   1      30.560  28.712  22.819  1.00  0.00     0.119 A 
ATOM    102  C   UNL A   1      31.822  29.097  22.377  1.00  0.00     0.046 A 
BRANCH 101 103
ATOM    103  O   UNL A   1      29.512  29.050  22.009  1.00  0.00    -0.491 OA
BRANCH 103 104
ATOM    104  C   UNL A   1      29.313  30.418  21.625  1.00  0.00     0.257 C 
BRANCH 104 105
ATOM    105  C   UNL A   1      28.808  31.295  22.776  1.00  0.00     0.197 C 
BRANCH 105 106
ATOM    106  O   UNL A   1      29.262  32.639  22.680  1.00  0.00    -0.393 OA
ATOM    107  H   UNL A   1      29.282  32.908  21.749  1.00  0.00     0.210 HD
ENDBRANCH 105 106
ENDBRANCH 104 105
ENDBRANCH 103 104
ENDBRANCH 101 103
ENDBRANCH  96  97
ENDBRANCH  93  96
ENDBRANCH  87  89
ENDBRANCH  80  83
ENDBRANCH  78  79
ENDBRANCH   1  78
TORSDOF 23
ENDMDL
MODEL 3
REMARK VINA RESULT:     -10.6      6.755     12.666
REMARK SMILES O=C(NCCCCCCNC(=O)c1cccc([C@@H]2CCC[N@@H+](Cc3cccc(OCCO)c3)C2)c1)c1ccc(-c2c3nc(c(-c4c(F)cc(S(=O)(=O)[O-])cc4F)c4ccc([nH]4)c(-c4c(F)cc(S(=O)(=O)[O-])cc4F)c4nc(c(-c5c(F)cc(S(=O)(=O)[O-])cc5F)c5ccc2[nH]5)C=C4)C=C3)cc1
REMARK SMILES IDX 8 1 7 2 6 3 5 4 4 5 3 6 1 7 2 8 36 10 37 11 101 12 38 13
REMARK SMILES IDX 100 14 39 15 40 16 41 17 94 18 42 19 99 20 93 21 95 22 43 23
REMARK SMILES IDX 98 24 92 25 91 26 44 28 78 29 57 30 77 31 58 32 61 33 76 34
REMARK SMILES IDX 96 35 59 36 60 37 75 39 97 40 62 41 45 42 46 43 55 44 47 45
REMARK SMILES IDX 48 46 54 47 56 48 49 49 50 50 51 51 52 52 53 53 79 54 80 55
REMARK SMILES IDX 89 56 81 57 82 58 88 59 90 60 83 61 84 62 85 63 86 64 87 65
REMARK SMILES IDX 63 66 64 67 73 68 65 69 66 70 72 71 74 72 67 73 68 74 69 75
REMARK SMILES IDX 70 76 71 77 9 78 10 79 11 80 12 82 13 83 14 84 35 85 15 86
REMARK SMILES IDX 17 87 16 88 18 89 19 90 34 91 20 92 22 93 21 94 23 96 24 97
REMARK SMILES IDX 25 98 33 99 26 100 28 101 27 102 29 103 30 104 31 105 32 106
REMARK H PARENT 3 9 95 27 61 38 10 81 22 95 32 107
REMARK Flexibility Score: inf
ROOT
ATOM      1  C   UNL A   1      39.328  23.731  27.195  1.00  0.00     0.021 C 
ENDROOT
BRANCH   1   2
ATOM      2  C   UNL A   1      40.695  23.043  27.040  1.00  0.00     0.002 C 
BRANCH   2   3
ATOM      3  C   UNL A   1      40.825  21.611  27.575  1.00  0.00     0.002 C 
BRANCH   3   4
ATOM      4  C   UNL A   1      41.049  20.509  26.538  1.00  0.00     0.021 C 
BRANCH   4   5
ATOM      5  C   UNL A   1      42.175  19.518  26.818  1.00  0.00     0.116 C 
BRANCH   5   6
ATOM      6  N   UNL A   1      42.948  19.184  25.633  1.00  0.00    -0.352 N 
ATOM      7  O   UNL A   1      44.222  19.494  23.811  1.00  0.00    -0.269 OA
ATOM      8  C   UNL A   1      43.784  19.957  24.867  1.00  0.00     0.251 C 
ATOM      9  H   UNL A   1      42.856  18.251  25.330  1.00  0.00     0.163 HD
BRANCH   8  10
ATOM     10  C   UNL A   1      44.153  21.337  25.265  1.00  0.00     0.039 A 
ATOM     11  C   UNL A   1      43.726  22.456  24.543  1.00  0.00     0.014 A 
ATOM     12  C   UNL A   1      44.895  21.518  26.439  1.00  0.00     0.014 A 
ATOM     13  C   UNL A   1      44.134  23.737  24.925  1.00  0.00     0.010 A 
ATOM     14  C   UNL A   1      45.244  22.806  26.859  1.00  0.00     0.010 A 
ATOM     15  C   UNL A   1      44.886  23.927  26.093  1.00  0.00    -0.014 A 
BRANCH  15  16
ATOM     16  C   UNL A   1      45.256  25.294  26.548  1.00  0.00     0.031 A 
ATOM     17  C   UNL A   1      44.217  26.219  27.120  1.00  0.00     0.074 A 
ATOM     18  C   UNL A   1      46.525  25.719  26.401  1.00  0.00     0.049 A 
ATOM     19  N   UNL A   1      44.332  27.475  27.471  1.00  0.00    -0.248 NA
ATOM     20  C   UNL A   1      42.871  25.662  27.313  1.00  0.00     0.031 C 
ATOM     21  C   UNL A   1      47.623  24.919  25.855  1.00  0.00     0.029 A 
ATOM     22  N   UNL A   1      47.106  26.934  26.676  1.00  0.00    -0.354 N 
ATOM     23  C   UNL A   1      43.070  27.869  27.900  1.00  0.00     0.074 A 
ATOM     24  C   UNL A   1      42.200  26.722  27.745  1.00  0.00     0.031 C 
ATOM     25  C   UNL A   1      48.740  25.659  25.836  1.00  0.00     0.029 A 
ATOM     26  C   UNL A   1      48.429  27.005  26.308  1.00  0.00     0.049 A 
ATOM     27  H   UNL A   1      46.620  27.681  27.094  1.00  0.00     0.167 HD
ATOM     28  C   UNL A   1      42.676  29.074  28.380  1.00  0.00     0.037 A 
ATOM     29  C   UNL A   1      49.290  28.041  26.314  1.00  0.00     0.037 A 
ATOM     30  C   UNL A   1      43.552  30.210  28.529  1.00  0.00     0.049 A 
ATOM     31  C   UNL A   1      48.827  29.379  26.816  1.00  0.00     0.074 A 
ATOM     32  C   UNL A   1      43.258  31.462  29.038  1.00  0.00     0.029 A 
ATOM     33  N   UNL A   1      44.889  30.236  28.156  1.00  0.00    -0.354 N 
ATOM     34  N   UNL A   1      47.639  29.726  27.253  1.00  0.00    -0.248 NA
ATOM     35  C   UNL A   1      49.816  30.466  26.831  1.00  0.00     0.031 C 
ATOM     36  C   UNL A   1      44.400  32.261  28.922  1.00  0.00     0.029 A 
ATOM     37  C   UNL A   1      45.426  31.490  28.401  1.00  0.00     0.049 A 
ATOM     38  H   UNL A   1      45.383  29.476  27.772  1.00  0.00     0.167 HD
ATOM     39  C   UNL A   1      47.745  31.061  27.623  1.00  0.00     0.074 A 
ATOM     40  C   UNL A   1      49.112  31.462  27.357  1.00  0.00     0.031 C 
ATOM     41  C   UNL A   1      46.794  31.874  28.145  1.00  0.00     0.037 A 
BRANCH  28  42
ATOM     42  C   UNL A   1      41.222  29.236  28.742  1.00  0.00     0.058 A 
ATOM     43  C   UNL A   1      40.218  29.339  27.765  1.00  0.00     0.135 A 
ATOM     44  C   UNL A   1      40.827  29.284  30.090  1.00  0.00     0.135 A 
ATOM     45  F   UNL A   1      40.538  29.307  26.462  1.00  0.00    -0.206 F 
ATOM     46  C   UNL A   1      38.885  29.540  28.109  1.00  0.00     0.059 A 
ATOM     47  C   UNL A   1      39.496  29.453  30.458  1.00  0.00     0.059 A 
ATOM     48  F   UNL A   1      41.742  29.180  31.067  1.00  0.00    -0.206 F 
ATOM     49  C   UNL A   1      38.535  29.607  29.460  1.00  0.00     0.060 A 
BRANCH  49  50
ATOM     50  S   UNL A   1      36.810  29.921  29.888  1.00  0.00     0.124 S 
ATOM     51  O   UNL A   1      36.126  29.461  28.684  1.00  0.00    -0.237 OA
ATOM     52  O   UNL A   1      36.625  29.098  31.076  1.00  0.00    -0.237 OA
ATOM     53  O   UNL A   1      36.773  31.365  30.116  1.00  0.00    -0.744 OA
ENDBRANCH  49  50
ENDBRANCH  28  42
BRANCH  29  54
ATOM     54  C   UNL A   1      50.674  27.832  25.817  1.00  0.00     0.058 A 
ATOM     55  C   UNL A   1      50.971  27.906  24.450  1.00  0.00     0.135 A 
ATOM     56  C   UNL A   1      51.741  27.636  26.710  1.00  0.00     0.135 A 
ATOM     57  F   UNL A   1      49.985  28.085  23.558  1.00  0.00    -0.206 F 
ATOM     58  C   UNL A   1      52.279  27.807  23.984  1.00  0.00     0.059 A 
ATOM     59  C   UNL A   1      53.059  27.559  26.271  1.00  0.00     0.059 A 
ATOM     60  F   UNL A   1      51.509  27.574  28.031  1.00  0.00    -0.206 F 
ATOM     61  C   UNL A   1      53.317  27.646  24.904  1.00  0.00     0.060 A 
BRANCH  61  62
ATOM     62  S   UNL A   1      55.016  27.619  24.293  1.00  0.00     0.124 S 
ATOM     63  O   UNL A   1      55.707  26.923  25.373  1.00  0.00    -0.237 OA
ATOM     64  O   UNL A   1      54.878  26.880  23.042  1.00  0.00    -0.237 OA
ATOM     65  O   UNL A   1      55.341  29.035  24.143  1.00  0.00    -0.744 OA
ENDBRANCH  61  62
ENDBRANCH  29  54
BRANCH  41  66
ATOM     66  C   UNL A   1      47.198  33.274  28.522  1.00  0.00     0.058 A 
ATOM     67  C   UNL A   1      47.670  33.593  29.804  1.00  0.00     0.135 A 
ATOM     68  C   UNL A   1      47.200  34.289  27.551  1.00  0.00     0.135 A 
ATOM     69  F   UNL A   1      47.678  32.663  30.772  1.00  0.00    -0.206 F 
ATOM     70  C   UNL A   1      48.135  34.869  30.109  1.00  0.00     0.059 A 
ATOM     71  C   UNL A   1      47.682  35.564  27.826  1.00  0.00     0.059 A 
ATOM     72  F   UNL A   1      46.761  34.035  26.307  1.00  0.00    -0.206 F 
ATOM     73  C   UNL A   1      48.146  35.845  29.110  1.00  0.00     0.060 A 
BRANCH  73  74
ATOM     74  S   UNL A   1      48.825  37.474  29.496  1.00  0.00     0.124 S 
ATOM     75  O   UNL A   1      50.051  37.477  28.705  1.00  0.00    -0.237 OA
ATOM     76  O   UNL A   1      47.770  38.370  29.034  1.00  0.00    -0.237 OA
ATOM     77  O   UNL A   1      49.013  37.429  30.943  1.00  0.00    -0.744 OA
ENDBRANCH  73  74
ENDBRANCH  41  66
ENDBRANCH  15  16
ENDBRANCH   8  10
ENDBRANCH   5   6
ENDBRANCH   4   5
ENDBRANCH   3   4
ENDBRANCH   2   3
ENDBRANCH   1   2
BRANCH   1  78
ATOM     78  C   UNL A   1      38.336  23.542  26.042  1.00  0.00     0.116 C 
BRANCH  78  79
ATOM     79  N   UNL A   1      37.760  22.209  25.955  1.00  0.00    -0.352 N 
ATOM     80  C   UNL A   1      36.554  21.814  25.421  1.00  0.00     0.251 C 
ATOM     81  H   UNL A   1      38.312  21.487  26.332  1.00  0.00     0.163 HD
ATOM     82  O   UNL A   1      36.242  20.621  25.416  1.00  0.00    -0.269 OA
BRANCH  80  83
ATOM     83  C   UNL A   1      35.593  22.807  24.894  1.00  0.00     0.040 A 
ATOM     84  C   UNL A   1      35.304  22.802  23.529  1.00  0.00     0.014 A 
ATOM     85  C   UNL A   1      34.969  23.729  25.739  1.00  0.00     0.018 A 
ATOM     86  C   UNL A   1      34.360  23.696  23.020  1.00  0.00     0.001 A 
ATOM     87  C   UNL A   1      33.928  24.555  25.262  1.00  0.00    -0.039 A 
ATOM     88  C   UNL A   1      33.670  24.558  23.881  1.00  0.00     0.004 A 
BRANCH  87  89
ATOM     89  C   UNL A   1      32.884  25.172  26.205  1.00  0.00     0.074 C 
ATOM     90  C   UNL A   1      31.409  24.765  26.099  1.00  0.00     0.020 C 
ATOM     91  C   UNL A   1      33.024  26.701  26.200  1.00  0.00     0.270 C 
ATOM     92  C   UNL A   1      30.572  25.628  25.147  1.00  0.00     0.062 C 
ATOM     93  N   UNL A   1      32.300  27.327  25.098  1.00  0.00    -0.331 N 
ATOM     94  C   UNL A   1      30.868  27.132  25.241  1.00  0.00     0.262 C 
ATOM     95  H   UNL A   1      32.587  26.814  24.264  1.00  0.00     0.348 HD
BRANCH  93  96
ATOM     96  C   UNL A   1      32.733  28.657  24.674  1.00  0.00     0.299 C 
BRANCH  96  97
ATOM     97  C   UNL A   1      32.445  29.860  25.542  1.00  0.00     0.010 A 
ATOM     98  C   UNL A   1      31.268  30.587  25.342  1.00  0.00     0.010 A 
ATOM     99  C   UNL A   1      33.372  30.362  26.476  1.00  0.00     0.056 A 
ATOM    100  C   UNL A   1      31.004  31.729  26.101  1.00  0.00     0.004 A 
ATOM    101  C   UNL A   1      33.079  31.437  27.311  1.00  0.00     0.119 A 
ATOM    102  C   UNL A   1      31.894  32.134  27.098  1.00  0.00     0.046 A 
BRANCH 101 103
ATOM    103  O   UNL A   1      33.857  31.877  28.344  1.00  0.00    -0.491 OA
BRANCH 103 104
ATOM    104  C   UNL A   1      34.423  33.195  28.306  1.00  0.00     0.257 C 
BRANCH 104 105
ATOM    105  C   UNL A   1      34.390  33.900  29.666  1.00  0.00     0.197 C 
BRANCH 105 106
ATOM    106  O   UNL A   1      34.357  35.317  29.548  1.00  0.00    -0.393 OA
ATOM    107  H   UNL A   1      34.873  35.589  28.773  1.00  0.00     0.210 HD
ENDBRANCH 105 106
ENDBRANCH 104 105
ENDBRANCH 103 104
ENDBRANCH 101 103
ENDBRANCH  96  97
ENDBRANCH  93  96
ENDBRANCH  87  89
ENDBRANCH  80  83
ENDBRANCH  78  79
ENDBRANCH   1  78
TORSDOF 23
ENDMDL
