MODEL 1
REMARK VINA RESULT:     -11.8      0.000      0.000
REMARK SMILES Cc1cccc(C[N@@H+](C)C[C@]2(C(=O)NCCCCCCNC(=O)c3ccc(-c4c5nc(c(-c6c(F)cc(S(=O)(=O)[O-])cc6F)c6ccc([nH]6)c(-c6c(F)cc(S(=O)(=O)[O-])cc6F)c6nc(c(-c7c(F)cc(S(=O)(=O)[O-])cc7F)c7ccc4[nH]7)C=C6)C=C5)cc3)CCC[C@H](C)C2)n1
REMARK SMILES IDX 17 1 16 2 15 3 14 4 12 5 13 6 11 8 90 9 95 10 91 11 93 12
REMARK SMILES IDX 92 13 94 14 10 15 8 16 9 17 7 19 6 20 1 21 2 22 3 23 96 24
REMARK SMILES IDX 4 25 5 26 18 27 19 28 20 29 21 30 22 31 23 33 24 34 25 35
REMARK SMILES IDX 89 36 26 37 88 38 27 39 28 40 29 41 82 42 30 43 87 44 81 45
REMARK SMILES IDX 83 46 31 47 86 48 80 49 79 50 32 52 66 53 45 54 65 55 46 56
REMARK SMILES IDX 49 57 64 58 84 59 47 60 48 61 63 63 85 64 50 65 33 66 34 67
REMARK SMILES IDX 43 68 35 69 36 70 42 71 44 72 37 73 38 74 39 75 40 76 41 77
REMARK SMILES IDX 67 78 68 79 77 80 69 81 70 82 76 83 78 84 71 85 72 86 73 87
REMARK SMILES IDX 74 88 75 89 51 90 52 91 61 92 53 93 54 94 60 95 62 96 55 97
REMARK SMILES IDX 56 98 57 99 58 100 59 101
REMARK H PARENT 14 7 8 18 21 32 83 51 49 62
REMARK Flexibility Score: inf
ROOT
ATOM      1  C   UNL A   1      34.912  23.310  25.319  1.00  0.00     0.002 C 
ENDROOT
BRANCH   1   2
ATOM      2  C   UNL A   1      34.256  24.351  26.225  1.00  0.00     0.021 C 
BRANCH   2   3
ATOM      3  C   UNL A   1      33.068  25.061  25.597  1.00  0.00     0.116 C 
BRANCH   3   4
ATOM      4  N   UNL A   1      32.310  25.841  26.548  1.00  0.00    -0.355 N 
ATOM      5  C   UNL A   1      31.886  27.132  26.495  1.00  0.00     0.231 C 
ATOM      6  O   UNL A   1      31.017  27.437  27.324  1.00  0.00    -0.274 OA
ATOM      7  H   UNL A   1      32.058  25.358  27.369  1.00  0.00     0.163 HD
BRANCH   5   8
ATOM      8  C   UNL A   1      32.454  28.187  25.497  1.00  0.00     0.098 C 
ATOM      9  C   UNL A   1      31.689  29.537  25.752  1.00  0.00     0.023 C 
ATOM     10  C   UNL A   1      33.954  28.508  25.708  1.00  0.00     0.026 C 
ATOM     11  C   UNL A   1      32.007  30.198  27.099  1.00  0.00     0.002 C 
ATOM     12  C   UNL A   1      34.266  29.081  27.099  1.00  0.00    -0.013 C 
ATOM     13  C   UNL A   1      33.503  30.388  27.314  1.00  0.00     0.003 C 
ATOM     14  C   UNL A   1      35.771  29.301  27.263  1.00  0.00     0.007 C 
BRANCH   8  15
ATOM     15  C   UNL A   1      32.092  27.767  24.020  1.00  0.00     0.279 C 
BRANCH  15  16
ATOM     16  N   UNL A   1      30.700  27.959  23.587  1.00  0.00    -0.331 N 
ATOM     17  C   UNL A   1      29.948  26.705  23.493  1.00  0.00     0.333 C 
ATOM     18  H   UNL A   1      30.327  28.535  24.342  1.00  0.00     0.348 HD
BRANCH  16  19
ATOM     19  C   UNL A   1      30.510  28.723  22.331  1.00  0.00     0.319 C 
BRANCH  19  20
ATOM     20  C   UNL A   1      29.613  29.953  22.382  1.00  0.00     0.095 A 
ATOM     21  C   UNL A   1      27.844  32.123  19.988  1.00  0.00     0.067 C 
ATOM     22  C   UNL A   1      28.343  31.566  21.287  1.00  0.00     0.038 A 
ATOM     23  C   UNL A   1      27.953  32.136  22.494  1.00  0.00     0.023 A 
ATOM     24  N   UNL A   1      29.172  30.494  21.217  1.00  0.00    -0.252 NA
ATOM     25  C   UNL A   1      28.429  31.589  23.678  1.00  0.00     0.004 A 
ATOM     26  C   UNL A   1      29.268  30.484  23.625  1.00  0.00     0.030 A 
ENDBRANCH  19  20
ENDBRANCH  16  19
ENDBRANCH  15  16
ENDBRANCH   8  15
ENDBRANCH   5   8
ENDBRANCH   3   4
ENDBRANCH   2   3
ENDBRANCH   1   2
BRANCH   1  27
ATOM     27  C   UNL A   1      36.295  22.826  25.774  1.00  0.00     0.002 C 
BRANCH  27  28
ATOM     28  C   UNL A   1      37.472  23.734  25.403  1.00  0.00     0.021 C 
BRANCH  28  29
ATOM     29  C   UNL A   1      38.352  24.164  26.571  1.00  0.00     0.116 C 
BRANCH  29  30
ATOM     30  N   UNL A   1      39.761  23.906  26.321  1.00  0.00    -0.352 N 
ATOM     31  C   UNL A   1      40.863  24.620  26.711  1.00  0.00     0.251 C 
ATOM     32  H   UNL A   1      39.952  23.098  25.793  1.00  0.00     0.163 HD
ATOM     33  O   UNL A   1      41.967  24.351  26.237  1.00  0.00    -0.269 OA
BRANCH  31  34
ATOM     34  C   UNL A   1      40.725  25.724  27.683  1.00  0.00     0.039 A 
ATOM     35  C   UNL A   1      39.686  25.673  28.615  1.00  0.00     0.014 A 
ATOM     36  C   UNL A   1      41.611  26.804  27.673  1.00  0.00     0.014 A 
ATOM     37  C   UNL A   1      39.573  26.677  29.577  1.00  0.00     0.010 A 
ATOM     38  C   UNL A   1      41.540  27.767  28.678  1.00  0.00     0.010 A 
ATOM     39  C   UNL A   1      40.521  27.712  29.640  1.00  0.00    -0.014 A 
BRANCH  39  40
ATOM     40  C   UNL A   1      40.477  28.723  30.728  1.00  0.00     0.031 A 
ATOM     41  C   UNL A   1      41.348  28.574  31.944  1.00  0.00     0.074 A 
ATOM     42  C   UNL A   1      39.594  29.738  30.648  1.00  0.00     0.049 A 
ATOM     43  N   UNL A   1      41.404  29.322  33.015  1.00  0.00    -0.248 NA
ATOM     44  C   UNL A   1      42.259  27.418  31.971  1.00  0.00     0.031 C 
ATOM     45  C   UNL A   1      38.654  29.953  29.545  1.00  0.00     0.029 A 
ATOM     46  N   UNL A   1      39.329  30.769  31.514  1.00  0.00    -0.354 N 
ATOM     47  C   UNL A   1      42.339  28.723  33.850  1.00  0.00     0.074 A 
ATOM     48  C   UNL A   1      42.792  27.522  33.181  1.00  0.00     0.031 C 
ATOM     49  C   UNL A   1      37.926  31.053  29.795  1.00  0.00     0.029 A 
ATOM     50  C   UNL A   1      38.314  31.596  31.093  1.00  0.00     0.049 A 
ATOM     51  H   UNL A   1      39.818  30.903  32.358  1.00  0.00     0.167 HD
ATOM     52  C   UNL A   1      42.793  29.145  35.054  1.00  0.00     0.037 A 
ATOM     53  C   UNL A   1      37.747  32.663  31.689  1.00  0.00     0.037 A 
ATOM     54  C   UNL A   1      42.345  30.351  35.704  1.00  0.00     0.049 A 
ATOM     55  C   UNL A   1      38.266  33.115  33.025  1.00  0.00     0.074 A 
ATOM     56  C   UNL A   1      42.797  30.908  36.887  1.00  0.00     0.029 A 
ATOM     57  N   UNL A   1      41.333  31.177  35.236  1.00  0.00    -0.354 N 
ATOM     58  N   UNL A   1      39.216  32.588  33.761  1.00  0.00    -0.248 NA
ATOM     59  C   UNL A   1      37.643  34.309  33.612  1.00  0.00     0.031 C 
ATOM     60  C   UNL A   1      42.017  32.036  37.166  1.00  0.00     0.029 A 
ATOM     61  C   UNL A   1      41.120  32.219  36.126  1.00  0.00     0.049 A 
ATOM     62  H   UNL A   1      40.838  31.043  34.395  1.00  0.00     0.167 HD
ATOM     63  C   UNL A   1      39.317  33.394  34.890  1.00  0.00     0.074 A 
ATOM     64  C   UNL A   1      38.344  34.455  34.730  1.00  0.00     0.031 C 
ATOM     65  C   UNL A   1      40.140  33.265  35.959  1.00  0.00     0.037 A 
BRANCH  52  66
ATOM     66  C   UNL A   1      43.815  28.292  35.757  1.00  0.00     0.058 A 
ATOM     67  C   UNL A   1      43.447  27.296  36.676  1.00  0.00     0.135 A 
ATOM     68  C   UNL A   1      45.185  28.453  35.485  1.00  0.00     0.135 A 
ATOM     69  F   UNL A   1      42.155  27.104  36.984  1.00  0.00    -0.206 F 
ATOM     70  C   UNL A   1      44.398  26.517  37.328  1.00  0.00     0.059 A 
ATOM     71  C   UNL A   1      46.152  27.663  36.100  1.00  0.00     0.059 A 
ATOM     72  F   UNL A   1      45.595  29.387  34.613  1.00  0.00    -0.206 F 
ATOM     73  C   UNL A   1      45.750  26.710  37.035  1.00  0.00     0.060 A 
BRANCH  73  74
ATOM     74  S   UNL A   1      46.972  25.697  37.894  1.00  0.00     0.124 S 
ATOM     75  O   UNL A   1      47.938  26.706  38.318  1.00  0.00    -0.237 OA
ATOM     76  O   UNL A   1      46.181  25.091  38.960  1.00  0.00    -0.237 OA
ATOM     77  O   UNL A   1      47.438  24.777  36.863  1.00  0.00    -0.744 OA
ENDBRANCH  73  74
ENDBRANCH  52  66
BRANCH  53  78
ATOM     78  C   UNL A   1      36.624  33.368  31.017  1.00  0.00     0.058 A 
ATOM     79  C   UNL A   1      36.846  34.205  29.913  1.00  0.00     0.135 A 
ATOM     80  C   UNL A   1      35.297  33.185  31.440  1.00  0.00     0.135 A 
ATOM     81  F   UNL A   1      38.096  34.419  29.475  1.00  0.00    -0.206 F 
ATOM     82  C   UNL A   1      35.797  34.842  29.258  1.00  0.00     0.059 A 
ATOM     83  C   UNL A   1      34.229  33.787  30.784  1.00  0.00     0.059 A 
ATOM     84  F   UNL A   1      35.028  32.381  32.480  1.00  0.00    -0.206 F 
ATOM     85  C   UNL A   1      34.490  34.620  29.696  1.00  0.00     0.060 A 
BRANCH  85  86
ATOM     86  S   UNL A   1      33.129  35.394  28.795  1.00  0.00     0.124 S 
ATOM     87  O   UNL A   1      33.842  36.331  27.934  1.00  0.00    -0.237 OA
ATOM     88  O   UNL A   1      32.516  34.251  28.127  1.00  0.00    -0.237 OA
ATOM     89  O   UNL A   1      32.325  35.997  29.855  1.00  0.00    -0.744 OA
ENDBRANCH  85  86
ENDBRANCH  53  78
BRANCH  65  90
ATOM     90  C   UNL A   1      40.038  34.307  37.041  1.00  0.00     0.058 A 
ATOM     91  C   UNL A   1      40.759  35.510  36.978  1.00  0.00     0.135 A 
ATOM     92  C   UNL A   1      39.163  34.124  38.125  1.00  0.00     0.135 A 
ATOM     93  F   UNL A   1      41.615  35.733  35.969  1.00  0.00    -0.206 F 
ATOM     94  C   UNL A   1      40.633  36.485  37.963  1.00  0.00     0.059 A 
ATOM     95  C   UNL A   1      38.999  35.099  39.104  1.00  0.00     0.059 A 
ATOM     96  F   UNL A   1      38.442  32.996  38.229  1.00  0.00    -0.206 F 
ATOM     97  C   UNL A   1      39.746  36.272  39.019  1.00  0.00     0.060 A 
BRANCH  97  98
ATOM     98  S   UNL A   1      39.564  37.563  40.268  1.00  0.00     0.124 S 
ATOM     99  O   UNL A   1      38.241  38.093  39.954  1.00  0.00    -0.237 OA
ATOM    100  O   UNL A   1      39.666  36.808  41.513  1.00  0.00    -0.237 OA
ATOM    101  O   UNL A   1      40.681  38.462  39.994  1.00  0.00    -0.744 OA
ENDBRANCH  97  98
ENDBRANCH  65  90
ENDBRANCH  39  40
ENDBRANCH  31  34
ENDBRANCH  29  30
ENDBRANCH  28  29
ENDBRANCH  27  28
ENDBRANCH   1  27
TORSDOF 20
ENDMDL
MODEL 2
REMARK VINA RESULT:     -11.4      6.516     12.133
REMARK SMILES Cc1cccc(C[N@@H+](C)C[C@]2(C(=O)NCCCCCCNC(=O)c3ccc(-c4c5nc(c(-c6c(F)cc(S(=O)(=O)[O-])cc6F)c6ccc([nH]6)c(-c6c(F)cc(S(=O)(=O)[O-])cc6F)c6nc(c(-c7c(F)cc(S(=O)(=O)[O-])cc7F)c7ccc4[nH]7)C=C6)C=C5)cc3)CCC[C@H](C)C2)n1
REMARK SMILES IDX 17 1 16 2 15 3 14 4 12 5 13 6 11 8 90 9 95 10 91 11 93 12
REMARK SMILES IDX 92 13 94 14 10 15 8 16 9 17 7 19 6 20 1 21 2 22 3 23 96 24
REMARK SMILES IDX 4 25 5 26 18 27 19 28 20 29 21 30 22 31 23 33 24 34 25 35
REMARK SMILES IDX 89 36 26 37 88 38 27 39 28 40 29 41 82 42 30 43 87 44 81 45
REMARK SMILES IDX 83 46 31 47 86 48 80 49 79 50 32 52 66 53 45 54 65 55 46 56
REMARK SMILES IDX 49 57 64 58 84 59 47 60 48 61 63 63 85 64 50 65 33 66 34 67
REMARK SMILES IDX 43 68 35 69 36 70 42 71 44 72 37 73 38 74 39 75 40 76 41 77
REMARK SMILES IDX 67 78 68 79 77 80 69 81 70 82 76 83 78 84 71 85 72 86 73 87
REMARK SMILES IDX 74 88 75 89 51 90 52 91 61 92 53 93 54 94 60 95 62 96 55 97
REMARK SMILES IDX 56 98 57 99 58 100 59 101
REMARK H PARENT 14 7 8 18 21 32 83 51 49 62
REMARK Flexibility Score: inf
ROOT
ATOM      1  C   UNL A   1      34.719  29.709  27.633  1.00  0.00     0.002 C 
ENDROOT
BRANCH   1   2
ATOM      2  C   UNL A   1      34.158  29.221  26.299  1.00  0.00     0.021 C 
BRANCH   2   3
ATOM      3  C   UNL A   1      32.682  29.525  26.096  1.00  0.00     0.116 C 
BRANCH   3   4
ATOM      4  N   UNL A   1      31.823  28.426  26.473  1.00  0.00    -0.355 N 
ATOM      5  C   UNL A   1      31.425  27.333  25.768  1.00  0.00     0.231 C 
ATOM      6  O   UNL A   1      30.922  26.425  26.444  1.00  0.00    -0.274 OA
ATOM      7  H   UNL A   1      31.468  28.477  27.390  1.00  0.00     0.163 HD
BRANCH   5   8
ATOM      8  C   UNL A   1      31.547  27.214  24.219  1.00  0.00     0.098 C 
ATOM      9  C   UNL A   1      30.537  26.104  23.750  1.00  0.00     0.023 C 
ATOM     10  C   UNL A   1      31.142  28.498  23.454  1.00  0.00     0.026 C 
ATOM     11  C   UNL A   1      29.059  26.488  23.905  1.00  0.00     0.002 C 
ATOM     12  C   UNL A   1      29.685  28.921  23.698  1.00  0.00    -0.013 C 
ATOM     13  C   UNL A   1      28.733  27.818  23.237  1.00  0.00     0.003 C 
ATOM     14  C   UNL A   1      29.380  30.235  22.977  1.00  0.00     0.007 C 
BRANCH   8  15
ATOM     15  C   UNL A   1      32.979  26.670  23.840  1.00  0.00     0.279 C 
BRANCH  15  16
ATOM     16  N   UNL A   1      33.372  25.366  24.394  1.00  0.00    -0.331 N 
ATOM     17  C   UNL A   1      34.270  25.476  25.547  1.00  0.00     0.333 C 
ATOM     18  H   UNL A   1      32.471  24.986  24.686  1.00  0.00     0.348 HD
BRANCH  16  19
ATOM     19  C   UNL A   1      33.952  24.400  23.430  1.00  0.00     0.319 C 
BRANCH  19  20
ATOM     20  C   UNL A   1      34.308  23.013  23.950  1.00  0.00     0.095 A 
ATOM     21  C   UNL A   1      37.362  21.130  24.786  1.00  0.00     0.067 C 
ATOM     22  C   UNL A   1      35.911  21.457  24.600  1.00  0.00     0.038 A 
ATOM     23  C   UNL A   1      34.931  20.530  24.940  1.00  0.00     0.023 A 
ATOM     24  N   UNL A   1      35.617  22.683  24.099  1.00  0.00    -0.252 NA
ATOM     25  C   UNL A   1      33.597  20.870  24.762  1.00  0.00     0.004 A 
ATOM     26  C   UNL A   1      33.278  22.126  24.262  1.00  0.00     0.030 A 
ENDBRANCH  19  20
ENDBRANCH  16  19
ENDBRANCH  15  16
ENDBRANCH   8  15
ENDBRANCH   5   8
ENDBRANCH   3   4
ENDBRANCH   2   3
ENDBRANCH   1   2
BRANCH   1  27
ATOM     27  C   UNL A   1      34.435  31.180  27.963  1.00  0.00     0.002 C 
BRANCH  27  28
ATOM     28  C   UNL A   1      35.636  32.127  27.867  1.00  0.00     0.021 C 
BRANCH  28  29
ATOM     29  C   UNL A   1      36.261  32.518  29.201  1.00  0.00     0.116 C 
BRANCH  29  30
ATOM     30  N   UNL A   1      35.923  31.582  30.261  1.00  0.00    -0.352 N 
ATOM     31  C   UNL A   1      36.605  30.479  30.703  1.00  0.00     0.251 C 
ATOM     32  H   UNL A   1      35.079  31.768  30.732  1.00  0.00     0.163 HD
ATOM     33  O   UNL A   1      36.063  29.696  31.484  1.00  0.00    -0.269 OA
BRANCH  31  34
ATOM     34  C   UNL A   1      37.980  30.219  30.230  1.00  0.00     0.039 A 
ATOM     35  C   UNL A   1      39.026  30.251  31.154  1.00  0.00     0.014 A 
ATOM     36  C   UNL A   1      38.237  29.950  28.883  1.00  0.00     0.014 A 
ATOM     37  C   UNL A   1      40.324  29.952  30.737  1.00  0.00     0.010 A 
ATOM     38  C   UNL A   1      39.519  29.583  28.483  1.00  0.00     0.010 A 
ATOM     39  C   UNL A   1      40.576  29.579  29.406  1.00  0.00    -0.014 A 
BRANCH  39  40
ATOM     40  C   UNL A   1      41.931  29.150  28.975  1.00  0.00     0.031 A 
ATOM     41  C   UNL A   1      43.052  30.147  28.875  1.00  0.00     0.074 A 
ATOM     42  C   UNL A   1      42.129  27.869  28.604  1.00  0.00     0.049 A 
ATOM     43  N   UNL A   1      44.280  29.967  28.464  1.00  0.00    -0.248 NA
ATOM     44  C   UNL A   1      42.745  31.533  29.263  1.00  0.00     0.031 C 
ATOM     45  C   UNL A   1      41.102  26.824  28.601  1.00  0.00     0.029 A 
ATOM     46  N   UNL A   1      43.252  27.230  28.142  1.00  0.00    -0.354 N 
ATOM     47  C   UNL A   1      44.889  31.215  28.528  1.00  0.00     0.074 A 
ATOM     48  C   UNL A   1      43.880  32.152  28.972  1.00  0.00     0.031 C 
ATOM     49  C   UNL A   1      41.645  25.674  28.173  1.00  0.00     0.029 A 
ATOM     50  C   UNL A   1      43.044  25.907  27.829  1.00  0.00     0.049 A 
ATOM     51  H   UNL A   1      44.124  27.677  28.045  1.00  0.00     0.167 HD
ATOM     52  C   UNL A   1      46.175  31.544  28.259  1.00  0.00     0.037 A 
ATOM     53  C   UNL A   1      43.879  24.988  27.307  1.00  0.00     0.037 A 
ATOM     54  C   UNL A   1      47.174  30.598  27.831  1.00  0.00     0.049 A 
ATOM     55  C   UNL A   1      45.303  25.374  27.016  1.00  0.00     0.074 A 
ATOM     56  C   UNL A   1      48.523  30.815  27.607  1.00  0.00     0.029 A 
ATOM     57  N   UNL A   1      46.933  29.261  27.547  1.00  0.00    -0.354 N 
ATOM     58  N   UNL A   1      45.887  26.539  27.169  1.00  0.00    -0.248 NA
ATOM     59  C   UNL A   1      46.183  24.324  26.490  1.00  0.00     0.031 C 
ATOM     60  C   UNL A   1      49.083  29.626  27.129  1.00  0.00     0.029 A 
ATOM     61  C   UNL A   1      48.100  28.650  27.113  1.00  0.00     0.049 A 
ATOM     62  H   UNL A   1      46.061  28.812  27.639  1.00  0.00     0.167 HD
ATOM     63  C   UNL A   1      47.208  26.359  26.773  1.00  0.00     0.074 A 
ATOM     64  C   UNL A   1      47.340  24.968  26.392  1.00  0.00     0.031 C 
ATOM     65  C   UNL A   1      48.216  27.264  26.728  1.00  0.00     0.037 A 
BRANCH  52  66
ATOM     66  C   UNL A   1      46.574  32.989  28.404  1.00  0.00     0.058 A 
ATOM     67  C   UNL A   1      46.476  33.898  27.338  1.00  0.00     0.135 A 
ATOM     68  C   UNL A   1      47.034  33.479  29.638  1.00  0.00     0.135 A 
ATOM     69  F   UNL A   1      46.053  33.484  26.133  1.00  0.00    -0.206 F 
ATOM     70  C   UNL A   1      46.854  35.230  27.478  1.00  0.00     0.059 A 
ATOM     71  C   UNL A   1      47.387  34.815  29.810  1.00  0.00     0.059 A 
ATOM     72  F   UNL A   1      47.146  32.657  30.693  1.00  0.00    -0.206 F 
ATOM     73  C   UNL A   1      47.312  35.679  28.719  1.00  0.00     0.060 A 
BRANCH  73  74
ATOM     74  S   UNL A   1      47.806  37.407  28.881  1.00  0.00     0.124 S 
ATOM     75  O   UNL A   1      46.631  38.095  28.356  1.00  0.00    -0.237 OA
ATOM     76  O   UNL A   1      48.026  37.535  30.318  1.00  0.00    -0.237 OA
ATOM     77  O   UNL A   1      49.005  37.497  28.056  1.00  0.00    -0.744 OA
ENDBRANCH  73  74
ENDBRANCH  52  66
BRANCH  53  78
ATOM     78  C   UNL A   1      43.379  23.615  27.029  1.00  0.00     0.058 A 
ATOM     79  C   UNL A   1      43.139  23.179  25.718  1.00  0.00     0.135 A 
ATOM     80  C   UNL A   1      43.170  22.697  28.072  1.00  0.00     0.135 A 
ATOM     81  F   UNL A   1      43.316  24.021  24.688  1.00  0.00    -0.206 F 
ATOM     82  C   UNL A   1      42.703  21.885  25.448  1.00  0.00     0.059 A 
ATOM     83  C   UNL A   1      42.763  21.390  27.825  1.00  0.00     0.059 A 
ATOM     84  F   UNL A   1      43.401  23.059  29.342  1.00  0.00    -0.206 F 
ATOM     85  C   UNL A   1      42.526  20.995  26.509  1.00  0.00     0.060 A 
BRANCH  85  86
ATOM     86  S   UNL A   1      42.029  19.298  26.144  1.00  0.00     0.124 S 
ATOM     87  O   UNL A   1      40.590  19.447  25.954  1.00  0.00    -0.237 OA
ATOM     88  O   UNL A   1      42.806  19.003  24.944  1.00  0.00    -0.237 OA
ATOM     89  O   UNL A   1      42.435  18.564  27.340  1.00  0.00    -0.744 OA
ENDBRANCH  85  86
ENDBRANCH  53  78
BRANCH  65  90
ATOM     90  C   UNL A   1      49.563  26.778  26.264  1.00  0.00     0.058 A 
ATOM     91  C   UNL A   1      49.993  26.949  24.939  1.00  0.00     0.135 A 
ATOM     92  C   UNL A   1      50.458  26.185  27.171  1.00  0.00     0.135 A 
ATOM     93  F   UNL A   1      49.176  27.502  24.029  1.00  0.00    -0.206 F 
ATOM     94  C   UNL A   1      51.254  26.530  24.525  1.00  0.00     0.059 A 
ATOM     95  C   UNL A   1      51.733  25.788  26.785  1.00  0.00     0.059 A 
ATOM     96  F   UNL A   1      50.101  26.006  28.453  1.00  0.00    -0.206 F 
ATOM     97  C   UNL A   1      52.119  25.955  25.457  1.00  0.00     0.060 A 
BRANCH  97  98
ATOM     98  S   UNL A   1      53.765  25.452  24.912  1.00  0.00     0.124 S 
ATOM     99  O   UNL A   1      53.770  24.034  25.259  1.00  0.00    -0.237 OA
ATOM    100  O   UNL A   1      53.727  25.756  23.485  1.00  0.00    -0.237 OA
ATOM    101  O   UNL A   1      54.658  26.295  25.703  1.00  0.00    -0.744 OA
ENDBRANCH  97  98
ENDBRANCH  65  90
ENDBRANCH  39  40
ENDBRANCH  31  34
ENDBRANCH  29  30
ENDBRANCH  28  29
ENDBRANCH  27  28
ENDBRANCH   1  27
TORSDOF 20
ENDMDL
MODEL 3
REMARK VINA RESULT:     -11.2      2.405      3.595
REMARK SMILES Cc1cccc(C[N@@H+](C)C[C@]2(C(=O)NCCCCCCNC(=O)c3ccc(-c4c5nc(c(-c6c(F)cc(S(=O)(=O)[O-])cc6F)c6ccc([nH]6)c(-c6c(F)cc(S(=O)(=O)[O-])cc6F)c6nc(c(-c7c(F)cc(S(=O)(=O)[O-])cc7F)c7ccc4[nH]7)C=C6)C=C5)cc3)CCC[C@H](C)C2)n1
REMARK SMILES IDX 17 1 16 2 15 3 14 4 12 5 13 6 11 8 90 9 95 10 91 11 93 12
REMARK SMILES IDX 92 13 94 14 10 15 8 16 9 17 7 19 6 20 1 21 2 22 3 23 96 24
REMARK SMILES IDX 4 25 5 26 18 27 19 28 20 29 21 30 22 31 23 33 24 34 25 35
REMARK SMILES IDX 89 36 26 37 88 38 27 39 28 40 29 41 82 42 30 43 87 44 81 45
REMARK SMILES IDX 83 46 31 47 86 48 80 49 79 50 32 52 66 53 45 54 65 55 46 56
REMARK SMILES IDX 49 57 64 58 84 59 47 60 48 61 63 63 85 64 50 65 33 66 34 67
REMARK SMILES IDX 43 68 35 69 36 70 42 71 44 72 37 73 38 74 39 75 40 76 41 77
REMARK SMILES IDX 67 78 68 79 77 80 69 81 70 82 76 83 78 84 71 85 72 86 73 87
REMARK SMILES IDX 74 88 75 89 51 90 52 91 61 92 53 93 54 94 60 95 62 96 55 97
REMARK SMILES IDX 56 98 57 99 58 100 59 101
REMARK H PARENT 14 7 8 18 21 32 83 51 49 62
REMARK Flexibility Score: inf
ROOT
ATOM      1  C   UNL A   1      39.339  22.257  26.052  1.00  0.00     0.002 C 
ENDROOT
BRANCH   1   2
ATOM      2  C   UNL A   1      38.206  23.278  26.125  1.00  0.00     0.021 C 
BRANCH   2   3
ATOM      3  C   UNL A   1      36.863  22.754  25.643  1.00  0.00     0.116 C 
BRANCH   3   4
ATOM      4  N   UNL A   1      35.992  22.354  26.724  1.00  0.00    -0.355 N 
ATOM      5  C   UNL A   1      34.667  22.049  26.725  1.00  0.00     0.231 C 
ATOM      6  O   UNL A   1      34.260  21.468  27.741  1.00  0.00    -0.274 OA
ATOM      7  H   UNL A   1      36.431  22.291  27.604  1.00  0.00     0.163 HD
BRANCH   5   8
ATOM      8  C   UNL A   1      33.695  22.419  25.563  1.00  0.00     0.098 C 
ATOM      9  C   UNL A   1      32.231  22.347  26.132  1.00  0.00     0.023 C 
ATOM     10  C   UNL A   1      33.868  23.864  25.034  1.00  0.00     0.026 C 
ATOM     11  C   UNL A   1      31.898  23.437  27.159  1.00  0.00     0.002 C 
ATOM     12  C   UNL A   1      33.624  24.940  26.104  1.00  0.00    -0.013 C 
ATOM     13  C   UNL A   1      32.195  24.837  26.637  1.00  0.00     0.003 C 
ATOM     14  C   UNL A   1      33.888  26.334  25.532  1.00  0.00     0.007 C 
BRANCH   8  15
ATOM     15  C   UNL A   1      33.768  21.314  24.440  1.00  0.00     0.279 C 
BRANCH  15  16
ATOM     16  N   UNL A   1      32.523  20.999  23.723  1.00  0.00    -0.331 N 
ATOM     17  C   UNL A   1      32.374  19.572  23.426  1.00  0.00     0.333 C 
ATOM     18  H   UNL A   1      31.817  21.292  24.399  1.00  0.00     0.348 HD
BRANCH  16  19
ATOM     19  C   UNL A   1      32.276  21.772  22.482  1.00  0.00     0.319 C 
BRANCH  19  20
ATOM     20  C   UNL A   1      31.883  23.236  22.630  1.00  0.00     0.095 A 
ATOM     21  C   UNL A   1      33.192  26.516  21.578  1.00  0.00     0.067 C 
ATOM     22  C   UNL A   1      32.302  25.485  22.205  1.00  0.00     0.038 A 
ATOM     23  C   UNL A   1      31.134  25.867  22.858  1.00  0.00     0.023 A 
ATOM     24  N   UNL A   1      32.690  24.190  22.095  1.00  0.00    -0.252 NA
ATOM     25  C   UNL A   1      30.330  24.885  23.420  1.00  0.00     0.004 A 
ATOM     26  C   UNL A   1      30.706  23.553  23.306  1.00  0.00     0.030 A 
ENDBRANCH  19  20
ENDBRANCH  16  19
ENDBRANCH  15  16
ENDBRANCH   8  15
ENDBRANCH   5   8
ENDBRANCH   3   4
ENDBRANCH   2   3
ENDBRANCH   1   2
BRANCH   1  27
ATOM     27  C   UNL A   1      40.087  22.016  27.370  1.00  0.00     0.002 C 
BRANCH  27  28
ATOM     28  C   UNL A   1      41.612  21.907  27.258  1.00  0.00     0.021 C 
BRANCH  28  29
ATOM     29  C   UNL A   1      42.369  23.218  27.439  1.00  0.00     0.116 C 
BRANCH  29  30
ATOM     30  N   UNL A   1      42.539  23.931  26.184  1.00  0.00    -0.352 N 
ATOM     31  C   UNL A   1      42.290  25.244  25.883  1.00  0.00     0.251 C 
ATOM     32  H   UNL A   1      42.887  23.390  25.438  1.00  0.00     0.163 HD
ATOM     33  O   UNL A   1      42.312  25.618  24.710  1.00  0.00    -0.269 OA
BRANCH  31  34
ATOM     34  C   UNL A   1      41.975  26.204  26.960  1.00  0.00     0.039 A 
ATOM     35  C   UNL A   1      40.962  25.887  27.868  1.00  0.00     0.014 A 
ATOM     36  C   UNL A   1      42.670  27.411  27.072  1.00  0.00     0.014 A 
ATOM     37  C   UNL A   1      40.689  26.755  28.927  1.00  0.00     0.010 A 
ATOM     38  C   UNL A   1      42.445  28.240  28.168  1.00  0.00     0.010 A 
ATOM     39  C   UNL A   1      41.452  27.920  29.107  1.00  0.00    -0.014 A 
BRANCH  39  40
ATOM     40  C   UNL A   1      41.247  28.792  30.291  1.00  0.00     0.031 A 
ATOM     41  C   UNL A   1      42.077  28.606  31.531  1.00  0.00     0.074 A 
ATOM     42  C   UNL A   1      40.256  29.707  30.271  1.00  0.00     0.049 A 
ATOM     43  N   UNL A   1      42.000  29.232  32.676  1.00  0.00    -0.248 NA
ATOM     44  C   UNL A   1      43.112  27.561  31.486  1.00  0.00     0.031 C 
ATOM     45  C   UNL A   1      39.345  29.939  29.147  1.00  0.00     0.029 A 
ATOM     46  N   UNL A   1      39.838  30.600  31.225  1.00  0.00    -0.354 N 
ATOM     47  C   UNL A   1      42.962  28.650  33.493  1.00  0.00     0.074 A 
ATOM     48  C   UNL A   1      43.578  27.588  32.726  1.00  0.00     0.031 C 
ATOM     49  C   UNL A   1      38.487  30.917  29.471  1.00  0.00     0.029 A 
ATOM     50  C   UNL A   1      38.754  31.352  30.838  1.00  0.00     0.049 A 
ATOM     51  H   UNL A   1      40.272  30.692  32.104  1.00  0.00     0.167 HD
ATOM     52  C   UNL A   1      43.312  28.983  34.758  1.00  0.00     0.037 A 
ATOM     53  C   UNL A   1      38.042  32.277  31.512  1.00  0.00     0.037 A 
ATOM     54  C   UNL A   1      42.701  30.053  35.506  1.00  0.00     0.049 A 
ATOM     55  C   UNL A   1      38.449  32.633  32.915  1.00  0.00     0.074 A 
ATOM     56  C   UNL A   1      43.035  30.522  36.765  1.00  0.00     0.029 A 
ATOM     57  N   UNL A   1      41.622  30.810  35.073  1.00  0.00    -0.354 N 
ATOM     58  N   UNL A   1      39.421  32.135  33.642  1.00  0.00    -0.248 NA
ATOM     59  C   UNL A   1      37.668  33.678  33.590  1.00  0.00     0.031 C 
ATOM     60  C   UNL A   1      42.120  31.519  37.117  1.00  0.00     0.029 A 
ATOM     61  C   UNL A   1      41.253  31.717  36.055  1.00  0.00     0.049 A 
ATOM     62  H   UNL A   1      41.182  30.717  34.197  1.00  0.00     0.167 HD
ATOM     63  C   UNL A   1      39.380  32.817  34.853  1.00  0.00     0.074 A 
ATOM     64  C   UNL A   1      38.299  33.775  34.753  1.00  0.00     0.031 C 
ATOM     65  C   UNL A   1      40.167  32.661  35.946  1.00  0.00     0.037 A 
BRANCH  52  66
ATOM     66  C   UNL A   1      44.395  28.175  35.422  1.00  0.00     0.058 A 
ATOM     67  C   UNL A   1      45.752  28.525  35.320  1.00  0.00     0.135 A 
ATOM     68  C   UNL A   1      44.070  27.048  36.195  1.00  0.00     0.135 A 
ATOM     69  F   UNL A   1      46.124  29.584  34.585  1.00  0.00    -0.206 F 
ATOM     70  C   UNL A   1      46.748  27.767  35.929  1.00  0.00     0.059 A 
ATOM     71  C   UNL A   1      45.047  26.294  36.840  1.00  0.00     0.059 A 
ATOM     72  F   UNL A   1      42.790  26.667  36.330  1.00  0.00    -0.206 F 
ATOM     73  C   UNL A   1      46.385  26.651  36.686  1.00  0.00     0.060 A 
BRANCH  73  74
ATOM     74  S   UNL A   1      47.690  25.675  37.462  1.00  0.00     0.124 S 
ATOM     75  O   UNL A   1      47.675  24.467  36.642  1.00  0.00    -0.237 OA
ATOM     76  O   UNL A   1      48.858  26.534  37.304  1.00  0.00    -0.237 OA
ATOM     77  O   UNL A   1      47.219  25.507  38.833  1.00  0.00    -0.744 OA
ENDBRANCH  73  74
ENDBRANCH  52  66
BRANCH  53  78
ATOM     78  C   UNL A   1      36.875  32.925  30.857  1.00  0.00     0.058 A 
ATOM     79  C   UNL A   1      35.561  32.572  31.198  1.00  0.00     0.135 A 
ATOM     80  C   UNL A   1      37.052  33.943  29.906  1.00  0.00     0.135 A 
ATOM     81  F   UNL A   1      35.339  31.600  32.095  1.00  0.00    -0.206 F 
ATOM     82  C   UNL A   1      34.463  33.199  30.615  1.00  0.00     0.059 A 
ATOM     83  C   UNL A   1      35.971  34.603  29.330  1.00  0.00     0.059 A 
ATOM     84  F   UNL A   1      38.288  34.330  29.558  1.00  0.00    -0.206 F 
ATOM     85  C   UNL A   1      34.680  34.219  29.687  1.00  0.00     0.060 A 
BRANCH  85  86
ATOM     86  S   UNL A   1      33.250  35.074  28.988  1.00  0.00     0.124 S 
ATOM     87  O   UNL A   1      33.871  36.259  28.407  1.00  0.00    -0.237 OA
ATOM     88  O   UNL A   1      32.739  34.089  28.040  1.00  0.00    -0.237 OA
ATOM     89  O   UNL A   1      32.400  35.312  30.152  1.00  0.00    -0.744 OA
ENDBRANCH  85  86
ENDBRANCH  53  78
BRANCH  65  90
ATOM     90  C   UNL A   1      39.900  33.559  37.125  1.00  0.00     0.058 A 
ATOM     91  C   UNL A   1      40.576  34.777  37.293  1.00  0.00     0.135 A 
ATOM     92  C   UNL A   1      38.913  33.222  38.066  1.00  0.00     0.135 A 
ATOM     93  F   UNL A   1      41.533  35.144  36.428  1.00  0.00    -0.206 F 
ATOM     94  C   UNL A   1      40.298  35.620  38.365  1.00  0.00     0.059 A 
ATOM     95  C   UNL A   1      38.598  34.064  39.128  1.00  0.00     0.059 A 
ATOM     96  F   UNL A   1      38.228  32.073  37.948  1.00  0.00    -0.206 F 
ATOM     97  C   UNL A   1      39.304  35.257  39.275  1.00  0.00     0.060 A 
BRANCH  97  98
ATOM     98  S   UNL A   1      38.929  36.379  40.638  1.00  0.00     0.124 S 
ATOM     99  O   UNL A   1      38.543  37.592  39.924  1.00  0.00    -0.237 OA
ATOM    100  O   UNL A   1      37.850  35.680  41.329  1.00  0.00    -0.237 OA
ATOM    101  O   UNL A   1      40.188  36.457  41.372  1.00  0.00    -0.744 OA
ENDBRANCH  97  98
ENDBRANCH  65  90
ENDBRANCH  39  40
ENDBRANCH  31  34
ENDBRANCH  29  30
ENDBRANCH  28  29
ENDBRANCH  27  28
ENDBRANCH   1  27
TORSDOF 20
ENDMDL
