MODEL 1
REMARK VINA RESULT:     -11.1      0.000      0.000
REMARK SMILES O=C(CC[C@@H]1CN(c2ccncc2)CC[C@@H]1[NH+]1CCOCC1)NCCCCCCNC(=O)c1ccc(-c2c3nc(c(-c4c(F)cc(S(=O)(=O)[O-])cc4F)c4ccc([nH]4)c(-c4c(F)cc(S(=O)(=O)[O-])cc4F)c4nc(c(-c5c(F)cc(S(=O)(=O)[O-])cc5F)c5ccc2[nH]5)C=C4)C=C3)cc1
REMARK SMILES IDX 26 1 25 2 24 3 23 4 1 5 2 6 3 8 4 9 5 10 6 11 16 12 7 13
REMARK SMILES IDX 15 14 14 15 17 16 18 17 22 18 19 20 21 21 20 22 8 23 9 24
REMARK SMILES IDX 13 25 10 26 12 27 11 28 27 29 28 30 29 31 30 32 31 33 32 35
REMARK SMILES IDX 33 36 34 37 98 38 35 39 97 40 36 41 37 42 38 43 91 44 39 45
REMARK SMILES IDX 96 46 90 47 92 48 40 49 95 50 89 51 88 52 41 54 75 55 54 56
REMARK SMILES IDX 74 57 55 58 58 59 73 60 93 61 56 62 57 63 72 65 94 66 59 67
REMARK SMILES IDX 42 68 43 69 52 70 44 71 45 72 51 73 53 74 46 75 47 76 48 77
REMARK SMILES IDX 49 78 50 79 76 80 77 81 86 82 78 83 79 84 85 85 87 86 80 87
REMARK SMILES IDX 81 88 82 89 83 90 84 91 60 92 61 93 70 94 62 95 63 96 69 97
REMARK SMILES IDX 71 98 64 99 65 100 66 101 67 102 68 103
REMARK H PARENT 23 7 17 19 30 34 92 53 58 64
REMARK Flexibility Score: inf
ROOT
ATOM      1  C   UNL A   1      42.766  21.659  26.860  1.00  0.00     0.002 C 
ENDROOT
BRANCH   1   2
ATOM      2  C   UNL A   1      41.436  21.830  26.062  1.00  0.00     0.021 C 
BRANCH   2   3
ATOM      3  C   UNL A   1      39.934  21.756  26.541  1.00  0.00     0.116 C 
BRANCH   3   4
ATOM      4  N   UNL A   1      38.941  22.687  25.977  1.00  0.00    -0.356 N 
ATOM      5  O   UNL A   1      37.458  21.156  25.101  1.00  0.00    -0.275 OA
ATOM      6  C   UNL A   1      37.724  22.330  25.364  1.00  0.00     0.220 C 
ATOM      7  H   UNL A   1      39.148  23.648  26.033  1.00  0.00     0.163 HD
BRANCH   6   8
ATOM      8  C   UNL A   1      36.749  23.504  24.885  1.00  0.00     0.100 C 
BRANCH   8   9
ATOM      9  C   UNL A   1      35.594  23.368  23.793  1.00  0.00     0.021 C 
BRANCH   9  10
ATOM     10  C   UNL A   1      34.301  24.324  23.568  1.00  0.00     0.067 C 
ATOM     11  C   UNL A   1      34.067  25.559  24.506  1.00  0.00     0.126 C 
ATOM     12  C   UNL A   1      33.050  23.471  23.339  1.00  0.00     0.190 C 
ATOM     13  N   UNL A   1      32.674  26.099  24.465  1.00  0.00    -0.371 N 
ATOM     14  C   UNL A   1      31.730  24.227  23.193  1.00  0.00     0.087 C 
ATOM     15  C   UNL A   1      31.492  25.246  24.277  1.00  0.00     0.122 C 
BRANCH  12  16
ATOM     16  N   UNL A   1      32.953  22.537  24.418  1.00  0.00    -0.328 N 
ATOM     17  C   UNL A   1      32.937  23.075  25.765  1.00  0.00     0.291 C 
ATOM     18  C   UNL A   1      33.223  21.147  24.159  1.00  0.00     0.291 C 
ATOM     19  H   UNL A   1      31.962  22.301  24.440  1.00  0.00     0.348 HD
ATOM     20  C   UNL A   1      33.830  22.284  26.703  1.00  0.00     0.221 C 
ATOM     21  C   UNL A   1      34.036  20.484  25.212  1.00  0.00     0.221 C 
ATOM     22  O   UNL A   1      33.618  20.891  26.507  1.00  0.00    -0.370 OA
ENDBRANCH  12  16
BRANCH  13  23
ATOM     23  C   UNL A   1      32.294  27.223  25.218  1.00  0.00     0.040 A 
ATOM     24  C   UNL A   1      32.440  28.537  24.763  1.00  0.00     0.046 A 
ATOM     25  C   UNL A   1      32.035  27.033  26.579  1.00  0.00     0.046 A 
ATOM     26  C   UNL A   1      32.347  29.577  25.684  1.00  0.00     0.113 A 
ATOM     27  C   UNL A   1      31.959  28.131  27.418  1.00  0.00     0.113 A 
ATOM     28  N   UNL A   1      32.107  29.405  27.002  1.00  0.00    -0.265 NA
ENDBRANCH  13  23
ENDBRANCH   9  10
ENDBRANCH   8   9
ENDBRANCH   6   8
ENDBRANCH   3   4
ENDBRANCH   2   3
ENDBRANCH   1   2
BRANCH   1  29
ATOM     29  C   UNL A   1      44.163  22.333  26.701  1.00  0.00     0.002 C 
BRANCH  29  30
ATOM     30  C   UNL A   1      44.500  23.335  25.598  1.00  0.00     0.021 C 
BRANCH  30  31
ATOM     31  C   UNL A   1      43.768  24.648  25.864  1.00  0.00     0.116 C 
BRANCH  31  32
ATOM     32  N   UNL A   1      42.415  24.745  25.296  1.00  0.00    -0.352 N 
ATOM     33  C   UNL A   1      41.339  25.452  25.825  1.00  0.00     0.251 C 
ATOM     34  H   UNL A   1      42.253  24.259  24.455  1.00  0.00     0.163 HD
ATOM     35  O   UNL A   1      40.240  25.444  25.321  1.00  0.00    -0.269 OA
BRANCH  33  36
ATOM     36  C   UNL A   1      41.605  26.172  27.091  1.00  0.00     0.039 A 
ATOM     37  C   UNL A   1      42.283  27.390  27.045  1.00  0.00     0.014 A 
ATOM     38  C   UNL A   1      40.924  25.764  28.234  1.00  0.00     0.014 A 
ATOM     39  C   UNL A   1      42.161  28.269  28.122  1.00  0.00     0.010 A 
ATOM     40  C   UNL A   1      40.678  26.698  29.224  1.00  0.00     0.010 A 
ATOM     41  C   UNL A   1      41.301  27.957  29.186  1.00  0.00    -0.014 A 
BRANCH  41  42
ATOM     42  C   UNL A   1      41.067  28.891  30.315  1.00  0.00     0.031 A 
ATOM     43  C   UNL A   1      41.941  28.764  31.535  1.00  0.00     0.074 A 
ATOM     44  C   UNL A   1      40.035  29.760  30.289  1.00  0.00     0.049 A 
ATOM     45  N   UNL A   1      41.823  29.341  32.699  1.00  0.00    -0.248 NA
ATOM     46  C   UNL A   1      43.061  27.808  31.453  1.00  0.00     0.031 C 
ATOM     47  C   UNL A   1      39.074  29.919  29.191  1.00  0.00     0.029 A 
ATOM     48  N   UNL A   1      39.612  30.671  31.224  1.00  0.00    -0.354 N 
ATOM     49  C   UNL A   1      42.812  28.776  33.496  1.00  0.00     0.074 A 
ATOM     50  C   UNL A   1      43.476  27.766  32.709  1.00  0.00     0.031 C 
ATOM     51  C   UNL A   1      38.200  30.893  29.504  1.00  0.00     0.029 A 
ATOM     52  C   UNL A   1      38.512  31.402  30.835  1.00  0.00     0.049 A 
ATOM     53  H   UNL A   1      40.057  30.793  32.094  1.00  0.00     0.167 HD
ATOM     54  C   UNL A   1      43.162  29.100  34.759  1.00  0.00     0.037 A 
ATOM     55  C   UNL A   1      37.838  32.371  31.487  1.00  0.00     0.037 A 
ATOM     56  C   UNL A   1      42.571  30.187  35.486  1.00  0.00     0.049 A 
ATOM     57  C   UNL A   1      38.307  32.773  32.863  1.00  0.00     0.074 A 
ATOM     58  C   UNL A   1      42.928  30.687  36.724  1.00  0.00     0.029 A 
ATOM     59  N   UNL A   1      41.515  30.957  35.025  1.00  0.00    -0.354 N 
ATOM     60  N   UNL A   1      39.297  32.282  33.571  1.00  0.00    -0.248 NA
ATOM     61  C   UNL A   1      37.579  33.864  33.525  1.00  0.00     0.031 C 
ATOM     62  C   UNL A   1      42.068  31.747  37.024  1.00  0.00     0.029 A 
ATOM     63  C   UNL A   1      41.202  31.928  35.957  1.00  0.00     0.049 A 
ATOM     64  H   UNL A   1      41.057  30.832  34.163  1.00  0.00     0.167 HD
ATOM     65  C   UNL A   1      39.331  33.027  34.744  1.00  0.00     0.074 A 
ATOM     66  C   UNL A   1      38.269  34.006  34.649  1.00  0.00     0.031 C 
ATOM     67  C   UNL A   1      40.163  32.913  35.808  1.00  0.00     0.037 A 
BRANCH  54  68
ATOM     68  C   UNL A   1      44.255  28.307  35.414  1.00  0.00     0.058 A 
ATOM     69  C   UNL A   1      45.601  28.703  35.342  1.00  0.00     0.135 A 
ATOM     70  C   UNL A   1      43.947  27.158  36.160  1.00  0.00     0.135 A 
ATOM     71  F   UNL A   1      45.952  29.777  34.620  1.00  0.00    -0.206 F 
ATOM     72  C   UNL A   1      46.605  27.980  35.976  1.00  0.00     0.059 A 
ATOM     73  C   UNL A   1      44.933  26.436  36.826  1.00  0.00     0.059 A 
ATOM     74  F   UNL A   1      42.678  26.730  36.251  1.00  0.00    -0.206 F 
ATOM     75  C   UNL A   1      46.259  26.851  36.721  1.00  0.00     0.060 A 
BRANCH  75  76
ATOM     76  S   UNL A   1      47.569  25.953  37.577  1.00  0.00     0.124 S 
ATOM     77  O   UNL A   1      47.595  26.636  38.867  1.00  0.00    -0.237 OA
ATOM     78  O   UNL A   1      47.054  24.588  37.594  1.00  0.00    -0.237 OA
ATOM     79  O   UNL A   1      48.738  26.168  36.730  1.00  0.00    -0.744 OA
ENDBRANCH  75  76
ENDBRANCH  54  68
BRANCH  55  80
ATOM     80  C   UNL A   1      36.677  33.056  30.854  1.00  0.00     0.058 A 
ATOM     81  C   UNL A   1      36.870  34.033  29.863  1.00  0.00     0.135 A 
ATOM     82  C   UNL A   1      35.358  32.782  31.245  1.00  0.00     0.135 A 
ATOM     83  F   UNL A   1      38.113  34.334  29.454  1.00  0.00    -0.206 F 
ATOM     84  C   UNL A   1      35.806  34.742  29.315  1.00  0.00     0.059 A 
ATOM     85  C   UNL A   1      34.274  33.460  30.694  1.00  0.00     0.059 A 
ATOM     86  F   UNL A   1      35.114  31.842  32.173  1.00  0.00    -0.206 F 
ATOM     87  C   UNL A   1      34.509  34.452  29.744  1.00  0.00     0.060 A 
BRANCH  87  88
ATOM     88  S   UNL A   1      33.131  35.376  29.027  1.00  0.00     0.124 S 
ATOM     89  O   UNL A   1      33.822  36.503  28.414  1.00  0.00    -0.237 OA
ATOM     90  O   UNL A   1      32.552  34.403  28.105  1.00  0.00    -0.237 OA
ATOM     91  O   UNL A   1      32.304  35.694  30.187  1.00  0.00    -0.744 OA
ENDBRANCH  87  88
ENDBRANCH  55  80
BRANCH  67  92
ATOM     92  C   UNL A   1      40.002  33.902  36.924  1.00  0.00     0.058 A 
ATOM     93  C   UNL A   1      40.624  35.157  36.890  1.00  0.00     0.135 A 
ATOM     94  C   UNL A   1      39.135  33.620  37.994  1.00  0.00     0.135 A 
ATOM     95  F   UNL A   1      41.463  35.468  35.889  1.00  0.00    -0.206 F 
ATOM     96  C   UNL A   1      40.402  36.101  37.885  1.00  0.00     0.059 A 
ATOM     97  C   UNL A   1      38.880  34.558  38.987  1.00  0.00     0.059 A 
ATOM     98  F   UNL A   1      38.507  32.437  38.061  1.00  0.00    -0.206 F 
ATOM     99  C   UNL A   1      39.524  35.794  38.926  1.00  0.00     0.060 A 
BRANCH  99 100
ATOM    100  S   UNL A   1      39.195  37.050  40.179  1.00  0.00     0.124 S 
ATOM    101  O   UNL A   1      38.377  36.305  41.131  1.00  0.00    -0.237 OA
ATOM    102  O   UNL A   1      40.537  37.399  40.634  1.00  0.00    -0.237 OA
ATOM    103  O   UNL A   1      38.500  38.097  39.437  1.00  0.00    -0.744 OA
ENDBRANCH  99 100
ENDBRANCH  67  92
ENDBRANCH  41  42
ENDBRANCH  33  36
ENDBRANCH  31  32
ENDBRANCH  30  31
ENDBRANCH  29  30
ENDBRANCH   1  29
TORSDOF 20
ENDMDL
MODEL 2
REMARK VINA RESULT:     -11.0      2.768      9.236
REMARK SMILES O=C(CC[C@@H]1CN(c2ccncc2)CC[C@@H]1[NH+]1CCOCC1)NCCCCCCNC(=O)c1ccc(-c2c3nc(c(-c4c(F)cc(S(=O)(=O)[O-])cc4F)c4ccc([nH]4)c(-c4c(F)cc(S(=O)(=O)[O-])cc4F)c4nc(c(-c5c(F)cc(S(=O)(=O)[O-])cc5F)c5ccc2[nH]5)C=C4)C=C3)cc1
REMARK SMILES IDX 26 1 25 2 24 3 23 4 1 5 2 6 3 8 4 9 5 10 6 11 16 12 7 13
REMARK SMILES IDX 15 14 14 15 17 16 18 17 22 18 19 20 21 21 20 22 8 23 9 24
REMARK SMILES IDX 13 25 10 26 12 27 11 28 27 29 28 30 29 31 30 32 31 33 32 35
REMARK SMILES IDX 33 36 34 37 98 38 35 39 97 40 36 41 37 42 38 43 91 44 39 45
REMARK SMILES IDX 96 46 90 47 92 48 40 49 95 50 89 51 88 52 41 54 75 55 54 56
REMARK SMILES IDX 74 57 55 58 58 59 73 60 93 61 56 62 57 63 72 65 94 66 59 67
REMARK SMILES IDX 42 68 43 69 52 70 44 71 45 72 51 73 53 74 46 75 47 76 48 77
REMARK SMILES IDX 49 78 50 79 76 80 77 81 86 82 78 83 79 84 85 85 87 86 80 87
REMARK SMILES IDX 81 88 82 89 83 90 84 91 60 92 61 93 70 94 62 95 63 96 69 97
REMARK SMILES IDX 71 98 64 99 65 100 66 101 67 102 68 103
REMARK H PARENT 23 7 17 19 30 34 92 53 58 64
REMARK Flexibility Score: inf
ROOT
ATOM      1  C   UNL A   1      35.848  32.490  28.316  1.00  0.00     0.002 C 
ENDROOT
BRANCH   1   2
ATOM      2  C   UNL A   1      35.295  31.049  28.544  1.00  0.00     0.021 C 
BRANCH   2   3
ATOM      3  C   UNL A   1      35.217  29.811  27.568  1.00  0.00     0.116 C 
BRANCH   3   4
ATOM      4  N   UNL A   1      34.061  28.901  27.632  1.00  0.00    -0.356 N 
ATOM      5  O   UNL A   1      32.429  30.325  26.844  1.00  0.00    -0.275 OA
ATOM      6  C   UNL A   1      32.755  29.187  27.189  1.00  0.00     0.220 C 
ATOM      7  H   UNL A   1      34.215  28.010  28.021  1.00  0.00     0.163 HD
BRANCH   6   8
ATOM      8  C   UNL A   1      31.656  28.028  27.280  1.00  0.00     0.100 C 
BRANCH   8   9
ATOM      9  C   UNL A   1      30.962  27.303  26.040  1.00  0.00     0.021 C 
BRANCH   9  10
ATOM     10  C   UNL A   1      31.132  25.766  25.546  1.00  0.00     0.067 C 
ATOM     11  C   UNL A   1      32.502  25.027  25.743  1.00  0.00     0.126 C 
ATOM     12  C   UNL A   1      30.527  25.593  24.149  1.00  0.00     0.190 C 
ATOM     13  N   UNL A   1      32.658  23.801  24.902  1.00  0.00    -0.371 N 
ATOM     14  C   UNL A   1      30.683  24.214  23.508  1.00  0.00     0.087 C 
ATOM     15  C   UNL A   1      32.092  23.681  23.551  1.00  0.00     0.122 C 
BRANCH  12  16
ATOM     16  N   UNL A   1      31.101  26.588  23.297  1.00  0.00    -0.328 N 
ATOM     17  C   UNL A   1      32.544  26.734  23.320  1.00  0.00     0.291 C 
ATOM     18  C   UNL A   1      30.245  27.603  22.741  1.00  0.00     0.291 C 
ATOM     19  H   UNL A   1      31.104  26.142  22.380  1.00  0.00     0.348 HD
ATOM     20  C   UNL A   1      32.967  28.190  23.353  1.00  0.00     0.221 C 
ATOM     21  C   UNL A   1      30.834  28.967  22.763  1.00  0.00     0.221 C 
ATOM     22  O   UNL A   1      32.208  28.932  22.407  1.00  0.00    -0.370 OA
ENDBRANCH  12  16
BRANCH  13  23
ATOM     23  C   UNL A   1      33.809  22.997  24.973  1.00  0.00     0.040 A 
ATOM     24  C   UNL A   1      33.865  21.692  24.475  1.00  0.00     0.046 A 
ATOM     25  C   UNL A   1      34.834  23.410  25.828  1.00  0.00     0.046 A 
ATOM     26  C   UNL A   1      34.916  20.869  24.873  1.00  0.00     0.113 A 
ATOM     27  C   UNL A   1      35.839  22.519  26.167  1.00  0.00     0.113 A 
ATOM     28  N   UNL A   1      35.906  21.254  25.707  1.00  0.00    -0.265 NA
ENDBRANCH  13  23
ENDBRANCH   9  10
ENDBRANCH   8   9
ENDBRANCH   6   8
ENDBRANCH   3   4
ENDBRANCH   2   3
ENDBRANCH   1   2
BRANCH   1  29
ATOM     29  C   UNL A   1      35.222  33.743  27.632  1.00  0.00     0.002 C 
BRANCH  29  30
ATOM     30  C   UNL A   1      34.596  34.906  28.401  1.00  0.00     0.021 C 
BRANCH  30  31
ATOM     31  C   UNL A   1      33.909  34.372  29.656  1.00  0.00     0.116 C 
BRANCH  31  32
ATOM     32  N   UNL A   1      32.910  35.268  30.260  1.00  0.00    -0.352 N 
ATOM     33  C   UNL A   1      32.831  35.643  31.598  1.00  0.00     0.251 C 
ATOM     34  H   UNL A   1      32.228  35.639  29.656  1.00  0.00     0.163 HD
ATOM     35  O   UNL A   1      31.948  36.348  32.027  1.00  0.00    -0.269 OA
BRANCH  33  36
ATOM     36  C   UNL A   1      33.865  35.068  32.488  1.00  0.00     0.039 A 
ATOM     37  C   UNL A   1      33.650  33.807  33.045  1.00  0.00     0.014 A 
ATOM     38  C   UNL A   1      35.123  35.661  32.502  1.00  0.00     0.014 A 
ATOM     39  C   UNL A   1      34.748  33.079  33.505  1.00  0.00     0.010 A 
ATOM     40  C   UNL A   1      36.220  34.877  32.811  1.00  0.00     0.010 A 
ATOM     41  C   UNL A   1      36.046  33.581  33.326  1.00  0.00    -0.014 A 
BRANCH  41  42
ATOM     42  C   UNL A   1      37.253  32.814  33.717  1.00  0.00     0.031 A 
ATOM     43  C   UNL A   1      37.934  33.171  35.013  1.00  0.00     0.074 A 
ATOM     44  C   UNL A   1      37.784  31.892  32.888  1.00  0.00     0.049 A 
ATOM     45  N   UNL A   1      39.083  32.767  35.482  1.00  0.00    -0.248 NA
ATOM     46  C   UNL A   1      37.258  34.168  35.865  1.00  0.00     0.031 C 
ATOM     47  C   UNL A   1      37.255  31.515  31.572  1.00  0.00     0.029 A 
ATOM     48  N   UNL A   1      38.901  31.106  33.024  1.00  0.00    -0.354 N 
ATOM     49  C   UNL A   1      39.288  33.501  36.644  1.00  0.00     0.074 A 
ATOM     50  C   UNL A   1      38.184  34.420  36.776  1.00  0.00     0.031 C 
ATOM     51  C   UNL A   1      38.027  30.549  31.042  1.00  0.00     0.029 A 
ATOM     52  C   UNL A   1      39.125  30.263  31.959  1.00  0.00     0.049 A 
ATOM     53  H   UNL A   1      39.489  31.141  33.813  1.00  0.00     0.167 HD
ATOM     54  C   UNL A   1      40.289  33.389  37.544  1.00  0.00     0.037 A 
ATOM     55  C   UNL A   1      40.109  29.363  31.755  1.00  0.00     0.037 A 
ATOM     56  C   UNL A   1      41.315  32.390  37.460  1.00  0.00     0.049 A 
ATOM     57  C   UNL A   1      41.165  29.198  32.819  1.00  0.00     0.074 A 
ATOM     58  C   UNL A   1      42.309  32.101  38.376  1.00  0.00     0.029 A 
ATOM     59  N   UNL A   1      41.459  31.499  36.408  1.00  0.00    -0.354 N 
ATOM     60  N   UNL A   1      41.300  29.846  33.953  1.00  0.00    -0.248 NA
ATOM     61  C   UNL A   1      42.195  28.177  32.586  1.00  0.00     0.031 C 
ATOM     62  C   UNL A   1      43.073  31.049  37.864  1.00  0.00     0.029 A 
ATOM     63  C   UNL A   1      42.531  30.661  36.648  1.00  0.00     0.049 A 
ATOM     64  H   UNL A   1      40.885  31.468  35.610  1.00  0.00     0.167 HD
ATOM     65  C   UNL A   1      42.406  29.287  34.581  1.00  0.00     0.074 A 
ATOM     66  C   UNL A   1      42.901  28.244  33.707  1.00  0.00     0.031 C 
ATOM     67  C   UNL A   1      42.968  29.606  35.773  1.00  0.00     0.037 A 
BRANCH  54  68
ATOM     68  C   UNL A   1      40.298  34.334  38.710  1.00  0.00     0.058 A 
ATOM     69  C   UNL A   1      40.941  35.581  38.646  1.00  0.00     0.135 A 
ATOM     70  C   UNL A   1      39.618  34.006  39.894  1.00  0.00     0.135 A 
ATOM     71  F   UNL A   1      41.628  35.932  37.548  1.00  0.00    -0.206 F 
ATOM     72  C   UNL A   1      40.921  36.465  39.719  1.00  0.00     0.059 A 
ATOM     73  C   UNL A   1      39.562  34.886  40.970  1.00  0.00     0.059 A 
ATOM     74  F   UNL A   1      38.998  32.822  40.011  1.00  0.00    -0.206 F 
ATOM     75  C   UNL A   1      40.222  36.110  40.874  1.00  0.00     0.060 A 
BRANCH  75  76
ATOM     76  S   UNL A   1      40.165  37.289  42.239  1.00  0.00     0.124 S 
ATOM     77  O   UNL A   1      41.577  37.388  42.598  1.00  0.00    -0.237 OA
ATOM     78  O   UNL A   1      39.589  38.472  41.607  1.00  0.00    -0.237 OA
ATOM     79  O   UNL A   1      39.312  36.630  43.223  1.00  0.00    -0.744 OA
ENDBRANCH  75  76
ENDBRANCH  54  68
BRANCH  55  80
ATOM     80  C   UNL A   1      40.138  28.525  30.524  1.00  0.00     0.058 A 
ATOM     81  C   UNL A   1      39.349  27.368  30.423  1.00  0.00     0.135 A 
ATOM     82  C   UNL A   1      40.976  28.835  29.443  1.00  0.00     0.135 A 
ATOM     83  F   UNL A   1      38.531  27.025  31.431  1.00  0.00    -0.206 F 
ATOM     84  C   UNL A   1      39.420  26.527  29.316  1.00  0.00     0.059 A 
ATOM     85  C   UNL A   1      41.047  28.023  28.314  1.00  0.00     0.059 A 
ATOM     86  F   UNL A   1      41.737  29.941  29.478  1.00  0.00    -0.206 F 
ATOM     87  C   UNL A   1      40.279  26.861  28.268  1.00  0.00     0.060 A 
BRANCH  87  88
ATOM     88  S   UNL A   1      40.364  25.765  26.833  1.00  0.00     0.124 S 
ATOM     89  O   UNL A   1      41.360  24.793  27.266  1.00  0.00    -0.237 OA
ATOM     90  O   UNL A   1      38.993  25.276  26.735  1.00  0.00    -0.237 OA
ATOM     91  O   UNL A   1      40.779  26.660  25.756  1.00  0.00    -0.744 OA
ENDBRANCH  87  88
ENDBRANCH  55  80
BRANCH  67  92
ATOM     92  C   UNL A   1      44.138  28.786  36.230  1.00  0.00     0.058 A 
ATOM     93  C   UNL A   1      43.965  27.543  36.854  1.00  0.00     0.135 A 
ATOM     94  C   UNL A   1      45.447  29.212  35.952  1.00  0.00     0.135 A 
ATOM     95  F   UNL A   1      42.732  27.098  37.142  1.00  0.00    -0.206 F 
ATOM     96  C   UNL A   1      45.052  26.750  37.198  1.00  0.00     0.059 A 
ATOM     97  C   UNL A   1      46.548  28.424  36.265  1.00  0.00     0.059 A 
ATOM     98  F   UNL A   1      45.661  30.389  35.344  1.00  0.00    -0.206 F 
ATOM     99  C   UNL A   1      46.340  27.197  36.894  1.00  0.00     0.060 A 
BRANCH  99 100
ATOM    100  S   UNL A   1      47.742  26.131  37.289  1.00  0.00     0.124 S 
ATOM    101  O   UNL A   1      47.475  24.972  36.443  1.00  0.00    -0.237 OA
ATOM    102  O   UNL A   1      48.882  26.954  36.896  1.00  0.00    -0.237 OA
ATOM    103  O   UNL A   1      47.603  25.907  38.725  1.00  0.00    -0.744 OA
ENDBRANCH  99 100
ENDBRANCH  67  92
ENDBRANCH  41  42
ENDBRANCH  33  36
ENDBRANCH  31  32
ENDBRANCH  30  31
ENDBRANCH  29  30
ENDBRANCH   1  29
TORSDOF 20
ENDMDL
MODEL 3
REMARK VINA RESULT:     -10.8      6.111     11.734
REMARK SMILES O=C(CC[C@@H]1CN(c2ccncc2)CC[C@@H]1[NH+]1CCOCC1)NCCCCCCNC(=O)c1ccc(-c2c3nc(c(-c4c(F)cc(S(=O)(=O)[O-])cc4F)c4ccc([nH]4)c(-c4c(F)cc(S(=O)(=O)[O-])cc4F)c4nc(c(-c5c(F)cc(S(=O)(=O)[O-])cc5F)c5ccc2[nH]5)C=C4)C=C3)cc1
REMARK SMILES IDX 26 1 25 2 24 3 23 4 1 5 2 6 3 8 4 9 5 10 6 11 16 12 7 13
REMARK SMILES IDX 15 14 14 15 17 16 18 17 22 18 19 20 21 21 20 22 8 23 9 24
REMARK SMILES IDX 13 25 10 26 12 27 11 28 27 29 28 30 29 31 30 32 31 33 32 35
REMARK SMILES IDX 33 36 34 37 98 38 35 39 97 40 36 41 37 42 38 43 91 44 39 45
REMARK SMILES IDX 96 46 90 47 92 48 40 49 95 50 89 51 88 52 41 54 75 55 54 56
REMARK SMILES IDX 74 57 55 58 58 59 73 60 93 61 56 62 57 63 72 65 94 66 59 67
REMARK SMILES IDX 42 68 43 69 52 70 44 71 45 72 51 73 53 74 46 75 47 76 48 77
REMARK SMILES IDX 49 78 50 79 76 80 77 81 86 82 78 83 79 84 85 85 87 86 80 87
REMARK SMILES IDX 81 88 82 89 83 90 84 91 60 92 61 93 70 94 62 95 63 96 69 97
REMARK SMILES IDX 71 98 64 99 65 100 66 101 67 102 68 103
REMARK H PARENT 23 7 17 19 30 34 92 53 58 64
REMARK Flexibility Score: inf
ROOT
ATOM      1  C   UNL A   1      34.210  34.118  30.701  1.00  0.00     0.002 C 
ENDROOT
BRANCH   1   2
ATOM      2  C   UNL A   1      33.828  34.110  29.188  1.00  0.00     0.021 C 
BRANCH   2   3
ATOM      3  C   UNL A   1      34.458  33.324  27.973  1.00  0.00     0.116 C 
BRANCH   3   4
ATOM      4  N   UNL A   1      34.207  31.880  27.826  1.00  0.00    -0.356 N 
ATOM      5  O   UNL A   1      36.385  31.132  27.760  1.00  0.00    -0.275 OA
ATOM      6  C   UNL A   1      35.183  30.866  27.811  1.00  0.00     0.220 C 
ATOM      7  H   UNL A   1      33.268  31.598  27.729  1.00  0.00     0.163 HD
BRANCH   6   8
ATOM      8  C   UNL A   1      34.691  29.346  27.718  1.00  0.00     0.100 C 
BRANCH   8   9
ATOM      9  C   UNL A   1      33.305  28.851  27.105  1.00  0.00     0.021 C 
BRANCH   9  10
ATOM     10  C   UNL A   1      32.816  28.890  25.556  1.00  0.00     0.067 C 
ATOM     11  C   UNL A   1      31.511  29.667  25.166  1.00  0.00     0.126 C 
ATOM     12  C   UNL A   1      32.915  27.492  24.939  1.00  0.00     0.190 C 
ATOM     13  N   UNL A   1      30.957  29.295  23.828  1.00  0.00    -0.371 N 
ATOM     14  C   UNL A   1      32.410  27.346  23.504  1.00  0.00     0.087 C 
ATOM     15  C   UNL A   1      31.041  27.934  23.280  1.00  0.00     0.122 C 
BRANCH  12  16
ATOM     16  N   UNL A   1      32.211  26.585  25.792  1.00  0.00    -0.328 N 
ATOM     17  C   UNL A   1      32.885  25.352  26.155  1.00  0.00     0.291 C 
ATOM     18  C   UNL A   1      30.791  26.752  25.961  1.00  0.00     0.291 C 
ATOM     19  H   UNL A   1      32.330  26.990  26.720  1.00  0.00     0.348 HD
ATOM     20  C   UNL A   1      31.960  24.153  26.067  1.00  0.00     0.221 C 
ATOM     21  C   UNL A   1      30.027  25.477  25.941  1.00  0.00     0.221 C 
ATOM     22  O   UNL A   1      30.709  24.466  26.668  1.00  0.00    -0.370 OA
ENDBRANCH  12  16
BRANCH  13  23
ATOM     23  C   UNL A   1      29.810  29.915  23.304  1.00  0.00     0.040 A 
ATOM     24  C   UNL A   1      29.311  29.648  22.026  1.00  0.00     0.046 A 
ATOM     25  C   UNL A   1      29.325  31.045  23.967  1.00  0.00     0.046 A 
ATOM     26  C   UNL A   1      28.384  30.529  21.473  1.00  0.00     0.113 A 
ATOM     27  C   UNL A   1      28.402  31.862  23.337  1.00  0.00     0.113 A 
ATOM     28  N   UNL A   1      27.916  31.629  22.101  1.00  0.00    -0.265 NA
ENDBRANCH  13  23
ENDBRANCH   9  10
ENDBRANCH   8   9
ENDBRANCH   6   8
ENDBRANCH   3   4
ENDBRANCH   2   3
ENDBRANCH   1   2
BRANCH   1  29
ATOM     29  C   UNL A   1      34.664  32.975  31.660  1.00  0.00     0.002 C 
BRANCH  29  30
ATOM     30  C   UNL A   1      35.682  31.902  31.277  1.00  0.00     0.021 C 
BRANCH  30  31
ATOM     31  C   UNL A   1      36.485  31.500  32.514  1.00  0.00     0.116 C 
BRANCH  31  32
ATOM     32  N   UNL A   1      37.236  32.586  33.161  1.00  0.00    -0.352 N 
ATOM     33  C   UNL A   1      38.607  32.811  33.080  1.00  0.00     0.251 C 
ATOM     34  H   UNL A   1      36.716  33.218  33.708  1.00  0.00     0.163 HD
ATOM     35  O   UNL A   1      39.159  33.702  33.683  1.00  0.00    -0.269 OA
BRANCH  33  36
ATOM     36  C   UNL A   1      39.368  31.846  32.256  1.00  0.00     0.039 A 
ATOM     37  C   UNL A   1      39.570  32.126  30.904  1.00  0.00     0.014 A 
ATOM     38  C   UNL A   1      40.097  30.856  32.907  1.00  0.00     0.014 A 
ATOM     39  C   UNL A   1      40.615  31.489  30.234  1.00  0.00     0.010 A 
ATOM     40  C   UNL A   1      41.224  30.349  32.286  1.00  0.00     0.010 A 
ATOM     41  C   UNL A   1      41.491  30.650  30.940  1.00  0.00    -0.014 A 
BRANCH  41  42
ATOM     42  C   UNL A   1      42.668  30.014  30.298  1.00  0.00     0.031 A 
ATOM     43  C   UNL A   1      43.936  30.818  30.183  1.00  0.00     0.074 A 
ATOM     44  C   UNL A   1      42.573  28.788  29.744  1.00  0.00     0.049 A 
ATOM     45  N   UNL A   1      45.029  30.549  29.522  1.00  0.00    -0.248 NA
ATOM     46  C   UNL A   1      43.951  32.134  30.849  1.00  0.00     0.031 C 
ATOM     47  C   UNL A   1      41.372  27.944  29.727  1.00  0.00     0.029 A 
ATOM     48  N   UNL A   1      43.505  28.036  29.073  1.00  0.00    -0.354 N 
ATOM     49  C   UNL A   1      45.827  31.680  29.646  1.00  0.00     0.074 A 
ATOM     50  C   UNL A   1      45.073  32.662  30.385  1.00  0.00     0.031 C 
ATOM     51  C   UNL A   1      41.654  26.783  29.110  1.00  0.00     0.029 A 
ATOM     52  C   UNL A   1      43.039  26.810  28.655  1.00  0.00     0.049 A 
ATOM     53  H   UNL A   1      44.425  28.346  28.907  1.00  0.00     0.167 HD
ATOM     54  C   UNL A   1      47.094  31.867  29.217  1.00  0.00     0.037 A 
ATOM     55  C   UNL A   1      43.669  25.825  27.982  1.00  0.00     0.037 A 
ATOM     56  C   UNL A   1      47.872  30.838  28.588  1.00  0.00     0.049 A 
ATOM     57  C   UNL A   1      45.111  26.028  27.592  1.00  0.00     0.074 A 
ATOM     58  C   UNL A   1      49.204  30.872  28.222  1.00  0.00     0.029 A 
ATOM     59  N   UNL A   1      47.391  29.581  28.258  1.00  0.00    -0.354 N 
ATOM     60  N   UNL A   1      45.878  27.075  27.789  1.00  0.00    -0.248 NA
ATOM     61  C   UNL A   1      45.779  24.917  26.900  1.00  0.00     0.031 C 
ATOM     62  C   UNL A   1      49.524  29.640  27.645  1.00  0.00     0.029 A 
ATOM     63  C   UNL A   1      48.399  28.829  27.686  1.00  0.00     0.049 A 
ATOM     64  H   UNL A   1      46.470  29.270  28.408  1.00  0.00     0.167 HD
ATOM     65  C   UNL A   1      47.125  26.735  27.278  1.00  0.00     0.074 A 
ATOM     66  C   UNL A   1      47.014  25.384  26.769  1.00  0.00     0.031 C 
ATOM     67  C   UNL A   1      48.262  27.472  27.229  1.00  0.00     0.037 A 
BRANCH  54  68
ATOM     68  C   UNL A   1      47.728  33.207  29.452  1.00  0.00     0.058 A 
ATOM     69  C   UNL A   1      47.644  34.240  28.503  1.00  0.00     0.135 A 
ATOM     70  C   UNL A   1      48.391  33.476  30.659  1.00  0.00     0.135 A 
ATOM     71  F   UNL A   1      47.045  34.026  27.322  1.00  0.00    -0.206 F 
ATOM     72  C   UNL A   1      48.208  35.488  28.739  1.00  0.00     0.059 A 
ATOM     73  C   UNL A   1      48.937  34.727  30.927  1.00  0.00     0.059 A 
ATOM     74  F   UNL A   1      48.509  32.520  31.594  1.00  0.00    -0.206 F 
ATOM     75  C   UNL A   1      48.846  35.724  29.957  1.00  0.00     0.060 A 
BRANCH  75  76
ATOM     76  S   UNL A   1      49.529  37.366  30.265  1.00  0.00     0.124 S 
ATOM     77  O   UNL A   1      50.870  37.039  30.740  1.00  0.00    -0.237 OA
ATOM     78  O   UNL A   1      49.458  37.986  28.946  1.00  0.00    -0.237 OA
ATOM     79  O   UNL A   1      48.628  37.926  31.267  1.00  0.00    -0.744 OA
ENDBRANCH  75  76
ENDBRANCH  54  68
BRANCH  55  80
ATOM     80  C   UNL A   1      42.969  24.552  27.656  1.00  0.00     0.058 A 
ATOM     81  C   UNL A   1      43.009  23.462  28.541  1.00  0.00     0.135 A 
ATOM     82  C   UNL A   1      42.281  24.379  26.446  1.00  0.00     0.135 A 
ATOM     83  F   UNL A   1      43.657  23.575  29.712  1.00  0.00    -0.206 F 
ATOM     84  C   UNL A   1      42.431  22.237  28.223  1.00  0.00     0.059 A 
ATOM     85  C   UNL A   1      41.673  23.170  26.114  1.00  0.00     0.059 A 
ATOM     86  F   UNL A   1      42.193  25.394  25.571  1.00  0.00    -0.206 F 
ATOM     87  C   UNL A   1      41.771  22.099  27.001  1.00  0.00     0.060 A 
BRANCH  87  88
ATOM     88  S   UNL A   1      41.020  20.506  26.595  1.00  0.00     0.124 S 
ATOM     89  O   UNL A   1      40.986  19.857  27.899  1.00  0.00    -0.237 OA
ATOM     90  O   UNL A   1      39.729  20.903  26.043  1.00  0.00    -0.237 OA
ATOM     91  O   UNL A   1      41.954  19.935  25.628  1.00  0.00    -0.744 OA
ENDBRANCH  87  88
ENDBRANCH  55  80
BRANCH  67  92
ATOM     92  C   UNL A   1      49.488  26.819  26.663  1.00  0.00     0.058 A 
ATOM     93  C   UNL A   1      49.854  26.983  25.321  1.00  0.00     0.135 A 
ATOM     94  C   UNL A   1      50.355  26.102  27.505  1.00  0.00     0.135 A 
ATOM     95  F   UNL A   1      49.054  27.658  24.480  1.00  0.00    -0.206 F 
ATOM     96  C   UNL A   1      51.036  26.447  24.823  1.00  0.00     0.059 A 
ATOM     97  C   UNL A   1      51.553  25.578  27.035  1.00  0.00     0.059 A 
ATOM     98  F   UNL A   1      50.052  25.932  28.801  1.00  0.00    -0.206 F 
ATOM     99  C   UNL A   1      51.881  25.752  25.690  1.00  0.00     0.060 A 
BRANCH  99 100
ATOM    100  S   UNL A   1      53.443  25.113  25.049  1.00  0.00     0.124 S 
ATOM    101  O   UNL A   1      53.266  23.676  25.227  1.00  0.00    -0.237 OA
ATOM    102  O   UNL A   1      53.432  25.587  23.668  1.00  0.00    -0.237 OA
ATOM    103  O   UNL A   1      54.443  25.736  25.910  1.00  0.00    -0.744 OA
ENDBRANCH  99 100
ENDBRANCH  67  92
ENDBRANCH  41  42
ENDBRANCH  33  36
ENDBRANCH  31  32
ENDBRANCH  30  31
ENDBRANCH  29  30
ENDBRANCH   1  29
TORSDOF 20
ENDMDL
