MODEL 1
REMARK VINA RESULT:      -9.3      0.000      0.000
REMARK SMILES O=C(NCCCCCCNC(=O)[C@H](NC(=O)[C@H]1CC[C@@H](CNC(=O)[C@@H]2Cc3ccccc3C[NH2+]2)CC1)c1ccccc1)c1ccc(-c2c3nc(c(-c4c(F)cc(S(=O)(=O)[O-])cc4F)c4ccc([nH]4)c(-c4c(F)cc(S(=O)(=O)[O-])cc4F)c4nc(c(-c5c(F)cc(S(=O)(=O)[O-])cc5F)c5ccc2[nH]5)C=C4)C=C3)cc1
REMARK SMILES IDX 7 1 6 2 5 3 4 4 3 5 1 6 2 7 43 9 44 10 108 11 45 12 107 13
REMARK SMILES IDX 46 14 47 15 48 16 101 17 49 18 106 19 100 20 102 21 50 22
REMARK SMILES IDX 105 23 99 24 98 25 51 27 85 28 64 29 84 30 65 31 68 32 83 33
REMARK SMILES IDX 103 34 66 35 67 36 82 38 104 39 69 40 52 41 53 42 62 43
REMARK SMILES IDX 54 44 55 45 61 46 63 47 56 48 57 49 58 50 59 51 60 52 86 53
REMARK SMILES IDX 87 54 96 55 88 56 89 57 95 58 97 59 90 60 91 61 92 62 93 63
REMARK SMILES IDX 94 64 70 65 71 66 80 67 72 68 73 69 79 70 81 71 74 72 75 73
REMARK SMILES IDX 76 74 77 75 78 76 8 77 9 78 10 79 11 80 12 82 13 83 37 84
REMARK SMILES IDX 38 85 42 86 39 87 41 88 40 89 14 90 15 91 16 93 17 94 36 95
REMARK SMILES IDX 18 96 35 97 19 98 20 99 21 100 22 101 23 102 24 104 25 105
REMARK SMILES IDX 26 106 34 107 27 108 33 109 28 112 32 113 29 114 31 115
REMARK SMILES IDX 30 116
REMARK H PARENT 3 8 102 26 68 37 10 81 14 92 22 103 34 110 34 111
REMARK Flexibility Score: inf
ROOT
ATOM      1  C   UNL A   1      44.324  24.174  26.335  1.00  0.00     0.002 C 
ENDROOT
BRANCH   1   2
ATOM      2  C   UNL A   1      43.816  22.739  26.204  1.00  0.00     0.002 C 
BRANCH   2   3
ATOM      3  C   UNL A   1      42.429  22.570  25.586  1.00  0.00     0.021 C 
BRANCH   3   4
ATOM      4  C   UNL A   1      41.426  21.746  26.373  1.00  0.00     0.116 C 
BRANCH   4   5
ATOM      5  N   UNL A   1      40.063  21.908  25.899  1.00  0.00    -0.352 N 
ATOM      6  O   UNL A   1      38.016  22.721  25.552  1.00  0.00    -0.269 OA
ATOM      7  C   UNL A   1      39.128  22.904  26.049  1.00  0.00     0.251 C 
ATOM      8  H   UNL A   1      39.743  21.148  25.361  1.00  0.00     0.163 HD
BRANCH   7   9
ATOM      9  C   UNL A   1      39.392  24.168  26.786  1.00  0.00     0.039 A 
ATOM     10  C   UNL A   1      39.058  24.368  28.127  1.00  0.00     0.014 A 
ATOM     11  C   UNL A   1      40.110  25.169  26.121  1.00  0.00     0.014 A 
ATOM     12  C   UNL A   1      39.321  25.589  28.752  1.00  0.00     0.010 A 
ATOM     13  C   UNL A   1      40.447  26.364  26.763  1.00  0.00     0.010 A 
ATOM     14  C   UNL A   1      40.043  26.585  28.083  1.00  0.00    -0.014 A 
BRANCH  14  15
ATOM     15  C   UNL A   1      40.579  27.737  28.842  1.00  0.00     0.031 A 
ATOM     16  C   UNL A   1      41.944  27.720  29.456  1.00  0.00     0.074 A 
ATOM     17  C   UNL A   1      39.762  28.794  29.000  1.00  0.00     0.049 A 
ATOM     18  N   UNL A   1      42.548  28.659  30.137  1.00  0.00    -0.248 NA
ATOM     19  C   UNL A   1      42.731  26.489  29.298  1.00  0.00     0.031 C 
ATOM     20  C   UNL A   1      38.394  28.876  28.475  1.00  0.00     0.029 A 
ATOM     21  N   UNL A   1      39.940  29.986  29.649  1.00  0.00    -0.354 N 
ATOM     22  C   UNL A   1      43.788  28.141  30.489  1.00  0.00     0.074 A 
ATOM     23  C   UNL A   1      43.836  26.788  29.971  1.00  0.00     0.031 C 
ATOM     24  C   UNL A   1      37.860  30.054  28.819  1.00  0.00     0.029 A 
ATOM     25  C   UNL A   1      38.829  30.794  29.619  1.00  0.00     0.049 A 
ATOM     26  H   UNL A   1      40.782  30.240  30.092  1.00  0.00     0.167 HD
ATOM     27  C   UNL A   1      44.786  28.751  31.175  1.00  0.00     0.037 A 
ATOM     28  C   UNL A   1      38.604  31.991  30.187  1.00  0.00     0.037 A 
ATOM     29  C   UNL A   1      44.693  30.093  31.699  1.00  0.00     0.049 A 
ATOM     30  C   UNL A   1      39.717  32.642  30.950  1.00  0.00     0.074 A 
ATOM     31  C   UNL A   1      45.657  30.830  32.365  1.00  0.00     0.029 A 
ATOM     32  N   UNL A   1      43.558  30.895  31.634  1.00  0.00    -0.354 N 
ATOM     33  N   UNL A   1      40.917  32.174  31.204  1.00  0.00    -0.248 NA
ATOM     34  C   UNL A   1      39.462  33.982  31.486  1.00  0.00     0.031 C 
ATOM     35  C   UNL A   1      45.090  32.050  32.750  1.00  0.00     0.029 A 
ATOM     36  C   UNL A   1      43.790  32.104  32.271  1.00  0.00     0.049 A 
ATOM     37  H   UNL A   1      42.712  30.640  31.200  1.00  0.00     0.167 HD
ATOM     38  C   UNL A   1      41.573  33.176  31.905  1.00  0.00     0.074 A 
ATOM     39  C   UNL A   1      40.633  34.275  32.035  1.00  0.00     0.031 C 
ATOM     40  C   UNL A   1      42.840  33.187  32.388  1.00  0.00     0.037 A 
BRANCH  27  41
ATOM     41  C   UNL A   1      46.053  27.970  31.421  1.00  0.00     0.058 A 
ATOM     42  C   UNL A   1      47.191  28.130  30.614  1.00  0.00     0.135 A 
ATOM     43  C   UNL A   1      46.144  27.071  32.497  1.00  0.00     0.135 A 
ATOM     44  F   UNL A   1      47.166  28.972  29.567  1.00  0.00    -0.206 F 
ATOM     45  C   UNL A   1      48.356  27.399  30.836  1.00  0.00     0.059 A 
ATOM     46  C   UNL A   1      47.308  26.350  32.756  1.00  0.00     0.059 A 
ATOM     47  F   UNL A   1      45.093  26.881  33.310  1.00  0.00    -0.206 F 
ATOM     48  C   UNL A   1      48.401  26.505  31.908  1.00  0.00     0.060 A 
BRANCH  48  49
ATOM     49  S   UNL A   1      49.909  25.543  32.160  1.00  0.00     0.124 S 
ATOM     50  O   UNL A   1      50.092  24.942  30.842  1.00  0.00    -0.237 OA
ATOM     51  O   UNL A   1      50.877  26.563  32.531  1.00  0.00    -0.237 OA
ATOM     52  O   UNL A   1      49.542  24.610  33.227  1.00  0.00    -0.744 OA
ENDBRANCH  48  49
ENDBRANCH  27  41
BRANCH  28  53
ATOM     53  C   UNL A   1      37.276  32.631  30.009  1.00  0.00     0.058 A 
ATOM     54  C   UNL A   1      36.234  32.393  30.913  1.00  0.00     0.135 A 
ATOM     55  C   UNL A   1      37.065  33.583  28.997  1.00  0.00     0.135 A 
ATOM     56  F   UNL A   1      36.392  31.497  31.899  1.00  0.00    -0.206 F 
ATOM     57  C   UNL A   1      35.029  33.081  30.828  1.00  0.00     0.059 A 
ATOM     58  C   UNL A   1      35.878  34.302  28.907  1.00  0.00     0.059 A 
ATOM     59  F   UNL A   1      38.045  33.865  28.124  1.00  0.00    -0.206 F 
ATOM     60  C   UNL A   1      34.865  34.043  29.828  1.00  0.00     0.060 A 
BRANCH  60  61
ATOM     61  S   UNL A   1      33.331  34.995  29.791  1.00  0.00     0.124 S 
ATOM     62  O   UNL A   1      32.909  34.928  31.185  1.00  0.00    -0.237 OA
ATOM     63  O   UNL A   1      33.792  36.299  29.325  1.00  0.00    -0.237 OA
ATOM     64  O   UNL A   1      32.501  34.258  28.842  1.00  0.00    -0.744 OA
ENDBRANCH  60  61
ENDBRANCH  28  53
BRANCH  40  65
ATOM     65  C   UNL A   1      43.303  34.444  33.070  1.00  0.00     0.058 A 
ATOM     66  C   UNL A   1      43.786  35.545  32.347  1.00  0.00     0.135 A 
ATOM     67  C   UNL A   1      43.200  34.566  34.465  1.00  0.00     0.135 A 
ATOM     68  F   UNL A   1      43.917  35.474  31.014  1.00  0.00    -0.206 F 
ATOM     69  C   UNL A   1      44.160  36.723  32.986  1.00  0.00     0.059 A 
ATOM     70  C   UNL A   1      43.542  35.744  35.121  1.00  0.00     0.059 A 
ATOM     71  F   UNL A   1      42.739  33.543  35.202  1.00  0.00    -0.206 F 
ATOM     72  C   UNL A   1      44.028  36.814  34.373  1.00  0.00     0.060 A 
BRANCH  72  73
ATOM     73  S   UNL A   1      44.461  38.368  35.183  1.00  0.00     0.124 S 
ATOM     74  O   UNL A   1      43.669  39.328  34.421  1.00  0.00    -0.237 OA
ATOM     75  O   UNL A   1      44.024  38.135  36.557  1.00  0.00    -0.237 OA
ATOM     76  O   UNL A   1      45.905  38.458  34.998  1.00  0.00    -0.744 OA
ENDBRANCH  72  73
ENDBRANCH  40  65
ENDBRANCH  14  15
ENDBRANCH   7   9
ENDBRANCH   4   5
ENDBRANCH   3   4
ENDBRANCH   2   3
ENDBRANCH   1   2
BRANCH   1  77
ATOM     77  C   UNL A   1      43.803  25.204  25.326  1.00  0.00     0.021 C 
BRANCH  77  78
ATOM     78  C   UNL A   1      44.010  26.689  25.628  1.00  0.00     0.116 C 
BRANCH  78  79
ATOM     79  N   UNL A   1      44.809  27.414  24.662  1.00  0.00    -0.354 N 
ATOM     80  C   UNL A   1      46.037  28.006  24.800  1.00  0.00     0.247 C 
ATOM     81  H   UNL A   1      44.407  27.494  23.766  1.00  0.00     0.163 HD
ATOM     82  O   UNL A   1      46.575  28.375  23.747  1.00  0.00    -0.272 OA
BRANCH  80  83
ATOM     83  C   UNL A   1      46.728  28.308  26.182  1.00  0.00     0.202 C 
BRANCH  83  84
ATOM     84  C   UNL A   1      47.573  27.132  26.709  1.00  0.00    -0.016 A 
ATOM     85  C   UNL A   1      46.973  26.193  27.575  1.00  0.00     0.006 A 
ATOM     86  C   UNL A   1      48.912  26.918  26.345  1.00  0.00     0.006 A 
ATOM     87  C   UNL A   1      47.682  25.084  28.047  1.00  0.00     0.000 A 
ATOM     88  C   UNL A   1      49.616  25.801  26.809  1.00  0.00     0.000 A 
ATOM     89  C   UNL A   1      49.002  24.884  27.658  1.00  0.00     0.000 A 
ENDBRANCH  83  84
BRANCH  83  90
ATOM     90  N   UNL A   1      47.513  29.535  26.280  1.00  0.00    -0.340 N 
ATOM     91  C   UNL A   1      47.369  30.716  26.917  1.00  0.00     0.224 C 
ATOM     92  H   UNL A   1      48.346  29.490  25.757  1.00  0.00     0.164 HD
ATOM     93  O   UNL A   1      48.301  31.510  26.727  1.00  0.00    -0.275 OA
BRANCH  91  94
ATOM     94  C   UNL A   1      46.197  31.130  27.831  1.00  0.00     0.078 C 
ATOM     95  C   UNL A   1      46.498  32.561  28.340  1.00  0.00     0.014 C 
ATOM     96  C   UNL A   1      44.774  31.033  27.281  1.00  0.00     0.014 C 
ATOM     97  C   UNL A   1      45.398  33.163  29.214  1.00  0.00     0.006 C 
ATOM     98  C   UNL A   1      43.706  31.664  28.177  1.00  0.00     0.006 C 
ATOM     99  C   UNL A   1      44.008  33.114  28.558  1.00  0.00     0.008 C 
BRANCH  99 100
ATOM    100  C   UNL A   1      43.953  34.090  27.375  1.00  0.00     0.119 C 
BRANCH 100 101
ATOM    101  N   UNL A   1      43.878  35.498  27.723  1.00  0.00    -0.351 N 
ATOM    102  C   UNL A   1      44.677  36.523  27.278  1.00  0.00     0.278 C 
ATOM    103  H   UNL A   1      43.168  35.749  28.356  1.00  0.00     0.163 HD
ATOM    104  O   UNL A   1      44.279  37.681  27.442  1.00  0.00    -0.268 OA
BRANCH 102 105
ATOM    105  C   UNL A   1      46.043  36.220  26.618  1.00  0.00     0.277 C 
ATOM    106  C   UNL A   1      47.100  36.099  27.723  1.00  0.00     0.111 C 
ATOM    107  N   UNL A   1      46.320  37.213  25.549  1.00  0.00    -0.332 N 
ATOM    108  C   UNL A   1      48.476  36.032  27.136  1.00  0.00    -0.033 A 
ATOM    109  C   UNL A   1      47.665  37.804  25.563  1.00  0.00     0.298 C 
ATOM    110  H   UNL A   1      45.645  37.972  25.642  1.00  0.00     0.347 HD
ATOM    111  H   UNL A   1      46.250  36.703  24.669  1.00  0.00     0.347 HD
ATOM    112  C   UNL A   1      49.470  35.205  27.669  1.00  0.00     0.004 A 
ATOM    113  C   UNL A   1      48.759  36.896  26.070  1.00  0.00     0.010 A 
ATOM    114  C   UNL A   1      50.765  35.269  27.164  1.00  0.00     0.000 A 
ATOM    115  C   UNL A   1      50.070  36.970  25.585  1.00  0.00     0.010 A 
ATOM    116  C   UNL A   1      51.069  36.161  26.135  1.00  0.00     0.001 A 
ENDBRANCH 102 105
ENDBRANCH 100 101
ENDBRANCH  99 100
ENDBRANCH  91  94
ENDBRANCH  83  90
ENDBRANCH  80  83
ENDBRANCH  78  79
ENDBRANCH  77  78
ENDBRANCH   1  77
TORSDOF 22
ENDMDL
MODEL 2
REMARK VINA RESULT:      -8.9      4.066     11.183
REMARK SMILES O=C(NCCCCCCNC(=O)[C@H](NC(=O)[C@H]1CC[C@@H](CNC(=O)[C@@H]2Cc3ccccc3C[NH2+]2)CC1)c1ccccc1)c1ccc(-c2c3nc(c(-c4c(F)cc(S(=O)(=O)[O-])cc4F)c4ccc([nH]4)c(-c4c(F)cc(S(=O)(=O)[O-])cc4F)c4nc(c(-c5c(F)cc(S(=O)(=O)[O-])cc5F)c5ccc2[nH]5)C=C4)C=C3)cc1
REMARK SMILES IDX 7 1 6 2 5 3 4 4 3 5 1 6 2 7 43 9 44 10 108 11 45 12 107 13
REMARK SMILES IDX 46 14 47 15 48 16 101 17 49 18 106 19 100 20 102 21 50 22
REMARK SMILES IDX 105 23 99 24 98 25 51 27 85 28 64 29 84 30 65 31 68 32 83 33
REMARK SMILES IDX 103 34 66 35 67 36 82 38 104 39 69 40 52 41 53 42 62 43
REMARK SMILES IDX 54 44 55 45 61 46 63 47 56 48 57 49 58 50 59 51 60 52 86 53
REMARK SMILES IDX 87 54 96 55 88 56 89 57 95 58 97 59 90 60 91 61 92 62 93 63
REMARK SMILES IDX 94 64 70 65 71 66 80 67 72 68 73 69 79 70 81 71 74 72 75 73
REMARK SMILES IDX 76 74 77 75 78 76 8 77 9 78 10 79 11 80 12 82 13 83 37 84
REMARK SMILES IDX 38 85 42 86 39 87 41 88 40 89 14 90 15 91 16 93 17 94 36 95
REMARK SMILES IDX 18 96 35 97 19 98 20 99 21 100 22 101 23 102 24 104 25 105
REMARK SMILES IDX 26 106 34 107 27 108 33 109 28 112 32 113 29 114 31 115
REMARK SMILES IDX 30 116
REMARK H PARENT 3 8 102 26 68 37 10 81 14 92 22 103 34 110 34 111
REMARK Flexibility Score: inf
ROOT
ATOM      1  C   UNL A   1      38.085  21.818  25.601  1.00  0.00     0.002 C 
ENDROOT
BRANCH   1   2
ATOM      2  C   UNL A   1      39.348  22.324  26.295  1.00  0.00     0.002 C 
BRANCH   2   3
ATOM      3  C   UNL A   1      39.275  23.734  26.881  1.00  0.00     0.021 C 
BRANCH   3   4
ATOM      4  C   UNL A   1      40.595  24.402  27.221  1.00  0.00     0.116 C 
BRANCH   4   5
ATOM      5  N   UNL A   1      41.416  24.664  26.053  1.00  0.00    -0.352 N 
ATOM      6  O   UNL A   1      42.747  25.667  24.572  1.00  0.00    -0.269 OA
ATOM      7  C   UNL A   1      42.197  25.728  25.672  1.00  0.00     0.251 C 
ATOM      8  H   UNL A   1      41.411  23.929  25.398  1.00  0.00     0.163 HD
BRANCH   7   9
ATOM      9  C   UNL A   1      42.393  26.940  26.512  1.00  0.00     0.039 A 
ATOM     10  C   UNL A   1      42.958  26.915  27.789  1.00  0.00     0.014 A 
ATOM     11  C   UNL A   1      42.088  28.181  25.941  1.00  0.00     0.014 A 
ATOM     12  C   UNL A   1      43.096  28.091  28.530  1.00  0.00     0.010 A 
ATOM     13  C   UNL A   1      42.297  29.371  26.646  1.00  0.00     0.010 A 
ATOM     14  C   UNL A   1      42.793  29.331  27.951  1.00  0.00    -0.014 A 
BRANCH  14  15
ATOM     15  C   UNL A   1      43.227  30.577  28.621  1.00  0.00     0.031 A 
ATOM     16  C   UNL A   1      42.348  31.309  29.587  1.00  0.00     0.074 A 
ATOM     17  C   UNL A   1      44.438  31.058  28.286  1.00  0.00     0.049 A 
ATOM     18  N   UNL A   1      42.600  32.404  30.256  1.00  0.00    -0.248 NA
ATOM     19  C   UNL A   1      41.010  30.750  29.827  1.00  0.00     0.031 C 
ATOM     20  C   UNL A   1      45.343  30.433  27.315  1.00  0.00     0.029 A 
ATOM     21  N   UNL A   1      45.116  32.173  28.701  1.00  0.00    -0.354 N 
ATOM     22  C   UNL A   1      41.458  32.670  31.002  1.00  0.00     0.074 A 
ATOM     23  C   UNL A   1      40.498  31.634  30.675  1.00  0.00     0.031 C 
ATOM     24  C   UNL A   1      46.456  31.170  27.211  1.00  0.00     0.029 A 
ATOM     25  C   UNL A   1      46.328  32.337  28.076  1.00  0.00     0.049 A 
ATOM     26  H   UNL A   1      44.768  32.795  29.380  1.00  0.00     0.167 HD
ATOM     27  C   UNL A   1      41.247  33.684  31.877  1.00  0.00     0.037 A 
ATOM     28  C   UNL A   1      47.233  33.326  28.172  1.00  0.00     0.037 A 
ATOM     29  C   UNL A   1      42.219  34.714  32.158  1.00  0.00     0.049 A 
ATOM     30  C   UNL A   1      46.974  34.441  29.138  1.00  0.00     0.074 A 
ATOM     31  C   UNL A   1      42.134  35.759  33.062  1.00  0.00     0.029 A 
ATOM     32  N   UNL A   1      43.449  34.840  31.522  1.00  0.00    -0.354 N 
ATOM     33  N   UNL A   1      45.924  34.635  29.901  1.00  0.00    -0.248 NA
ATOM     34  C   UNL A   1      48.021  35.459  29.276  1.00  0.00     0.031 C 
ATOM     35  C   UNL A   1      43.283  36.547  32.933  1.00  0.00     0.029 A 
ATOM     36  C   UNL A   1      44.117  35.960  31.994  1.00  0.00     0.049 A 
ATOM     37  H   UNL A   1      43.795  34.226  30.836  1.00  0.00     0.167 HD
ATOM     38  C   UNL A   1      46.194  35.783  30.633  1.00  0.00     0.074 A 
ATOM     39  C   UNL A   1      47.509  36.238  30.219  1.00  0.00     0.031 C 
ATOM     40  C   UNL A   1      45.428  36.396  31.569  1.00  0.00     0.037 A 
BRANCH  27  41
ATOM     41  C   UNL A   1      39.911  33.745  32.576  1.00  0.00     0.058 A 
ATOM     42  C   UNL A   1      39.683  33.091  33.798  1.00  0.00     0.135 A 
ATOM     43  C   UNL A   1      38.853  34.494  32.035  1.00  0.00     0.135 A 
ATOM     44  F   UNL A   1      40.654  32.356  34.364  1.00  0.00    -0.206 F 
ATOM     45  C   UNL A   1      38.446  33.140  34.435  1.00  0.00     0.059 A 
ATOM     46  C   UNL A   1      37.614  34.581  32.669  1.00  0.00     0.059 A 
ATOM     47  F   UNL A   1      39.012  35.149  30.874  1.00  0.00    -0.206 F 
ATOM     48  C   UNL A   1      37.414  33.884  33.858  1.00  0.00     0.060 A 
BRANCH  48  49
ATOM     49  S   UNL A   1      35.807  33.909  34.682  1.00  0.00     0.124 S 
ATOM     50  O   UNL A   1      35.120  32.811  34.008  1.00  0.00    -0.237 OA
ATOM     51  O   UNL A   1      36.163  33.675  36.073  1.00  0.00    -0.237 OA
ATOM     52  O   UNL A   1      35.293  35.246  34.383  1.00  0.00    -0.744 OA
ENDBRANCH  48  49
ENDBRANCH  27  41
BRANCH  28  53
ATOM     53  C   UNL A   1      48.463  33.255  27.343  1.00  0.00     0.058 A 
ATOM     54  C   UNL A   1      48.598  34.033  26.187  1.00  0.00     0.135 A 
ATOM     55  C   UNL A   1      49.570  32.496  27.759  1.00  0.00     0.135 A 
ATOM     56  F   UNL A   1      47.570  34.778  25.755  1.00  0.00    -0.206 F 
ATOM     57  C   UNL A   1      49.791  34.070  25.473  1.00  0.00     0.059 A 
ATOM     58  C   UNL A   1      50.781  32.536  27.076  1.00  0.00     0.059 A 
ATOM     59  F   UNL A   1      49.496  31.758  28.878  1.00  0.00    -0.206 F 
ATOM     60  C   UNL A   1      50.881  33.327  25.933  1.00  0.00     0.060 A 
BRANCH  60  61
ATOM     61  S   UNL A   1      52.450  33.460  25.049  1.00  0.00     0.124 S 
ATOM     62  O   UNL A   1      52.080  32.991  23.720  1.00  0.00    -0.237 OA
ATOM     63  O   UNL A   1      52.746  34.884  25.166  1.00  0.00    -0.237 OA
ATOM     64  O   UNL A   1      53.337  32.580  25.806  1.00  0.00    -0.744 OA
ENDBRANCH  60  61
ENDBRANCH  28  53
BRANCH  40  65
ATOM     65  C   UNL A   1      46.007  37.608  32.243  1.00  0.00     0.058 A 
ATOM     66  C   UNL A   1      45.743  38.907  31.786  1.00  0.00     0.135 A 
ATOM     67  C   UNL A   1      46.785  37.464  33.403  1.00  0.00     0.135 A 
ATOM     68  F   UNL A   1      45.017  39.099  30.674  1.00  0.00    -0.206 F 
ATOM     69  C   UNL A   1      46.240  40.024  32.451  1.00  0.00     0.059 A 
ATOM     70  C   UNL A   1      47.269  38.566  34.099  1.00  0.00     0.059 A 
ATOM     71  F   UNL A   1      47.063  36.241  33.884  1.00  0.00    -0.206 F 
ATOM     72  C   UNL A   1      46.997  39.843  33.610  1.00  0.00     0.060 A 
BRANCH  72  73
ATOM     73  S   UNL A   1      47.584  41.301  34.497  1.00  0.00     0.124 S 
ATOM     74  O   UNL A   1      47.921  40.737  35.800  1.00  0.00    -0.237 OA
ATOM     75  O   UNL A   1      48.716  41.728  33.679  1.00  0.00    -0.237 OA
ATOM     76  O   UNL A   1      46.433  42.197  34.479  1.00  0.00    -0.744 OA
ENDBRANCH  72  73
ENDBRANCH  40  65
ENDBRANCH  14  15
ENDBRANCH   7   9
ENDBRANCH   4   5
ENDBRANCH   3   4
ENDBRANCH   2   3
ENDBRANCH   1   2
BRANCH   1  77
ATOM     77  C   UNL A   1      36.756  22.481  25.979  1.00  0.00     0.021 C 
BRANCH  77  78
ATOM     78  C   UNL A   1      35.495  21.616  26.020  1.00  0.00     0.116 C 
BRANCH  78  79
ATOM     79  N   UNL A   1      34.627  21.834  27.159  1.00  0.00    -0.354 N 
ATOM     80  C   UNL A   1      33.493  22.593  27.270  1.00  0.00     0.247 C 
ATOM     81  H   UNL A   1      34.896  21.363  27.982  1.00  0.00     0.163 HD
ATOM     82  O   UNL A   1      32.837  22.427  28.309  1.00  0.00    -0.272 OA
BRANCH  80  83
ATOM     83  C   UNL A   1      33.048  23.686  26.228  1.00  0.00     0.202 C 
BRANCH  83  84
ATOM     84  C   UNL A   1      32.941  23.144  24.789  1.00  0.00    -0.016 A 
ATOM     85  C   UNL A   1      32.265  21.925  24.565  1.00  0.00     0.006 A 
ATOM     86  C   UNL A   1      33.455  23.818  23.670  1.00  0.00     0.006 A 
ATOM     87  C   UNL A   1      32.103  21.412  23.275  1.00  0.00     0.000 A 
ATOM     88  C   UNL A   1      33.281  23.308  22.379  1.00  0.00     0.000 A 
ATOM     89  C   UNL A   1      32.605  22.107  22.180  1.00  0.00     0.000 A 
ENDBRANCH  83  84
BRANCH  83  90
ATOM     90  N   UNL A   1      31.843  24.450  26.536  1.00  0.00    -0.340 N 
ATOM     91  C   UNL A   1      31.432  25.718  26.326  1.00  0.00     0.224 C 
ATOM     92  H   UNL A   1      31.169  23.911  27.011  1.00  0.00     0.164 HD
ATOM     93  O   UNL A   1      30.299  25.961  26.763  1.00  0.00    -0.275 OA
BRANCH  91  94
ATOM     94  C   UNL A   1      32.221  26.831  25.606  1.00  0.00     0.078 C 
ATOM     95  C   UNL A   1      31.501  28.169  25.908  1.00  0.00     0.014 C 
ATOM     96  C   UNL A   1      33.723  26.947  25.868  1.00  0.00     0.014 C 
ATOM     97  C   UNL A   1      32.193  29.401  25.324  1.00  0.00     0.006 C 
ATOM     98  C   UNL A   1      34.371  28.203  25.283  1.00  0.00     0.006 C 
ATOM     99  C   UNL A   1      33.679  29.500  25.705  1.00  0.00     0.008 C 
BRANCH  99 100
ATOM    100  C   UNL A   1      33.817  29.819  27.199  1.00  0.00     0.119 C 
BRANCH 100 101
ATOM    101  N   UNL A   1      33.797  31.229  27.547  1.00  0.00    -0.351 N 
ATOM    102  C   UNL A   1      34.826  31.992  28.044  1.00  0.00     0.278 C 
ATOM    103  H   UNL A   1      32.942  31.695  27.409  1.00  0.00     0.163 HD
ATOM    104  O   UNL A   1      34.713  33.221  27.992  1.00  0.00    -0.268 OA
BRANCH 102 105
ATOM    105  C   UNL A   1      36.068  31.317  28.672  1.00  0.00     0.277 C 
ATOM    106  C   UNL A   1      36.450  30.107  27.811  1.00  0.00     0.111 C 
ATOM    107  N   UNL A   1      35.824  31.049  30.113  1.00  0.00    -0.332 N 
ATOM    108  C   UNL A   1      37.501  29.283  28.490  1.00  0.00    -0.033 A 
ATOM    109  C   UNL A   1      36.184  29.703  30.579  1.00  0.00     0.298 C 
ATOM    110  H   UNL A   1      34.830  31.187  30.295  1.00  0.00     0.347 HD
ATOM    111  H   UNL A   1      36.430  31.691  30.623  1.00  0.00     0.347 HD
ATOM    112  C   UNL A   1      38.544  28.681  27.780  1.00  0.00     0.004 A 
ATOM    113  C   UNL A   1      37.356  29.070  29.868  1.00  0.00     0.010 A 
ATOM    114  C   UNL A   1      39.424  27.827  28.438  1.00  0.00     0.000 A 
ATOM    115  C   UNL A   1      38.231  28.191  30.515  1.00  0.00     0.010 A 
ATOM    116  C   UNL A   1      39.259  27.570  29.800  1.00  0.00     0.001 A 
ENDBRANCH 102 105
ENDBRANCH 100 101
ENDBRANCH  99 100
ENDBRANCH  91  94
ENDBRANCH  83  90
ENDBRANCH  80  83
ENDBRANCH  78  79
ENDBRANCH  77  78
ENDBRANCH   1  77
TORSDOF 22
ENDMDL
MODEL 3
REMARK VINA RESULT:      -8.7      4.627     12.925
REMARK SMILES O=C(NCCCCCCNC(=O)[C@H](NC(=O)[C@H]1CC[C@@H](CNC(=O)[C@@H]2Cc3ccccc3C[NH2+]2)CC1)c1ccccc1)c1ccc(-c2c3nc(c(-c4c(F)cc(S(=O)(=O)[O-])cc4F)c4ccc([nH]4)c(-c4c(F)cc(S(=O)(=O)[O-])cc4F)c4nc(c(-c5c(F)cc(S(=O)(=O)[O-])cc5F)c5ccc2[nH]5)C=C4)C=C3)cc1
REMARK SMILES IDX 7 1 6 2 5 3 4 4 3 5 1 6 2 7 43 9 44 10 108 11 45 12 107 13
REMARK SMILES IDX 46 14 47 15 48 16 101 17 49 18 106 19 100 20 102 21 50 22
REMARK SMILES IDX 105 23 99 24 98 25 51 27 85 28 64 29 84 30 65 31 68 32 83 33
REMARK SMILES IDX 103 34 66 35 67 36 82 38 104 39 69 40 52 41 53 42 62 43
REMARK SMILES IDX 54 44 55 45 61 46 63 47 56 48 57 49 58 50 59 51 60 52 86 53
REMARK SMILES IDX 87 54 96 55 88 56 89 57 95 58 97 59 90 60 91 61 92 62 93 63
REMARK SMILES IDX 94 64 70 65 71 66 80 67 72 68 73 69 79 70 81 71 74 72 75 73
REMARK SMILES IDX 76 74 77 75 78 76 8 77 9 78 10 79 11 80 12 82 13 83 37 84
REMARK SMILES IDX 38 85 42 86 39 87 41 88 40 89 14 90 15 91 16 93 17 94 36 95
REMARK SMILES IDX 18 96 35 97 19 98 20 99 21 100 22 101 23 102 24 104 25 105
REMARK SMILES IDX 26 106 34 107 27 108 33 109 28 112 32 113 29 114 31 115
REMARK SMILES IDX 30 116
REMARK H PARENT 3 8 102 26 68 37 10 81 14 92 22 103 34 110 34 111
REMARK Flexibility Score: inf
ROOT
ATOM      1  C   UNL A   1      35.258  33.135  30.491  1.00  0.00     0.002 C 
ENDROOT
BRANCH   1   2
ATOM      2  C   UNL A   1      35.216  34.117  31.660  1.00  0.00     0.002 C 
BRANCH   2   3
ATOM      3  C   UNL A   1      35.968  33.694  32.922  1.00  0.00     0.021 C 
BRANCH   3   4
ATOM      4  C   UNL A   1      37.106  32.706  32.741  1.00  0.00     0.116 C 
BRANCH   4   5
ATOM      5  N   UNL A   1      37.718  32.311  33.997  1.00  0.00    -0.352 N 
ATOM      6  O   UNL A   1      39.104  31.415  35.496  1.00  0.00    -0.269 OA
ATOM      7  C   UNL A   1      38.879  31.644  34.308  1.00  0.00     0.251 C 
ATOM      8  H   UNL A   1      37.194  32.573  34.788  1.00  0.00     0.163 HD
BRANCH   7   9
ATOM      9  C   UNL A   1      39.854  31.181  33.285  1.00  0.00     0.039 A 
ATOM     10  C   UNL A   1      40.156  31.893  32.123  1.00  0.00     0.014 A 
ATOM     11  C   UNL A   1      40.582  30.017  33.563  1.00  0.00     0.014 A 
ATOM     12  C   UNL A   1      41.071  31.389  31.196  1.00  0.00     0.010 A 
ATOM     13  C   UNL A   1      41.558  29.548  32.678  1.00  0.00     0.010 A 
ATOM     14  C   UNL A   1      41.800  30.228  31.481  1.00  0.00    -0.014 A 
BRANCH  14  15
ATOM     15  C   UNL A   1      42.971  29.874  30.649  1.00  0.00     0.031 A 
ATOM     16  C   UNL A   1      44.096  30.833  30.411  1.00  0.00     0.074 A 
ATOM     17  C   UNL A   1      42.962  28.660  30.069  1.00  0.00     0.049 A 
ATOM     18  N   UNL A   1      45.189  30.656  29.715  1.00  0.00    -0.248 NA
ATOM     19  C   UNL A   1      43.978  32.165  31.021  1.00  0.00     0.031 C 
ATOM     20  C   UNL A   1      41.879  27.679  30.209  1.00  0.00     0.029 A 
ATOM     21  N   UNL A   1      43.864  28.044  29.244  1.00  0.00    -0.354 N 
ATOM     22  C   UNL A   1      45.897  31.849  29.802  1.00  0.00     0.074 A 
ATOM     23  C   UNL A   1      45.089  32.754  30.594  1.00  0.00     0.031 C 
ATOM     24  C   UNL A   1      42.182  26.585  29.498  1.00  0.00     0.029 A 
ATOM     25  C   UNL A   1      43.456  26.801  28.823  1.00  0.00     0.049 A 
ATOM     26  H   UNL A   1      44.720  28.451  28.979  1.00  0.00     0.167 HD
ATOM     27  C   UNL A   1      47.109  32.144  29.269  1.00  0.00     0.037 A 
ATOM     28  C   UNL A   1      44.033  25.935  27.973  1.00  0.00     0.037 A 
ATOM     29  C   UNL A   1      47.874  31.224  28.462  1.00  0.00     0.049 A 
ATOM     30  C   UNL A   1      45.367  26.287  27.388  1.00  0.00     0.074 A 
ATOM     31  C   UNL A   1      49.133  31.396  27.914  1.00  0.00     0.029 A 
ATOM     32  N   UNL A   1      47.441  29.961  28.070  1.00  0.00    -0.354 N 
ATOM     33  N   UNL A   1      46.065  27.387  27.546  1.00  0.00    -0.248 NA
ATOM     34  C   UNL A   1      46.003  25.282  26.530  1.00  0.00     0.031 C 
ATOM     35  C   UNL A   1      49.437  30.266  27.146  1.00  0.00     0.029 A 
ATOM     36  C   UNL A   1      48.396  29.358  27.266  1.00  0.00     0.049 A 
ATOM     37  H   UNL A   1      46.582  29.555  28.325  1.00  0.00     0.167 HD
ATOM     38  C   UNL A   1      47.238  27.197  26.831  1.00  0.00     0.074 A 
ATOM     39  C   UNL A   1      47.154  25.874  26.239  1.00  0.00     0.031 C 
ATOM     40  C   UNL A   1      48.292  28.038  26.686  1.00  0.00     0.037 A 
BRANCH  27  41
ATOM     41  C   UNL A   1      47.672  33.521  29.519  1.00  0.00     0.058 A 
ATOM     42  C   UNL A   1      48.528  33.787  30.600  1.00  0.00     0.135 A 
ATOM     43  C   UNL A   1      47.378  34.585  28.650  1.00  0.00     0.135 A 
ATOM     44  F   UNL A   1      48.844  32.812  31.469  1.00  0.00    -0.206 F 
ATOM     45  C   UNL A   1      49.038  35.061  30.835  1.00  0.00     0.059 A 
ATOM     46  C   UNL A   1      47.899  35.862  28.848  1.00  0.00     0.059 A 
ATOM     47  F   UNL A   1      46.572  34.392  27.594  1.00  0.00    -0.206 F 
ATOM     48  C   UNL A   1      48.711  36.095  29.955  1.00  0.00     0.060 A 
BRANCH  48  49
ATOM     49  S   UNL A   1      49.355  37.748  30.295  1.00  0.00     0.124 S 
ATOM     50  O   UNL A   1      50.400  37.455  31.273  1.00  0.00    -0.237 OA
ATOM     51  O   UNL A   1      49.816  38.183  28.986  1.00  0.00    -0.237 OA
ATOM     52  O   UNL A   1      48.191  38.465  30.820  1.00  0.00    -0.744 OA
ENDBRANCH  48  49
ENDBRANCH  27  41
BRANCH  28  53
ATOM     53  C   UNL A   1      43.342  24.655  27.675  1.00  0.00     0.058 A 
ATOM     54  C   UNL A   1      42.671  24.465  26.460  1.00  0.00     0.135 A 
ATOM     55  C   UNL A   1      43.441  23.561  28.551  1.00  0.00     0.135 A 
ATOM     56  F   UNL A   1      42.556  25.479  25.590  1.00  0.00    -0.206 F 
ATOM     57  C   UNL A   1      42.129  23.231  26.118  1.00  0.00     0.059 A 
ATOM     58  C   UNL A   1      42.928  22.312  28.219  1.00  0.00     0.059 A 
ATOM     59  F   UNL A   1      44.100  23.689  29.713  1.00  0.00    -0.206 F 
ATOM     60  C   UNL A   1      42.273  22.157  26.999  1.00  0.00     0.060 A 
BRANCH  60  61
ATOM     61  S   UNL A   1      41.646  20.539  26.498  1.00  0.00     0.124 S 
ATOM     62  O   UNL A   1      40.272  20.857  26.131  1.00  0.00    -0.237 OA
ATOM     63  O   UNL A   1      42.539  20.194  25.396  1.00  0.00    -0.237 OA
ATOM     64  O   UNL A   1      41.808  19.728  27.702  1.00  0.00    -0.744 OA
ENDBRANCH  60  61
ENDBRANCH  28  53
BRANCH  40  65
ATOM     65  C   UNL A   1      49.463  27.539  25.886  1.00  0.00     0.058 A 
ATOM     66  C   UNL A   1      49.491  27.614  24.487  1.00  0.00     0.135 A 
ATOM     67  C   UNL A   1      50.600  27.038  26.541  1.00  0.00     0.135 A 
ATOM     68  F   UNL A   1      48.424  28.072  23.813  1.00  0.00    -0.206 F 
ATOM     69  C   UNL A   1      50.603  27.199  23.760  1.00  0.00     0.059 A 
ATOM     70  C   UNL A   1      51.733  26.644  25.838  1.00  0.00     0.059 A 
ATOM     71  F   UNL A   1      50.626  26.950  27.881  1.00  0.00    -0.206 F 
ATOM     72  C   UNL A   1      51.722  26.722  24.446  1.00  0.00     0.060 A 
BRANCH  72  73
ATOM     73  S   UNL A   1      53.180  26.244  23.496  1.00  0.00     0.124 S 
ATOM     74  O   UNL A   1      52.596  25.935  22.196  1.00  0.00    -0.237 OA
ATOM     75  O   UNL A   1      53.998  27.452  23.553  1.00  0.00    -0.237 OA
ATOM     76  O   UNL A   1      53.708  25.102  24.235  1.00  0.00    -0.744 OA
ENDBRANCH  72  73
ENDBRANCH  40  65
ENDBRANCH  14  15
ENDBRANCH   7   9
ENDBRANCH   4   5
ENDBRANCH   3   4
ENDBRANCH   2   3
ENDBRANCH   1   2
BRANCH   1  77
ATOM     77  C   UNL A   1      36.209  33.454  29.333  1.00  0.00     0.021 C 
BRANCH  77  78
ATOM     78  C   UNL A   1      35.935  32.820  27.968  1.00  0.00     0.116 C 
BRANCH  78  79
ATOM     79  N   UNL A   1      34.602  32.285  27.787  1.00  0.00    -0.354 N 
ATOM     80  C   UNL A   1      34.183  30.989  27.647  1.00  0.00     0.247 C 
ATOM     81  H   UNL A   1      33.883  32.959  27.761  1.00  0.00     0.163 HD
ATOM     82  O   UNL A   1      32.958  30.810  27.719  1.00  0.00    -0.272 OA
BRANCH  80  83
ATOM     83  C   UNL A   1      35.135  29.777  27.322  1.00  0.00     0.202 C 
BRANCH  83  84
ATOM     84  C   UNL A   1      36.296  29.632  28.324  1.00  0.00    -0.016 A 
ATOM     85  C   UNL A   1      36.004  29.546  29.703  1.00  0.00     0.006 A 
ATOM     86  C   UNL A   1      37.643  29.545  27.939  1.00  0.00     0.006 A 
ATOM     87  C   UNL A   1      37.017  29.371  30.650  1.00  0.00     0.000 A 
ATOM     88  C   UNL A   1      38.654  29.358  28.887  1.00  0.00     0.000 A 
ATOM     89  C   UNL A   1      38.343  29.270  30.241  1.00  0.00     0.000 A 
ENDBRANCH  83  84
BRANCH  83  90
ATOM     90  N   UNL A   1      34.510  28.472  27.130  1.00  0.00    -0.340 N 
ATOM     91  C   UNL A   1      33.571  27.972  26.299  1.00  0.00     0.224 C 
ATOM     92  H   UNL A   1      34.856  27.795  27.756  1.00  0.00     0.164 HD
ATOM     93  O   UNL A   1      33.326  26.771  26.477  1.00  0.00    -0.275 OA
BRANCH  91  94
ATOM     94  C   UNL A   1      32.825  28.739  25.189  1.00  0.00     0.078 C 
ATOM     95  C   UNL A   1      33.516  28.389  23.847  1.00  0.00     0.014 C 
ATOM     96  C   UNL A   1      31.308  28.576  25.081  1.00  0.00     0.014 C 
ATOM     97  C   UNL A   1      32.858  29.015  22.618  1.00  0.00     0.006 C 
ATOM     98  C   UNL A   1      30.694  29.200  23.827  1.00  0.00     0.006 C 
ATOM     99  C   UNL A   1      31.350  28.732  22.528  1.00  0.00     0.008 C 
BRANCH  99 100
ATOM    100  C   UNL A   1      31.113  27.249  22.213  1.00  0.00     0.119 C 
BRANCH 100 101
ATOM    101  N   UNL A   1      31.993  26.669  21.214  1.00  0.00    -0.351 N 
ATOM    102  C   UNL A   1      32.602  25.437  21.235  1.00  0.00     0.278 C 
ATOM    103  H   UNL A   1      32.176  27.226  20.424  1.00  0.00     0.163 HD
ATOM    104  O   UNL A   1      33.061  24.999  20.175  1.00  0.00    -0.268 OA
BRANCH 102 105
ATOM    105  C   UNL A   1      32.724  24.648  22.560  1.00  0.00     0.277 C 
ATOM    106  C   UNL A   1      34.172  24.750  23.055  1.00  0.00     0.111 C 
ATOM    107  N   UNL A   1      32.184  23.275  22.383  1.00  0.00    -0.332 N 
ATOM    108  C   UNL A   1      34.405  23.822  24.208  1.00  0.00    -0.033 A 
ATOM    109  C   UNL A   1      33.025  22.190  22.903  1.00  0.00     0.298 C 
ATOM    110  H   UNL A   1      32.050  23.116  21.385  1.00  0.00     0.347 HD
ATOM    111  H   UNL A   1      31.321  23.242  22.926  1.00  0.00     0.347 HD
ATOM    112  C   UNL A   1      35.210  24.179  25.294  1.00  0.00     0.004 A 
ATOM    113  C   UNL A   1      33.846  22.540  24.121  1.00  0.00     0.010 A 
ATOM    114  C   UNL A   1      35.494  23.239  26.280  1.00  0.00     0.000 A 
ATOM    115  C   UNL A   1      34.157  21.596  25.105  1.00  0.00     0.010 A 
ATOM    116  C   UNL A   1      34.982  21.944  26.179  1.00  0.00     0.001 A 
ENDBRANCH 102 105
ENDBRANCH 100 101
ENDBRANCH  99 100
ENDBRANCH  91  94
ENDBRANCH  83  90
ENDBRANCH  80  83
ENDBRANCH  78  79
ENDBRANCH  77  78
ENDBRANCH   1  77
TORSDOF 22
ENDMDL
