MODEL 1
REMARK VINA RESULT:     -11.8      0.000      0.000
REMARK SMILES CCC(=O)N1CCC[C@](C[C@H]2CC(c3ccc(C)cc3)=NO2)(C(=O)NCCCCCCNC(=O)c2ccc(-c3c4nc(c(-c5c(F)cc(S(=O)(=O)[O-])cc5F)c5ccc([nH]5)c(-c5c(F)cc(S(=O)(=O)[O-])cc5F)c5nc(c(-c6c(F)cc(S(=O)(=O)[O-])cc6F)c6ccc3[nH]6)C=C5)C=C4)cc2)C1
REMARK SMILES IDX 28 1 27 2 26 3 25 4 23 5 24 6 9 8 5 9 6 10 101 11 7 12 8 13
REMARK SMILES IDX 3 14 4 15 2 16 1 17 10 18 11 19 12 20 22 21 13 22 21 23
REMARK SMILES IDX 14 24 15 25 20 26 16 27 19 28 17 29 18 30 29 31 30 32 31 33
REMARK SMILES IDX 32 34 33 35 34 37 35 38 36 39 100 40 37 41 99 42 38 43 39 44
REMARK SMILES IDX 40 45 93 46 41 47 98 48 92 49 94 50 42 51 97 52 91 53 90 54
REMARK SMILES IDX 43 56 77 57 56 58 76 59 57 60 60 61 75 62 95 63 58 64 59 65
REMARK SMILES IDX 74 67 96 68 61 69 44 70 45 71 54 72 46 73 47 74 53 75 55 76
REMARK SMILES IDX 48 77 49 78 50 79 51 80 52 81 78 82 79 83 88 84 80 85 81 86
REMARK SMILES IDX 87 87 89 88 82 89 83 90 84 91 85 92 86 93 62 94 63 95 72 96
REMARK SMILES IDX 64 97 65 98 71 99 73 100 66 101 67 102 68 103 69 104 70 105
REMARK H PARENT 25 7 32 36 94 55 60 66
REMARK Flexibility Score: inf
ROOT
ATOM      1  C   UNL A   1      35.154  23.460  23.818  1.00  0.00     0.002 C 
ENDROOT
BRANCH   1   2
ATOM      2  C   UNL A   1      34.060  23.595  22.744  1.00  0.00     0.021 C 
BRANCH   2   3
ATOM      3  C   UNL A   1      32.797  24.245  23.227  1.00  0.00     0.116 C 
BRANCH   3   4
ATOM      4  N   UNL A   1      32.657  25.619  22.814  1.00  0.00    -0.356 N 
ATOM      5  C   UNL A   1      32.952  26.751  23.491  1.00  0.00     0.228 C 
ATOM      6  O   UNL A   1      33.400  27.657  22.770  1.00  0.00    -0.274 OA
ATOM      7  H   UNL A   1      32.295  25.752  21.909  1.00  0.00     0.163 HD
BRANCH   5   8
ATOM      8  C   UNL A   1      32.602  27.053  24.994  1.00  0.00     0.070 C 
ATOM      9  N   UNL A   1      31.673  24.906  26.061  1.00  0.00    -0.342 N 
ATOM     10  C   UNL A   1      30.298  25.378  25.862  1.00  0.00     0.119 C 
ATOM     11  C   UNL A   1      32.722  25.922  26.042  1.00  0.00     0.136 C 
ATOM     12  C   UNL A   1      30.151  26.425  24.770  1.00  0.00     0.023 C 
ATOM     13  C   UNL A   1      31.145  27.562  24.975  1.00  0.00     0.021 C 
BRANCH   9  14
ATOM     14  C   UNL A   1      31.776  23.670  26.702  1.00  0.00     0.222 C 
ATOM     15  O   UNL A   1      30.926  23.350  27.545  1.00  0.00    -0.275 OA
BRANCH  14  16
ATOM     16  C   UNL A   1      32.961  22.707  26.560  1.00  0.00     0.097 C 
ATOM     17  C   UNL A   1      33.807  22.153  27.687  1.00  0.00     0.014 C 
ENDBRANCH  14  16
ENDBRANCH   9  14
BRANCH   8  18
ATOM     18  C   UNL A   1      33.630  28.206  25.345  1.00  0.00     0.067 C 
BRANCH  18  19
ATOM     19  C   UNL A   1      33.819  28.809  26.742  1.00  0.00     0.211 C 
ATOM     20  C   UNL A   1      35.193  29.345  27.056  1.00  0.00     0.108 C 
ATOM     21  O   UNL A   1      32.870  29.830  27.047  1.00  0.00    -0.392 OA
ATOM     22  C   UNL A   1      34.815  30.702  27.517  1.00  0.00     0.091 C 
ATOM     23  N   UNL A   1      33.550  30.957  27.558  1.00  0.00    -0.090 NA
BRANCH  22  24
ATOM     24  C   UNL A   1      35.848  31.610  28.021  1.00  0.00    -0.001 A 
ATOM     25  C   UNL A   1      37.015  31.116  28.603  1.00  0.00     0.010 A 
ATOM     26  C   UNL A   1      35.580  32.979  28.002  1.00  0.00     0.010 A 
ATOM     27  C   UNL A   1      37.910  32.005  29.202  1.00  0.00     0.004 A 
ATOM     28  C   UNL A   1      36.465  33.860  28.618  1.00  0.00     0.004 A 
ATOM     29  C   UNL A   1      37.629  33.380  29.234  1.00  0.00    -0.051 A 
ATOM     30  C   UNL A   1      38.541  34.337  29.943  1.00  0.00     0.044 C 
ENDBRANCH  22  24
ENDBRANCH  18  19
ENDBRANCH   8  18
ENDBRANCH   5   8
ENDBRANCH   3   4
ENDBRANCH   2   3
ENDBRANCH   1   2
BRANCH   1  31
ATOM     31  C   UNL A   1      36.199  22.279  23.917  1.00  0.00     0.002 C 
BRANCH  31  32
ATOM     32  C   UNL A   1      36.440  21.196  25.117  1.00  0.00     0.021 C 
BRANCH  32  33
ATOM     33  C   UNL A   1      37.924  20.627  25.365  1.00  0.00     0.116 C 
BRANCH  33  34
ATOM     34  N   UNL A   1      39.271  21.457  25.519  1.00  0.00    -0.352 N 
ATOM     35  C   UNL A   1      39.798  22.418  26.502  1.00  0.00     0.251 C 
ATOM     36  H   UNL A   1      39.902  21.289  24.782  1.00  0.00     0.163 HD
ATOM     37  O   UNL A   1      40.687  21.939  27.232  1.00  0.00    -0.269 OA
BRANCH  35  38
ATOM     38  C   UNL A   1      39.520  23.980  26.786  1.00  0.00     0.039 A 
ATOM     39  C   UNL A   1      40.246  24.992  26.082  1.00  0.00     0.014 A 
ATOM     40  C   UNL A   1      38.730  24.525  27.786  1.00  0.00     0.014 A 
ATOM     41  C   UNL A   1      40.674  26.206  26.763  1.00  0.00     0.010 A 
ATOM     42  C   UNL A   1      39.130  25.729  28.453  1.00  0.00     0.010 A 
ATOM     43  C   UNL A   1      40.279  26.443  28.087  1.00  0.00    -0.014 A 
BRANCH  43  44
ATOM     44  C   UNL A   1      41.079  27.217  29.130  1.00  0.00     0.031 A 
ATOM     45  C   UNL A   1      40.453  28.217  29.995  1.00  0.00     0.074 A 
ATOM     46  C   UNL A   1      42.379  27.037  29.523  1.00  0.00     0.049 A 
ATOM     47  N   UNL A   1      40.901  29.422  30.164  1.00  0.00    -0.248 NA
ATOM     48  C   UNL A   1      39.342  27.851  30.858  1.00  0.00     0.031 C 
ATOM     49  C   UNL A   1      43.187  27.601  30.625  1.00  0.00     0.029 A 
ATOM     50  N   UNL A   1      43.316  26.169  29.002  1.00  0.00    -0.354 N 
ATOM     51  C   UNL A   1      40.339  29.859  31.343  1.00  0.00     0.074 A 
ATOM     52  C   UNL A   1      39.250  28.940  31.625  1.00  0.00     0.031 C 
ATOM     53  C   UNL A   1      44.498  27.341  30.412  1.00  0.00     0.029 A 
ATOM     54  C   UNL A   1      44.616  26.645  29.147  1.00  0.00     0.049 A 
ATOM     55  H   UNL A   1      43.090  25.310  28.576  1.00  0.00     0.167 HD
ATOM     56  C   UNL A   1      40.975  30.733  32.180  1.00  0.00     0.037 A 
ATOM     57  C   UNL A   1      45.339  26.956  28.024  1.00  0.00     0.037 A 
ATOM     58  C   UNL A   1      42.398  30.887  31.856  1.00  0.00     0.049 A 
ATOM     59  C   UNL A   1      45.465  28.444  27.880  1.00  0.00     0.074 A 
ATOM     60  C   UNL A   1      43.567  30.465  32.478  1.00  0.00     0.029 A 
ATOM     61  N   UNL A   1      42.790  31.292  30.593  1.00  0.00    -0.354 N 
ATOM     62  N   UNL A   1      45.219  29.272  28.848  1.00  0.00    -0.248 NA
ATOM     63  C   UNL A   1      45.769  29.126  26.625  1.00  0.00     0.031 C 
ATOM     64  C   UNL A   1      44.659  30.659  31.588  1.00  0.00     0.029 A 
ATOM     65  C   UNL A   1      44.161  31.207  30.422  1.00  0.00     0.049 A 
ATOM     66  H   UNL A   1      42.167  31.604  29.898  1.00  0.00     0.167 HD
ATOM     67  C   UNL A   1      45.156  30.540  28.356  1.00  0.00     0.074 A 
ATOM     68  C   UNL A   1      45.561  30.409  26.967  1.00  0.00     0.031 C 
ATOM     69  C   UNL A   1      44.730  31.576  29.134  1.00  0.00     0.037 A 
BRANCH  56  70
ATOM     70  C   UNL A   1      40.352  31.196  33.484  1.00  0.00     0.058 A 
ATOM     71  C   UNL A   1      39.315  32.148  33.529  1.00  0.00     0.135 A 
ATOM     72  C   UNL A   1      40.719  30.665  34.743  1.00  0.00     0.135 A 
ATOM     73  F   UNL A   1      38.767  32.654  32.417  1.00  0.00    -0.206 F 
ATOM     74  C   UNL A   1      38.766  32.618  34.722  1.00  0.00     0.059 A 
ATOM     75  C   UNL A   1      40.221  31.155  35.954  1.00  0.00     0.059 A 
ATOM     76  F   UNL A   1      41.562  29.623  34.835  1.00  0.00    -0.206 F 
ATOM     77  C   UNL A   1      39.241  32.135  35.933  1.00  0.00     0.060 A 
BRANCH  77  78
ATOM     78  S   UNL A   1      38.519  32.772  37.455  1.00  0.00     0.124 S 
ATOM     79  O   UNL A   1      38.463  34.208  37.196  1.00  0.00    -0.237 OA
ATOM     80  O   UNL A   1      37.233  32.085  37.491  1.00  0.00    -0.237 OA
ATOM     81  O   UNL A   1      39.474  32.366  38.484  1.00  0.00    -0.744 OA
ENDBRANCH  77  78
ENDBRANCH  56  70
BRANCH  57  82
ATOM     82  C   UNL A   1      45.167  26.017  26.828  1.00  0.00     0.058 A 
ATOM     83  C   UNL A   1      45.143  26.662  25.597  1.00  0.00     0.135 A 
ATOM     84  C   UNL A   1      46.028  24.935  26.828  1.00  0.00     0.135 A 
ATOM     85  F   UNL A   1      44.034  27.268  25.156  1.00  0.00    -0.206 F 
ATOM     86  C   UNL A   1      46.290  26.727  24.819  1.00  0.00     0.059 A 
ATOM     87  C   UNL A   1      47.196  25.038  26.066  1.00  0.00     0.059 A 
ATOM     88  F   UNL A   1      45.954  23.999  27.786  1.00  0.00    -0.206 F 
ATOM     89  C   UNL A   1      47.445  26.121  25.261  1.00  0.00     0.060 A 
BRANCH  89  90
ATOM     90  S   UNL A   1      49.217  26.991  24.980  1.00  0.00     0.124 S 
ATOM     91  O   UNL A   1      48.862  28.372  25.146  1.00  0.00    -0.237 OA
ATOM     92  O   UNL A   1      50.068  26.517  26.069  1.00  0.00    -0.237 OA
ATOM     93  O   UNL A   1      49.683  26.681  23.653  1.00  0.00    -0.744 OA
ENDBRANCH  89  90
ENDBRANCH  57  82
BRANCH  69  94
ATOM     94  C   UNL A   1      44.804  33.019  28.731  1.00  0.00     0.058 A 
ATOM     95  C   UNL A   1      44.180  33.506  27.571  1.00  0.00     0.135 A 
ATOM     96  C   UNL A   1      45.629  33.940  29.416  1.00  0.00     0.135 A 
ATOM     97  F   UNL A   1      43.489  32.692  26.757  1.00  0.00    -0.206 F 
ATOM     98  C   UNL A   1      44.278  34.839  27.179  1.00  0.00     0.059 A 
ATOM     99  C   UNL A   1      45.783  35.259  29.015  1.00  0.00     0.059 A 
ATOM    100  F   UNL A   1      46.321  33.604  30.511  1.00  0.00    -0.206 F 
ATOM    101  C   UNL A   1      45.074  35.711  27.916  1.00  0.00     0.060 A 
BRANCH 101 102
ATOM    102  S   UNL A   1      45.196  37.430  27.414  1.00  0.00     0.124 S 
ATOM    103  O   UNL A   1      45.521  38.102  28.668  1.00  0.00    -0.237 OA
ATOM    104  O   UNL A   1      46.275  37.367  26.432  1.00  0.00    -0.237 OA
ATOM    105  O   UNL A   1      43.872  37.726  26.874  1.00  0.00    -0.744 OA
ENDBRANCH 101 102
ENDBRANCH  69  94
ENDBRANCH  43  44
ENDBRANCH  35  38
ENDBRANCH  33  34
ENDBRANCH  32  33
ENDBRANCH  31  32
ENDBRANCH   1  31
TORSDOF 21
ENDMDL
MODEL 2
REMARK VINA RESULT:     -11.3      4.093      7.487
REMARK SMILES CCC(=O)N1CCC[C@](C[C@H]2CC(c3ccc(C)cc3)=NO2)(C(=O)NCCCCCCNC(=O)c2ccc(-c3c4nc(c(-c5c(F)cc(S(=O)(=O)[O-])cc5F)c5ccc([nH]5)c(-c5c(F)cc(S(=O)(=O)[O-])cc5F)c5nc(c(-c6c(F)cc(S(=O)(=O)[O-])cc6F)c6ccc3[nH]6)C=C5)C=C4)cc2)C1
REMARK SMILES IDX 28 1 27 2 26 3 25 4 23 5 24 6 9 8 5 9 6 10 101 11 7 12 8 13
REMARK SMILES IDX 3 14 4 15 2 16 1 17 10 18 11 19 12 20 22 21 13 22 21 23
REMARK SMILES IDX 14 24 15 25 20 26 16 27 19 28 17 29 18 30 29 31 30 32 31 33
REMARK SMILES IDX 32 34 33 35 34 37 35 38 36 39 100 40 37 41 99 42 38 43 39 44
REMARK SMILES IDX 40 45 93 46 41 47 98 48 92 49 94 50 42 51 97 52 91 53 90 54
REMARK SMILES IDX 43 56 77 57 56 58 76 59 57 60 60 61 75 62 95 63 58 64 59 65
REMARK SMILES IDX 74 67 96 68 61 69 44 70 45 71 54 72 46 73 47 74 53 75 55 76
REMARK SMILES IDX 48 77 49 78 50 79 51 80 52 81 78 82 79 83 88 84 80 85 81 86
REMARK SMILES IDX 87 87 89 88 82 89 83 90 84 91 85 92 86 93 62 94 63 95 72 96
REMARK SMILES IDX 64 97 65 98 71 99 73 100 66 101 67 102 68 103 69 104 70 105
REMARK H PARENT 25 7 32 36 94 55 60 66
REMARK Flexibility Score: inf
ROOT
ATOM      1  C   UNL A   1      36.537  23.142  25.268  1.00  0.00     0.002 C 
ENDROOT
BRANCH   1   2
ATOM      2  C   UNL A   1      35.640  23.691  24.145  1.00  0.00     0.021 C 
BRANCH   2   3
ATOM      3  C   UNL A   1      34.666  24.743  24.591  1.00  0.00     0.116 C 
BRANCH   3   4
ATOM      4  N   UNL A   1      33.998  25.413  23.505  1.00  0.00    -0.356 N 
ATOM      5  C   UNL A   1      33.486  26.663  23.455  1.00  0.00     0.228 C 
ATOM      6  O   UNL A   1      33.620  27.209  22.347  1.00  0.00    -0.274 OA
ATOM      7  H   UNL A   1      33.900  24.885  22.680  1.00  0.00     0.163 HD
BRANCH   5   8
ATOM      8  C   UNL A   1      32.611  27.354  24.563  1.00  0.00     0.070 C 
ATOM      9  N   UNL A   1      30.820  25.684  25.346  1.00  0.00    -0.342 N 
ATOM     10  C   UNL A   1      29.825  26.306  24.465  1.00  0.00     0.119 C 
ATOM     11  C   UNL A   1      31.989  26.491  25.685  1.00  0.00     0.136 C 
ATOM     12  C   UNL A   1      30.422  27.082  23.302  1.00  0.00     0.023 C 
ATOM     13  C   UNL A   1      31.477  28.067  23.795  1.00  0.00     0.021 C 
BRANCH   9  14
ATOM     14  C   UNL A   1      30.332  24.628  26.118  1.00  0.00     0.222 C 
ATOM     15  O   UNL A   1      29.371  24.823  26.876  1.00  0.00    -0.275 OA
BRANCH  14  16
ATOM     16  C   UNL A   1      30.990  23.246  26.226  1.00  0.00     0.097 C 
ATOM     17  C   UNL A   1      31.730  22.517  25.125  1.00  0.00     0.014 C 
ENDBRANCH  14  16
ENDBRANCH   9  14
BRANCH   8  18
ATOM     18  C   UNL A   1      33.636  28.381  25.198  1.00  0.00     0.067 C 
BRANCH  18  19
ATOM     19  C   UNL A   1      33.492  29.009  26.589  1.00  0.00     0.211 C 
ATOM     20  C   UNL A   1      34.776  29.360  27.298  1.00  0.00     0.108 C 
ATOM     21  O   UNL A   1      32.655  30.163  26.603  1.00  0.00    -0.392 OA
ATOM     22  C   UNL A   1      34.481  30.773  27.630  1.00  0.00     0.091 C 
ATOM     23  N   UNL A   1      33.312  31.204  27.295  1.00  0.00    -0.090 NA
BRANCH  22  24
ATOM     24  C   UNL A   1      35.441  31.548  28.420  1.00  0.00    -0.001 A 
ATOM     25  C   UNL A   1      36.815  31.368  28.257  1.00  0.00     0.010 A 
ATOM     26  C   UNL A   1      34.941  32.390  29.414  1.00  0.00     0.010 A 
ATOM     27  C   UNL A   1      37.697  32.015  29.125  1.00  0.00     0.004 A 
ATOM     28  C   UNL A   1      35.825  33.017  30.289  1.00  0.00     0.004 A 
ATOM     29  C   UNL A   1      37.207  32.825  30.160  1.00  0.00    -0.051 A 
ATOM     30  C   UNL A   1      38.138  33.463  31.148  1.00  0.00     0.044 C 
ENDBRANCH  22  24
ENDBRANCH  18  19
ENDBRANCH   8  18
ENDBRANCH   5   8
ENDBRANCH   3   4
ENDBRANCH   2   3
ENDBRANCH   1   2
BRANCH   1  31
ATOM     31  C   UNL A   1      37.312  24.018  26.331  1.00  0.00     0.002 C 
BRANCH  31  32
ATOM     32  C   UNL A   1      38.883  24.467  26.367  1.00  0.00     0.021 C 
BRANCH  32  33
ATOM     33  C   UNL A   1      39.544  24.875  27.776  1.00  0.00     0.116 C 
BRANCH  33  34
ATOM     34  N   UNL A   1      39.282  26.192  28.627  1.00  0.00    -0.352 N 
ATOM     35  C   UNL A   1      39.163  27.627  28.320  1.00  0.00     0.251 C 
ATOM     36  H   UNL A   1      39.175  26.003  29.587  1.00  0.00     0.163 HD
ATOM     37  O   UNL A   1      37.992  28.048  28.379  1.00  0.00    -0.269 OA
BRANCH  35  38
ATOM     38  C   UNL A   1      40.236  28.785  27.993  1.00  0.00     0.039 A 
ATOM     39  C   UNL A   1      40.855  28.865  26.706  1.00  0.00     0.014 A 
ATOM     40  C   UNL A   1      40.795  29.689  28.882  1.00  0.00     0.014 A 
ATOM     41  C   UNL A   1      42.259  29.231  26.581  1.00  0.00     0.010 A 
ATOM     42  C   UNL A   1      42.171  30.072  28.761  1.00  0.00     0.010 A 
ATOM     43  C   UNL A   1      42.986  29.618  27.716  1.00  0.00    -0.014 A 
BRANCH  43  44
ATOM     44  C   UNL A   1      44.481  29.402  27.932  1.00  0.00     0.031 A 
ATOM     45  C   UNL A   1      45.449  30.483  27.751  1.00  0.00     0.074 A 
ATOM     46  C   UNL A   1      45.126  28.303  28.435  1.00  0.00     0.049 A 
ATOM     47  N   UNL A   1      46.522  30.390  27.028  1.00  0.00    -0.248 NA
ATOM     48  C   UNL A   1      45.334  31.712  28.519  1.00  0.00     0.031 C 
ATOM     49  C   UNL A   1      46.524  28.054  28.844  1.00  0.00     0.029 A 
ATOM     50  N   UNL A   1      44.588  27.082  28.781  1.00  0.00    -0.354 N 
ATOM     51  C   UNL A   1      47.351  31.396  27.475  1.00  0.00     0.074 A 
ATOM     52  C   UNL A   1      46.506  32.289  28.247  1.00  0.00     0.031 C 
ATOM     53  C   UNL A   1      46.730  26.724  28.989  1.00  0.00     0.029 A 
ATOM     54  C   UNL A   1      45.503  26.042  28.637  1.00  0.00     0.049 A 
ATOM     55  H   UNL A   1      43.662  26.959  29.093  1.00  0.00     0.167 HD
ATOM     56  C   UNL A   1      48.714  31.283  27.464  1.00  0.00     0.037 A 
ATOM     57  C   UNL A   1      45.262  25.069  27.700  1.00  0.00     0.037 A 
ATOM     58  C   UNL A   1      49.161  29.903  27.243  1.00  0.00     0.049 A 
ATOM     59  C   UNL A   1      46.191  25.229  26.534  1.00  0.00     0.074 A 
ATOM     60  C   UNL A   1      49.745  28.949  28.067  1.00  0.00     0.029 A 
ATOM     61  N   UNL A   1      48.763  29.208  26.116  1.00  0.00    -0.354 N 
ATOM     62  N   UNL A   1      47.263  25.959  26.577  1.00  0.00    -0.248 NA
ATOM     63  C   UNL A   1      45.944  24.677  25.204  1.00  0.00     0.031 C 
ATOM     64  C   UNL A   1      49.724  27.692  27.403  1.00  0.00     0.029 A 
ATOM     65  C   UNL A   1      49.133  27.876  26.169  1.00  0.00     0.049 A 
ATOM     66  H   UNL A   1      48.273  29.615  25.364  1.00  0.00     0.167 HD
ATOM     67  C   UNL A   1      47.749  26.126  25.316  1.00  0.00     0.074 A 
ATOM     68  C   UNL A   1      46.923  25.261  24.492  1.00  0.00     0.031 C 
ATOM     69  C   UNL A   1      48.764  27.002  25.064  1.00  0.00     0.037 A 
BRANCH  56  70
ATOM     70  C   UNL A   1      49.616  32.392  27.972  1.00  0.00     0.058 A 
ATOM     71  C   UNL A   1      50.014  33.473  27.161  1.00  0.00     0.135 A 
ATOM     72  C   UNL A   1      50.075  32.458  29.308  1.00  0.00     0.135 A 
ATOM     73  F   UNL A   1      49.564  33.624  25.910  1.00  0.00    -0.206 F 
ATOM     74  C   UNL A   1      50.881  34.473  27.600  1.00  0.00     0.059 A 
ATOM     75  C   UNL A   1      50.984  33.421  29.758  1.00  0.00     0.059 A 
ATOM     76  F   UNL A   1      49.627  31.597  30.237  1.00  0.00    -0.206 F 
ATOM     77  C   UNL A   1      51.383  34.428  28.893  1.00  0.00     0.060 A 
BRANCH  77  78
ATOM     78  S   UNL A   1      52.511  35.728  29.424  1.00  0.00     0.124 S 
ATOM     79  O   UNL A   1      52.717  35.405  30.833  1.00  0.00    -0.237 OA
ATOM     80  O   UNL A   1      53.658  35.508  28.550  1.00  0.00    -0.237 OA
ATOM     81  O   UNL A   1      51.760  36.956  29.173  1.00  0.00    -0.744 OA
ENDBRANCH  77  78
ENDBRANCH  56  70
BRANCH  57  82
ATOM     82  C   UNL A   1      43.807  24.622  27.549  1.00  0.00     0.058 A 
ATOM     83  C   UNL A   1      43.310  24.731  26.254  1.00  0.00     0.135 A 
ATOM     84  C   UNL A   1      43.531  23.387  28.106  1.00  0.00     0.135 A 
ATOM     85  F   UNL A   1      42.897  25.908  25.770  1.00  0.00    -0.206 F 
ATOM     86  C   UNL A   1      43.276  23.620  25.423  1.00  0.00     0.059 A 
ATOM     87  C   UNL A   1      43.539  22.277  27.255  1.00  0.00     0.059 A 
ATOM     88  F   UNL A   1      43.627  23.195  29.430  1.00  0.00    -0.206 F 
ATOM     89  C   UNL A   1      43.709  22.403  25.899  1.00  0.00     0.060 A 
BRANCH  89  90
ATOM     90  S   UNL A   1      44.749  21.169  24.728  1.00  0.00     0.124 S 
ATOM     91  O   UNL A   1      44.688  21.877  23.480  1.00  0.00    -0.237 OA
ATOM     92  O   UNL A   1      46.104  21.153  25.274  1.00  0.00    -0.237 OA
ATOM     93  O   UNL A   1      44.084  19.893  24.688  1.00  0.00    -0.744 OA
ENDBRANCH  89  90
ENDBRANCH  57  82
BRANCH  69  94
ATOM     94  C   UNL A   1      49.475  27.112  23.748  1.00  0.00     0.058 A 
ATOM     95  C   UNL A   1      48.818  27.506  22.571  1.00  0.00     0.135 A 
ATOM     96  C   UNL A   1      50.812  26.683  23.589  1.00  0.00     0.135 A 
ATOM     97  F   UNL A   1      47.507  27.797  22.568  1.00  0.00    -0.206 F 
ATOM     98  C   UNL A   1      49.472  27.575  21.343  1.00  0.00     0.059 A 
ATOM     99  C   UNL A   1      51.469  26.693  22.367  1.00  0.00     0.059 A 
ATOM    100  F   UNL A   1      51.548  26.238  24.615  1.00  0.00    -0.206 F 
ATOM    101  C   UNL A   1      50.802  27.177  21.254  1.00  0.00     0.060 A 
BRANCH 101 102
ATOM    102  S   UNL A   1      51.646  27.270  19.673  1.00  0.00     0.124 S 
ATOM    103  O   UNL A   1      52.618  26.185  19.770  1.00  0.00    -0.237 OA
ATOM    104  O   UNL A   1      50.542  27.048  18.744  1.00  0.00    -0.237 OA
ATOM    105  O   UNL A   1      52.214  28.615  19.664  1.00  0.00    -0.744 OA
ENDBRANCH 101 102
ENDBRANCH  69  94
ENDBRANCH  43  44
ENDBRANCH  35  38
ENDBRANCH  33  34
ENDBRANCH  32  33
ENDBRANCH  31  32
ENDBRANCH   1  31
TORSDOF 21
ENDMDL
MODEL 3
REMARK VINA RESULT:     -11.3      2.055      2.621
REMARK SMILES CCC(=O)N1CCC[C@](C[C@H]2CC(c3ccc(C)cc3)=NO2)(C(=O)NCCCCCCNC(=O)c2ccc(-c3c4nc(c(-c5c(F)cc(S(=O)(=O)[O-])cc5F)c5ccc([nH]5)c(-c5c(F)cc(S(=O)(=O)[O-])cc5F)c5nc(c(-c6c(F)cc(S(=O)(=O)[O-])cc6F)c6ccc3[nH]6)C=C5)C=C4)cc2)C1
REMARK SMILES IDX 28 1 27 2 26 3 25 4 23 5 24 6 9 8 5 9 6 10 101 11 7 12 8 13
REMARK SMILES IDX 3 14 4 15 2 16 1 17 10 18 11 19 12 20 22 21 13 22 21 23
REMARK SMILES IDX 14 24 15 25 20 26 16 27 19 28 17 29 18 30 29 31 30 32 31 33
REMARK SMILES IDX 32 34 33 35 34 37 35 38 36 39 100 40 37 41 99 42 38 43 39 44
REMARK SMILES IDX 40 45 93 46 41 47 98 48 92 49 94 50 42 51 97 52 91 53 90 54
REMARK SMILES IDX 43 56 77 57 56 58 76 59 57 60 60 61 75 62 95 63 58 64 59 65
REMARK SMILES IDX 74 67 96 68 61 69 44 70 45 71 54 72 46 73 47 74 53 75 55 76
REMARK SMILES IDX 48 77 49 78 50 79 51 80 52 81 78 82 79 83 88 84 80 85 81 86
REMARK SMILES IDX 87 87 89 88 82 89 83 90 84 91 85 92 86 93 62 94 63 95 72 96
REMARK SMILES IDX 64 97 65 98 71 99 73 100 66 101 67 102 68 103 69 104 70 105
REMARK H PARENT 25 7 32 36 94 55 60 66
REMARK Flexibility Score: inf
ROOT
ATOM      1  C   UNL A   1      35.366  22.274  24.133  1.00  0.00     0.002 C 
ENDROOT
BRANCH   1   2
ATOM      2  C   UNL A   1      34.514  23.240  23.291  1.00  0.00     0.021 C 
BRANCH   2   3
ATOM      3  C   UNL A   1      34.454  24.640  23.830  1.00  0.00     0.116 C 
BRANCH   3   4
ATOM      4  N   UNL A   1      33.466  25.468  23.186  1.00  0.00    -0.356 N 
ATOM      5  C   UNL A   1      32.968  26.664  23.571  1.00  0.00     0.228 C 
ATOM      6  O   UNL A   1      32.731  27.430  22.622  1.00  0.00    -0.274 OA
ATOM      7  H   UNL A   1      33.103  25.112  22.343  1.00  0.00     0.163 HD
BRANCH   5   8
ATOM      8  C   UNL A   1      32.506  27.055  25.021  1.00  0.00     0.070 C 
ATOM      9  N   UNL A   1      31.407  25.000  26.107  1.00  0.00    -0.342 N 
ATOM     10  C   UNL A   1      30.073  25.508  25.770  1.00  0.00     0.119 C 
ATOM     11  C   UNL A   1      32.494  25.975  26.129  1.00  0.00     0.136 C 
ATOM     12  C   UNL A   1      30.059  26.502  24.619  1.00  0.00     0.023 C 
ATOM     13  C   UNL A   1      31.076  27.613  24.853  1.00  0.00     0.021 C 
BRANCH   9  14
ATOM     14  C   UNL A   1      31.407  23.795  26.813  1.00  0.00     0.222 C 
ATOM     15  O   UNL A   1      30.337  23.347  27.250  1.00  0.00    -0.275 OA
BRANCH  14  16
ATOM     16  C   UNL A   1      32.667  23.029  27.237  1.00  0.00     0.097 C 
ATOM     17  C   UNL A   1      33.113  21.679  26.716  1.00  0.00     0.014 C 
ENDBRANCH  14  16
ENDBRANCH   9  14
BRANCH   8  18
ATOM     18  C   UNL A   1      33.546  28.187  25.404  1.00  0.00     0.067 C 
BRANCH  18  19
ATOM     19  C   UNL A   1      33.580  28.920  26.749  1.00  0.00     0.211 C 
ATOM     20  C   UNL A   1      34.942  29.329  27.251  1.00  0.00     0.108 C 
ATOM     21  O   UNL A   1      32.736  30.069  26.787  1.00  0.00    -0.392 OA
ATOM     22  C   UNL A   1      34.675  30.763  27.510  1.00  0.00     0.091 C 
ATOM     23  N   UNL A   1      33.465  31.163  27.303  1.00  0.00    -0.090 NA
BRANCH  22  24
ATOM     24  C   UNL A   1      35.720  31.601  28.103  1.00  0.00    -0.001 A 
ATOM     25  C   UNL A   1      36.949  31.056  28.476  1.00  0.00     0.010 A 
ATOM     26  C   UNL A   1      35.412  32.932  28.382  1.00  0.00     0.010 A 
ATOM     27  C   UNL A   1      37.867  31.850  29.168  1.00  0.00     0.004 A 
ATOM     28  C   UNL A   1      36.322  33.713  29.090  1.00  0.00     0.004 A 
ATOM     29  C   UNL A   1      37.550  33.175  29.499  1.00  0.00    -0.051 A 
ATOM     30  C   UNL A   1      38.492  34.014  30.311  1.00  0.00     0.044 C 
ENDBRANCH  22  24
ENDBRANCH  18  19
ENDBRANCH   8  18
ENDBRANCH   5   8
ENDBRANCH   3   4
ENDBRANCH   2   3
ENDBRANCH   1   2
BRANCH   1  31
ATOM     31  C   UNL A   1      36.944  22.276  24.210  1.00  0.00     0.002 C 
BRANCH  31  32
ATOM     32  C   UNL A   1      37.952  21.262  25.003  1.00  0.00     0.021 C 
BRANCH  32  33
ATOM     33  C   UNL A   1      38.909  21.857  26.152  1.00  0.00     0.116 C 
BRANCH  33  34
ATOM     34  N   UNL A   1      39.949  23.051  26.027  1.00  0.00    -0.352 N 
ATOM     35  C   UNL A   1      40.462  24.089  26.938  1.00  0.00     0.251 C 
ATOM     36  H   UNL A   1      40.346  23.112  25.128  1.00  0.00     0.163 HD
ATOM     37  O   UNL A   1      41.628  23.875  27.322  1.00  0.00    -0.269 OA
BRANCH  35  38
ATOM     38  C   UNL A   1      39.859  25.480  27.487  1.00  0.00     0.039 A 
ATOM     39  C   UNL A   1      40.028  26.692  26.746  1.00  0.00     0.014 A 
ATOM     40  C   UNL A   1      39.289  25.717  28.727  1.00  0.00     0.014 A 
ATOM     41  C   UNL A   1      40.287  27.949  27.433  1.00  0.00     0.010 A 
ATOM     42  C   UNL A   1      39.520  26.958  29.408  1.00  0.00     0.010 A 
ATOM     43  C   UNL A   1      40.259  28.001  28.835  1.00  0.00    -0.014 A 
BRANCH  43  44
ATOM     44  C   UNL A   1      41.088  28.938  29.708  1.00  0.00     0.031 A 
ATOM     45  C   UNL A   1      40.474  29.777  30.737  1.00  0.00     0.074 A 
ATOM     46  C   UNL A   1      42.450  29.053  29.792  1.00  0.00     0.049 A 
ATOM     47  N   UNL A   1      40.675  31.053  30.857  1.00  0.00    -0.248 NA
ATOM     48  C   UNL A   1      39.696  29.176  31.808  1.00  0.00     0.031 C 
ATOM     49  C   UNL A   1      43.345  29.787  30.710  1.00  0.00     0.029 A 
ATOM     50  N   UNL A   1      43.409  28.414  29.035  1.00  0.00    -0.354 N 
ATOM     51  C   UNL A   1      40.315  31.358  32.151  1.00  0.00     0.074 A 
ATOM     52  C   UNL A   1      39.546  30.221  32.626  1.00  0.00     0.031 C 
ATOM     53  C   UNL A   1      44.598  29.826  30.198  1.00  0.00     0.029 A 
ATOM     54  C   UNL A   1      44.572  29.168  28.908  1.00  0.00     0.049 A 
ATOM     55  H   UNL A   1      43.285  27.525  28.630  1.00  0.00     0.167 HD
ATOM     56  C   UNL A   1      40.920  32.356  32.865  1.00  0.00     0.037 A 
ATOM     57  C   UNL A   1      44.935  29.628  27.667  1.00  0.00     0.037 A 
ATOM     58  C   UNL A   1      42.163  32.821  32.239  1.00  0.00     0.049 A 
ATOM     59  C   UNL A   1      44.698  31.105  27.569  1.00  0.00     0.074 A 
ATOM     60  C   UNL A   1      43.506  32.672  32.564  1.00  0.00     0.029 A 
ATOM     61  N   UNL A   1      42.158  33.298  30.941  1.00  0.00    -0.354 N 
ATOM     62  N   UNL A   1      44.505  31.862  28.606  1.00  0.00    -0.248 NA
ATOM     63  C   UNL A   1      44.551  31.833  26.311  1.00  0.00     0.031 C 
ATOM     64  C   UNL A   1      44.296  33.101  31.463  1.00  0.00     0.029 A 
ATOM     65  C   UNL A   1      43.439  33.519  30.465  1.00  0.00     0.049 A 
ATOM     66  H   UNL A   1      41.340  33.461  30.418  1.00  0.00     0.167 HD
ATOM     67  C   UNL A   1      44.057  33.082  28.199  1.00  0.00     0.074 A 
ATOM     68  C   UNL A   1      44.153  33.039  26.751  1.00  0.00     0.031 C 
ATOM     69  C   UNL A   1      43.605  34.000  29.101  1.00  0.00     0.037 A 
BRANCH  56  70
ATOM     70  C   UNL A   1      40.525  32.673  34.295  1.00  0.00     0.058 A 
ATOM     71  C   UNL A   1      39.396  33.455  34.611  1.00  0.00     0.135 A 
ATOM     72  C   UNL A   1      41.220  32.162  35.416  1.00  0.00     0.135 A 
ATOM     73  F   UNL A   1      38.562  33.910  33.669  1.00  0.00    -0.206 F 
ATOM     74  C   UNL A   1      39.050  33.795  35.919  1.00  0.00     0.059 A 
ATOM     75  C   UNL A   1      40.922  32.528  36.733  1.00  0.00     0.059 A 
ATOM     76  F   UNL A   1      42.201  31.257  35.268  1.00  0.00    -0.206 F 
ATOM     77  C   UNL A   1      39.831  33.348  36.975  1.00  0.00     0.060 A 
BRANCH  77  78
ATOM     78  S   UNL A   1      39.363  33.816  38.650  1.00  0.00     0.124 S 
ATOM     79  O   UNL A   1      39.877  32.701  39.440  1.00  0.00    -0.237 OA
ATOM     80  O   UNL A   1      40.063  35.085  38.816  1.00  0.00    -0.237 OA
ATOM     81  O   UNL A   1      37.906  33.909  38.585  1.00  0.00    -0.744 OA
ENDBRANCH  77  78
ENDBRANCH  56  70
BRANCH  57  82
ATOM     82  C   UNL A   1      44.703  28.669  26.498  1.00  0.00     0.058 A 
ATOM     83  C   UNL A   1      45.746  27.775  26.279  1.00  0.00     0.135 A 
ATOM     84  C   UNL A   1      43.475  28.034  26.519  1.00  0.00     0.135 A 
ATOM     85  F   UNL A   1      46.851  28.151  25.625  1.00  0.00    -0.206 F 
ATOM     86  C   UNL A   1      45.676  26.482  26.779  1.00  0.00     0.059 A 
ATOM     87  C   UNL A   1      43.422  26.746  27.062  1.00  0.00     0.059 A 
ATOM     88  F   UNL A   1      42.338  28.734  26.388  1.00  0.00    -0.206 F 
ATOM     89  C   UNL A   1      44.552  26.081  27.466  1.00  0.00     0.060 A 
BRANCH  89  90
ATOM     90  S   UNL A   1      44.711  24.906  29.070  1.00  0.00     0.124 S 
ATOM     91  O   UNL A   1      43.546  25.309  29.807  1.00  0.00    -0.237 OA
ATOM     92  O   UNL A   1      44.588  23.538  28.571  1.00  0.00    -0.237 OA
ATOM     93  O   UNL A   1      45.944  25.208  29.748  1.00  0.00    -0.744 OA
ENDBRANCH  89  90
ENDBRANCH  57  82
BRANCH  69  94
ATOM     94  C   UNL A   1      43.269  35.422  28.759  1.00  0.00     0.058 A 
ATOM     95  C   UNL A   1      41.961  35.830  28.450  1.00  0.00     0.135 A 
ATOM     96  C   UNL A   1      44.273  36.401  28.584  1.00  0.00     0.135 A 
ATOM     97  F   UNL A   1      40.942  34.955  28.438  1.00  0.00    -0.206 F 
ATOM     98  C   UNL A   1      41.656  37.143  28.100  1.00  0.00     0.059 A 
ATOM     99  C   UNL A   1      44.000  37.701  28.185  1.00  0.00     0.059 A 
ATOM    100  F   UNL A   1      45.570  36.142  28.797  1.00  0.00    -0.206 F 
ATOM    101  C   UNL A   1      42.683  38.074  27.981  1.00  0.00     0.060 A 
BRANCH 101 102
ATOM    102  S   UNL A   1      42.289  39.768  27.534  1.00  0.00     0.124 S 
ATOM    103  O   UNL A   1      43.597  40.414  27.568  1.00  0.00    -0.237 OA
ATOM    104  O   UNL A   1      41.708  39.587  26.207  1.00  0.00    -0.237 OA
ATOM    105  O   UNL A   1      41.359  40.192  28.576  1.00  0.00    -0.744 OA
ENDBRANCH 101 102
ENDBRANCH  69  94
ENDBRANCH  43  44
ENDBRANCH  35  38
ENDBRANCH  33  34
ENDBRANCH  32  33
ENDBRANCH  31  32
ENDBRANCH   1  31
TORSDOF 21
ENDMDL
