MODEL 1
REMARK VINA RESULT:      -8.6      0.000      0.000
REMARK SMILES CCC(=O)N1c2ccc(S(=O)(=O)N3CCC(C)CC3)cc2C[C@H]1C(=O)NCCCCCCNC(=O)c1ccc(-c2c3nc(c(-c4c(F)cc(S(=O)(=O)[O-])cc4F)c4ccc([nH]4)c(-c4c(F)cc(S(=O)(=O)[O-])cc4F)c4nc(c(-c5c(F)cc(S(=O)(=O)[O-])cc5F)c5ccc2[nH]5)C=C4)C=C3)cc1
REMARK SMILES IDX 30 1 29 2 28 3 27 4 26 5 24 6 25 7 23 9 5 10 6 11 7 12 21 13
REMARK SMILES IDX 22 14 8 15 20 16 9 17 3 18 4 19 2 20 1 21 10 22 11 23 12 24
REMARK SMILES IDX 13 25 14 26 19 27 15 28 18 29 16 30 17 31 31 32 32 33 33 34
REMARK SMILES IDX 34 35 35 37 36 38 37 39 101 40 38 41 100 42 39 43 40 44
REMARK SMILES IDX 41 45 94 46 42 47 99 48 93 49 95 50 43 51 98 52 92 53 91 54
REMARK SMILES IDX 44 56 78 57 57 58 77 59 58 60 61 61 76 62 96 63 59 64 60 65
REMARK SMILES IDX 75 67 97 68 62 69 45 70 46 71 55 72 47 73 48 74 54 75 56 76
REMARK SMILES IDX 49 77 50 78 51 79 52 80 53 81 79 82 80 83 89 84 81 85 82 86
REMARK SMILES IDX 88 87 90 88 83 89 84 90 85 91 86 92 87 93 63 94 64 95 73 96
REMARK SMILES IDX 65 97 66 98 72 99 74 100 67 101 68 102 69 103 70 104 71 105
REMARK H PARENT 26 8 33 36 95 55 61 66
REMARK Flexibility Score: inf
ROOT
ATOM      1  C   UNL A   1      36.317  33.962  28.554  1.00  0.00     0.002 C 
ENDROOT
BRANCH   1   2
ATOM      2  C   UNL A   1      37.563  33.246  29.085  1.00  0.00     0.002 C 
BRANCH   2   3
ATOM      3  C   UNL A   1      37.463  32.709  30.520  1.00  0.00     0.021 C 
BRANCH   3   4
ATOM      4  C   UNL A   1      37.155  33.764  31.579  1.00  0.00     0.116 C 
BRANCH   4   5
ATOM      5  N   UNL A   1      36.855  33.190  32.873  1.00  0.00    -0.354 N 
ATOM      6  C   UNL A   1      37.624  32.488  33.747  1.00  0.00     0.243 C 
ATOM      7  O   UNL A   1      37.151  32.314  34.879  1.00  0.00    -0.273 OA
ATOM      8  H   UNL A   1      35.928  33.332  33.173  1.00  0.00     0.163 HD
BRANCH   6   9
ATOM      9  C   UNL A   1      39.088  32.102  33.477  1.00  0.00     0.184 C 
ATOM     10  N   UNL A   1      40.082  32.405  34.525  1.00  0.00    -0.299 N 
ATOM     11  C   UNL A   1      40.688  31.214  34.925  1.00  0.00     0.048 A 
ATOM     12  C   UNL A   1      41.482  31.005  36.022  1.00  0.00     0.028 A 
ATOM     13  C   UNL A   1      40.246  30.137  34.154  1.00  0.00    -0.020 A 
ATOM     14  C   UNL A   1      39.216  30.590  33.161  1.00  0.00     0.073 C 
ATOM     15  C   UNL A   1      41.932  29.717  36.274  1.00  0.00     0.024 A 
ATOM     16  C   UNL A   1      40.695  28.838  34.398  1.00  0.00     0.027 A 
ATOM     17  C   UNL A   1      41.568  28.637  35.474  1.00  0.00     0.083 A 
BRANCH  10  18
ATOM     18  C   UNL A   1      40.421  33.712  34.798  1.00  0.00     0.227 C 
ATOM     19  O   UNL A   1      40.881  34.446  33.919  1.00  0.00    -0.275 OA
BRANCH  18  20
ATOM     20  C   UNL A   1      40.459  34.181  36.253  1.00  0.00     0.097 C 
ATOM     21  C   UNL A   1      39.215  34.001  37.098  1.00  0.00     0.014 C 
ENDBRANCH  18  20
ENDBRANCH  10  18
BRANCH  17  22
ATOM     22  S   UNL A   1      42.154  26.992  35.857  1.00  0.00     0.243 S 
ATOM     23  O   UNL A   1      42.282  26.951  37.299  1.00  0.00    -0.207 OA
ATOM     24  O   UNL A   1      41.276  26.092  35.144  1.00  0.00    -0.207 OA
BRANCH  22  25
ATOM     25  N   UNL A   1      43.696  26.869  35.181  1.00  0.00    -0.198 NA
ATOM     26  C   UNL A   1      44.890  26.519  35.964  1.00  0.00     0.103 C 
ATOM     27  C   UNL A   1      43.954  27.147  33.768  1.00  0.00     0.103 C 
ATOM     28  C   UNL A   1      45.964  27.608  35.871  1.00  0.00     0.020 C 
ATOM     29  C   UNL A   1      44.826  28.385  33.651  1.00  0.00     0.020 C 
ATOM     30  C   UNL A   1      46.107  28.316  34.504  1.00  0.00    -0.012 C 
ATOM     31  C   UNL A   1      46.655  29.738  34.699  1.00  0.00     0.008 C 
ENDBRANCH  22  25
ENDBRANCH  17  22
ENDBRANCH   6   9
ENDBRANCH   4   5
ENDBRANCH   3   4
ENDBRANCH   2   3
ENDBRANCH   1   2
BRANCH   1  32
ATOM     32  C   UNL A   1      35.217  33.056  27.990  1.00  0.00     0.021 C 
BRANCH  32  33
ATOM     33  C   UNL A   1      34.527  32.153  29.009  1.00  0.00     0.116 C 
BRANCH  33  34
ATOM     34  N   UNL A   1      34.006  30.936  28.410  1.00  0.00    -0.352 N 
ATOM     35  C   UNL A   1      34.672  29.825  27.958  1.00  0.00     0.251 C 
ATOM     36  H   UNL A   1      33.027  30.905  28.313  1.00  0.00     0.163 HD
ATOM     37  O   UNL A   1      34.059  28.965  27.328  1.00  0.00    -0.269 OA
BRANCH  35  38
ATOM     38  C   UNL A   1      36.123  29.662  28.203  1.00  0.00     0.039 A 
ATOM     39  C   UNL A   1      36.546  29.242  29.468  1.00  0.00     0.014 A 
ATOM     40  C   UNL A   1      37.067  29.949  27.212  1.00  0.00     0.014 A 
ATOM     41  C   UNL A   1      37.907  29.057  29.722  1.00  0.00     0.010 A 
ATOM     42  C   UNL A   1      38.421  29.711  27.449  1.00  0.00     0.010 A 
ATOM     43  C   UNL A   1      38.854  29.261  28.706  1.00  0.00    -0.014 A 
BRANCH  43  44
ATOM     44  C   UNL A   1      40.296  28.993  28.943  1.00  0.00     0.031 A 
ATOM     45  C   UNL A   1      40.893  27.658  28.591  1.00  0.00     0.074 A 
ATOM     46  C   UNL A   1      41.056  29.939  29.528  1.00  0.00     0.049 A 
ATOM     47  N   UNL A   1      42.119  27.233  28.760  1.00  0.00    -0.248 NA
ATOM     48  C   UNL A   1      39.990  26.663  27.993  1.00  0.00     0.031 C 
ATOM     49  C   UNL A   1      40.582  31.253  29.965  1.00  0.00     0.029 A 
ATOM     50  N   UNL A   1      42.388  29.939  29.862  1.00  0.00    -0.354 N 
ATOM     51  C   UNL A   1      42.134  25.921  28.305  1.00  0.00     0.074 A 
ATOM     52  C   UNL A   1      40.784  25.606  27.889  1.00  0.00     0.031 C 
ATOM     53  C   UNL A   1      41.609  31.938  30.493  1.00  0.00     0.029 A 
ATOM     54  C   UNL A   1      42.808  31.105  30.455  1.00  0.00     0.049 A 
ATOM     55  H   UNL A   1      42.985  29.175  29.693  1.00  0.00     0.167 HD
ATOM     56  C   UNL A   1      43.180  25.064  28.222  1.00  0.00     0.037 A 
ATOM     57  C   UNL A   1      44.020  31.465  30.916  1.00  0.00     0.037 A 
ATOM     58  C   UNL A   1      44.529  25.390  28.607  1.00  0.00     0.049 A 
ATOM     59  C   UNL A   1      45.173  30.509  30.785  1.00  0.00     0.074 A 
ATOM     60  C   UNL A   1      45.668  24.612  28.498  1.00  0.00     0.029 A 
ATOM     61  N   UNL A   1      44.920  26.594  29.174  1.00  0.00    -0.354 N 
ATOM     62  N   UNL A   1      45.181  29.294  30.292  1.00  0.00    -0.248 NA
ATOM     63  C   UNL A   1      46.481  30.974  31.265  1.00  0.00     0.031 C 
ATOM     64  C   UNL A   1      46.745  25.334  29.027  1.00  0.00     0.029 A 
ATOM     65  C   UNL A   1      46.281  26.574  29.434  1.00  0.00     0.049 A 
ATOM     66  H   UNL A   1      44.320  27.351  29.364  1.00  0.00     0.167 HD
ATOM     67  C   UNL A   1      46.497  28.855  30.385  1.00  0.00     0.074 A 
ATOM     68  C   UNL A   1      47.257  29.940  30.971  1.00  0.00     0.031 C 
ATOM     69  C   UNL A   1      47.025  27.661  30.019  1.00  0.00     0.037 A 
BRANCH  56  70
ATOM     70  C   UNL A   1      42.906  23.686  27.687  1.00  0.00     0.058 A 
ATOM     71  C   UNL A   1      42.607  22.612  28.541  1.00  0.00     0.135 A 
ATOM     72  C   UNL A   1      42.916  23.441  26.304  1.00  0.00     0.135 A 
ATOM     73  F   UNL A   1      42.599  22.790  29.871  1.00  0.00    -0.206 F 
ATOM     74  C   UNL A   1      42.358  21.337  28.045  1.00  0.00     0.059 A 
ATOM     75  C   UNL A   1      42.647  22.178  25.785  1.00  0.00     0.059 A 
ATOM     76  F   UNL A   1      43.196  24.433  25.444  1.00  0.00    -0.206 F 
ATOM     77  C   UNL A   1      42.385  21.129  26.665  1.00  0.00     0.060 A 
BRANCH  77  78
ATOM     78  S   UNL A   1      42.065  19.468  26.034  1.00  0.00     0.124 S 
ATOM     79  O   UNL A   1      42.524  18.642  27.147  1.00  0.00    -0.237 OA
ATOM     80  O   UNL A   1      40.623  19.486  25.811  1.00  0.00    -0.237 OA
ATOM     81  O   UNL A   1      42.882  19.402  24.825  1.00  0.00    -0.744 OA
ENDBRANCH  77  78
ENDBRANCH  56  70
BRANCH  57  82
ATOM     82  C   UNL A   1      44.212  32.811  31.515  1.00  0.00     0.058 A 
ATOM     83  C   UNL A   1      44.525  33.916  30.712  1.00  0.00     0.135 A 
ATOM     84  C   UNL A   1      44.056  33.023  32.893  1.00  0.00     0.135 A 
ATOM     85  F   UNL A   1      44.688  33.760  29.389  1.00  0.00    -0.206 F 
ATOM     86  C   UNL A   1      44.689  35.187  31.254  1.00  0.00     0.059 A 
ATOM     87  C   UNL A   1      44.195  34.287  33.456  1.00  0.00     0.059 A 
ATOM     88  F   UNL A   1      43.739  31.997  33.699  1.00  0.00    -0.206 F 
ATOM     89  C   UNL A   1      44.519  35.362  32.629  1.00  0.00     0.060 A 
BRANCH  89  90
ATOM     90  S   UNL A   1      44.672  37.025  33.318  1.00  0.00     0.124 S 
ATOM     91  O   UNL A   1      45.597  36.800  34.423  1.00  0.00    -0.237 OA
ATOM     92  O   UNL A   1      45.200  37.781  32.187  1.00  0.00    -0.237 OA
ATOM     93  O   UNL A   1      43.302  37.355  33.697  1.00  0.00    -0.744 OA
ENDBRANCH  89  90
ENDBRANCH  57  82
BRANCH  69  94
ATOM     94  C   UNL A   1      48.500  27.472  30.227  1.00  0.00     0.058 A 
ATOM     95  C   UNL A   1      49.430  27.828  29.238  1.00  0.00     0.135 A 
ATOM     96  C   UNL A   1      48.990  26.965  31.441  1.00  0.00     0.135 A 
ATOM     97  F   UNL A   1      49.010  28.311  28.058  1.00  0.00    -0.206 F 
ATOM     98  C   UNL A   1      50.797  27.668  29.438  1.00  0.00     0.059 A 
ATOM     99  C   UNL A   1      50.354  26.816  31.670  1.00  0.00     0.059 A 
ATOM    100  F   UNL A   1      48.140  26.617  32.421  1.00  0.00    -0.206 F 
ATOM    101  C   UNL A   1      51.250  27.158  30.657  1.00  0.00     0.060 A 
BRANCH 101 102
ATOM    102  S   UNL A   1      53.027  26.982  30.919  1.00  0.00     0.124 S 
ATOM    103  O   UNL A   1      53.394  28.326  31.351  1.00  0.00    -0.237 OA
ATOM    104  O   UNL A   1      53.094  25.946  31.946  1.00  0.00    -0.237 OA
ATOM    105  O   UNL A   1      53.525  26.585  29.605  1.00  0.00    -0.744 OA
ENDBRANCH 101 102
ENDBRANCH  69  94
ENDBRANCH  43  44
ENDBRANCH  35  38
ENDBRANCH  33  34
ENDBRANCH  32  33
ENDBRANCH   1  32
TORSDOF 20
ENDMDL
MODEL 2
REMARK VINA RESULT:      -8.6      4.219     11.292
REMARK SMILES CCC(=O)N1c2ccc(S(=O)(=O)N3CCC(C)CC3)cc2C[C@H]1C(=O)NCCCCCCNC(=O)c1ccc(-c2c3nc(c(-c4c(F)cc(S(=O)(=O)[O-])cc4F)c4ccc([nH]4)c(-c4c(F)cc(S(=O)(=O)[O-])cc4F)c4nc(c(-c5c(F)cc(S(=O)(=O)[O-])cc5F)c5ccc2[nH]5)C=C4)C=C3)cc1
REMARK SMILES IDX 30 1 29 2 28 3 27 4 26 5 24 6 25 7 23 9 5 10 6 11 7 12 21 13
REMARK SMILES IDX 22 14 8 15 20 16 9 17 3 18 4 19 2 20 1 21 10 22 11 23 12 24
REMARK SMILES IDX 13 25 14 26 19 27 15 28 18 29 16 30 17 31 31 32 32 33 33 34
REMARK SMILES IDX 34 35 35 37 36 38 37 39 101 40 38 41 100 42 39 43 40 44
REMARK SMILES IDX 41 45 94 46 42 47 99 48 93 49 95 50 43 51 98 52 92 53 91 54
REMARK SMILES IDX 44 56 78 57 57 58 77 59 58 60 61 61 76 62 96 63 59 64 60 65
REMARK SMILES IDX 75 67 97 68 62 69 45 70 46 71 55 72 47 73 48 74 54 75 56 76
REMARK SMILES IDX 49 77 50 78 51 79 52 80 53 81 79 82 80 83 89 84 81 85 82 86
REMARK SMILES IDX 88 87 90 88 83 89 84 90 85 91 86 92 87 93 63 94 64 95 73 96
REMARK SMILES IDX 65 97 66 98 72 99 74 100 67 101 68 102 69 103 70 104 71 105
REMARK H PARENT 26 8 33 36 95 55 61 66
REMARK Flexibility Score: inf
ROOT
ATOM      1  C   UNL A   1      34.560  30.092  27.943  1.00  0.00     0.002 C 
ENDROOT
BRANCH   1   2
ATOM      2  C   UNL A   1      35.293  29.213  26.924  1.00  0.00     0.002 C 
BRANCH   2   3
ATOM      3  C   UNL A   1      34.412  28.249  26.117  1.00  0.00     0.021 C 
BRANCH   3   4
ATOM      4  C   UNL A   1      33.846  28.831  24.824  1.00  0.00     0.116 C 
BRANCH   4   5
ATOM      5  N   UNL A   1      32.906  29.908  25.056  1.00  0.00    -0.354 N 
ATOM      6  C   UNL A   1      31.559  29.904  25.235  1.00  0.00     0.243 C 
ATOM      7  O   UNL A   1      31.054  30.963  25.634  1.00  0.00    -0.273 OA
ATOM      8  H   UNL A   1      33.317  30.802  25.089  1.00  0.00     0.163 HD
BRANCH   6   9
ATOM      9  C   UNL A   1      30.693  28.633  25.179  1.00  0.00     0.184 C 
ATOM     10  N   UNL A   1      30.321  28.115  23.848  1.00  0.00    -0.299 N 
ATOM     11  C   UNL A   1      30.808  26.815  23.722  1.00  0.00     0.048 A 
ATOM     12  C   UNL A   1      30.895  26.060  22.581  1.00  0.00     0.028 A 
ATOM     13  C   UNL A   1      31.399  26.377  24.909  1.00  0.00    -0.020 A 
ATOM     14  C   UNL A   1      31.369  27.465  25.941  1.00  0.00     0.073 C 
ATOM     15  C   UNL A   1      31.478  24.804  22.665  1.00  0.00     0.024 A 
ATOM     16  C   UNL A   1      31.985  25.114  25.005  1.00  0.00     0.027 A 
ATOM     17  C   UNL A   1      32.006  24.312  23.857  1.00  0.00     0.083 A 
BRANCH  10  18
ATOM     18  C   UNL A   1      29.437  28.816  23.056  1.00  0.00     0.227 C 
ATOM     19  O   UNL A   1      28.234  28.543  23.053  1.00  0.00    -0.275 OA
BRANCH  18  20
ATOM     20  C   UNL A   1      29.986  29.771  21.997  1.00  0.00     0.097 C 
ATOM     21  C   UNL A   1      29.008  30.647  21.242  1.00  0.00     0.014 C 
ENDBRANCH  18  20
ENDBRANCH  10  18
BRANCH  17  22
ATOM     22  S   UNL A   1      32.769  22.696  23.906  1.00  0.00     0.243 S 
ATOM     23  O   UNL A   1      31.976  21.920  24.837  1.00  0.00    -0.207 OA
ATOM     24  O   UNL A   1      32.927  22.299  22.525  1.00  0.00    -0.207 OA
BRANCH  22  25
ATOM     25  N   UNL A   1      34.305  22.918  24.570  1.00  0.00    -0.198 NA
ATOM     26  C   UNL A   1      35.441  23.452  23.804  1.00  0.00     0.103 C 
ATOM     27  C   UNL A   1      34.621  22.551  25.951  1.00  0.00     0.103 C 
ATOM     28  C   UNL A   1      36.620  22.474  23.789  1.00  0.00     0.020 C 
ATOM     29  C   UNL A   1      35.615  21.403  25.950  1.00  0.00     0.020 C 
ATOM     30  C   UNL A   1      36.864  21.673  25.089  1.00  0.00    -0.012 C 
ATOM     31  C   UNL A   1      37.548  20.336  24.767  1.00  0.00     0.008 C 
ENDBRANCH  22  25
ENDBRANCH  17  22
ENDBRANCH   6   9
ENDBRANCH   4   5
ENDBRANCH   3   4
ENDBRANCH   2   3
ENDBRANCH   1   2
BRANCH   1  32
ATOM     32  C   UNL A   1      34.919  31.581  27.919  1.00  0.00     0.021 C 
BRANCH  32  33
ATOM     33  C   UNL A   1      35.996  32.010  28.912  1.00  0.00     0.116 C 
BRANCH  33  34
ATOM     34  N   UNL A   1      35.766  31.480  30.245  1.00  0.00    -0.352 N 
ATOM     35  C   UNL A   1      36.495  30.567  30.965  1.00  0.00     0.251 C 
ATOM     36  H   UNL A   1      34.965  31.827  30.701  1.00  0.00     0.163 HD
ATOM     37  O   UNL A   1      36.041  30.121  32.016  1.00  0.00    -0.269 OA
BRANCH  35  38
ATOM     38  C   UNL A   1      37.812  30.098  30.476  1.00  0.00     0.039 A 
ATOM     39  C   UNL A   1      38.059  30.108  29.100  1.00  0.00     0.014 A 
ATOM     40  C   UNL A   1      38.789  29.623  31.356  1.00  0.00     0.014 A 
ATOM     41  C   UNL A   1      39.301  29.695  28.612  1.00  0.00     0.010 A 
ATOM     42  C   UNL A   1      40.048  29.263  30.873  1.00  0.00     0.010 A 
ATOM     43  C   UNL A   1      40.315  29.296  29.496  1.00  0.00    -0.014 A 
BRANCH  43  44
ATOM     44  C   UNL A   1      41.664  28.929  28.992  1.00  0.00     0.031 A 
ATOM     45  C   UNL A   1      42.752  29.963  28.895  1.00  0.00     0.074 A 
ATOM     46  C   UNL A   1      41.891  27.670  28.569  1.00  0.00     0.049 A 
ATOM     47  N   UNL A   1      43.975  29.834  28.446  1.00  0.00    -0.248 NA
ATOM     48  C   UNL A   1      42.416  31.325  29.338  1.00  0.00     0.031 C 
ATOM     49  C   UNL A   1      40.901  26.590  28.561  1.00  0.00     0.029 A 
ATOM     50  N   UNL A   1      43.023  27.086  28.058  1.00  0.00    -0.354 N 
ATOM     51  C   UNL A   1      44.549  31.095  28.539  1.00  0.00     0.074 A 
ATOM     52  C   UNL A   1      43.529  31.985  29.049  1.00  0.00     0.031 C 
ATOM     53  C   UNL A   1      41.474  25.473  28.086  1.00  0.00     0.029 A 
ATOM     54  C   UNL A   1      42.861  25.760  27.734  1.00  0.00     0.049 A 
ATOM     55  H   UNL A   1      43.870  27.572  27.934  1.00  0.00     0.167 HD
ATOM     56  C   UNL A   1      45.817  31.472  28.245  1.00  0.00     0.037 A 
ATOM     57  C   UNL A   1      43.732  24.875  27.212  1.00  0.00     0.037 A 
ATOM     58  C   UNL A   1      46.840  30.578  27.767  1.00  0.00     0.049 A 
ATOM     59  C   UNL A   1      45.141  25.309  26.923  1.00  0.00     0.074 A 
ATOM     60  C   UNL A   1      48.171  30.852  27.505  1.00  0.00     0.029 A 
ATOM     61  N   UNL A   1      46.646  29.235  27.482  1.00  0.00    -0.354 N 
ATOM     62  N   UNL A   1      45.685  26.493  27.077  1.00  0.00    -0.248 NA
ATOM     63  C   UNL A   1      46.057  24.288  26.396  1.00  0.00     0.031 C 
ATOM     64  C   UNL A   1      48.776  29.682  27.032  1.00  0.00     0.029 A 
ATOM     65  C   UNL A   1      47.829  28.671  27.032  1.00  0.00     0.049 A 
ATOM     66  H   UNL A   1      45.794  28.752  27.584  1.00  0.00     0.167 HD
ATOM     67  C   UNL A   1      47.011  26.354  26.684  1.00  0.00     0.074 A 
ATOM     68  C   UNL A   1      47.190  24.970  26.297  1.00  0.00     0.031 C 
ATOM     69  C   UNL A   1      47.991  27.291  26.648  1.00  0.00     0.037 A 
BRANCH  56  70
ATOM     70  C   UNL A   1      46.172  32.921  28.438  1.00  0.00     0.058 A 
ATOM     71  C   UNL A   1      46.667  33.399  29.661  1.00  0.00     0.135 A 
ATOM     72  C   UNL A   1      46.041  33.835  27.381  1.00  0.00     0.135 A 
ATOM     73  F   UNL A   1      46.798  32.567  30.707  1.00  0.00    -0.206 F 
ATOM     74  C   UNL A   1      46.992  34.739  29.840  1.00  0.00     0.059 A 
ATOM     75  C   UNL A   1      46.381  35.177  27.531  1.00  0.00     0.059 A 
ATOM     76  F   UNL A   1      45.571  33.431  26.190  1.00  0.00    -0.206 F 
ATOM     77  C   UNL A   1      46.841  35.622  28.770  1.00  0.00     0.060 A 
BRANCH  77  78
ATOM     78  S   UNL A   1      47.260  37.361  29.016  1.00  0.00     0.124 S 
ATOM     79  O   UNL A   1      48.532  37.254  29.725  1.00  0.00    -0.237 OA
ATOM     80  O   UNL A   1      47.337  37.863  27.648  1.00  0.00    -0.237 OA
ATOM     81  O   UNL A   1      46.142  37.870  29.805  1.00  0.00    -0.744 OA
ENDBRANCH  77  78
ENDBRANCH  56  70
BRANCH  57  82
ATOM     82  C   UNL A   1      43.299  23.477  26.962  1.00  0.00     0.058 A 
ATOM     83  C   UNL A   1      43.070  23.019  25.657  1.00  0.00     0.135 A 
ATOM     84  C   UNL A   1      43.134  22.565  28.016  1.00  0.00     0.135 A 
ATOM     85  F   UNL A   1      43.211  23.856  24.618  1.00  0.00    -0.206 F 
ATOM     86  C   UNL A   1      42.683  21.707  25.403  1.00  0.00     0.059 A 
ATOM     87  C   UNL A   1      42.767  21.244  27.787  1.00  0.00     0.059 A 
ATOM     88  F   UNL A   1      43.358  22.954  29.282  1.00  0.00    -0.206 F 
ATOM     89  C   UNL A   1      42.536  20.826  26.476  1.00  0.00     0.060 A 
BRANCH  89  90
ATOM     90  S   UNL A   1      42.093  19.108  26.135  1.00  0.00     0.124 S 
ATOM     91  O   UNL A   1      40.677  19.230  25.809  1.00  0.00    -0.237 OA
ATOM     92  O   UNL A   1      42.978  18.775  25.023  1.00  0.00    -0.237 OA
ATOM     93  O   UNL A   1      42.398  18.430  27.391  1.00  0.00    -0.744 OA
ENDBRANCH  89  90
ENDBRANCH  57  82
BRANCH  69  94
ATOM     94  C   UNL A   1      49.349  26.845  26.187  1.00  0.00     0.058 A 
ATOM     95  C   UNL A   1      49.765  27.018  24.858  1.00  0.00     0.135 A 
ATOM     96  C   UNL A   1      50.257  26.273  27.092  1.00  0.00     0.135 A 
ATOM     97  F   UNL A   1      48.930  27.555  23.953  1.00  0.00    -0.206 F 
ATOM     98  C   UNL A   1      51.029  26.621  24.436  1.00  0.00     0.059 A 
ATOM     99  C   UNL A   1      51.533  25.887  26.696  1.00  0.00     0.059 A 
ATOM    100  F   UNL A   1      49.909  26.093  28.376  1.00  0.00    -0.206 F 
ATOM    101  C   UNL A   1      51.906  26.053  25.363  1.00  0.00     0.060 A 
BRANCH 101 102
ATOM    102  S   UNL A   1      53.556  25.567  24.813  1.00  0.00     0.124 S 
ATOM    103  O   UNL A   1      53.533  24.129  25.056  1.00  0.00    -0.237 OA
ATOM    104  O   UNL A   1      53.554  25.973  23.411  1.00  0.00    -0.237 OA
ATOM    105  O   UNL A   1      54.442  26.338  25.681  1.00  0.00    -0.744 OA
ENDBRANCH 101 102
ENDBRANCH  69  94
ENDBRANCH  43  44
ENDBRANCH  35  38
ENDBRANCH  33  34
ENDBRANCH  32  33
ENDBRANCH   1  32
TORSDOF 20
ENDMDL
MODEL 3
REMARK VINA RESULT:      -8.6      4.745      9.716
REMARK SMILES CCC(=O)N1c2ccc(S(=O)(=O)N3CCC(C)CC3)cc2C[C@H]1C(=O)NCCCCCCNC(=O)c1ccc(-c2c3nc(c(-c4c(F)cc(S(=O)(=O)[O-])cc4F)c4ccc([nH]4)c(-c4c(F)cc(S(=O)(=O)[O-])cc4F)c4nc(c(-c5c(F)cc(S(=O)(=O)[O-])cc5F)c5ccc2[nH]5)C=C4)C=C3)cc1
REMARK SMILES IDX 30 1 29 2 28 3 27 4 26 5 24 6 25 7 23 9 5 10 6 11 7 12 21 13
REMARK SMILES IDX 22 14 8 15 20 16 9 17 3 18 4 19 2 20 1 21 10 22 11 23 12 24
REMARK SMILES IDX 13 25 14 26 19 27 15 28 18 29 16 30 17 31 31 32 32 33 33 34
REMARK SMILES IDX 34 35 35 37 36 38 37 39 101 40 38 41 100 42 39 43 40 44
REMARK SMILES IDX 41 45 94 46 42 47 99 48 93 49 95 50 43 51 98 52 92 53 91 54
REMARK SMILES IDX 44 56 78 57 57 58 77 59 58 60 61 61 76 62 96 63 59 64 60 65
REMARK SMILES IDX 75 67 97 68 62 69 45 70 46 71 55 72 47 73 48 74 54 75 56 76
REMARK SMILES IDX 49 77 50 78 51 79 52 80 53 81 79 82 80 83 89 84 81 85 82 86
REMARK SMILES IDX 88 87 90 88 83 89 84 90 85 91 86 92 87 93 63 94 64 95 73 96
REMARK SMILES IDX 65 97 66 98 72 99 74 100 67 101 68 102 69 103 70 104 71 105
REMARK H PARENT 26 8 33 36 95 55 61 66
REMARK Flexibility Score: inf
ROOT
ATOM      1  C   UNL A   1      34.571  31.248  28.396  1.00  0.00     0.002 C 
ENDROOT
BRANCH   1   2
ATOM      2  C   UNL A   1      35.098  30.338  27.282  1.00  0.00     0.002 C 
BRANCH   2   3
ATOM      3  C   UNL A   1      34.372  28.996  27.116  1.00  0.00     0.021 C 
BRANCH   3   4
ATOM      4  C   UNL A   1      33.609  28.838  25.804  1.00  0.00     0.116 C 
BRANCH   4   5
ATOM      5  N   UNL A   1      32.680  29.923  25.560  1.00  0.00    -0.354 N 
ATOM      6  C   UNL A   1      31.397  29.926  25.112  1.00  0.00     0.243 C 
ATOM      7  O   UNL A   1      30.782  30.997  25.214  1.00  0.00    -0.273 OA
ATOM      8  H   UNL A   1      33.045  30.817  25.753  1.00  0.00     0.163 HD
BRANCH   6   9
ATOM      9  C   UNL A   1      30.633  28.655  24.703  1.00  0.00     0.184 C 
ATOM     10  N   UNL A   1      30.508  28.364  23.262  1.00  0.00    -0.299 N 
ATOM     11  C   UNL A   1      31.089  27.123  23.004  1.00  0.00     0.048 A 
ATOM     12  C   UNL A   1      31.402  26.582  21.784  1.00  0.00     0.028 A 
ATOM     13  C   UNL A   1      31.511  26.506  24.183  1.00  0.00    -0.020 A 
ATOM     14  C   UNL A   1      31.251  27.397  25.362  1.00  0.00     0.073 C 
ATOM     15  C   UNL A   1      32.041  25.351  21.754  1.00  0.00     0.024 A 
ATOM     16  C   UNL A   1      32.153  25.267  24.164  1.00  0.00     0.027 A 
ATOM     17  C   UNL A   1      32.404  24.678  22.918  1.00  0.00     0.083 A 
BRANCH  10  18
ATOM     18  C   UNL A   1      29.718  29.162  22.461  1.00  0.00     0.227 C 
ATOM     19  O   UNL A   1      30.219  29.897  21.607  1.00  0.00    -0.275 OA
BRANCH  18  20
ATOM     20  C   UNL A   1      28.236  29.318  22.802  1.00  0.00     0.097 C 
ATOM     21  C   UNL A   1      27.764  30.642  23.366  1.00  0.00     0.014 C 
ENDBRANCH  18  20
ENDBRANCH  10  18
BRANCH  17  22
ATOM     22  S   UNL A   1      33.250  23.105  22.826  1.00  0.00     0.243 S 
ATOM     23  O   UNL A   1      32.227  22.101  23.036  1.00  0.00    -0.207 OA
ATOM     24  O   UNL A   1      34.028  23.155  21.609  1.00  0.00    -0.207 OA
BRANCH  22  25
ATOM     25  N   UNL A   1      34.317  23.063  24.133  1.00  0.00    -0.198 NA
ATOM     26  C   UNL A   1      35.569  23.833  24.172  1.00  0.00     0.103 C 
ATOM     27  C   UNL A   1      34.083  22.218  25.305  1.00  0.00     0.103 C 
ATOM     28  C   UNL A   1      36.785  22.920  24.363  1.00  0.00     0.020 C 
ATOM     29  C   UNL A   1      35.155  21.143  25.369  1.00  0.00     0.020 C 
ATOM     30  C   UNL A   1      36.589  21.700  25.293  1.00  0.00    -0.012 C 
ATOM     31  C   UNL A   1      37.545  20.567  24.889  1.00  0.00     0.008 C 
ENDBRANCH  22  25
ENDBRANCH  17  22
ENDBRANCH   6   9
ENDBRANCH   4   5
ENDBRANCH   3   4
ENDBRANCH   2   3
ENDBRANCH   1   2
BRANCH   1  32
ATOM     32  C   UNL A   1      33.288  32.022  28.075  1.00  0.00     0.021 C 
BRANCH  32  33
ATOM     33  C   UNL A   1      33.492  33.380  27.409  1.00  0.00     0.116 C 
BRANCH  33  34
ATOM     34  N   UNL A   1      32.931  34.471  28.187  1.00  0.00    -0.352 N 
ATOM     35  C   UNL A   1      33.250  34.903  29.450  1.00  0.00     0.251 C 
ATOM     36  H   UNL A   1      32.213  34.975  27.742  1.00  0.00     0.163 HD
ATOM     37  O   UNL A   1      32.541  35.743  30.000  1.00  0.00    -0.269 OA
BRANCH  35  38
ATOM     38  C   UNL A   1      34.425  34.352  30.162  1.00  0.00     0.039 A 
ATOM     39  C   UNL A   1      34.217  33.620  31.335  1.00  0.00     0.014 A 
ATOM     40  C   UNL A   1      35.727  34.577  29.704  1.00  0.00     0.014 A 
ATOM     41  C   UNL A   1      35.304  33.068  32.015  1.00  0.00     0.010 A 
ATOM     42  C   UNL A   1      36.808  33.979  30.352  1.00  0.00     0.010 A 
ATOM     43  C   UNL A   1      36.607  33.218  31.514  1.00  0.00    -0.014 A 
BRANCH  43  44
ATOM     44  C   UNL A   1      37.762  32.570  32.187  1.00  0.00     0.031 A 
ATOM     45  C   UNL A   1      38.467  31.407  31.545  1.00  0.00     0.074 A 
ATOM     46  C   UNL A   1      38.141  32.999  33.407  1.00  0.00     0.049 A 
ATOM     47  N   UNL A   1      39.467  30.695  32.001  1.00  0.00    -0.248 NA
ATOM     48  C   UNL A   1      37.970  30.971  30.231  1.00  0.00     0.031 C 
ATOM     49  C   UNL A   1      37.503  34.082  34.158  1.00  0.00     0.029 A 
ATOM     50  N   UNL A   1      39.150  32.571  34.234  1.00  0.00    -0.354 N 
ATOM     51  C   UNL A   1      39.710  29.722  31.040  1.00  0.00     0.074 A 
ATOM     52  C   UNL A   1      38.726  29.908  29.995  1.00  0.00     0.031 C 
ATOM     53  C   UNL A   1      38.145  34.245  35.325  1.00  0.00     0.029 A 
ATOM     54  C   UNL A   1      39.224  33.266  35.418  1.00  0.00     0.049 A 
ATOM     55  H   UNL A   1      39.762  31.837  34.001  1.00  0.00     0.167 HD
ATOM     56  C   UNL A   1      40.676  28.772  31.022  1.00  0.00     0.037 A 
ATOM     57  C   UNL A   1      40.065  33.130  36.460  1.00  0.00     0.037 A 
ATOM     58  C   UNL A   1      41.673  28.608  32.048  1.00  0.00     0.049 A 
ATOM     59  C   UNL A   1      41.148  32.089  36.403  1.00  0.00     0.074 A 
ATOM     60  C   UNL A   1      42.733  27.719  32.086  1.00  0.00     0.029 A 
ATOM     61  N   UNL A   1      41.734  29.352  33.217  1.00  0.00    -0.354 N 
ATOM     62  N   UNL A   1      41.402  31.218  35.456  1.00  0.00    -0.248 NA
ATOM     63  C   UNL A   1      42.062  32.017  37.551  1.00  0.00     0.031 C 
ATOM     64  C   UNL A   1      43.418  27.905  33.292  1.00  0.00     0.029 A 
ATOM     65  C   UNL A   1      42.805  28.932  33.990  1.00  0.00     0.049 A 
ATOM     66  H   UNL A   1      41.110  30.073  33.462  1.00  0.00     0.167 HD
ATOM     67  C   UNL A   1      42.517  30.507  35.885  1.00  0.00     0.074 A 
ATOM     68  C   UNL A   1      42.895  31.057  37.170  1.00  0.00     0.031 C 
ATOM     69  C   UNL A   1      43.167  29.489  35.269  1.00  0.00     0.037 A 
BRANCH  56  70
ATOM     70  C   UNL A   1      40.705  27.836  29.846  1.00  0.00     0.058 A 
ATOM     71  C   UNL A   1      41.695  27.932  28.854  1.00  0.00     0.135 A 
ATOM     72  C   UNL A   1      39.750  26.814  29.722  1.00  0.00     0.135 A 
ATOM     73  F   UNL A   1      42.622  28.900  28.919  1.00  0.00    -0.206 F 
ATOM     74  C   UNL A   1      41.719  27.067  27.766  1.00  0.00     0.059 A 
ATOM     75  C   UNL A   1      39.769  25.923  28.652  1.00  0.00     0.059 A 
ATOM     76  F   UNL A   1      38.781  26.678  30.642  1.00  0.00    -0.206 F 
ATOM     77  C   UNL A   1      40.748  26.068  27.671  1.00  0.00     0.060 A 
BRANCH  77  78
ATOM     78  S   UNL A   1      40.786  24.956  26.249  1.00  0.00     0.124 S 
ATOM     79  O   UNL A   1      39.388  24.546  26.166  1.00  0.00    -0.237 OA
ATOM     80  O   UNL A   1      41.256  25.829  25.178  1.00  0.00    -0.237 OA
ATOM     81  O   UNL A   1      41.723  23.914  26.660  1.00  0.00    -0.744 OA
ENDBRANCH  77  78
ENDBRANCH  56  70
BRANCH  57  82
ATOM     82  C   UNL A   1      39.933  34.029  37.635  1.00  0.00     0.058 A 
ATOM     83  C   UNL A   1      40.548  35.289  37.647  1.00  0.00     0.135 A 
ATOM     84  C   UNL A   1      39.170  33.659  38.752  1.00  0.00     0.135 A 
ATOM     85  F   UNL A   1      41.291  35.682  36.602  1.00  0.00    -0.206 F 
ATOM     86  C   UNL A   1      40.419  36.151  38.731  1.00  0.00     0.059 A 
ATOM     87  C   UNL A   1      39.010  34.511  39.840  1.00  0.00     0.059 A 
ATOM     88  F   UNL A   1      38.550  32.468  38.779  1.00  0.00    -0.206 F 
ATOM     89  C   UNL A   1      39.645  35.753  39.823  1.00  0.00     0.060 A 
BRANCH  89  90
ATOM     90  S   UNL A   1      39.431  36.902  41.201  1.00  0.00     0.124 S 
ATOM     91  O   UNL A   1      38.619  36.111  42.118  1.00  0.00    -0.237 OA
ATOM     92  O   UNL A   1      40.808  37.147  41.616  1.00  0.00    -0.237 OA
ATOM     93  O   UNL A   1      38.761  38.042  40.582  1.00  0.00    -0.744 OA
ENDBRANCH  89  90
ENDBRANCH  57  82
BRANCH  69  94
ATOM     94  C   UNL A   1      44.365  28.915  35.971  1.00  0.00     0.058 A 
ATOM     95  C   UNL A   1      45.649  29.451  35.785  1.00  0.00     0.135 A 
ATOM     96  C   UNL A   1      44.222  27.844  36.866  1.00  0.00     0.135 A 
ATOM     97  F   UNL A   1      45.838  30.473  34.934  1.00  0.00    -0.206 F 
ATOM     98  C   UNL A   1      46.754  28.931  36.448  1.00  0.00     0.059 A 
ATOM     99  C   UNL A   1      45.311  27.321  37.555  1.00  0.00     0.059 A 
ATOM    100  F   UNL A   1      43.013  27.302  37.084  1.00  0.00    -0.206 F 
ATOM    101  C   UNL A   1      46.576  27.863  37.331  1.00  0.00     0.060 A 
BRANCH 101 102
ATOM    102  S   UNL A   1      48.012  27.213  38.210  1.00  0.00     0.124 S 
ATOM    103  O   UNL A   1      48.711  26.503  37.143  1.00  0.00    -0.237 OA
ATOM    104  O   UNL A   1      48.662  28.427  38.695  1.00  0.00    -0.237 OA
ATOM    105  O   UNL A   1      47.421  26.369  39.245  1.00  0.00    -0.744 OA
ENDBRANCH 101 102
ENDBRANCH  69  94
ENDBRANCH  43  44
ENDBRANCH  35  38
ENDBRANCH  33  34
ENDBRANCH  32  33
ENDBRANCH   1  32
TORSDOF 20
ENDMDL
