MODEL 1
REMARK VINA RESULT:     -13.3      0.000      0.000
REMARK SMILES Cc1ccc(S(=O)(=O)/C=C/C(=O)NCCCCCCNC(=O)c2ccc(-c3c4nc(c(-c5c(F)cc(S(=O)(=O)[O-])cc5F)c5ccc([nH]5)c(-c5c(F)cc(S(=O)(=O)[O-])cc5F)c5nc(c(-c6c(F)cc(S(=O)(=O)[O-])cc6F)c6ccc3[nH]6)C=C5)C=C4)cc2)cc1
REMARK SMILES IDX 17 1 16 2 15 3 14 4 13 5 11 6 12 7 10 9 9 10 6 11 7 12 8 13
REMARK SMILES IDX 5 14 1 15 2 16 3 17 90 18 4 19 89 20 18 21 19 22 20 23 21 24
REMARK SMILES IDX 22 26 23 27 24 28 88 29 25 30 87 31 26 32 27 33 28 34 81 35
REMARK SMILES IDX 29 36 86 37 80 38 82 39 30 40 85 41 79 42 78 43 31 45 65 46
REMARK SMILES IDX 44 47 64 48 45 49 48 50 63 51 83 52 46 53 47 54 62 56 84 57
REMARK SMILES IDX 49 58 32 59 33 60 42 61 34 62 35 63 41 64 43 65 36 66 37 67
REMARK SMILES IDX 38 68 39 69 40 70 66 71 67 72 76 73 68 74 69 75 75 76 77 77
REMARK SMILES IDX 70 78 71 79 72 80 73 81 74 82 50 83 51 84 60 85 52 86 53 87
REMARK SMILES IDX 59 88 61 89 54 90 55 91 56 92 57 93 58 94
REMARK H PARENT 13 8 20 25 82 44 48 55
REMARK Flexibility Score: inf
ROOT
ATOM      1  C   UNL A   1      32.034  29.277  27.094  1.00  0.00     0.002 C 
ENDROOT
BRANCH   1   2
ATOM      2  C   UNL A   1      31.927  28.122  26.087  1.00  0.00     0.002 C 
BRANCH   2   3
ATOM      3  C   UNL A   1      31.752  26.714  26.670  1.00  0.00     0.021 C 
BRANCH   3   4
ATOM      4  C   UNL A   1      30.817  25.797  25.886  1.00  0.00     0.116 C 
BRANCH   4   5
ATOM      5  N   UNL A   1      30.087  24.889  26.755  1.00  0.00    -0.353 N 
ATOM      6  C   UNL A   1      30.088  23.531  26.759  1.00  0.00     0.244 C 
ATOM      7  O   UNL A   1      29.542  22.886  27.647  1.00  0.00    -0.270 OA
ATOM      8  H   UNL A   1      29.515  25.317  27.431  1.00  0.00     0.163 HD
BRANCH   6   9
ATOM      9  C   UNL A   1      30.797  22.821  25.687  1.00  0.00     0.083 C 
ATOM     10  C   UNL A   1      31.640  21.826  25.993  1.00  0.00     0.117 C 
BRANCH  10  11
ATOM     11  S   UNL A   1      32.541  21.078  24.725  1.00  0.00     0.200 S 
ATOM     12  O   UNL A   1      32.292  21.790  23.487  1.00  0.00    -0.219 OA
ATOM     13  O   UNL A   1      32.333  19.644  24.810  1.00  0.00    -0.219 OA
BRANCH  11  14
ATOM     14  C   UNL A   1      34.263  21.344  25.101  1.00  0.00     0.071 A 
ATOM     15  C   UNL A   1      38.488  21.855  25.700  1.00  0.00     0.044 C 
ATOM     16  C   UNL A   1      37.013  21.677  25.502  1.00  0.00    -0.051 A 
ATOM     17  C   UNL A   1      36.506  20.443  25.073  1.00  0.00     0.005 A 
ATOM     18  C   UNL A   1      36.126  22.728  25.764  1.00  0.00     0.005 A 
ATOM     19  C   UNL A   1      35.136  20.276  24.867  1.00  0.00     0.021 A 
ATOM     20  C   UNL A   1      34.753  22.565  25.571  1.00  0.00     0.021 A 
ENDBRANCH  11  14
ENDBRANCH  10  11
ENDBRANCH   6   9
ENDBRANCH   4   5
ENDBRANCH   3   4
ENDBRANCH   2   3
ENDBRANCH   1   2
BRANCH   1  21
ATOM     21  C   UNL A   1      33.085  30.350  26.799  1.00  0.00     0.021 C 
BRANCH  21  22
ATOM     22  C   UNL A   1      34.506  29.949  27.175  1.00  0.00     0.116 C 
BRANCH  22  23
ATOM     23  N   UNL A   1      35.384  31.095  27.366  1.00  0.00    -0.352 N 
ATOM     24  C   UNL A   1      36.558  31.124  28.100  1.00  0.00     0.251 C 
ATOM     25  H   UNL A   1      35.115  31.935  26.929  1.00  0.00     0.163 HD
ATOM     26  O   UNL A   1      37.008  32.139  28.614  1.00  0.00    -0.269 OA
BRANCH  24  27
ATOM     27  C   UNL A   1      37.354  29.884  28.077  1.00  0.00     0.039 A 
ATOM     28  C   UNL A   1      37.303  29.075  29.220  1.00  0.00     0.014 A 
ATOM     29  C   UNL A   1      38.356  29.735  27.124  1.00  0.00     0.014 A 
ATOM     30  C   UNL A   1      38.376  28.245  29.514  1.00  0.00     0.010 A 
ATOM     31  C   UNL A   1      39.461  28.990  27.466  1.00  0.00     0.010 A 
ATOM     32  C   UNL A   1      39.489  28.290  28.682  1.00  0.00    -0.014 A 
BRANCH  32  33
ATOM     33  C   UNL A   1      40.771  27.685  29.001  1.00  0.00     0.031 A 
ATOM     34  C   UNL A   1      40.997  26.269  28.655  1.00  0.00     0.074 A 
ATOM     35  C   UNL A   1      41.778  28.480  29.418  1.00  0.00     0.049 A 
ATOM     36  N   UNL A   1      41.996  25.560  29.050  1.00  0.00    -0.248 NA
ATOM     37  C   UNL A   1      40.044  25.510  27.852  1.00  0.00     0.031 C 
ATOM     38  C   UNL A   1      43.208  28.195  29.385  1.00  0.00     0.029 A 
ATOM     39  N   UNL A   1      41.678  29.669  30.143  1.00  0.00    -0.354 N 
ATOM     40  C   UNL A   1      41.993  24.385  28.328  1.00  0.00     0.074 A 
ATOM     41  C   UNL A   1      40.703  24.362  27.684  1.00  0.00     0.031 C 
ATOM     42  C   UNL A   1      43.836  29.021  30.236  1.00  0.00     0.029 A 
ATOM     43  C   UNL A   1      42.811  29.741  30.974  1.00  0.00     0.049 A 
ATOM     44  H   UNL A   1      40.954  30.332  30.082  1.00  0.00     0.167 HD
ATOM     45  C   UNL A   1      43.150  23.663  28.255  1.00  0.00     0.037 A 
ATOM     46  C   UNL A   1      42.670  29.686  32.334  1.00  0.00     0.037 A 
ATOM     47  C   UNL A   1      44.133  24.200  29.205  1.00  0.00     0.049 A 
ATOM     48  C   UNL A   1      43.286  28.451  32.956  1.00  0.00     0.074 A 
ATOM     49  C   UNL A   1      45.219  25.046  29.055  1.00  0.00     0.029 A 
ATOM     50  N   UNL A   1      43.863  24.147  30.571  1.00  0.00    -0.354 N 
ATOM     51  N   UNL A   1      43.597  27.372  32.289  1.00  0.00    -0.248 NA
ATOM     52  C   UNL A   1      43.620  28.336  34.375  1.00  0.00     0.031 C 
ATOM     53  C   UNL A   1      45.528  25.591  30.330  1.00  0.00     0.029 A 
ATOM     54  C   UNL A   1      44.657  25.046  31.259  1.00  0.00     0.049 A 
ATOM     55  H   UNL A   1      43.199  23.552  30.988  1.00  0.00     0.167 HD
ATOM     56  C   UNL A   1      44.136  26.439  33.134  1.00  0.00     0.074 A 
ATOM     57  C   UNL A   1      44.145  27.098  34.428  1.00  0.00     0.031 C 
ATOM     58  C   UNL A   1      44.531  25.203  32.704  1.00  0.00     0.037 A 
BRANCH  45  59
ATOM     59  C   UNL A   1      43.507  22.695  27.127  1.00  0.00     0.058 A 
ATOM     60  C   UNL A   1      42.807  21.472  26.990  1.00  0.00     0.135 A 
ATOM     61  C   UNL A   1      44.572  22.842  26.215  1.00  0.00     0.135 A 
ATOM     62  F   UNL A   1      41.710  21.209  27.714  1.00  0.00    -0.206 F 
ATOM     63  C   UNL A   1      43.199  20.453  26.113  1.00  0.00     0.059 A 
ATOM     64  C   UNL A   1      45.004  21.829  25.353  1.00  0.00     0.059 A 
ATOM     65  F   UNL A   1      45.230  23.992  26.065  1.00  0.00    -0.206 F 
ATOM     66  C   UNL A   1      44.321  20.628  25.319  1.00  0.00     0.060 A 
BRANCH  66  67
ATOM     67  S   UNL A   1      44.856  19.293  24.233  1.00  0.00     0.124 S 
ATOM     68  O   UNL A   1      46.302  19.297  24.434  1.00  0.00    -0.237 OA
ATOM     69  O   UNL A   1      44.139  18.147  24.780  1.00  0.00    -0.237 OA
ATOM     70  O   UNL A   1      44.414  19.730  22.911  1.00  0.00    -0.744 OA
ENDBRANCH  66  67
ENDBRANCH  45  59
BRANCH  46  71
ATOM     71  C   UNL A   1      41.451  30.404  32.811  1.00  0.00     0.058 A 
ATOM     72  C   UNL A   1      40.298  29.626  33.039  1.00  0.00     0.135 A 
ATOM     73  C   UNL A   1      41.542  31.632  33.482  1.00  0.00     0.135 A 
ATOM     74  F   UNL A   1      40.146  28.454  32.401  1.00  0.00    -0.206 F 
ATOM     75  C   UNL A   1      39.376  29.954  34.028  1.00  0.00     0.059 A 
ATOM     76  C   UNL A   1      40.620  31.986  34.472  1.00  0.00     0.059 A 
ATOM     77  F   UNL A   1      42.608  32.425  33.299  1.00  0.00    -0.206 F 
ATOM     78  C   UNL A   1      39.591  31.097  34.791  1.00  0.00     0.060 A 
BRANCH  78  79
ATOM     79  S   UNL A   1      38.621  31.295  36.310  1.00  0.00     0.124 S 
ATOM     80  O   UNL A   1      38.409  29.911  36.716  1.00  0.00    -0.237 OA
ATOM     81  O   UNL A   1      39.533  32.069  37.154  1.00  0.00    -0.237 OA
ATOM     82  O   UNL A   1      37.434  32.008  35.857  1.00  0.00    -0.744 OA
ENDBRANCH  78  79
ENDBRANCH  46  71
BRANCH  58  83
ATOM     83  C   UNL A   1      44.924  24.045  33.592  1.00  0.00     0.058 A 
ATOM     84  C   UNL A   1      44.045  23.024  33.988  1.00  0.00     0.135 A 
ATOM     85  C   UNL A   1      46.281  23.855  33.957  1.00  0.00     0.135 A 
ATOM     86  F   UNL A   1      42.758  23.026  33.613  1.00  0.00    -0.206 F 
ATOM     87  C   UNL A   1      44.462  21.930  34.750  1.00  0.00     0.059 A 
ATOM     88  C   UNL A   1      46.729  22.744  34.663  1.00  0.00     0.059 A 
ATOM     89  F   UNL A   1      47.226  24.747  33.623  1.00  0.00    -0.206 F 
ATOM     90  C   UNL A   1      45.807  21.797  35.083  1.00  0.00     0.060 A 
BRANCH  90  91
ATOM     91  S   UNL A   1      46.364  20.362  36.018  1.00  0.00     0.124 S 
ATOM     92  O   UNL A   1      47.813  20.527  35.965  1.00  0.00    -0.237 OA
ATOM     93  O   UNL A   1      45.754  20.572  37.327  1.00  0.00    -0.237 OA
ATOM     94  O   UNL A   1      45.825  19.239  35.257  1.00  0.00    -0.744 OA
ENDBRANCH  90  91
ENDBRANCH  58  83
ENDBRANCH  32  33
ENDBRANCH  24  27
ENDBRANCH  22  23
ENDBRANCH  21  22
ENDBRANCH   1  21
TORSDOF 18
ENDMDL
MODEL 2
REMARK VINA RESULT:     -13.0      1.352      1.911
REMARK SMILES Cc1ccc(S(=O)(=O)/C=C/C(=O)NCCCCCCNC(=O)c2ccc(-c3c4nc(c(-c5c(F)cc(S(=O)(=O)[O-])cc5F)c5ccc([nH]5)c(-c5c(F)cc(S(=O)(=O)[O-])cc5F)c5nc(c(-c6c(F)cc(S(=O)(=O)[O-])cc6F)c6ccc3[nH]6)C=C5)C=C4)cc2)cc1
REMARK SMILES IDX 17 1 16 2 15 3 14 4 13 5 11 6 12 7 10 9 9 10 6 11 7 12 8 13
REMARK SMILES IDX 5 14 1 15 2 16 3 17 90 18 4 19 89 20 18 21 19 22 20 23 21 24
REMARK SMILES IDX 22 26 23 27 24 28 88 29 25 30 87 31 26 32 27 33 28 34 81 35
REMARK SMILES IDX 29 36 86 37 80 38 82 39 30 40 85 41 79 42 78 43 31 45 65 46
REMARK SMILES IDX 44 47 64 48 45 49 48 50 63 51 83 52 46 53 47 54 62 56 84 57
REMARK SMILES IDX 49 58 32 59 33 60 42 61 34 62 35 63 41 64 43 65 36 66 37 67
REMARK SMILES IDX 38 68 39 69 40 70 66 71 67 72 76 73 68 74 69 75 75 76 77 77
REMARK SMILES IDX 70 78 71 79 72 80 73 81 74 82 50 83 51 84 60 85 52 86 53 87
REMARK SMILES IDX 59 88 61 89 54 90 55 91 56 92 57 93 58 94
REMARK H PARENT 13 8 20 25 82 44 48 55
REMARK Flexibility Score: inf
ROOT
ATOM      1  C   UNL A   1      32.453  29.058  25.685  1.00  0.00     0.002 C 
ENDROOT
BRANCH   1   2
ATOM      2  C   UNL A   1      32.994  29.033  24.248  1.00  0.00     0.002 C 
BRANCH   2   3
ATOM      3  C   UNL A   1      31.959  29.132  23.121  1.00  0.00     0.021 C 
BRANCH   3   4
ATOM      4  C   UNL A   1      31.307  27.812  22.720  1.00  0.00     0.116 C 
BRANCH   4   5
ATOM      5  N   UNL A   1      32.071  27.113  21.700  1.00  0.00    -0.353 N 
ATOM      6  C   UNL A   1      32.870  26.023  21.833  1.00  0.00     0.244 C 
ATOM      7  O   UNL A   1      33.339  25.441  20.861  1.00  0.00    -0.270 OA
ATOM      8  H   UNL A   1      31.999  27.480  20.790  1.00  0.00     0.163 HD
BRANCH   6   9
ATOM      9  C   UNL A   1      33.147  25.510  23.181  1.00  0.00     0.083 C 
ATOM     10  C   UNL A   1      33.315  24.194  23.370  1.00  0.00     0.117 C 
BRANCH  10  11
ATOM     11  S   UNL A   1      33.533  23.604  24.977  1.00  0.00     0.200 S 
ATOM     12  O   UNL A   1      32.712  22.424  25.162  1.00  0.00    -0.219 OA
ATOM     13  O   UNL A   1      33.429  24.729  25.888  1.00  0.00    -0.219 OA
BRANCH  11  14
ATOM     14  C   UNL A   1      35.222  23.043  25.086  1.00  0.00     0.071 A 
ATOM     15  C   UNL A   1      39.246  21.658  25.687  1.00  0.00     0.044 C 
ATOM     16  C   UNL A   1      37.845  22.146  25.467  1.00  0.00    -0.051 A 
ATOM     17  C   UNL A   1      37.332  23.185  26.255  1.00  0.00     0.005 A 
ATOM     18  C   UNL A   1      37.045  21.589  24.464  1.00  0.00     0.005 A 
ATOM     19  C   UNL A   1      36.023  23.630  26.071  1.00  0.00     0.021 A 
ATOM     20  C   UNL A   1      35.737  22.037  24.266  1.00  0.00     0.021 A 
ENDBRANCH  11  14
ENDBRANCH  10  11
ENDBRANCH   6   9
ENDBRANCH   4   5
ENDBRANCH   3   4
ENDBRANCH   2   3
ENDBRANCH   1   2
BRANCH   1  21
ATOM     21  C   UNL A   1      32.998  30.153  26.606  1.00  0.00     0.021 C 
BRANCH  21  22
ATOM     22  C   UNL A   1      34.347  29.824  27.232  1.00  0.00     0.116 C 
BRANCH  22  23
ATOM     23  N   UNL A   1      35.206  30.993  27.368  1.00  0.00    -0.352 N 
ATOM     24  C   UNL A   1      36.401  31.064  28.064  1.00  0.00     0.251 C 
ATOM     25  H   UNL A   1      34.906  31.816  26.918  1.00  0.00     0.163 HD
ATOM     26  O   UNL A   1      36.845  32.101  28.539  1.00  0.00    -0.269 OA
BRANCH  24  27
ATOM     27  C   UNL A   1      37.222  29.840  28.047  1.00  0.00     0.039 A 
ATOM     28  C   UNL A   1      37.196  29.042  29.199  1.00  0.00     0.014 A 
ATOM     29  C   UNL A   1      38.219  29.702  27.089  1.00  0.00     0.014 A 
ATOM     30  C   UNL A   1      38.287  28.237  29.493  1.00  0.00     0.010 A 
ATOM     31  C   UNL A   1      39.342  28.984  27.430  1.00  0.00     0.010 A 
ATOM     32  C   UNL A   1      39.394  28.297  28.652  1.00  0.00    -0.014 A 
BRANCH  32  33
ATOM     33  C   UNL A   1      40.689  27.721  28.968  1.00  0.00     0.031 A 
ATOM     34  C   UNL A   1      40.944  26.308  28.628  1.00  0.00     0.074 A 
ATOM     35  C   UNL A   1      41.681  28.540  29.375  1.00  0.00     0.049 A 
ATOM     36  N   UNL A   1      41.961  25.623  29.022  1.00  0.00    -0.248 NA
ATOM     37  C   UNL A   1      40.004  25.525  27.834  1.00  0.00     0.031 C 
ATOM     38  C   UNL A   1      43.117  28.286  29.336  1.00  0.00     0.029 A 
ATOM     39  N   UNL A   1      41.560  29.731  30.094  1.00  0.00    -0.354 N 
ATOM     40  C   UNL A   1      41.979  24.444  28.306  1.00  0.00     0.074 A 
ATOM     41  C   UNL A   1      40.687  24.390  27.669  1.00  0.00     0.031 C 
ATOM     42  C   UNL A   1      43.732  29.130  30.180  1.00  0.00     0.029 A 
ATOM     43  C   UNL A   1      42.695  29.831  30.919  1.00  0.00     0.049 A 
ATOM     44  H   UNL A   1      40.821  30.377  30.034  1.00  0.00     0.167 HD
ATOM     45  C   UNL A   1      43.151  23.747  28.231  1.00  0.00     0.037 A 
ATOM     46  C   UNL A   1      42.562  29.781  32.280  1.00  0.00     0.037 A 
ATOM     47  C   UNL A   1      44.127  24.310  29.173  1.00  0.00     0.049 A 
ATOM     48  C   UNL A   1      43.208  28.562  32.905  1.00  0.00     0.074 A 
ATOM     49  C   UNL A   1      45.194  25.179  29.013  1.00  0.00     0.029 A 
ATOM     50  N   UNL A   1      43.865  24.259  30.540  1.00  0.00    -0.354 N 
ATOM     51  N   UNL A   1      43.539  27.487  32.242  1.00  0.00    -0.248 NA
ATOM     52  C   UNL A   1      43.552  28.463  34.323  1.00  0.00     0.031 C 
ATOM     53  C   UNL A   1      45.498  25.737  30.283  1.00  0.00     0.029 A 
ATOM     54  C   UNL A   1      44.643  25.179  31.219  1.00  0.00     0.049 A 
ATOM     55  H   UNL A   1      43.216  23.652  30.964  1.00  0.00     0.167 HD
ATOM     56  C   UNL A   1      44.102  26.570  33.090  1.00  0.00     0.074 A 
ATOM     57  C   UNL A   1      44.103  27.237  34.379  1.00  0.00     0.031 C 
ATOM     58  C   UNL A   1      44.521  25.341  32.664  1.00  0.00     0.037 A 
BRANCH  45  59
ATOM     59  C   UNL A   1      43.523  22.781  27.107  1.00  0.00     0.058 A 
ATOM     60  C   UNL A   1      42.827  21.557  26.960  1.00  0.00     0.135 A 
ATOM     61  C   UNL A   1      44.598  22.930  26.207  1.00  0.00     0.135 A 
ATOM     62  F   UNL A   1      41.721  21.291  27.671  1.00  0.00    -0.206 F 
ATOM     63  C   UNL A   1      43.231  20.539  26.087  1.00  0.00     0.059 A 
ATOM     64  C   UNL A   1      45.042  21.919  25.349  1.00  0.00     0.059 A 
ATOM     65  F   UNL A   1      45.256  24.082  26.066  1.00  0.00    -0.206 F 
ATOM     66  C   UNL A   1      44.362  20.716  25.306  1.00  0.00     0.060 A 
BRANCH  66  67
ATOM     67  S   UNL A   1      44.912  19.384  24.225  1.00  0.00     0.124 S 
ATOM     68  O   UNL A   1      44.154  18.245  24.735  1.00  0.00    -0.237 OA
ATOM     69  O   UNL A   1      44.519  19.874  22.910  1.00  0.00    -0.237 OA
ATOM     70  O   UNL A   1      46.352  19.325  24.462  1.00  0.00    -0.744 OA
ENDBRANCH  66  67
ENDBRANCH  45  59
BRANCH  46  71
ATOM     71  C   UNL A   1      41.331  30.475  32.760  1.00  0.00     0.058 A 
ATOM     72  C   UNL A   1      40.220  29.665  33.073  1.00  0.00     0.135 A 
ATOM     73  C   UNL A   1      41.391  31.743  33.356  1.00  0.00     0.135 A 
ATOM     74  F   UNL A   1      40.097  28.452  32.510  1.00  0.00    -0.206 F 
ATOM     75  C   UNL A   1      39.320  30.012  34.075  1.00  0.00     0.059 A 
ATOM     76  C   UNL A   1      40.489  32.116  34.357  1.00  0.00     0.059 A 
ATOM     77  F   UNL A   1      42.416  32.567  33.089  1.00  0.00    -0.206 F 
ATOM     78  C   UNL A   1      39.511  31.206  34.764  1.00  0.00     0.060 A 
BRANCH  78  79
ATOM     79  S   UNL A   1      38.586  31.453  36.303  1.00  0.00     0.124 S 
ATOM     80  O   UNL A   1      37.485  32.301  35.862  1.00  0.00    -0.237 OA
ATOM     81  O   UNL A   1      38.222  30.081  36.662  1.00  0.00    -0.237 OA
ATOM     82  O   UNL A   1      39.561  32.089  37.180  1.00  0.00    -0.744 OA
ENDBRANCH  78  79
ENDBRANCH  46  71
BRANCH  58  83
ATOM     83  C   UNL A   1      44.944  24.197  33.557  1.00  0.00     0.058 A 
ATOM     84  C   UNL A   1      44.096  23.147  33.944  1.00  0.00     0.135 A 
ATOM     85  C   UNL A   1      46.302  24.052  33.935  1.00  0.00     0.135 A 
ATOM     86  F   UNL A   1      42.813  23.106  33.556  1.00  0.00    -0.206 F 
ATOM     87  C   UNL A   1      44.541  22.067  34.710  1.00  0.00     0.059 A 
ATOM     88  C   UNL A   1      46.781  22.956  34.646  1.00  0.00     0.059 A 
ATOM     89  F   UNL A   1      47.221  24.975  33.610  1.00  0.00    -0.206 F 
ATOM     90  C   UNL A   1      45.887  21.979  35.056  1.00  0.00     0.060 A 
BRANCH  90  91
ATOM     91  S   UNL A   1      46.482  20.564  35.997  1.00  0.00     0.124 S 
ATOM     92  O   UNL A   1      47.898  20.557  35.645  1.00  0.00    -0.237 OA
ATOM     93  O   UNL A   1      46.176  20.939  37.375  1.00  0.00    -0.237 OA
ATOM     94  O   UNL A   1      45.692  19.456  35.468  1.00  0.00    -0.744 OA
ENDBRANCH  90  91
ENDBRANCH  58  83
ENDBRANCH  32  33
ENDBRANCH  24  27
ENDBRANCH  22  23
ENDBRANCH  21  22
ENDBRANCH   1  21
TORSDOF 18
ENDMDL
MODEL 3
REMARK VINA RESULT:     -12.9      4.983     11.573
REMARK SMILES Cc1ccc(S(=O)(=O)/C=C/C(=O)NCCCCCCNC(=O)c2ccc(-c3c4nc(c(-c5c(F)cc(S(=O)(=O)[O-])cc5F)c5ccc([nH]5)c(-c5c(F)cc(S(=O)(=O)[O-])cc5F)c5nc(c(-c6c(F)cc(S(=O)(=O)[O-])cc6F)c6ccc3[nH]6)C=C5)C=C4)cc2)cc1
REMARK SMILES IDX 17 1 16 2 15 3 14 4 13 5 11 6 12 7 10 9 9 10 6 11 7 12 8 13
REMARK SMILES IDX 5 14 1 15 2 16 3 17 90 18 4 19 89 20 18 21 19 22 20 23 21 24
REMARK SMILES IDX 22 26 23 27 24 28 88 29 25 30 87 31 26 32 27 33 28 34 81 35
REMARK SMILES IDX 29 36 86 37 80 38 82 39 30 40 85 41 79 42 78 43 31 45 65 46
REMARK SMILES IDX 44 47 64 48 45 49 48 50 63 51 83 52 46 53 47 54 62 56 84 57
REMARK SMILES IDX 49 58 32 59 33 60 42 61 34 62 35 63 41 64 43 65 36 66 37 67
REMARK SMILES IDX 38 68 39 69 40 70 66 71 67 72 76 73 68 74 69 75 75 76 77 77
REMARK SMILES IDX 70 78 71 79 72 80 73 81 74 82 50 83 51 84 60 85 52 86 53 87
REMARK SMILES IDX 59 88 61 89 54 90 55 91 56 92 57 93 58 94
REMARK H PARENT 13 8 20 25 82 44 48 55
REMARK Flexibility Score: inf
ROOT
ATOM      1  C   UNL A   1      36.690  21.177  25.386  1.00  0.00     0.002 C 
ENDROOT
BRANCH   1   2
ATOM      2  C   UNL A   1      35.252  21.660  25.136  1.00  0.00     0.002 C 
BRANCH   2   3
ATOM      3  C   UNL A   1      34.124  20.720  25.577  1.00  0.00     0.021 C 
BRANCH   3   4
ATOM      4  C   UNL A   1      32.719  21.153  25.168  1.00  0.00     0.116 C 
BRANCH   4   5
ATOM      5  N   UNL A   1      31.965  21.689  26.288  1.00  0.00    -0.353 N 
ATOM      6  C   UNL A   1      31.566  22.968  26.512  1.00  0.00     0.244 C 
ATOM      7  O   UNL A   1      30.802  23.259  27.426  1.00  0.00    -0.270 OA
ATOM      8  H   UNL A   1      31.710  21.037  26.979  1.00  0.00     0.163 HD
BRANCH   6   9
ATOM      9  C   UNL A   1      32.036  24.024  25.606  1.00  0.00     0.083 C 
ATOM     10  C   UNL A   1      31.960  25.307  25.984  1.00  0.00     0.117 C 
BRANCH  10  11
ATOM     11  S   UNL A   1      32.421  26.535  24.862  1.00  0.00     0.200 S 
ATOM     12  O   UNL A   1      31.294  26.830  23.998  1.00  0.00    -0.219 OA
ATOM     13  O   UNL A   1      33.709  26.173  24.301  1.00  0.00    -0.219 OA
BRANCH  11  14
ATOM     14  C   UNL A   1      32.702  28.014  25.816  1.00  0.00     0.071 A 
ATOM     15  C   UNL A   1      33.628  31.662  27.893  1.00  0.00     0.044 C 
ATOM     16  C   UNL A   1      33.301  30.385  27.178  1.00  0.00    -0.051 A 
ATOM     17  C   UNL A   1      34.323  29.491  26.833  1.00  0.00     0.005 A 
ATOM     18  C   UNL A   1      31.975  30.061  26.868  1.00  0.00     0.005 A 
ATOM     19  C   UNL A   1      34.028  28.312  26.149  1.00  0.00     0.021 A 
ATOM     20  C   UNL A   1      31.670  28.876  26.194  1.00  0.00     0.021 A 
ENDBRANCH  11  14
ENDBRANCH  10  11
ENDBRANCH   6   9
ENDBRANCH   4   5
ENDBRANCH   3   4
ENDBRANCH   2   3
ENDBRANCH   1   2
BRANCH   1  21
ATOM     21  C   UNL A   1      37.812  22.167  25.063  1.00  0.00     0.021 C 
BRANCH  21  22
ATOM     22  C   UNL A   1      37.995  23.261  26.108  1.00  0.00     0.116 C 
BRANCH  22  23
ATOM     23  N   UNL A   1      39.088  22.983  27.029  1.00  0.00    -0.352 N 
ATOM     24  C   UNL A   1      40.032  23.886  27.490  1.00  0.00     0.251 C 
ATOM     25  H   UNL A   1      39.164  22.058  27.359  1.00  0.00     0.163 HD
ATOM     26  O   UNL A   1      41.151  23.563  27.862  1.00  0.00    -0.269 OA
BRANCH  24  27
ATOM     27  C   UNL A   1      39.550  25.265  27.687  1.00  0.00     0.039 A 
ATOM     28  C   UNL A   1      40.012  26.235  26.787  1.00  0.00     0.014 A 
ATOM     29  C   UNL A   1      38.969  25.616  28.901  1.00  0.00     0.014 A 
ATOM     30  C   UNL A   1      40.077  27.561  27.191  1.00  0.00     0.010 A 
ATOM     31  C   UNL A   1      39.128  26.911  29.337  1.00  0.00     0.010 A 
ATOM     32  C   UNL A   1      39.728  27.867  28.502  1.00  0.00    -0.014 A 
BRANCH  32  33
ATOM     33  C   UNL A   1      39.990  29.147  29.138  1.00  0.00     0.031 A 
ATOM     34  C   UNL A   1      38.978  30.215  29.034  1.00  0.00     0.074 A 
ATOM     35  C   UNL A   1      41.049  29.254  29.967  1.00  0.00     0.049 A 
ATOM     36  N   UNL A   1      39.161  31.443  29.375  1.00  0.00    -0.248 NA
ATOM     37  C   UNL A   1      37.658  29.974  28.464  1.00  0.00     0.031 C 
ATOM     38  C   UNL A   1      41.264  30.249  31.011  1.00  0.00     0.029 A 
ATOM     39  N   UNL A   1      42.258  28.560  29.896  1.00  0.00    -0.354 N 
ATOM     40  C   UNL A   1      37.932  32.070  29.369  1.00  0.00     0.074 A 
ATOM     41  C   UNL A   1      37.059  31.145  28.692  1.00  0.00     0.031 C 
ATOM     42  C   UNL A   1      42.569  30.277  31.324  1.00  0.00     0.029 A 
ATOM     43  C   UNL A   1      43.260  29.429  30.367  1.00  0.00     0.049 A 
ATOM     44  H   UNL A   1      42.386  27.638  29.578  1.00  0.00     0.167 HD
ATOM     45  C   UNL A   1      37.790  33.230  30.077  1.00  0.00     0.037 A 
ATOM     46  C   UNL A   1      44.238  29.873  29.520  1.00  0.00     0.037 A 
ATOM     47  C   UNL A   1      39.106  33.707  30.521  1.00  0.00     0.049 A 
ATOM     48  C   UNL A   1      44.187  31.366  29.269  1.00  0.00     0.074 A 
ATOM     49  C   UNL A   1      39.780  33.619  31.728  1.00  0.00     0.029 A 
ATOM     50  N   UNL A   1      40.053  34.081  29.570  1.00  0.00    -0.354 N 
ATOM     51  N   UNL A   1      43.144  32.114  29.511  1.00  0.00    -0.248 NA
ATOM     52  C   UNL A   1      45.309  32.140  28.742  1.00  0.00     0.031 C 
ATOM     53  C   UNL A   1      41.161  33.832  31.474  1.00  0.00     0.029 A 
ATOM     54  C   UNL A   1      41.321  34.088  30.123  1.00  0.00     0.049 A 
ATOM     55  H   UNL A   1      39.849  34.309  28.634  1.00  0.00     0.167 HD
ATOM     56  C   UNL A   1      43.416  33.415  29.179  1.00  0.00     0.074 A 
ATOM     57  C   UNL A   1      44.792  33.381  28.720  1.00  0.00     0.031 C 
ATOM     58  C   UNL A   1      42.489  34.412  29.311  1.00  0.00     0.037 A 
BRANCH  45  59
ATOM     59  C   UNL A   1      36.469  33.757  30.635  1.00  0.00     0.058 A 
ATOM     60  C   UNL A   1      35.482  34.274  29.761  1.00  0.00     0.135 A 
ATOM     61  C   UNL A   1      36.137  33.882  32.000  1.00  0.00     0.135 A 
ATOM     62  F   UNL A   1      35.593  34.153  28.431  1.00  0.00    -0.206 F 
ATOM     63  C   UNL A   1      34.338  34.949  30.203  1.00  0.00     0.059 A 
ATOM     64  C   UNL A   1      35.018  34.579  32.468  1.00  0.00     0.059 A 
ATOM     65  F   UNL A   1      36.847  33.295  32.964  1.00  0.00    -0.206 F 
ATOM     66  C   UNL A   1      34.129  35.126  31.562  1.00  0.00     0.060 A 
BRANCH  66  67
ATOM     67  S   UNL A   1      32.685  36.044  32.126  1.00  0.00     0.124 S 
ATOM     68  O   UNL A   1      33.229  36.813  33.242  1.00  0.00    -0.237 OA
ATOM     69  O   UNL A   1      32.326  36.810  30.939  1.00  0.00    -0.237 OA
ATOM     70  O   UNL A   1      31.738  34.996  32.500  1.00  0.00    -0.744 OA
ENDBRANCH  66  67
ENDBRANCH  45  59
BRANCH  46  71
ATOM     71  C   UNL A   1      44.672  28.826  28.549  1.00  0.00     0.058 A 
ATOM     72  C   UNL A   1      44.097  28.868  27.262  1.00  0.00     0.135 A 
ATOM     73  C   UNL A   1      45.906  28.172  28.681  1.00  0.00     0.135 A 
ATOM     74  F   UNL A   1      42.903  29.457  27.082  1.00  0.00    -0.206 F 
ATOM     75  C   UNL A   1      44.798  28.458  26.132  1.00  0.00     0.059 A 
ATOM     76  C   UNL A   1      46.621  27.743  27.559  1.00  0.00     0.059 A 
ATOM     77  F   UNL A   1      46.500  28.087  29.881  1.00  0.00    -0.206 F 
ATOM     78  C   UNL A   1      46.091  27.969  26.287  1.00  0.00     0.060 A 
BRANCH  78  79
ATOM     79  S   UNL A   1      47.121  27.816  24.804  1.00  0.00     0.124 S 
ATOM     80  O   UNL A   1      48.466  27.822  25.367  1.00  0.00    -0.237 OA
ATOM     81  O   UNL A   1      46.673  26.536  24.254  1.00  0.00    -0.237 OA
ATOM     82  O   UNL A   1      46.759  28.992  24.023  1.00  0.00    -0.744 OA
ENDBRANCH  78  79
ENDBRANCH  46  71
BRANCH  58  83
ATOM     83  C   UNL A   1      42.626  35.816  28.770  1.00  0.00     0.058 A 
ATOM     84  C   UNL A   1      42.118  36.233  27.529  1.00  0.00     0.135 A 
ATOM     85  C   UNL A   1      43.161  36.846  29.585  1.00  0.00     0.135 A 
ATOM     86  F   UNL A   1      41.486  35.380  26.711  1.00  0.00    -0.206 F 
ATOM     87  C   UNL A   1      42.198  37.558  27.093  1.00  0.00     0.059 A 
ATOM     88  C   UNL A   1      43.196  38.182  29.197  1.00  0.00     0.059 A 
ATOM     89  F   UNL A   1      43.661  36.585  30.803  1.00  0.00    -0.206 F 
ATOM     90  C   UNL A   1      42.738  38.526  27.934  1.00  0.00     0.060 A 
BRANCH  90  91
ATOM     91  S   UNL A   1      42.796  40.247  27.404  1.00  0.00     0.124 S 
ATOM     92  O   UNL A   1      43.438  40.882  28.550  1.00  0.00    -0.237 OA
ATOM     93  O   UNL A   1      43.599  40.184  26.186  1.00  0.00    -0.237 OA
ATOM     94  O   UNL A   1      41.389  40.580  27.201  1.00  0.00    -0.744 OA
ENDBRANCH  90  91
ENDBRANCH  58  83
ENDBRANCH  32  33
ENDBRANCH  24  27
ENDBRANCH  22  23
ENDBRANCH  21  22
ENDBRANCH   1  21
TORSDOF 18
ENDMDL
