MODEL 1
REMARK VINA RESULT:     -11.4      0.000      0.000
REMARK SMILES O=C(NCCCCCCNC(=O)[C@@]1([NH2+]C2CC2)CCC[C@@H]([NH+]2CCS(=O)(=O)CC2)C1)c1ccc(-c2c3nc(c(-c4c(F)cc(S(=O)(=O)[O-])cc4F)c4ccc([nH]4)c(-c4c(F)cc(S(=O)(=O)[O-])cc4F)c4nc(c(-c5c(F)cc(S(=O)(=O)[O-])cc5F)c5ccc2[nH]5)C=C4)C=C3)cc1
REMARK SMILES IDX 6 1 5 2 4 3 3 4 1 5 2 6 31 8 32 9 96 10 33 11 95 12 34 13
REMARK SMILES IDX 35 14 36 15 89 16 37 17 94 18 88 19 90 20 38 21 93 22 87 23
REMARK SMILES IDX 86 24 39 26 73 27 52 28 72 29 53 30 56 31 71 32 91 33 54 34
REMARK SMILES IDX 55 35 70 37 92 38 57 39 40 40 41 41 50 42 42 43 43 44 49 45
REMARK SMILES IDX 51 46 44 47 45 48 46 49 47 50 48 51 74 52 75 53 84 54 76 55
REMARK SMILES IDX 77 56 83 57 85 58 78 59 79 60 80 61 81 62 82 63 58 64 59 65
REMARK SMILES IDX 68 66 60 67 61 68 67 69 69 70 62 71 63 72 64 73 65 74 66 75
REMARK SMILES IDX 7 76 8 77 9 78 10 79 11 80 12 82 13 83 18 84 30 85 19 86
REMARK SMILES IDX 21 87 20 88 14 89 15 92 16 93 17 94 22 95 23 96 29 97 24 99
REMARK SMILES IDX 28 100 25 101 26 102 27 103
REMARK H PARENT 3 7 90 25 56 36 10 81 14 90 14 91 22 98
REMARK Flexibility Score: inf
ROOT
ATOM      1  C   UNL A   1      40.482  21.962  27.439  1.00  0.00     0.002 C 
ENDROOT
BRANCH   1   2
ATOM      2  C   UNL A   1      42.003  22.042  27.370  1.00  0.00     0.021 C 
BRANCH   2   3
ATOM      3  C   UNL A   1      42.562  23.452  27.347  1.00  0.00     0.116 C 
BRANCH   3   4
ATOM      4  N   UNL A   1      42.116  24.187  26.174  1.00  0.00    -0.352 N 
ATOM      5  O   UNL A   1      40.879  25.703  25.053  1.00  0.00    -0.269 OA
ATOM      6  C   UNL A   1      41.391  25.354  26.112  1.00  0.00     0.251 C 
ATOM      7  H   UNL A   1      42.368  23.794  25.306  1.00  0.00     0.163 HD
BRANCH   6   8
ATOM      8  C   UNL A   1      41.226  26.176  27.333  1.00  0.00     0.039 A 
ATOM      9  C   UNL A   1      42.123  27.209  27.604  1.00  0.00     0.014 A 
ATOM     10  C   UNL A   1      40.168  25.924  28.210  1.00  0.00     0.014 A 
ATOM     11  C   UNL A   1      42.073  27.866  28.823  1.00  0.00     0.010 A 
ATOM     12  C   UNL A   1      40.033  26.690  29.374  1.00  0.00     0.010 A 
ATOM     13  C   UNL A   1      40.994  27.661  29.698  1.00  0.00    -0.014 A 
BRANCH  13  14
ATOM     14  C   UNL A   1      40.847  28.581  30.858  1.00  0.00     0.031 A 
ATOM     15  C   UNL A   1      41.742  28.496  32.063  1.00  0.00     0.074 A 
ATOM     16  C   UNL A   1      39.902  29.541  30.778  1.00  0.00     0.049 A 
ATOM     17  N   UNL A   1      41.739  29.247  33.136  1.00  0.00    -0.248 NA
ATOM     18  C   UNL A   1      42.759  27.433  32.080  1.00  0.00     0.031 C 
ATOM     19  C   UNL A   1      38.956  29.699  29.666  1.00  0.00     0.029 A 
ATOM     20  N   UNL A   1      39.592  30.580  31.616  1.00  0.00    -0.354 N 
ATOM     21  C   UNL A   1      42.744  28.748  33.958  1.00  0.00     0.074 A 
ATOM     22  C   UNL A   1      43.313  27.605  33.274  1.00  0.00     0.031 C 
ATOM     23  C   UNL A   1      38.226  30.805  29.855  1.00  0.00     0.029 A 
ATOM     24  C   UNL A   1      38.577  31.381  31.145  1.00  0.00     0.049 A 
ATOM     25  H   UNL A   1      40.051  30.738  32.472  1.00  0.00     0.167 HD
ATOM     26  C   UNL A   1      43.156  29.213  35.163  1.00  0.00     0.037 A 
ATOM     27  C   UNL A   1      37.967  32.445  31.697  1.00  0.00     0.037 A 
ATOM     28  C   UNL A   1      42.583  30.360  35.826  1.00  0.00     0.049 A 
ATOM     29  C   UNL A   1      38.428  32.913  33.046  1.00  0.00     0.074 A 
ATOM     30  C   UNL A   1      42.939  30.916  37.043  1.00  0.00     0.029 A 
ATOM     31  N   UNL A   1      41.537  31.127  35.332  1.00  0.00    -0.354 N 
ATOM     32  N   UNL A   1      39.394  32.438  33.796  1.00  0.00    -0.248 NA
ATOM     33  C   UNL A   1      37.717  34.059  33.625  1.00  0.00     0.031 C 
ATOM     34  C   UNL A   1      42.079  31.987  37.307  1.00  0.00     0.029 A 
ATOM     35  C   UNL A   1      41.224  32.139  36.228  1.00  0.00     0.049 A 
ATOM     36  H   UNL A   1      41.084  30.977  34.471  1.00  0.00     0.167 HD
ATOM     37  C   UNL A   1      39.414  33.236  34.932  1.00  0.00     0.074 A 
ATOM     38  C   UNL A   1      38.390  34.245  34.750  1.00  0.00     0.031 C 
ATOM     39  C   UNL A   1      40.199  33.135  36.033  1.00  0.00     0.037 A 
BRANCH  26  40
ATOM     40  C   UNL A   1      44.281  28.489  35.857  1.00  0.00     0.058 A 
ATOM     41  C   UNL A   1      44.040  27.400  36.711  1.00  0.00     0.135 A 
ATOM     42  C   UNL A   1      45.619  28.828  35.596  1.00  0.00     0.135 A 
ATOM     43  F   UNL A   1      42.783  27.038  37.006  1.00  0.00    -0.206 F 
ATOM     44  C   UNL A   1      45.084  26.680  37.285  1.00  0.00     0.059 A 
ATOM     45  C   UNL A   1      46.679  28.105  36.139  1.00  0.00     0.059 A 
ATOM     46  F   UNL A   1      45.909  29.860  34.788  1.00  0.00    -0.206 F 
ATOM     47  C   UNL A   1      46.401  27.035  36.988  1.00  0.00     0.060 A 
BRANCH  47  48
ATOM     48  S   UNL A   1      47.740  26.059  37.707  1.00  0.00     0.124 S 
ATOM     49  O   UNL A   1      47.273  24.698  37.466  1.00  0.00    -0.237 OA
ATOM     50  O   UNL A   1      48.892  26.482  36.916  1.00  0.00    -0.237 OA
ATOM     51  O   UNL A   1      47.755  26.478  39.105  1.00  0.00    -0.744 OA
ENDBRANCH  47  48
ENDBRANCH  26  40
BRANCH  27  52
ATOM     52  C   UNL A   1      36.830  33.100  30.998  1.00  0.00     0.058 A 
ATOM     53  C   UNL A   1      35.503  32.872  31.387  1.00  0.00     0.135 A 
ATOM     54  C   UNL A   1      37.053  33.968  29.915  1.00  0.00     0.135 A 
ATOM     55  F   UNL A   1      35.236  32.055  32.417  1.00  0.00    -0.206 F 
ATOM     56  C   UNL A   1      34.435  33.449  30.707  1.00  0.00     0.059 A 
ATOM     57  C   UNL A   1      36.006  34.587  29.244  1.00  0.00     0.059 A 
ATOM     58  F   UNL A   1      38.305  34.240  29.514  1.00  0.00    -0.206 F 
ATOM     59  C   UNL A   1      34.698  34.303  29.634  1.00  0.00     0.060 A 
BRANCH  59  60
ATOM     60  S   UNL A   1      33.309  35.053  28.760  1.00  0.00     0.124 S 
ATOM     61  O   UNL A   1      32.484  35.516  29.870  1.00  0.00    -0.237 OA
ATOM     62  O   UNL A   1      33.965  36.092  27.973  1.00  0.00    -0.237 OA
ATOM     63  O   UNL A   1      32.761  33.943  27.985  1.00  0.00    -0.744 OA
ENDBRANCH  59  60
ENDBRANCH  27  52
BRANCH  39  64
ATOM     64  C   UNL A   1      39.993  34.167  37.109  1.00  0.00     0.058 A 
ATOM     65  C   UNL A   1      39.169  33.922  38.219  1.00  0.00     0.135 A 
ATOM     66  C   UNL A   1      40.626  35.418  37.025  1.00  0.00     0.135 A 
ATOM     67  F   UNL A   1      38.533  32.746  38.342  1.00  0.00    -0.206 F 
ATOM     68  C   UNL A   1      38.941  34.897  39.184  1.00  0.00     0.059 A 
ATOM     69  C   UNL A   1      40.441  36.395  37.998  1.00  0.00     0.059 A 
ATOM     70  F   UNL A   1      41.431  35.702  35.990  1.00  0.00    -0.206 F 
ATOM     71  C   UNL A   1      39.580  36.133  39.063  1.00  0.00     0.060 A 
BRANCH  71  72
ATOM     72  S   UNL A   1      39.275  37.390  40.321  1.00  0.00     0.124 S 
ATOM     73  O   UNL A   1      38.456  38.348  39.586  1.00  0.00    -0.237 OA
ATOM     74  O   UNL A   1      38.586  36.630  41.360  1.00  0.00    -0.237 OA
ATOM     75  O   UNL A   1      40.615  37.850  40.674  1.00  0.00    -0.744 OA
ENDBRANCH  71  72
ENDBRANCH  39  64
ENDBRANCH  13  14
ENDBRANCH   6   8
ENDBRANCH   3   4
ENDBRANCH   2   3
ENDBRANCH   1   2
BRANCH   1  76
ATOM     76  C   UNL A   1      39.799  21.395  26.184  1.00  0.00     0.002 C 
BRANCH  76  77
ATOM     77  C   UNL A   1      38.483  22.081  25.799  1.00  0.00     0.021 C 
BRANCH  77  78
ATOM     78  C   UNL A   1      37.446  21.096  25.268  1.00  0.00     0.116 C 
BRANCH  78  79
ATOM     79  N   UNL A   1      36.931  21.541  23.980  1.00  0.00    -0.351 N 
ATOM     80  C   UNL A   1      36.325  22.724  23.662  1.00  0.00     0.281 C 
ATOM     81  H   UNL A   1      37.033  20.903  23.237  1.00  0.00     0.163 HD
ATOM     82  O   UNL A   1      36.899  23.315  22.740  1.00  0.00    -0.268 OA
BRANCH  80  83
ATOM     83  C   UNL A   1      34.932  23.196  24.294  1.00  0.00     0.181 C 
ATOM     84  C   UNL A   1      34.993  23.304  25.836  1.00  0.00     0.079 C 
ATOM     85  C   UNL A   1      34.580  24.618  23.789  1.00  0.00     0.144 C 
ATOM     86  C   UNL A   1      33.692  23.854  26.440  1.00  0.00     0.013 C 
ATOM     87  C   UNL A   1      33.354  25.336  24.377  1.00  0.00     0.190 C 
ATOM     88  C   UNL A   1      33.383  25.253  25.918  1.00  0.00     0.065 C 
BRANCH  83  89
ATOM     89  N   UNL A   1      33.845  22.276  23.864  1.00  0.00    -0.331 N 
ATOM     90  H   UNL A   1      34.084  21.974  22.919  1.00  0.00     0.347 HD
ATOM     91  H   UNL A   1      33.012  22.848  24.007  1.00  0.00     0.347 HD
BRANCH  89  92
ATOM     92  C   UNL A   1      33.512  21.054  24.617  1.00  0.00     0.183 C 
ATOM     93  C   UNL A   1      32.148  20.569  25.031  1.00  0.00     0.071 C 
ATOM     94  C   UNL A   1      32.848  19.906  23.891  1.00  0.00     0.071 C 
ENDBRANCH  89  92
ENDBRANCH  83  89
BRANCH  87  95
ATOM     95  N   UNL A   1      33.161  26.733  23.911  1.00  0.00    -0.331 N 
ATOM     96  C   UNL A   1      32.582  27.688  24.862  1.00  0.00     0.278 C 
ATOM     97  C   UNL A   1      32.759  27.025  22.533  1.00  0.00     0.278 C 
ATOM     98  H   UNL A   1      34.166  26.900  23.873  1.00  0.00     0.348 HD
ATOM     99  C   UNL A   1      31.068  27.756  24.924  1.00  0.00     0.198 C 
ATOM    100  C   UNL A   1      31.281  26.901  22.240  1.00  0.00     0.198 C 
ATOM    101  S   UNL A   1      30.324  27.922  23.328  1.00  0.00     0.161 S 
ATOM    102  O   UNL A   1      29.007  27.324  23.423  1.00  0.00    -0.228 OA
ATOM    103  O   UNL A   1      30.476  29.297  22.894  1.00  0.00    -0.228 OA
ENDBRANCH  87  95
ENDBRANCH  80  83
ENDBRANCH  78  79
ENDBRANCH  77  78
ENDBRANCH  76  77
ENDBRANCH   1  76
TORSDOF 19
ENDMDL
MODEL 2
REMARK VINA RESULT:     -11.2      1.149      2.169
REMARK SMILES O=C(NCCCCCCNC(=O)[C@@]1([NH2+]C2CC2)CCC[C@@H]([NH+]2CCS(=O)(=O)CC2)C1)c1ccc(-c2c3nc(c(-c4c(F)cc(S(=O)(=O)[O-])cc4F)c4ccc([nH]4)c(-c4c(F)cc(S(=O)(=O)[O-])cc4F)c4nc(c(-c5c(F)cc(S(=O)(=O)[O-])cc5F)c5ccc2[nH]5)C=C4)C=C3)cc1
REMARK SMILES IDX 6 1 5 2 4 3 3 4 1 5 2 6 31 8 32 9 96 10 33 11 95 12 34 13
REMARK SMILES IDX 35 14 36 15 89 16 37 17 94 18 88 19 90 20 38 21 93 22 87 23
REMARK SMILES IDX 86 24 39 26 73 27 52 28 72 29 53 30 56 31 71 32 91 33 54 34
REMARK SMILES IDX 55 35 70 37 92 38 57 39 40 40 41 41 50 42 42 43 43 44 49 45
REMARK SMILES IDX 51 46 44 47 45 48 46 49 47 50 48 51 74 52 75 53 84 54 76 55
REMARK SMILES IDX 77 56 83 57 85 58 78 59 79 60 80 61 81 62 82 63 58 64 59 65
REMARK SMILES IDX 68 66 60 67 61 68 67 69 69 70 62 71 63 72 64 73 65 74 66 75
REMARK SMILES IDX 7 76 8 77 9 78 10 79 11 80 12 82 13 83 18 84 30 85 19 86
REMARK SMILES IDX 21 87 20 88 14 89 15 92 16 93 17 94 22 95 23 96 29 97 24 99
REMARK SMILES IDX 28 100 25 101 26 102 27 103
REMARK H PARENT 3 7 90 25 56 36 10 81 14 90 14 91 22 98
REMARK Flexibility Score: inf
ROOT
ATOM      1  C   UNL A   1      38.821  22.462  26.147  1.00  0.00     0.002 C 
ENDROOT
BRANCH   1   2
ATOM      2  C   UNL A   1      40.048  21.991  26.919  1.00  0.00     0.021 C 
BRANCH   2   3
ATOM      3  C   UNL A   1      40.991  23.100  27.346  1.00  0.00     0.116 C 
BRANCH   3   4
ATOM      4  N   UNL A   1      41.400  23.921  26.218  1.00  0.00    -0.352 N 
ATOM      5  O   UNL A   1      41.522  25.814  24.998  1.00  0.00    -0.269 OA
ATOM      6  C   UNL A   1      41.388  25.291  26.100  1.00  0.00     0.251 C 
ATOM      7  H   UNL A   1      41.730  23.428  25.431  1.00  0.00     0.163 HD
BRANCH   6   8
ATOM      8  C   UNL A   1      41.204  26.126  27.310  1.00  0.00     0.039 A 
ATOM      9  C   UNL A   1      42.149  27.099  27.636  1.00  0.00     0.014 A 
ATOM     10  C   UNL A   1      40.080  25.947  28.121  1.00  0.00     0.014 A 
ATOM     11  C   UNL A   1      42.068  27.761  28.851  1.00  0.00     0.010 A 
ATOM     12  C   UNL A   1      39.925  26.724  29.275  1.00  0.00     0.010 A 
ATOM     13  C   UNL A   1      40.926  27.631  29.658  1.00  0.00    -0.014 A 
BRANCH  13  14
ATOM     14  C   UNL A   1      40.771  28.561  30.808  1.00  0.00     0.031 A 
ATOM     15  C   UNL A   1      41.654  28.487  32.022  1.00  0.00     0.074 A 
ATOM     16  C   UNL A   1      39.828  29.522  30.710  1.00  0.00     0.049 A 
ATOM     17  N   UNL A   1      41.642  29.248  33.087  1.00  0.00    -0.248 NA
ATOM     18  C   UNL A   1      42.669  27.423  32.058  1.00  0.00     0.031 C 
ATOM     19  C   UNL A   1      38.892  29.671  29.587  1.00  0.00     0.029 A 
ATOM     20  N   UNL A   1      39.511  30.569  31.535  1.00  0.00    -0.354 N 
ATOM     21  C   UNL A   1      42.639  28.755  33.924  1.00  0.00     0.074 A 
ATOM     22  C   UNL A   1      43.212  27.605  33.256  1.00  0.00     0.031 C 
ATOM     23  C   UNL A   1      38.162  30.779  29.759  1.00  0.00     0.029 A 
ATOM     24  C   UNL A   1      38.502  31.367  31.047  1.00  0.00     0.049 A 
ATOM     25  H   UNL A   1      39.962  30.734  32.394  1.00  0.00     0.167 HD
ATOM     26  C   UNL A   1      43.040  29.231  35.128  1.00  0.00     0.037 A 
ATOM     27  C   UNL A   1      37.888  32.437  31.584  1.00  0.00     0.037 A 
ATOM     28  C   UNL A   1      42.462  30.384  35.775  1.00  0.00     0.049 A 
ATOM     29  C   UNL A   1      38.337  32.917  32.932  1.00  0.00     0.074 A 
ATOM     30  C   UNL A   1      42.808  30.951  36.991  1.00  0.00     0.029 A 
ATOM     31  N   UNL A   1      41.423  31.149  35.264  1.00  0.00    -0.354 N 
ATOM     32  N   UNL A   1      39.296  32.448  33.696  1.00  0.00    -0.248 NA
ATOM     33  C   UNL A   1      37.623  34.069  33.494  1.00  0.00     0.031 C 
ATOM     34  C   UNL A   1      41.947  32.026  37.236  1.00  0.00     0.029 A 
ATOM     35  C   UNL A   1      41.102  32.169  36.147  1.00  0.00     0.049 A 
ATOM     36  H   UNL A   1      40.977  30.991  34.400  1.00  0.00     0.167 HD
ATOM     37  C   UNL A   1      39.306  33.256  34.825  1.00  0.00     0.074 A 
ATOM     38  C   UNL A   1      38.285  34.265  34.624  1.00  0.00     0.031 C 
ATOM     39  C   UNL A   1      40.081  33.164  35.934  1.00  0.00     0.037 A 
BRANCH  26  40
ATOM     40  C   UNL A   1      44.157  28.512  35.839  1.00  0.00     0.058 A 
ATOM     41  C   UNL A   1      45.500  28.883  35.664  1.00  0.00     0.135 A 
ATOM     42  C   UNL A   1      43.878  27.501  36.775  1.00  0.00     0.135 A 
ATOM     43  F   UNL A   1      45.829  29.833  34.776  1.00  0.00    -0.206 F 
ATOM     44  C   UNL A   1      46.525  28.274  36.385  1.00  0.00     0.059 A 
ATOM     45  C   UNL A   1      44.883  26.897  37.526  1.00  0.00     0.059 A 
ATOM     46  F   UNL A   1      42.612  27.106  36.984  1.00  0.00    -0.206 F 
ATOM     47  C   UNL A   1      46.206  27.287  37.320  1.00  0.00     0.060 A 
BRANCH  47  48
ATOM     48  S   UNL A   1      47.545  26.541  38.276  1.00  0.00     0.124 S 
ATOM     49  O   UNL A   1      46.968  26.517  39.617  1.00  0.00    -0.237 OA
ATOM     50  O   UNL A   1      47.700  25.242  37.631  1.00  0.00    -0.237 OA
ATOM     51  O   UNL A   1      48.656  27.469  38.089  1.00  0.00    -0.744 OA
ENDBRANCH  47  48
ENDBRANCH  26  40
BRANCH  27  52
ATOM     52  C   UNL A   1      36.759  33.087  30.868  1.00  0.00     0.058 A 
ATOM     53  C   UNL A   1      36.979  33.935  29.773  1.00  0.00     0.135 A 
ATOM     54  C   UNL A   1      35.430  32.878  31.274  1.00  0.00     0.135 A 
ATOM     55  F   UNL A   1      38.229  34.166  29.344  1.00  0.00    -0.206 F 
ATOM     56  C   UNL A   1      35.928  34.580  29.129  1.00  0.00     0.059 A 
ATOM     57  C   UNL A   1      34.360  33.480  30.623  1.00  0.00     0.059 A 
ATOM     58  F   UNL A   1      35.160  32.059  32.302  1.00  0.00    -0.206 F 
ATOM     59  C   UNL A   1      34.622  34.348  29.565  1.00  0.00     0.060 A 
BRANCH  59  60
ATOM     60  S   UNL A   1      33.264  35.184  28.720  1.00  0.00     0.124 S 
ATOM     61  O   UNL A   1      33.982  36.160  27.909  1.00  0.00    -0.237 OA
ATOM     62  O   UNL A   1      32.633  34.088  27.992  1.00  0.00    -0.237 OA
ATOM     63  O   UNL A   1      32.474  35.734  29.818  1.00  0.00    -0.744 OA
ENDBRANCH  59  60
ENDBRANCH  27  52
BRANCH  39  64
ATOM     64  C   UNL A   1      39.866  34.207  36.998  1.00  0.00     0.058 A 
ATOM     65  C   UNL A   1      40.397  35.501  36.882  1.00  0.00     0.135 A 
ATOM     66  C   UNL A   1      39.120  33.905  38.150  1.00  0.00     0.135 A 
ATOM     67  F   UNL A   1      41.126  35.838  35.806  1.00  0.00    -0.206 F 
ATOM     68  C   UNL A   1      40.239  36.445  37.890  1.00  0.00     0.059 A 
ATOM     69  C   UNL A   1      38.918  34.846  39.155  1.00  0.00     0.059 A 
ATOM     70  F   UNL A   1      38.582  32.687  38.308  1.00  0.00    -0.206 F 
ATOM     71  C   UNL A   1      39.500  36.106  39.025  1.00  0.00     0.060 A 
BRANCH  71  72
ATOM     72  S   UNL A   1      39.303  37.340  40.327  1.00  0.00     0.124 S 
ATOM     73  O   UNL A   1      40.691  37.679  40.623  1.00  0.00    -0.237 OA
ATOM     74  O   UNL A   1      38.525  38.378  39.659  1.00  0.00    -0.237 OA
ATOM     75  O   UNL A   1      38.596  36.615  41.379  1.00  0.00    -0.744 OA
ENDBRANCH  71  72
ENDBRANCH  39  64
ENDBRANCH  13  14
ENDBRANCH   6   8
ENDBRANCH   3   4
ENDBRANCH   2   3
ENDBRANCH   1   2
BRANCH   1  76
ATOM     76  C   UNL A   1      38.143  21.391  25.278  1.00  0.00     0.002 C 
BRANCH  76  77
ATOM     77  C   UNL A   1      36.611  21.384  25.338  1.00  0.00     0.021 C 
BRANCH  77  78
ATOM     78  C   UNL A   1      36.029  22.782  25.531  1.00  0.00     0.116 C 
BRANCH  78  79
ATOM     79  N   UNL A   1      35.201  22.830  26.728  1.00  0.00    -0.351 N 
ATOM     80  C   UNL A   1      33.984  22.251  26.951  1.00  0.00     0.281 C 
ATOM     81  H   UNL A   1      35.568  23.351  27.478  1.00  0.00     0.163 HD
ATOM     82  O   UNL A   1      33.986  21.519  27.947  1.00  0.00    -0.268 OA
BRANCH  80  83
ATOM     83  C   UNL A   1      32.667  22.624  26.121  1.00  0.00     0.181 C 
ATOM     84  C   UNL A   1      31.610  23.345  26.990  1.00  0.00     0.079 C 
ATOM     85  C   UNL A   1      33.025  23.619  24.987  1.00  0.00     0.144 C 
ATOM     86  C   UNL A   1      30.388  23.797  26.177  1.00  0.00     0.013 C 
ATOM     87  C   UNL A   1      31.891  24.230  24.147  1.00  0.00     0.190 C 
ATOM     88  C   UNL A   1      30.782  24.774  25.073  1.00  0.00     0.065 C 
BRANCH  83  89
ATOM     89  N   UNL A   1      32.101  21.400  25.494  1.00  0.00    -0.331 N 
ATOM     90  H   UNL A   1      31.240  21.690  25.029  1.00  0.00     0.347 HD
ATOM     91  H   UNL A   1      32.046  20.760  26.287  1.00  0.00     0.347 HD
BRANCH  89  92
ATOM     92  C   UNL A   1      32.855  20.606  24.509  1.00  0.00     0.183 C 
ATOM     93  C   UNL A   1      32.536  19.227  23.997  1.00  0.00     0.071 C 
ATOM     94  C   UNL A   1      32.273  20.411  23.127  1.00  0.00     0.071 C 
ENDBRANCH  89  92
ENDBRANCH  83  89
BRANCH  87  95
ATOM     95  N   UNL A   1      32.323  25.251  23.159  1.00  0.00    -0.331 N 
ATOM     96  C   UNL A   1      33.547  26.003  23.455  1.00  0.00     0.278 C 
ATOM     97  C   UNL A   1      31.345  26.066  22.432  1.00  0.00     0.278 C 
ATOM     98  H   UNL A   1      32.553  24.539  22.466  1.00  0.00     0.348 HD
ATOM     99  C   UNL A   1      33.393  27.247  24.309  1.00  0.00     0.198 C 
ATOM    100  C   UNL A   1      30.803  27.262  23.181  1.00  0.00     0.198 C 
ATOM    101  S   UNL A   1      32.113  28.322  23.730  1.00  0.00     0.161 S 
ATOM    102  O   UNL A   1      31.622  29.040  24.889  1.00  0.00    -0.228 OA
ATOM    103  O   UNL A   1      32.612  29.046  22.576  1.00  0.00    -0.228 OA
ENDBRANCH  87  95
ENDBRANCH  80  83
ENDBRANCH  78  79
ENDBRANCH  77  78
ENDBRANCH  76  77
ENDBRANCH   1  76
TORSDOF 19
ENDMDL
MODEL 3
REMARK VINA RESULT:     -11.1      1.703      3.206
REMARK SMILES O=C(NCCCCCCNC(=O)[C@@]1([NH2+]C2CC2)CCC[C@@H]([NH+]2CCS(=O)(=O)CC2)C1)c1ccc(-c2c3nc(c(-c4c(F)cc(S(=O)(=O)[O-])cc4F)c4ccc([nH]4)c(-c4c(F)cc(S(=O)(=O)[O-])cc4F)c4nc(c(-c5c(F)cc(S(=O)(=O)[O-])cc5F)c5ccc2[nH]5)C=C4)C=C3)cc1
REMARK SMILES IDX 6 1 5 2 4 3 3 4 1 5 2 6 31 8 32 9 96 10 33 11 95 12 34 13
REMARK SMILES IDX 35 14 36 15 89 16 37 17 94 18 88 19 90 20 38 21 93 22 87 23
REMARK SMILES IDX 86 24 39 26 73 27 52 28 72 29 53 30 56 31 71 32 91 33 54 34
REMARK SMILES IDX 55 35 70 37 92 38 57 39 40 40 41 41 50 42 42 43 43 44 49 45
REMARK SMILES IDX 51 46 44 47 45 48 46 49 47 50 48 51 74 52 75 53 84 54 76 55
REMARK SMILES IDX 77 56 83 57 85 58 78 59 79 60 80 61 81 62 82 63 58 64 59 65
REMARK SMILES IDX 68 66 60 67 61 68 67 69 69 70 62 71 63 72 64 73 65 74 66 75
REMARK SMILES IDX 7 76 8 77 9 78 10 79 11 80 12 82 13 83 18 84 30 85 19 86
REMARK SMILES IDX 21 87 20 88 14 89 15 92 16 93 17 94 22 95 23 96 29 97 24 99
REMARK SMILES IDX 28 100 25 101 26 102 27 103
REMARK H PARENT 3 7 90 25 56 36 10 81 14 90 14 91 22 98
REMARK Flexibility Score: inf
ROOT
ATOM      1  C   UNL A   1      36.705  23.401  24.698  1.00  0.00     0.002 C 
ENDROOT
BRANCH   1   2
ATOM      2  C   UNL A   1      37.387  23.219  26.049  1.00  0.00     0.021 C 
BRANCH   2   3
ATOM      3  C   UNL A   1      38.308  24.355  26.452  1.00  0.00     0.116 C 
BRANCH   3   4
ATOM      4  N   UNL A   1      39.694  24.066  26.120  1.00  0.00    -0.352 N 
ATOM      5  O   UNL A   1      41.891  24.530  25.911  1.00  0.00    -0.269 OA
ATOM      6  C   UNL A   1      40.828  24.755  26.482  1.00  0.00     0.251 C 
ATOM      7  H   UNL A   1      39.839  23.269  25.560  1.00  0.00     0.163 HD
BRANCH   6   8
ATOM      8  C   UNL A   1      40.753  25.773  27.554  1.00  0.00     0.039 A 
ATOM      9  C   UNL A   1      39.814  25.639  28.578  1.00  0.00     0.014 A 
ATOM     10  C   UNL A   1      41.625  26.864  27.549  1.00  0.00     0.014 A 
ATOM     11  C   UNL A   1      39.628  26.671  29.484  1.00  0.00     0.010 A 
ATOM     12  C   UNL A   1      41.531  27.835  28.554  1.00  0.00     0.010 A 
ATOM     13  C   UNL A   1      40.521  27.753  29.525  1.00  0.00    -0.014 A 
BRANCH  13  14
ATOM     14  C   UNL A   1      40.438  28.688  30.679  1.00  0.00     0.031 A 
ATOM     15  C   UNL A   1      41.367  28.589  31.857  1.00  0.00     0.074 A 
ATOM     16  C   UNL A   1      39.519  29.675  30.617  1.00  0.00     0.049 A 
ATOM     17  N   UNL A   1      41.420  29.350  32.920  1.00  0.00    -0.248 NA
ATOM     18  C   UNL A   1      42.352  27.497  31.854  1.00  0.00     0.031 C 
ATOM     19  C   UNL A   1      38.544  29.850  29.533  1.00  0.00     0.029 A 
ATOM     20  N   UNL A   1      39.266  30.731  31.453  1.00  0.00    -0.354 N 
ATOM     21  C   UNL A   1      42.434  28.830  33.717  1.00  0.00     0.074 A 
ATOM     22  C   UNL A   1      42.948  27.664  33.029  1.00  0.00     0.031 C 
ATOM     23  C   UNL A   1      37.854  30.978  29.732  1.00  0.00     0.029 A 
ATOM     24  C   UNL A   1      38.261  31.557  31.004  1.00  0.00     0.049 A 
ATOM     25  H   UNL A   1      39.755  30.884  32.293  1.00  0.00     0.167 HD
ATOM     26  C   UNL A   1      42.897  29.295  34.903  1.00  0.00     0.037 A 
ATOM     27  C   UNL A   1      37.700  32.644  31.564  1.00  0.00     0.037 A 
ATOM     28  C   UNL A   1      42.378  30.465  35.572  1.00  0.00     0.049 A 
ATOM     29  C   UNL A   1      38.216  33.112  32.892  1.00  0.00     0.074 A 
ATOM     30  C   UNL A   1      42.789  31.022  36.771  1.00  0.00     0.029 A 
ATOM     31  N   UNL A   1      41.341  31.258  35.101  1.00  0.00    -0.354 N 
ATOM     32  N   UNL A   1      39.191  32.616  33.618  1.00  0.00    -0.248 NA
ATOM     33  C   UNL A   1      37.558  34.284  33.480  1.00  0.00     0.031 C 
ATOM     34  C   UNL A   1      41.969  32.121  37.049  1.00  0.00     0.029 A 
ATOM     35  C   UNL A   1      41.085  32.287  35.995  1.00  0.00     0.049 A 
ATOM     36  H   UNL A   1      40.857  31.112  34.256  1.00  0.00     0.167 HD
ATOM     37  C   UNL A   1      39.269  33.424  34.744  1.00  0.00     0.074 A 
ATOM     38  C   UNL A   1      38.270  34.462  34.583  1.00  0.00     0.031 C 
ATOM     39  C   UNL A   1      40.085  33.311  35.821  1.00  0.00     0.037 A 
BRANCH  26  40
ATOM     40  C   UNL A   1      44.021  28.545  35.570  1.00  0.00     0.058 A 
ATOM     41  C   UNL A   1      45.366  28.863  35.324  1.00  0.00     0.135 A 
ATOM     42  C   UNL A   1      43.752  27.558  36.535  1.00  0.00     0.135 A 
ATOM     43  F   UNL A   1      45.686  29.788  34.406  1.00  0.00    -0.206 F 
ATOM     44  C   UNL A   1      46.402  28.226  36.004  1.00  0.00     0.059 A 
ATOM     45  C   UNL A   1      44.770  26.928  37.245  1.00  0.00     0.059 A 
ATOM     46  F   UNL A   1      42.484  27.213  36.811  1.00  0.00    -0.206 F 
ATOM     47  C   UNL A   1      46.094  27.265  36.968  1.00  0.00     0.060 A 
BRANCH  47  48
ATOM     48  S   UNL A   1      47.451  26.484  37.870  1.00  0.00     0.124 S 
ATOM     49  O   UNL A   1      46.741  25.856  38.980  1.00  0.00    -0.237 OA
ATOM     50  O   UNL A   1      48.001  25.571  36.872  1.00  0.00    -0.237 OA
ATOM     51  O   UNL A   1      48.312  27.606  38.231  1.00  0.00    -0.744 OA
ENDBRANCH  47  48
ENDBRANCH  26  40
BRANCH  27  52
ATOM     52  C   UNL A   1      36.562  33.326  30.893  1.00  0.00     0.058 A 
ATOM     53  C   UNL A   1      36.762  34.166  29.788  1.00  0.00     0.135 A 
ATOM     54  C   UNL A   1      35.245  33.154  31.351  1.00  0.00     0.135 A 
ATOM     55  F   UNL A   1      37.999  34.362  29.309  1.00  0.00    -0.206 F 
ATOM     56  C   UNL A   1      35.704  34.841  29.186  1.00  0.00     0.059 A 
ATOM     57  C   UNL A   1      34.167  33.786  30.743  1.00  0.00     0.059 A 
ATOM     58  F   UNL A   1      34.993  32.343  32.391  1.00  0.00    -0.206 F 
ATOM     59  C   UNL A   1      34.411  34.646  29.674  1.00  0.00     0.060 A 
BRANCH  59  60
ATOM     60  S   UNL A   1      33.044  35.520  28.884  1.00  0.00     0.124 S 
ATOM     61  O   UNL A   1      32.322  36.036  30.041  1.00  0.00    -0.237 OA
ATOM     62  O   UNL A   1      33.741  36.510  28.070  1.00  0.00    -0.237 OA
ATOM     63  O   UNL A   1      32.363  34.469  28.132  1.00  0.00    -0.744 OA
ENDBRANCH  59  60
ENDBRANCH  27  52
BRANCH  39  64
ATOM     64  C   UNL A   1      39.942  34.359  36.891  1.00  0.00     0.058 A 
ATOM     65  C   UNL A   1      40.657  35.567  36.842  1.00  0.00     0.135 A 
ATOM     66  C   UNL A   1      39.082  34.151  37.982  1.00  0.00     0.135 A 
ATOM     67  F   UNL A   1      41.500  35.812  35.826  1.00  0.00    -0.206 F 
ATOM     68  C   UNL A   1      40.560  36.510  37.858  1.00  0.00     0.059 A 
ATOM     69  C   UNL A   1      38.942  35.098  38.992  1.00  0.00     0.059 A 
ATOM     70  F   UNL A   1      38.368  33.019  38.075  1.00  0.00    -0.206 F 
ATOM     71  C   UNL A   1      39.701  36.265  38.931  1.00  0.00     0.060 A 
BRANCH  71  72
ATOM     72  S   UNL A   1      39.587  37.498  40.245  1.00  0.00     0.124 S 
ATOM     73  O   UNL A   1      38.261  38.060  40.004  1.00  0.00    -0.237 OA
ATOM     74  O   UNL A   1      39.722  36.685  41.449  1.00  0.00    -0.237 OA
ATOM     75  O   UNL A   1      40.707  38.392  39.970  1.00  0.00    -0.744 OA
ENDBRANCH  71  72
ENDBRANCH  39  64
ENDBRANCH  13  14
ENDBRANCH   6   8
ENDBRANCH   3   4
ENDBRANCH   2   3
ENDBRANCH   1   2
BRANCH   1  76
ATOM     76  C   UNL A   1      35.382  24.183  24.733  1.00  0.00     0.002 C 
BRANCH  76  77
ATOM     77  C   UNL A   1      34.507  23.915  25.964  1.00  0.00     0.021 C 
BRANCH  77  78
ATOM     78  C   UNL A   1      33.100  23.458  25.591  1.00  0.00     0.116 C 
BRANCH  78  79
ATOM     79  N   UNL A   1      32.101  24.214  26.334  1.00  0.00    -0.351 N 
ATOM     80  C   UNL A   1      30.849  24.596  25.942  1.00  0.00     0.281 C 
ATOM     81  H   UNL A   1      32.364  24.486  27.243  1.00  0.00     0.163 HD
ATOM     82  O   UNL A   1      29.971  24.201  26.717  1.00  0.00    -0.268 OA
BRANCH  80  83
ATOM     83  C   UNL A   1      30.578  25.592  24.719  1.00  0.00     0.181 C 
ATOM     84  C   UNL A   1      29.097  26.031  24.637  1.00  0.00     0.079 C 
ATOM     85  C   UNL A   1      31.391  26.897  24.913  1.00  0.00     0.144 C 
ATOM     86  C   UNL A   1      28.849  27.066  23.530  1.00  0.00     0.013 C 
ATOM     87  C   UNL A   1      31.176  28.062  23.932  1.00  0.00     0.190 C 
ATOM     88  C   UNL A   1      29.666  28.334  23.758  1.00  0.00     0.065 C 
BRANCH  83  89
ATOM     89  N   UNL A   1      31.020  24.962  23.446  1.00  0.00    -0.331 N 
ATOM     90  H   UNL A   1      30.305  25.186  22.754  1.00  0.00     0.347 HD
ATOM     91  H   UNL A   1      31.155  23.990  23.724  1.00  0.00     0.347 HD
BRANCH  89  92
ATOM     92  C   UNL A   1      32.314  25.287  22.821  1.00  0.00     0.183 C 
ATOM     93  C   UNL A   1      33.083  24.472  21.816  1.00  0.00     0.071 C 
ATOM     94  C   UNL A   1      32.343  25.686  21.364  1.00  0.00     0.071 C 
ENDBRANCH  89  92
ENDBRANCH  83  89
BRANCH  87  95
ATOM     95  N   UNL A   1      31.918  29.305  24.261  1.00  0.00    -0.331 N 
ATOM     96  C   UNL A   1      33.382  29.260  24.182  1.00  0.00     0.278 C 
ATOM     97  C   UNL A   1      31.458  30.207  25.322  1.00  0.00     0.278 C 
ATOM     98  H   UNL A   1      31.575  29.778  23.426  1.00  0.00     0.348 HD
ATOM     99  C   UNL A   1      34.117  28.782  25.420  1.00  0.00     0.198 C 
ATOM    100  C   UNL A   1      31.835  29.808  26.730  1.00  0.00     0.198 C 
ATOM    101  S   UNL A   1      33.588  29.607  26.892  1.00  0.00     0.161 S 
ATOM    102  O   UNL A   1      33.811  28.682  27.986  1.00  0.00    -0.228 OA
ATOM    103  O   UNL A   1      34.186  30.928  26.915  1.00  0.00    -0.228 OA
ENDBRANCH  87  95
ENDBRANCH  80  83
ENDBRANCH  78  79
ENDBRANCH  77  78
ENDBRANCH  76  77
ENDBRANCH   1  76
TORSDOF 19
ENDMDL
