MODEL 1
REMARK VINA RESULT:     -11.2      0.000      0.000
REMARK SMILES COc1ncccc1C[C@H](C(=O)NCCCCCCNC(=O)c1ccc(-c2c3nc(c(-c4c(F)cc(S(=O)(=O)[O-])cc4F)c4ccc([nH]4)c(-c4c(F)cc(S(=O)(=O)[O-])cc4F)c4nc(c(-c5c(F)cc(S(=O)(=O)[O-])cc5F)c5ccc2[nH]5)C=C4)C=C3)cc1)c1ccc(F)cc1
REMARK SMILES IDX 16 1 15 2 14 3 13 4 11 5 12 6 10 8 9 9 8 10 3 11 4 12 5 13
REMARK SMILES IDX 7 14 6 15 2 16 1 17 89 18 90 19 95 20 91 21 94 22 92 23
REMARK SMILES IDX 93 24 17 25 18 26 19 27 20 28 21 29 22 31 23 32 24 33 88 34
REMARK SMILES IDX 25 35 87 36 26 37 27 38 28 39 81 40 29 41 86 42 80 43 82 44
REMARK SMILES IDX 30 45 85 46 79 47 78 48 31 50 65 51 44 52 64 53 45 54 48 55
REMARK SMILES IDX 63 56 83 57 46 58 47 59 62 61 84 62 49 63 32 64 33 65 42 66
REMARK SMILES IDX 34 67 35 68 41 69 43 70 36 71 37 72 38 73 39 74 40 75 66 76
REMARK SMILES IDX 67 77 76 78 68 79 69 80 75 81 77 82 70 83 71 84 72 85 73 86
REMARK SMILES IDX 74 87 50 88 51 89 60 90 52 91 53 92 59 93 61 94 54 95 55 96
REMARK SMILES IDX 56 97 57 98 58 99
REMARK H PARENT 13 7 20 30 82 49 48 60
REMARK Flexibility Score: inf
ROOT
ATOM      1  C   UNL A   1      37.318  21.406  24.633  1.00  0.00     0.002 C 
ENDROOT
BRANCH   1   2
ATOM      2  C   UNL A   1      36.892  22.508  23.650  1.00  0.00     0.021 C 
BRANCH   2   3
ATOM      3  C   UNL A   1      35.765  23.387  24.202  1.00  0.00     0.116 C 
BRANCH   3   4
ATOM      4  N   UNL A   1      34.712  23.463  23.212  1.00  0.00    -0.356 N 
ATOM      5  C   UNL A   1      33.564  22.760  23.037  1.00  0.00     0.227 C 
ATOM      6  O   UNL A   1      33.057  22.867  21.910  1.00  0.00    -0.274 OA
ATOM      7  H   UNL A   1      34.857  24.162  22.533  1.00  0.00     0.163 HD
BRANCH   5   8
ATOM      8  C   UNL A   1      32.785  22.023  24.152  1.00  0.00     0.113 C 
BRANCH   8   9
ATOM      9  C   UNL A   1      31.331  22.453  24.466  1.00  0.00     0.059 C 
BRANCH   9  10
ATOM     10  C   UNL A   1      31.058  23.906  24.813  1.00  0.00     0.015 A 
ATOM     11  C   UNL A   1      30.825  24.362  26.110  1.00  0.00     0.216 A 
ATOM     12  N   UNL A   1      30.395  25.605  26.425  1.00  0.00    -0.222 NA
ATOM     13  C   UNL A   1      30.203  26.461  25.402  1.00  0.00     0.115 A 
ATOM     14  C   UNL A   1      30.882  24.848  23.788  1.00  0.00     0.011 A 
ATOM     15  C   UNL A   1      30.449  26.139  24.081  1.00  0.00     0.021 A 
BRANCH  11  16
ATOM     16  O   UNL A   1      30.892  23.477  27.150  1.00  0.00    -0.481 OA
ATOM     17  C   UNL A   1      29.689  22.722  27.264  1.00  0.00     0.280 C 
ENDBRANCH  11  16
ENDBRANCH   9  10
ENDBRANCH   8   9
BRANCH   8  18
ATOM     18  C   UNL A   1      32.971  20.490  24.046  1.00  0.00    -0.035 A 
ATOM     19  C   UNL A   1      34.040  19.871  24.722  1.00  0.00     0.007 A 
ATOM     20  C   UNL A   1      32.176  19.677  23.217  1.00  0.00     0.007 A 
ATOM     21  C   UNL A   1      34.341  18.519  24.542  1.00  0.00     0.039 A 
ATOM     22  C   UNL A   1      32.473  18.319  23.038  1.00  0.00     0.039 A 
ATOM     23  C   UNL A   1      33.560  17.757  23.692  1.00  0.00     0.123 A 
ATOM     24  F   UNL A   1      33.864  16.468  23.491  1.00  0.00    -0.207 F 
ENDBRANCH   8  18
ENDBRANCH   5   8
ENDBRANCH   3   4
ENDBRANCH   2   3
ENDBRANCH   1   2
BRANCH   1  25
ATOM     25  C   UNL A   1      37.900  21.923  25.953  1.00  0.00     0.002 C 
BRANCH  25  26
ATOM     26  C   UNL A   1      39.234  21.286  26.352  1.00  0.00     0.021 C 
BRANCH  26  27
ATOM     27  C   UNL A   1      39.740  20.244  25.360  1.00  0.00     0.116 C 
BRANCH  27  28
ATOM     28  N   UNL A   1      40.672  19.327  25.996  1.00  0.00    -0.352 N 
ATOM     29  C   UNL A   1      41.941  19.575  26.458  1.00  0.00     0.251 C 
ATOM     30  H   UNL A   1      40.350  18.404  26.110  1.00  0.00     0.163 HD
ATOM     31  O   UNL A   1      42.703  18.645  26.694  1.00  0.00    -0.269 OA
BRANCH  29  32
ATOM     32  C   UNL A   1      42.375  20.972  26.669  1.00  0.00     0.039 A 
ATOM     33  C   UNL A   1      42.431  21.480  27.968  1.00  0.00     0.014 A 
ATOM     34  C   UNL A   1      42.707  21.781  25.578  1.00  0.00     0.014 A 
ATOM     35  C   UNL A   1      42.862  22.791  28.176  1.00  0.00     0.010 A 
ATOM     36  C   UNL A   1      43.201  23.063  25.792  1.00  0.00     0.010 A 
ATOM     37  C   UNL A   1      43.272  23.585  27.092  1.00  0.00    -0.014 A 
BRANCH  37  38
ATOM     38  C   UNL A   1      43.764  24.971  27.295  1.00  0.00     0.031 A 
ATOM     39  C   UNL A   1      45.217  25.292  27.069  1.00  0.00     0.074 A 
ATOM     40  C   UNL A   1      42.917  25.919  27.739  1.00  0.00     0.049 A 
ATOM     41  N   UNL A   1      45.852  26.419  27.262  1.00  0.00    -0.248 NA
ATOM     42  C   UNL A   1      46.073  24.195  26.590  1.00  0.00     0.031 C 
ATOM     43  C   UNL A   1      41.498  25.713  28.038  1.00  0.00     0.029 A 
ATOM     44  N   UNL A   1      43.127  27.243  28.029  1.00  0.00    -0.354 N 
ATOM     45  C   UNL A   1      47.179  26.165  26.939  1.00  0.00     0.074 A 
ATOM     46  C   UNL A   1      47.269  24.765  26.592  1.00  0.00     0.031 C 
ATOM     47  C   UNL A   1      40.962  26.873  28.450  1.00  0.00     0.029 A 
ATOM     48  C   UNL A   1      42.004  27.895  28.479  1.00  0.00     0.049 A 
ATOM     49  H   UNL A   1      44.001  27.685  27.924  1.00  0.00     0.167 HD
ATOM     50  C   UNL A   1      48.223  27.028  26.908  1.00  0.00     0.037 A 
ATOM     51  C   UNL A   1      41.835  29.171  28.875  1.00  0.00     0.037 A 
ATOM     52  C   UNL A   1      48.118  28.428  27.231  1.00  0.00     0.049 A 
ATOM     53  C   UNL A   1      43.008  30.111  28.832  1.00  0.00     0.074 A 
ATOM     54  C   UNL A   1      49.104  29.398  27.186  1.00  0.00     0.029 A 
ATOM     55  N   UNL A   1      46.957  29.057  27.658  1.00  0.00    -0.354 N 
ATOM     56  N   UNL A   1      44.246  29.868  28.472  1.00  0.00    -0.248 NA
ATOM     57  C   UNL A   1      42.762  31.501  29.241  1.00  0.00     0.031 C 
ATOM     58  C   UNL A   1      48.549  30.605  27.623  1.00  0.00     0.029 A 
ATOM     59  C   UNL A   1      47.206  30.399  27.895  1.00  0.00     0.049 A 
ATOM     60  H   UNL A   1      46.086  28.615  27.775  1.00  0.00     0.167 HD
ATOM     61  C   UNL A   1      44.919  31.079  28.585  1.00  0.00     0.074 A 
ATOM     62  C   UNL A   1      43.949  32.056  29.035  1.00  0.00     0.031 C 
ATOM     63  C   UNL A   1      46.224  31.358  28.337  1.00  0.00     0.037 A 
BRANCH  50  64
ATOM     64  C   UNL A   1      49.566  26.485  26.503  1.00  0.00     0.058 A 
ATOM     65  C   UNL A   1      50.015  26.551  25.174  1.00  0.00     0.135 A 
ATOM     66  C   UNL A   1      50.426  25.918  27.457  1.00  0.00     0.135 A 
ATOM     67  F   UNL A   1      49.226  27.067  24.218  1.00  0.00    -0.206 F 
ATOM     68  C   UNL A   1      51.256  26.047  24.799  1.00  0.00     0.059 A 
ATOM     69  C   UNL A   1      51.685  25.433  27.109  1.00  0.00     0.059 A 
ATOM     70  F   UNL A   1      50.048  25.828  28.742  1.00  0.00    -0.206 F 
ATOM     71  C   UNL A   1      52.084  25.489  25.774  1.00  0.00     0.060 A 
BRANCH  71  72
ATOM     72  S   UNL A   1      53.692  24.841  25.272  1.00  0.00     0.124 S 
ATOM     73  O   UNL A   1      53.953  25.616  24.064  1.00  0.00    -0.237 OA
ATOM     74  O   UNL A   1      54.530  25.161  26.423  1.00  0.00    -0.237 OA
ATOM     75  O   UNL A   1      53.436  23.420  25.063  1.00  0.00    -0.744 OA
ENDBRANCH  71  72
ENDBRANCH  50  64
BRANCH  51  76
ATOM     76  C   UNL A   1      40.496  29.636  29.325  1.00  0.00     0.058 A 
ATOM     77  C   UNL A   1      40.233  29.871  30.683  1.00  0.00     0.135 A 
ATOM     78  C   UNL A   1      39.460  29.871  28.408  1.00  0.00     0.135 A 
ATOM     79  F   UNL A   1      41.192  29.656  31.598  1.00  0.00    -0.206 F 
ATOM     80  C   UNL A   1      38.988  30.310  31.120  1.00  0.00     0.059 A 
ATOM     81  C   UNL A   1      38.213  30.333  28.818  1.00  0.00     0.059 A 
ATOM     82  F   UNL A   1      39.666  29.680  27.097  1.00  0.00    -0.206 F 
ATOM     83  C   UNL A   1      37.984  30.540  30.178  1.00  0.00     0.060 A 
BRANCH  83  84
ATOM     84  S   UNL A   1      36.386  31.158  30.749  1.00  0.00     0.124 S 
ATOM     85  O   UNL A   1      36.732  32.506  31.187  1.00  0.00    -0.237 OA
ATOM     86  O   UNL A   1      35.572  31.068  29.540  1.00  0.00    -0.237 OA
ATOM     87  O   UNL A   1      36.024  30.222  31.808  1.00  0.00    -0.744 OA
ENDBRANCH  83  84
ENDBRANCH  51  76
BRANCH  63  88
ATOM     88  C   UNL A   1      46.671  32.781  28.515  1.00  0.00     0.058 A 
ATOM     89  C   UNL A   1      47.229  33.233  29.721  1.00  0.00     0.135 A 
ATOM     90  C   UNL A   1      46.591  33.690  27.448  1.00  0.00     0.135 A 
ATOM     91  F   UNL A   1      47.323  32.406  30.775  1.00  0.00    -0.206 F 
ATOM     92  C   UNL A   1      47.670  34.544  29.871  1.00  0.00     0.059 A 
ATOM     93  C   UNL A   1      47.051  34.998  27.566  1.00  0.00     0.059 A 
ATOM     94  F   UNL A   1      46.075  33.305  26.270  1.00  0.00    -0.206 F 
ATOM     95  C   UNL A   1      47.578  35.419  28.786  1.00  0.00     0.060 A 
BRANCH  95  96
ATOM     96  S   UNL A   1      48.187  37.107  28.981  1.00  0.00     0.124 S 
ATOM     97  O   UNL A   1      47.870  37.373  30.379  1.00  0.00    -0.237 OA
ATOM     98  O   UNL A   1      49.607  36.965  28.668  1.00  0.00    -0.237 OA
ATOM     99  O   UNL A   1      47.410  37.864  28.004  1.00  0.00    -0.744 OA
ENDBRANCH  95  96
ENDBRANCH  63  88
ENDBRANCH  37  38
ENDBRANCH  29  32
ENDBRANCH  27  28
ENDBRANCH  26  27
ENDBRANCH  25  26
ENDBRANCH   1  25
TORSDOF 20
ENDMDL
MODEL 2
REMARK VINA RESULT:     -11.2      6.636     12.201
REMARK SMILES COc1ncccc1C[C@H](C(=O)NCCCCCCNC(=O)c1ccc(-c2c3nc(c(-c4c(F)cc(S(=O)(=O)[O-])cc4F)c4ccc([nH]4)c(-c4c(F)cc(S(=O)(=O)[O-])cc4F)c4nc(c(-c5c(F)cc(S(=O)(=O)[O-])cc5F)c5ccc2[nH]5)C=C4)C=C3)cc1)c1ccc(F)cc1
REMARK SMILES IDX 16 1 15 2 14 3 13 4 11 5 12 6 10 8 9 9 8 10 3 11 4 12 5 13
REMARK SMILES IDX 7 14 6 15 2 16 1 17 89 18 90 19 95 20 91 21 94 22 92 23
REMARK SMILES IDX 93 24 17 25 18 26 19 27 20 28 21 29 22 31 23 32 24 33 88 34
REMARK SMILES IDX 25 35 87 36 26 37 27 38 28 39 81 40 29 41 86 42 80 43 82 44
REMARK SMILES IDX 30 45 85 46 79 47 78 48 31 50 65 51 44 52 64 53 45 54 48 55
REMARK SMILES IDX 63 56 83 57 46 58 47 59 62 61 84 62 49 63 32 64 33 65 42 66
REMARK SMILES IDX 34 67 35 68 41 69 43 70 36 71 37 72 38 73 39 74 40 75 66 76
REMARK SMILES IDX 67 77 76 78 68 79 69 80 75 81 77 82 70 83 71 84 72 85 73 86
REMARK SMILES IDX 74 87 50 88 51 89 60 90 52 91 53 92 59 93 61 94 54 95 55 96
REMARK SMILES IDX 56 97 57 98 58 99
REMARK H PARENT 13 7 20 30 82 49 48 60
REMARK Flexibility Score: inf
ROOT
ATOM      1  C   UNL A   1      35.110  31.084  28.637  1.00  0.00     0.002 C 
ENDROOT
BRANCH   1   2
ATOM      2  C   UNL A   1      35.477  29.733  28.004  1.00  0.00     0.021 C 
BRANCH   2   3
ATOM      3  C   UNL A   1      34.472  29.291  26.933  1.00  0.00     0.116 C 
BRANCH   3   4
ATOM      4  N   UNL A   1      33.360  28.635  27.587  1.00  0.00    -0.356 N 
ATOM      5  C   UNL A   1      32.289  27.950  27.110  1.00  0.00     0.227 C 
ATOM      6  O   UNL A   1      31.365  27.801  27.924  1.00  0.00    -0.274 OA
ATOM      7  H   UNL A   1      33.386  28.696  28.570  1.00  0.00     0.163 HD
BRANCH   5   8
ATOM      8  C   UNL A   1      32.226  27.219  25.748  1.00  0.00     0.113 C 
BRANCH   8   9
ATOM      9  C   UNL A   1      32.353  25.676  25.716  1.00  0.00     0.059 C 
BRANCH   9  10
ATOM     10  C   UNL A   1      33.565  25.057  25.043  1.00  0.00     0.015 A 
ATOM     11  C   UNL A   1      33.650  24.812  23.673  1.00  0.00     0.216 A 
ATOM     12  N   UNL A   1      34.630  24.094  23.078  1.00  0.00    -0.222 NA
ATOM     13  C   UNL A   1      35.599  23.605  23.877  1.00  0.00     0.115 A 
ATOM     14  C   UNL A   1      34.619  24.560  25.825  1.00  0.00     0.011 A 
ATOM     15  C   UNL A   1      35.648  23.825  25.239  1.00  0.00     0.021 A 
BRANCH  11  16
ATOM     16  O   UNL A   1      32.616  25.190  22.863  1.00  0.00    -0.481 OA
ATOM     17  C   UNL A   1      32.995  26.267  22.011  1.00  0.00     0.280 C 
ENDBRANCH  11  16
ENDBRANCH   9  10
ENDBRANCH   8   9
BRANCH   8  18
ATOM     18  C   UNL A   1      31.076  27.768  24.870  1.00  0.00    -0.035 A 
ATOM     19  C   UNL A   1      30.072  26.891  24.413  1.00  0.00     0.007 A 
ATOM     20  C   UNL A   1      31.027  29.097  24.412  1.00  0.00     0.007 A 
ATOM     21  C   UNL A   1      29.098  27.300  23.500  1.00  0.00     0.039 A 
ATOM     22  C   UNL A   1      30.047  29.512  23.501  1.00  0.00     0.039 A 
ATOM     23  C   UNL A   1      29.100  28.606  23.043  1.00  0.00     0.123 A 
ATOM     24  F   UNL A   1      28.187  28.995  22.144  1.00  0.00    -0.207 F 
ENDBRANCH   8  18
ENDBRANCH   5   8
ENDBRANCH   3   4
ENDBRANCH   2   3
ENDBRANCH   1   2
BRANCH   1  25
ATOM     25  C   UNL A   1      34.602  32.134  27.641  1.00  0.00     0.002 C 
BRANCH  25  26
ATOM     26  C   UNL A   1      33.479  33.027  28.176  1.00  0.00     0.021 C 
BRANCH  26  27
ATOM     27  C   UNL A   1      33.702  34.515  27.923  1.00  0.00     0.116 C 
BRANCH  27  28
ATOM     28  N   UNL A   1      33.005  35.322  28.910  1.00  0.00    -0.352 N 
ATOM     29  C   UNL A   1      33.103  35.278  30.279  1.00  0.00     0.251 C 
ATOM     30  H   UNL A   1      32.379  35.990  28.549  1.00  0.00     0.163 HD
ATOM     31  O   UNL A   1      32.243  35.807  30.975  1.00  0.00    -0.269 OA
BRANCH  29  32
ATOM     32  C   UNL A   1      34.252  34.589  30.903  1.00  0.00     0.039 A 
ATOM     33  C   UNL A   1      34.019  33.620  31.879  1.00  0.00     0.014 A 
ATOM     34  C   UNL A   1      35.559  34.921  30.534  1.00  0.00     0.014 A 
ATOM     35  C   UNL A   1      35.098  32.950  32.456  1.00  0.00     0.010 A 
ATOM     36  C   UNL A   1      36.629  34.205  31.058  1.00  0.00     0.010 A 
ATOM     37  C   UNL A   1      36.410  33.221  32.034  1.00  0.00    -0.014 A 
BRANCH  37  38
ATOM     38  C   UNL A   1      37.571  32.498  32.612  1.00  0.00     0.031 A 
ATOM     39  C   UNL A   1      38.156  32.944  33.924  1.00  0.00     0.074 A 
ATOM     40  C   UNL A   1      38.129  31.482  31.927  1.00  0.00     0.049 A 
ATOM     41  N   UNL A   1      39.208  32.490  34.555  1.00  0.00    -0.248 NA
ATOM     42  C   UNL A   1      37.487  34.066  34.603  1.00  0.00     0.031 C 
ATOM     43  C   UNL A   1      37.677  30.992  30.623  1.00  0.00     0.029 A 
ATOM     44  N   UNL A   1      39.207  30.686  32.224  1.00  0.00    -0.354 N 
ATOM     45  C   UNL A   1      39.333  33.275  35.695  1.00  0.00     0.074 A 
ATOM     46  C   UNL A   1      38.285  34.269  35.642  1.00  0.00     0.031 C 
ATOM     47  C   UNL A   1      38.458  29.968  30.242  1.00  0.00     0.029 A 
ATOM     48  C   UNL A   1      39.487  29.752  31.255  1.00  0.00     0.049 A 
ATOM     49  H   UNL A   1      39.729  30.776  33.053  1.00  0.00     0.167 HD
ATOM     50  C   UNL A   1      40.226  33.160  36.708  1.00  0.00     0.037 A 
ATOM     51  C   UNL A   1      40.466  28.830  31.189  1.00  0.00     0.037 A 
ATOM     52  C   UNL A   1      41.252  32.151  36.764  1.00  0.00     0.049 A 
ATOM     53  C   UNL A   1      41.445  28.720  32.326  1.00  0.00     0.074 A 
ATOM     54  C   UNL A   1      42.176  31.918  37.768  1.00  0.00     0.029 A 
ATOM     55  N   UNL A   1      41.488  31.206  35.776  1.00  0.00    -0.354 N 
ATOM     56  N   UNL A   1      41.516  29.436  33.423  1.00  0.00    -0.248 NA
ATOM     57  C   UNL A   1      42.472  27.675  32.221  1.00  0.00     0.031 C 
ATOM     58  C   UNL A   1      42.996  30.858  37.369  1.00  0.00     0.029 A 
ATOM     59  C   UNL A   1      42.553  30.398  36.139  1.00  0.00     0.049 A 
ATOM     60  H   UNL A   1      40.975  31.122  34.941  1.00  0.00     0.167 HD
ATOM     61  C   UNL A   1      42.577  28.910  34.152  1.00  0.00     0.074 A 
ATOM     62  C   UNL A   1      43.111  27.809  33.376  1.00  0.00     0.031 C 
ATOM     63  C   UNL A   1      43.066  29.301  35.355  1.00  0.00     0.037 A 
BRANCH  50  64
ATOM     64  C   UNL A   1      40.126  34.145  37.841  1.00  0.00     0.058 A 
ATOM     65  C   UNL A   1      40.954  35.277  37.905  1.00  0.00     0.135 A 
ATOM     66  C   UNL A   1      39.173  33.973  38.857  1.00  0.00     0.135 A 
ATOM     67  F   UNL A   1      41.893  35.482  36.969  1.00  0.00    -0.206 F 
ATOM     68  C   UNL A   1      40.862  36.187  38.953  1.00  0.00     0.059 A 
ATOM     69  C   UNL A   1      39.044  34.885  39.901  1.00  0.00     0.059 A 
ATOM     70  F   UNL A   1      38.356  32.907  38.847  1.00  0.00    -0.206 F 
ATOM     71  C   UNL A   1      39.905  35.983  39.948  1.00  0.00     0.060 A 
BRANCH  71  72
ATOM     72  S   UNL A   1      39.798  37.172  41.300  1.00  0.00     0.124 S 
ATOM     73  O   UNL A   1      41.194  37.572  41.446  1.00  0.00    -0.237 OA
ATOM     74  O   UNL A   1      38.903  38.187  40.753  1.00  0.00    -0.237 OA
ATOM     75  O   UNL A   1      39.251  36.388  42.402  1.00  0.00    -0.744 OA
ENDBRANCH  71  72
ENDBRANCH  50  64
BRANCH  51  76
ATOM     76  C   UNL A   1      40.552  27.924  30.013  1.00  0.00     0.058 A 
ATOM     77  C   UNL A   1      41.555  28.091  29.046  1.00  0.00     0.135 A 
ATOM     78  C   UNL A   1      39.649  26.864  29.841  1.00  0.00     0.135 A 
ATOM     79  F   UNL A   1      42.440  29.094  29.165  1.00  0.00    -0.206 F 
ATOM     80  C   UNL A   1      41.652  27.250  27.943  1.00  0.00     0.059 A 
ATOM     81  C   UNL A   1      39.740  25.994  28.758  1.00  0.00     0.059 A 
ATOM     82  F   UNL A   1      38.683  26.650  30.748  1.00  0.00    -0.206 F 
ATOM     83  C   UNL A   1      40.740  26.203  27.809  1.00  0.00     0.060 A 
BRANCH  83  84
ATOM     84  S   UNL A   1      40.904  25.085  26.400  1.00  0.00     0.124 S 
ATOM     85  O   UNL A   1      41.930  24.163  26.875  1.00  0.00    -0.237 OA
ATOM     86  O   UNL A   1      39.556  24.536  26.284  1.00  0.00    -0.237 OA
ATOM     87  O   UNL A   1      41.306  25.973  25.313  1.00  0.00    -0.744 OA
ENDBRANCH  83  84
ENDBRANCH  51  76
BRANCH  63  88
ATOM     88  C   UNL A   1      44.214  28.516  35.923  1.00  0.00     0.058 A 
ATOM     89  C   UNL A   1      45.548  28.890  35.694  1.00  0.00     0.135 A 
ATOM     90  C   UNL A   1      43.975  27.408  36.751  1.00  0.00     0.135 A 
ATOM     91  F   UNL A   1      45.830  29.938  34.904  1.00  0.00    -0.206 F 
ATOM     92  C   UNL A   1      46.606  28.177  36.248  1.00  0.00     0.059 A 
ATOM     93  C   UNL A   1      45.018  26.697  37.338  1.00  0.00     0.059 A 
ATOM     94  F   UNL A   1      42.718  27.016  37.010  1.00  0.00    -0.206 F 
ATOM     95  C   UNL A   1      46.330  27.083  37.070  1.00  0.00     0.060 A 
BRANCH  95  96
ATOM     96  S   UNL A   1      47.712  26.188  37.813  1.00  0.00     0.124 S 
ATOM     97  O   UNL A   1      48.030  25.222  36.768  1.00  0.00    -0.237 OA
ATOM     98  O   UNL A   1      48.696  27.248  38.019  1.00  0.00    -0.237 OA
ATOM     99  O   UNL A   1      47.138  25.629  39.033  1.00  0.00    -0.744 OA
ENDBRANCH  95  96
ENDBRANCH  63  88
ENDBRANCH  37  38
ENDBRANCH  29  32
ENDBRANCH  27  28
ENDBRANCH  26  27
ENDBRANCH  25  26
ENDBRANCH   1  25
TORSDOF 20
ENDMDL
MODEL 3
REMARK VINA RESULT:     -11.1      3.516      5.499
REMARK SMILES COc1ncccc1C[C@H](C(=O)NCCCCCCNC(=O)c1ccc(-c2c3nc(c(-c4c(F)cc(S(=O)(=O)[O-])cc4F)c4ccc([nH]4)c(-c4c(F)cc(S(=O)(=O)[O-])cc4F)c4nc(c(-c5c(F)cc(S(=O)(=O)[O-])cc5F)c5ccc2[nH]5)C=C4)C=C3)cc1)c1ccc(F)cc1
REMARK SMILES IDX 16 1 15 2 14 3 13 4 11 5 12 6 10 8 9 9 8 10 3 11 4 12 5 13
REMARK SMILES IDX 7 14 6 15 2 16 1 17 89 18 90 19 95 20 91 21 94 22 92 23
REMARK SMILES IDX 93 24 17 25 18 26 19 27 20 28 21 29 22 31 23 32 24 33 88 34
REMARK SMILES IDX 25 35 87 36 26 37 27 38 28 39 81 40 29 41 86 42 80 43 82 44
REMARK SMILES IDX 30 45 85 46 79 47 78 48 31 50 65 51 44 52 64 53 45 54 48 55
REMARK SMILES IDX 63 56 83 57 46 58 47 59 62 61 84 62 49 63 32 64 33 65 42 66
REMARK SMILES IDX 34 67 35 68 41 69 43 70 36 71 37 72 38 73 39 74 40 75 66 76
REMARK SMILES IDX 67 77 76 78 68 79 69 80 75 81 77 82 70 83 71 84 72 85 73 86
REMARK SMILES IDX 74 87 50 88 51 89 60 90 52 91 53 92 59 93 61 94 54 95 55 96
REMARK SMILES IDX 56 97 57 98 58 99
REMARK H PARENT 13 7 20 30 82 49 48 60
REMARK Flexibility Score: inf
ROOT
ATOM      1  C   UNL A   1      32.664  24.134  26.005  1.00  0.00     0.002 C 
ENDROOT
BRANCH   1   2
ATOM      2  C   UNL A   1      31.698  25.227  26.484  1.00  0.00     0.021 C 
BRANCH   2   3
ATOM      3  C   UNL A   1      30.464  25.360  25.584  1.00  0.00     0.116 C 
BRANCH   3   4
ATOM      4  N   UNL A   1      30.906  25.498  24.212  1.00  0.00    -0.356 N 
ATOM      5  C   UNL A   1      30.918  26.549  23.353  1.00  0.00     0.227 C 
ATOM      6  O   UNL A   1      31.064  26.242  22.160  1.00  0.00    -0.274 OA
ATOM      7  H   UNL A   1      31.270  24.667  23.828  1.00  0.00     0.163 HD
BRANCH   5   8
ATOM      8  C   UNL A   1      30.949  28.041  23.762  1.00  0.00     0.113 C 
BRANCH   8   9
ATOM      9  C   UNL A   1      32.317  28.751  23.915  1.00  0.00     0.059 C 
BRANCH   9  10
ATOM     10  C   UNL A   1      32.837  29.041  25.312  1.00  0.00     0.015 A 
ATOM     11  C   UNL A   1      32.386  30.097  26.102  1.00  0.00     0.216 A 
ATOM     12  N   UNL A   1      32.960  30.491  27.263  1.00  0.00    -0.222 NA
ATOM     13  C   UNL A   1      34.030  29.789  27.683  1.00  0.00     0.115 A 
ATOM     14  C   UNL A   1      33.930  28.317  25.814  1.00  0.00     0.011 A 
ATOM     15  C   UNL A   1      34.536  28.693  27.011  1.00  0.00     0.021 A 
BRANCH  11  16
ATOM     16  O   UNL A   1      31.383  30.900  25.635  1.00  0.00    -0.481 OA
ATOM     17  C   UNL A   1      31.237  32.066  26.440  1.00  0.00     0.280 C 
ENDBRANCH  11  16
ENDBRANCH   9  10
ENDBRANCH   8   9
BRANCH   8  18
ATOM     18  C   UNL A   1      29.907  28.862  22.965  1.00  0.00    -0.035 A 
ATOM     19  C   UNL A   1      30.345  29.774  21.984  1.00  0.00     0.007 A 
ATOM     20  C   UNL A   1      28.528  28.822  23.237  1.00  0.00     0.007 A 
ATOM     21  C   UNL A   1      29.461  30.644  21.342  1.00  0.00     0.039 A 
ATOM     22  C   UNL A   1      27.638  29.690  22.590  1.00  0.00     0.039 A 
ATOM     23  C   UNL A   1      28.115  30.602  21.659  1.00  0.00     0.123 A 
ATOM     24  F   UNL A   1      27.269  31.456  21.070  1.00  0.00    -0.207 F 
ENDBRANCH   8  18
ENDBRANCH   5   8
ENDBRANCH   3   4
ENDBRANCH   2   3
ENDBRANCH   1   2
BRANCH   1  25
ATOM     25  C   UNL A   1      34.129  24.579  25.908  1.00  0.00     0.002 C 
BRANCH  25  26
ATOM     26  C   UNL A   1      35.119  23.449  25.618  1.00  0.00     0.021 C 
BRANCH  26  27
ATOM     27  C   UNL A   1      36.579  23.892  25.622  1.00  0.00     0.116 C 
BRANCH  27  28
ATOM     28  N   UNL A   1      37.460  22.784  25.948  1.00  0.00    -0.352 N 
ATOM     29  C   UNL A   1      38.777  22.819  26.335  1.00  0.00     0.251 C 
ATOM     30  H   UNL A   1      37.060  21.887  25.881  1.00  0.00     0.163 HD
ATOM     31  O   UNL A   1      39.461  21.803  26.285  1.00  0.00    -0.269 OA
BRANCH  29  32
ATOM     32  C   UNL A   1      39.359  24.090  26.814  1.00  0.00     0.039 A 
ATOM     33  C   UNL A   1      39.235  24.433  28.161  1.00  0.00     0.014 A 
ATOM     34  C   UNL A   1      40.008  24.950  25.923  1.00  0.00     0.014 A 
ATOM     35  C   UNL A   1      39.801  25.621  28.624  1.00  0.00     0.010 A 
ATOM     36  C   UNL A   1      40.631  26.098  26.398  1.00  0.00     0.010 A 
ATOM     37  C   UNL A   1      40.523  26.452  27.751  1.00  0.00    -0.014 A 
BRANCH  37  38
ATOM     38  C   UNL A   1      41.160  27.704  28.230  1.00  0.00     0.031 A 
ATOM     39  C   UNL A   1      42.660  27.831  28.230  1.00  0.00     0.074 A 
ATOM     40  C   UNL A   1      40.392  28.697  28.719  1.00  0.00     0.049 A 
ATOM     41  N   UNL A   1      43.405  28.810  28.674  1.00  0.00    -0.248 NA
ATOM     42  C   UNL A   1      43.422  26.696  27.684  1.00  0.00     0.031 C 
ATOM     43  C   UNL A   1      38.931  28.667  28.813  1.00  0.00     0.029 A 
ATOM     44  N   UNL A   1      40.733  29.919  29.240  1.00  0.00    -0.354 N 
ATOM     45  C   UNL A   1      44.719  28.406  28.472  1.00  0.00     0.074 A 
ATOM     46  C   UNL A   1      44.671  27.072  27.918  1.00  0.00     0.031 C 
ATOM     47  C   UNL A   1      38.501  29.825  29.340  1.00  0.00     0.029 A 
ATOM     48  C   UNL A   1      39.654  30.663  29.654  1.00  0.00     0.049 A 
ATOM     49  H   UNL A   1      41.663  30.234  29.310  1.00  0.00     0.167 HD
ATOM     50  C   UNL A   1      45.861  29.097  28.702  1.00  0.00     0.037 A 
ATOM     51  C   UNL A   1      39.601  31.880  30.228  1.00  0.00     0.037 A 
ATOM     52  C   UNL A   1      45.898  30.436  29.232  1.00  0.00     0.049 A 
ATOM     53  C   UNL A   1      40.882  32.629  30.473  1.00  0.00     0.074 A 
ATOM     54  C   UNL A   1      47.000  31.242  29.459  1.00  0.00     0.029 A 
ATOM     55  N   UNL A   1      44.782  31.166  29.615  1.00  0.00    -0.354 N 
ATOM     56  N   UNL A   1      42.115  32.254  30.226  1.00  0.00    -0.248 NA
ATOM     57  C   UNL A   1      40.768  33.967  31.069  1.00  0.00     0.031 C 
ATOM     58  C   UNL A   1      46.554  32.445  30.016  1.00  0.00     0.029 A 
ATOM     59  C   UNL A   1      45.171  32.407  30.092  1.00  0.00     0.049 A 
ATOM     60  H   UNL A   1      43.853  30.849  29.557  1.00  0.00     0.167 HD
ATOM     61  C   UNL A   1      42.921  33.321  30.610  1.00  0.00     0.074 A 
ATOM     62  C   UNL A   1      42.034  34.359  31.095  1.00  0.00     0.031 C 
ATOM     63  C   UNL A   1      44.272  33.432  30.565  1.00  0.00     0.037 A 
BRANCH  50  64
ATOM     64  C   UNL A   1      47.164  28.419  28.375  1.00  0.00     0.058 A 
ATOM     65  C   UNL A   1      47.813  27.588  29.303  1.00  0.00     0.135 A 
ATOM     66  C   UNL A   1      47.757  28.578  27.112  1.00  0.00     0.135 A 
ATOM     67  F   UNL A   1      47.300  27.415  30.531  1.00  0.00    -0.206 F 
ATOM     68  C   UNL A   1      49.018  26.962  29.001  1.00  0.00     0.059 A 
ATOM     69  C   UNL A   1      48.948  27.939  26.778  1.00  0.00     0.059 A 
ATOM     70  F   UNL A   1      47.180  29.362  26.187  1.00  0.00    -0.206 F 
ATOM     71  C   UNL A   1      49.579  27.144  27.736  1.00  0.00     0.060 A 
BRANCH  71  72
ATOM     72  S   UNL A   1      51.142  26.326  27.359  1.00  0.00     0.124 S 
ATOM     73  O   UNL A   1      51.601  27.092  26.205  1.00  0.00    -0.237 OA
ATOM     74  O   UNL A   1      51.901  26.521  28.591  1.00  0.00    -0.237 OA
ATOM     75  O   UNL A   1      50.748  24.949  27.082  1.00  0.00    -0.744 OA
ENDBRANCH  71  72
ENDBRANCH  50  64
BRANCH  51  76
ATOM     76  C   UNL A   1      38.286  32.473  30.587  1.00  0.00     0.058 A 
ATOM     77  C   UNL A   1      37.694  32.215  31.833  1.00  0.00     0.135 A 
ATOM     78  C   UNL A   1      37.603  33.323  29.703  1.00  0.00     0.135 A 
ATOM     79  F   UNL A   1      38.307  31.405  32.710  1.00  0.00    -0.206 F 
ATOM     80  C   UNL A   1      36.467  32.766  32.186  1.00  0.00     0.059 A 
ATOM     81  C   UNL A   1      36.386  33.905  30.042  1.00  0.00     0.059 A 
ATOM     82  F   UNL A   1      38.136  33.617  28.507  1.00  0.00    -0.206 F 
ATOM     83  C   UNL A   1      35.821  33.612  31.283  1.00  0.00     0.060 A 
BRANCH  83  84
ATOM     84  S   UNL A   1      34.252  34.362  31.770  1.00  0.00     0.124 S 
ATOM     85  O   UNL A   1      33.735  33.376  32.711  1.00  0.00    -0.237 OA
ATOM     86  O   UNL A   1      34.685  35.632  32.346  1.00  0.00    -0.237 OA
ATOM     87  O   UNL A   1      33.528  34.472  30.507  1.00  0.00    -0.744 OA
ENDBRANCH  83  84
ENDBRANCH  51  76
BRANCH  63  88
ATOM     88  C   UNL A   1      44.874  34.730  31.020  1.00  0.00     0.058 A 
ATOM     89  C   UNL A   1      45.182  34.968  32.369  1.00  0.00     0.135 A 
ATOM     90  C   UNL A   1      45.197  35.729  30.088  1.00  0.00     0.135 A 
ATOM     91  F   UNL A   1      44.886  34.048  33.302  1.00  0.00    -0.206 F 
ATOM     92  C   UNL A   1      45.767  36.160  32.781  1.00  0.00     0.059 A 
ATOM     93  C   UNL A   1      45.808  36.918  30.473  1.00  0.00     0.059 A 
ATOM     94  F   UNL A   1      44.934  35.547  28.784  1.00  0.00    -0.206 F 
ATOM     95  C   UNL A   1      46.079  37.129  31.825  1.00  0.00     0.060 A 
BRANCH  95  96
ATOM     96  S   UNL A   1      46.872  38.657  32.367  1.00  0.00     0.124 S 
ATOM     97  O   UNL A   1      48.238  38.461  31.896  1.00  0.00    -0.237 OA
ATOM     98  O   UNL A   1      46.099  39.677  31.664  1.00  0.00    -0.237 OA
ATOM     99  O   UNL A   1      46.697  38.636  33.816  1.00  0.00    -0.744 OA
ENDBRANCH  95  96
ENDBRANCH  63  88
ENDBRANCH  37  38
ENDBRANCH  29  32
ENDBRANCH  27  28
ENDBRANCH  26  27
ENDBRANCH  25  26
ENDBRANCH   1  25
TORSDOF 20
ENDMDL
