MODEL 1
REMARK VINA RESULT:     -11.4      0.000      0.000
REMARK SMILES Cc1cc(=O)cc(C)n1C[C@H]1CCCC[C@@H]1C(=O)NCCCCCCNC(=O)c1ccc(-c2c3nc(c(-c4c(F)cc(S(=O)(=O)[O-])cc4F)c4ccc([nH]4)c(-c4c(F)cc(S(=O)(=O)[O-])cc4F)c4nc(c(-c5c(F)cc(S(=O)(=O)[O-])cc5F)c5ccc2[nH]5)C=C4)C=C3)cc1
REMARK SMILES IDX 23 1 22 2 21 3 20 4 19 5 17 6 18 7 16 9 11 10 12 11 13 12
REMARK SMILES IDX 15 13 14 14 10 15 9 16 1 17 2 18 3 19 4 20 7 21 5 22 6 23
REMARK SMILES IDX 8 24 24 25 25 26 26 27 27 28 28 30 29 31 30 32 94 33 31 34
REMARK SMILES IDX 93 35 32 36 33 37 34 38 87 39 35 40 92 41 86 42 88 43 36 44
REMARK SMILES IDX 91 45 85 46 84 47 37 49 71 50 50 51 70 52 51 53 54 54 69 55
REMARK SMILES IDX 89 56 52 57 53 58 68 60 90 61 55 62 38 63 39 64 48 65 40 66
REMARK SMILES IDX 41 67 47 68 49 69 42 70 43 71 44 72 45 73 46 74 72 75 73 76
REMARK SMILES IDX 82 77 74 78 75 79 81 80 83 81 76 82 77 83 78 84 79 85 80 86
REMARK SMILES IDX 56 87 57 88 66 89 58 90 59 91 65 92 67 93 60 94 61 95 62 96
REMARK SMILES IDX 63 97 64 98
REMARK H PARENT 19 8 26 29 88 48 54 59
REMARK Flexibility Score: inf
ROOT
ATOM      1  C   UNL A   1      40.875  21.988  27.889  1.00  0.00     0.002 C 
ENDROOT
BRANCH   1   2
ATOM      2  C   UNL A   1      39.980  21.896  26.653  1.00  0.00     0.002 C 
BRANCH   2   3
ATOM      3  C   UNL A   1      39.000  23.058  26.488  1.00  0.00     0.021 C 
BRANCH   3   4
ATOM      4  C   UNL A   1      37.801  22.756  25.582  1.00  0.00     0.116 C 
BRANCH   4   5
ATOM      5  N   UNL A   1      36.569  22.740  26.342  1.00  0.00    -0.356 N 
ATOM      6  C   UNL A   1      35.384  23.375  26.140  1.00  0.00     0.223 C 
ATOM      7  O   UNL A   1      34.502  23.142  26.973  1.00  0.00    -0.275 OA
ATOM      8  H   UNL A   1      36.593  22.170  27.144  1.00  0.00     0.163 HD
BRANCH   6   9
ATOM      9  C   UNL A   1      35.118  24.267  24.901  1.00  0.00     0.083 C 
ATOM     10  C   UNL A   1      33.904  25.230  25.003  1.00  0.00     0.021 C 
ATOM     11  C   UNL A   1      32.625  24.381  25.104  1.00  0.00     0.006 C 
ATOM     12  C   UNL A   1      32.412  23.484  23.891  1.00  0.00     0.000 C 
ATOM     13  C   UNL A   1      34.946  23.367  23.650  1.00  0.00     0.014 C 
ATOM     14  C   UNL A   1      33.622  22.590  23.645  1.00  0.00     0.001 C 
BRANCH  10  15
ATOM     15  C   UNL A   1      33.892  26.285  23.858  1.00  0.00     0.126 C 
BRANCH  15  16
ATOM     16  N   UNL A   1      32.711  27.200  23.938  1.00  0.00    -0.349 N 
ATOM     17  C   UNL A   1      31.749  26.181  21.803  1.00  0.00     0.064 C 
ATOM     18  C   UNL A   1      31.742  27.229  22.891  1.00  0.00     0.018 A 
ATOM     19  C   UNL A   1      30.756  28.145  22.839  1.00  0.00     0.073 A 
ATOM     20  C   UNL A   1      30.657  29.170  23.887  1.00  0.00     0.182 A 
ATOM     21  C   UNL A   1      32.509  28.078  25.039  1.00  0.00     0.018 A 
ATOM     22  O   UNL A   1      29.847  30.086  23.820  1.00  0.00    -0.290 OA
ATOM     23  C   UNL A   1      31.556  29.030  25.039  1.00  0.00     0.073 A 
ATOM     24  C   UNL A   1      33.300  27.967  26.318  1.00  0.00     0.064 C 
ENDBRANCH  15  16
ENDBRANCH  10  15
ENDBRANCH   6   9
ENDBRANCH   4   5
ENDBRANCH   3   4
ENDBRANCH   2   3
ENDBRANCH   1   2
BRANCH   1  25
ATOM     25  C   UNL A   1      42.377  21.873  27.612  1.00  0.00     0.021 C 
BRANCH  25  26
ATOM     26  C   UNL A   1      43.127  23.203  27.625  1.00  0.00     0.116 C 
BRANCH  26  27
ATOM     27  N   UNL A   1      42.937  23.929  26.380  1.00  0.00    -0.352 N 
ATOM     28  C   UNL A   1      42.324  25.139  26.174  1.00  0.00     0.251 C 
ATOM     29  H   UNL A   1      43.297  23.491  25.575  1.00  0.00     0.163 HD
ATOM     30  O   UNL A   1      41.989  25.475  25.044  1.00  0.00    -0.269 OA
BRANCH  28  31
ATOM     31  C   UNL A   1      42.072  26.031  27.324  1.00  0.00     0.039 A 
ATOM     32  C   UNL A   1      42.924  27.114  27.549  1.00  0.00     0.014 A 
ATOM     33  C   UNL A   1      41.003  25.780  28.192  1.00  0.00     0.014 A 
ATOM     34  C   UNL A   1      42.680  27.971  28.624  1.00  0.00     0.010 A 
ATOM     35  C   UNL A   1      40.724  26.670  29.224  1.00  0.00     0.010 A 
ATOM     36  C   UNL A   1      41.568  27.767  29.457  1.00  0.00    -0.014 A 
BRANCH  36  37
ATOM     37  C   UNL A   1      41.288  28.668  30.601  1.00  0.00     0.031 A 
ATOM     38  C   UNL A   1      42.115  28.563  31.854  1.00  0.00     0.074 A 
ATOM     39  C   UNL A   1      40.269  29.547  30.526  1.00  0.00     0.049 A 
ATOM     40  N   UNL A   1      41.992  29.214  32.981  1.00  0.00    -0.248 NA
ATOM     41  C   UNL A   1      43.214  27.584  31.844  1.00  0.00     0.031 C 
ATOM     42  C   UNL A   1      39.383  29.717  29.373  1.00  0.00     0.029 A 
ATOM     43  N   UNL A   1      39.803  30.456  31.440  1.00  0.00    -0.354 N 
ATOM     44  C   UNL A   1      42.989  28.720  33.813  1.00  0.00     0.074 A 
ATOM     45  C   UNL A   1      43.676  27.680  33.082  1.00  0.00     0.031 C 
ATOM     46  C   UNL A   1      38.495  30.689  29.640  1.00  0.00     0.029 A 
ATOM     47  C   UNL A   1      38.724  31.183  30.995  1.00  0.00     0.049 A 
ATOM     48  H   UNL A   1      40.202  30.577  32.332  1.00  0.00     0.167 HD
ATOM     49  C   UNL A   1      43.317  29.118  35.065  1.00  0.00     0.037 A 
ATOM     50  C   UNL A   1      37.998  32.137  31.612  1.00  0.00     0.037 A 
ATOM     51  C   UNL A   1      42.638  30.167  35.780  1.00  0.00     0.049 A 
ATOM     52  C   UNL A   1      38.369  32.543  33.013  1.00  0.00     0.074 A 
ATOM     53  C   UNL A   1      42.916  30.669  37.039  1.00  0.00     0.029 A 
ATOM     54  N   UNL A   1      41.547  30.875  35.297  1.00  0.00    -0.354 N 
ATOM     55  N   UNL A   1      39.339  32.092  33.773  1.00  0.00    -0.248 NA
ATOM     56  C   UNL A   1      37.548  33.588  33.641  1.00  0.00     0.031 C 
ATOM     57  C   UNL A   1      41.969  31.656  37.334  1.00  0.00     0.029 A 
ATOM     58  C   UNL A   1      41.130  31.801  36.239  1.00  0.00     0.049 A 
ATOM     59  H   UNL A   1      41.132  30.741  34.416  1.00  0.00     0.167 HD
ATOM     60  C   UNL A   1      39.259  32.814  34.959  1.00  0.00     0.074 A 
ATOM     61  C   UNL A   1      38.155  33.740  34.810  1.00  0.00     0.031 C 
ATOM     62  C   UNL A   1      40.029  32.717  36.072  1.00  0.00     0.037 A 
BRANCH  49  63
ATOM     63  C   UNL A   1      44.473  28.429  35.738  1.00  0.00     0.058 A 
ATOM     64  C   UNL A   1      44.284  27.278  36.519  1.00  0.00     0.135 A 
ATOM     65  C   UNL A   1      45.787  28.889  35.557  1.00  0.00     0.135 A 
ATOM     66  F   UNL A   1      43.046  26.805  36.740  1.00  0.00    -0.206 F 
ATOM     67  C   UNL A   1      45.354  26.617  37.112  1.00  0.00     0.059 A 
ATOM     68  C   UNL A   1      46.876  28.228  36.121  1.00  0.00     0.059 A 
ATOM     69  F   UNL A   1      46.025  29.987  34.821  1.00  0.00    -0.206 F 
ATOM     70  C   UNL A   1      46.647  27.098  36.903  1.00  0.00     0.060 A 
BRANCH  70  71
ATOM     71  S   UNL A   1      48.026  26.209  37.659  1.00  0.00     0.124 S 
ATOM     72  O   UNL A   1      48.913  26.018  36.515  1.00  0.00    -0.237 OA
ATOM     73  O   UNL A   1      48.490  27.157  38.667  1.00  0.00    -0.237 OA
ATOM     74  O   UNL A   1      47.405  24.996  38.181  1.00  0.00    -0.744 OA
ENDBRANCH  70  71
ENDBRANCH  49  63
BRANCH  50  75
ATOM     75  C   UNL A   1      36.869  32.789  30.898  1.00  0.00     0.058 A 
ATOM     76  C   UNL A   1      35.554  32.330  31.061  1.00  0.00     0.135 A 
ATOM     77  C   UNL A   1      37.075  33.897  30.061  1.00  0.00     0.135 A 
ATOM     78  F   UNL A   1      35.308  31.268  31.844  1.00  0.00    -0.206 F 
ATOM     79  C   UNL A   1      34.483  32.936  30.412  1.00  0.00     0.059 A 
ATOM     80  C   UNL A   1      36.017  34.536  29.422  1.00  0.00     0.059 A 
ATOM     81  F   UNL A   1      38.312  34.387  29.884  1.00  0.00    -0.206 F 
ATOM     82  C   UNL A   1      34.725  34.043  29.598  1.00  0.00     0.060 A 
BRANCH  82  83
ATOM     83  S   UNL A   1      33.320  34.858  28.808  1.00  0.00     0.124 S 
ATOM     84  O   UNL A   1      32.484  35.186  29.956  1.00  0.00    -0.237 OA
ATOM     85  O   UNL A   1      33.960  35.989  28.140  1.00  0.00    -0.237 OA
ATOM     86  O   UNL A   1      32.793  33.830  27.915  1.00  0.00    -0.744 OA
ENDBRANCH  82  83
ENDBRANCH  50  75
BRANCH  62  87
ATOM     87  C   UNL A   1      39.722  33.649  37.210  1.00  0.00     0.058 A 
ATOM     88  C   UNL A   1      38.835  33.289  38.235  1.00  0.00     0.135 A 
ATOM     89  C   UNL A   1      40.371  34.890  37.309  1.00  0.00     0.135 A 
ATOM     90  F   UNL A   1      38.184  32.116  38.184  1.00  0.00    -0.206 F 
ATOM     91  C   UNL A   1      38.587  34.136  39.310  1.00  0.00     0.059 A 
ATOM     92  C   UNL A   1      40.159  35.741  38.388  1.00  0.00     0.059 A 
ATOM     93  F   UNL A   1      41.238  35.279  36.359  1.00  0.00    -0.206 F 
ATOM     94  C   UNL A   1      39.257  35.358  39.380  1.00  0.00     0.060 A 
BRANCH  94  95
ATOM     95  S   UNL A   1      38.949  36.431  40.799  1.00  0.00     0.124 S 
ATOM     96  O   UNL A   1      38.462  37.644  40.153  1.00  0.00    -0.237 OA
ATOM     97  O   UNL A   1      37.956  35.672  41.553  1.00  0.00    -0.237 OA
ATOM     98  O   UNL A   1      40.260  36.540  41.434  1.00  0.00    -0.744 OA
ENDBRANCH  94  95
ENDBRANCH  62  87
ENDBRANCH  36  37
ENDBRANCH  28  31
ENDBRANCH  26  27
ENDBRANCH  25  26
ENDBRANCH   1  25
TORSDOF 18
ENDMDL
MODEL 2
REMARK VINA RESULT:     -11.3      6.282     12.054
REMARK SMILES Cc1cc(=O)cc(C)n1C[C@H]1CCCC[C@@H]1C(=O)NCCCCCCNC(=O)c1ccc(-c2c3nc(c(-c4c(F)cc(S(=O)(=O)[O-])cc4F)c4ccc([nH]4)c(-c4c(F)cc(S(=O)(=O)[O-])cc4F)c4nc(c(-c5c(F)cc(S(=O)(=O)[O-])cc5F)c5ccc2[nH]5)C=C4)C=C3)cc1
REMARK SMILES IDX 23 1 22 2 21 3 20 4 19 5 17 6 18 7 16 9 11 10 12 11 13 12
REMARK SMILES IDX 15 13 14 14 10 15 9 16 1 17 2 18 3 19 4 20 7 21 5 22 6 23
REMARK SMILES IDX 8 24 24 25 25 26 26 27 27 28 28 30 29 31 30 32 94 33 31 34
REMARK SMILES IDX 93 35 32 36 33 37 34 38 87 39 35 40 92 41 86 42 88 43 36 44
REMARK SMILES IDX 91 45 85 46 84 47 37 49 71 50 50 51 70 52 51 53 54 54 69 55
REMARK SMILES IDX 89 56 52 57 53 58 68 60 90 61 55 62 38 63 39 64 48 65 40 66
REMARK SMILES IDX 41 67 47 68 49 69 42 70 43 71 44 72 45 73 46 74 72 75 73 76
REMARK SMILES IDX 82 77 74 78 75 79 81 80 83 81 76 82 77 83 78 84 79 85 80 86
REMARK SMILES IDX 56 87 57 88 66 89 58 90 59 91 65 92 67 93 60 94 61 95 62 96
REMARK SMILES IDX 63 97 64 98
REMARK H PARENT 19 8 26 29 88 48 54 59
REMARK Flexibility Score: inf
ROOT
ATOM      1  C   UNL A   1      35.066  31.519  27.661  1.00  0.00     0.002 C 
ENDROOT
BRANCH   1   2
ATOM      2  C   UNL A   1      33.544  31.405  27.742  1.00  0.00     0.002 C 
BRANCH   2   3
ATOM      3  C   UNL A   1      32.971  30.110  27.166  1.00  0.00     0.021 C 
BRANCH   3   4
ATOM      4  C   UNL A   1      34.023  29.115  26.663  1.00  0.00     0.116 C 
BRANCH   4   5
ATOM      5  N   UNL A   1      34.152  29.182  25.223  1.00  0.00    -0.356 N 
ATOM      6  C   UNL A   1      33.617  28.412  24.240  1.00  0.00     0.223 C 
ATOM      7  O   UNL A   1      33.909  28.738  23.085  1.00  0.00    -0.275 OA
ATOM      8  H   UNL A   1      34.727  29.913  24.900  1.00  0.00     0.163 HD
BRANCH   6   9
ATOM      9  C   UNL A   1      32.633  27.251  24.533  1.00  0.00     0.083 C 
ATOM     10  C   UNL A   1      32.403  26.244  23.374  1.00  0.00     0.021 C 
ATOM     11  C   UNL A   1      31.724  26.992  22.214  1.00  0.00     0.006 C 
ATOM     12  C   UNL A   1      30.373  27.582  22.599  1.00  0.00     0.000 C 
ATOM     13  C   UNL A   1      31.267  27.839  24.972  1.00  0.00     0.014 C 
ATOM     14  C   UNL A   1      30.493  28.490  23.818  1.00  0.00     0.001 C 
BRANCH  10  15
ATOM     15  C   UNL A   1      31.651  24.965  23.847  1.00  0.00     0.126 C 
BRANCH  15  16
ATOM     16  N   UNL A   1      32.579  23.931  24.404  1.00  0.00    -0.349 N 
ATOM     17  C   UNL A   1      31.634  24.314  26.746  1.00  0.00     0.064 C 
ATOM     18  C   UNL A   1      32.651  23.702  25.811  1.00  0.00     0.018 A 
ATOM     19  C   UNL A   1      33.581  22.904  26.370  1.00  0.00     0.073 A 
ATOM     20  C   UNL A   1      34.576  22.238  25.520  1.00  0.00     0.182 A 
ATOM     21  C   UNL A   1      33.428  23.151  23.571  1.00  0.00     0.018 A 
ATOM     22  O   UNL A   1      35.504  21.596  25.995  1.00  0.00    -0.290 OA
ATOM     23  C   UNL A   1      34.392  22.352  24.068  1.00  0.00     0.073 A 
ATOM     24  C   UNL A   1      33.270  23.105  22.072  1.00  0.00     0.064 C 
ENDBRANCH  15  16
ENDBRANCH  10  15
ENDBRANCH   6   9
ENDBRANCH   4   5
ENDBRANCH   3   4
ENDBRANCH   2   3
ENDBRANCH   1   2
BRANCH   1  25
ATOM     25  C   UNL A   1      35.635  32.887  28.054  1.00  0.00     0.021 C 
BRANCH  25  26
ATOM     26  C   UNL A   1      36.647  32.846  29.198  1.00  0.00     0.116 C 
BRANCH  26  27
ATOM     27  N   UNL A   1      36.196  31.973  30.270  1.00  0.00    -0.352 N 
ATOM     28  C   UNL A   1      36.700  30.757  30.659  1.00  0.00     0.251 C 
ATOM     29  H   UNL A   1      35.424  32.298  30.786  1.00  0.00     0.163 HD
ATOM     30  O   UNL A   1      36.038  30.018  31.380  1.00  0.00    -0.269 OA
BRANCH  28  31
ATOM     31  C   UNL A   1      38.044  30.347  30.202  1.00  0.00     0.039 A 
ATOM     32  C   UNL A   1      39.064  30.182  31.141  1.00  0.00     0.014 A 
ATOM     33  C   UNL A   1      38.297  30.148  28.840  1.00  0.00     0.014 A 
ATOM     34  C   UNL A   1      40.331  29.778  30.717  1.00  0.00     0.010 A 
ATOM     35  C   UNL A   1      39.542  29.684  28.427  1.00  0.00     0.010 A 
ATOM     36  C   UNL A   1      40.574  29.508  29.361  1.00  0.00    -0.014 A 
BRANCH  36  37
ATOM     37  C   UNL A   1      41.912  29.072  28.890  1.00  0.00     0.031 A 
ATOM     38  C   UNL A   1      43.040  30.066  28.824  1.00  0.00     0.074 A 
ATOM     39  C   UNL A   1      42.097  27.800  28.487  1.00  0.00     0.049 A 
ATOM     40  N   UNL A   1      44.261  29.900  28.387  1.00  0.00    -0.248 NA
ATOM     41  C   UNL A   1      42.751  31.430  29.295  1.00  0.00     0.031 C 
ATOM     42  C   UNL A   1      41.069  26.757  28.481  1.00  0.00     0.029 A 
ATOM     43  N   UNL A   1      43.212  27.169  27.998  1.00  0.00    -0.354 N 
ATOM     44  C   UNL A   1      44.881  31.136  28.524  1.00  0.00     0.074 A 
ATOM     45  C   UNL A   1      43.890  32.055  29.035  1.00  0.00     0.031 C 
ATOM     46  C   UNL A   1      41.608  25.611  28.033  1.00  0.00     0.029 A 
ATOM     47  C   UNL A   1      43.006  25.847  27.686  1.00  0.00     0.049 A 
ATOM     48  H   UNL A   1      44.079  27.621  27.882  1.00  0.00     0.167 HD
ATOM     49  C   UNL A   1      46.169  31.466  28.269  1.00  0.00     0.037 A 
ATOM     50  C   UNL A   1      43.849  24.929  27.172  1.00  0.00     0.037 A 
ATOM     51  C   UNL A   1      47.155  30.540  27.776  1.00  0.00     0.049 A 
ATOM     52  C   UNL A   1      45.269  25.329  26.874  1.00  0.00     0.074 A 
ATOM     53  C   UNL A   1      48.496  30.766  27.518  1.00  0.00     0.029 A 
ATOM     54  N   UNL A   1      46.906  29.211  27.466  1.00  0.00    -0.354 N 
ATOM     55  N   UNL A   1      45.851  26.492  27.044  1.00  0.00    -0.248 NA
ATOM     56  C   UNL A   1      46.149  24.291  26.317  1.00  0.00     0.031 C 
ATOM     57  C   UNL A   1      49.049  29.583  27.018  1.00  0.00     0.029 A 
ATOM     58  C   UNL A   1      48.065  28.607  27.007  1.00  0.00     0.049 A 
ATOM     59  H   UNL A   1      46.035  28.762  27.560  1.00  0.00     0.167 HD
ATOM     60  C   UNL A   1      47.170  26.321  26.636  1.00  0.00     0.074 A 
ATOM     61  C   UNL A   1      47.302  24.938  26.225  1.00  0.00     0.031 C 
ATOM     62  C   UNL A   1      48.179  27.227  26.604  1.00  0.00     0.037 A 
BRANCH  49  63
ATOM     63  C   UNL A   1      46.594  32.885  28.535  1.00  0.00     0.058 A 
ATOM     64  C   UNL A   1      46.518  33.870  27.539  1.00  0.00     0.135 A 
ATOM     65  C   UNL A   1      47.029  33.277  29.812  1.00  0.00     0.135 A 
ATOM     66  F   UNL A   1      46.126  33.547  26.295  1.00  0.00    -0.206 F 
ATOM     67  C   UNL A   1      46.875  35.190  27.792  1.00  0.00     0.059 A 
ATOM     68  C   UNL A   1      47.367  34.597  30.094  1.00  0.00     0.059 A 
ATOM     69  F   UNL A   1      47.123  32.374  30.801  1.00  0.00    -0.206 F 
ATOM     70  C   UNL A   1      47.294  35.545  29.075  1.00  0.00     0.060 A 
BRANCH  70  71
ATOM     71  S   UNL A   1      47.726  37.270  29.391  1.00  0.00     0.124 S 
ATOM     72  O   UNL A   1      47.631  37.845  28.051  1.00  0.00    -0.237 OA
ATOM     73  O   UNL A   1      46.690  37.682  30.331  1.00  0.00    -0.237 OA
ATOM     74  O   UNL A   1      49.075  37.189  29.943  1.00  0.00    -0.744 OA
ENDBRANCH  70  71
ENDBRANCH  49  63
BRANCH  50  75
ATOM     75  C   UNL A   1      43.378  23.539  26.934  1.00  0.00     0.058 A 
ATOM     76  C   UNL A   1      43.081  23.093  25.637  1.00  0.00     0.135 A 
ATOM     77  C   UNL A   1      43.239  22.622  27.987  1.00  0.00     0.135 A 
ATOM     78  F   UNL A   1      43.191  23.935  24.598  1.00  0.00    -0.206 F 
ATOM     79  C   UNL A   1      42.653  21.792  25.393  1.00  0.00     0.059 A 
ATOM     80  C   UNL A   1      42.837  21.309  27.765  1.00  0.00     0.059 A 
ATOM     81  F   UNL A   1      43.526  22.993  29.245  1.00  0.00    -0.206 F 
ATOM     82  C   UNL A   1      42.539  20.905  26.464  1.00  0.00     0.060 A 
BRANCH  82  83
ATOM     83  S   UNL A   1      42.039  19.202  26.127  1.00  0.00     0.124 S 
ATOM     84  O   UNL A   1      42.859  18.877  24.967  1.00  0.00    -0.237 OA
ATOM     85  O   UNL A   1      42.397  18.528  27.372  1.00  0.00    -0.237 OA
ATOM     86  O   UNL A   1      40.605  19.317  25.877  1.00  0.00    -0.744 OA
ENDBRANCH  82  83
ENDBRANCH  50  75
BRANCH  62  87
ATOM     87  C   UNL A   1      49.522  26.752  26.128  1.00  0.00     0.058 A 
ATOM     88  C   UNL A   1      49.951  26.963  24.809  1.00  0.00     0.135 A 
ATOM     89  C   UNL A   1      50.415  26.134  27.018  1.00  0.00     0.135 A 
ATOM     90  F   UNL A   1      49.132  27.543  23.917  1.00  0.00    -0.206 F 
ATOM     91  C   UNL A   1      51.212  26.560  24.383  1.00  0.00     0.059 A 
ATOM     92  C   UNL A   1      51.691  25.748  26.621  1.00  0.00     0.059 A 
ATOM     93  F   UNL A   1      50.058  25.918  28.294  1.00  0.00    -0.206 F 
ATOM     94  C   UNL A   1      52.077  25.958  25.298  1.00  0.00     0.060 A 
BRANCH  94  95
ATOM     95  S   UNL A   1      53.724  25.473  24.738  1.00  0.00     0.124 S 
ATOM     96  O   UNL A   1      54.575  26.124  25.728  1.00  0.00    -0.237 OA
ATOM     97  O   UNL A   1      53.662  24.016  24.816  1.00  0.00    -0.237 OA
ATOM     98  O   UNL A   1      53.800  26.020  23.387  1.00  0.00    -0.744 OA
ENDBRANCH  94  95
ENDBRANCH  62  87
ENDBRANCH  36  37
ENDBRANCH  28  31
ENDBRANCH  26  27
ENDBRANCH  25  26
ENDBRANCH   1  25
TORSDOF 18
ENDMDL
MODEL 3
REMARK VINA RESULT:     -11.1      1.332      2.239
REMARK SMILES Cc1cc(=O)cc(C)n1C[C@H]1CCCC[C@@H]1C(=O)NCCCCCCNC(=O)c1ccc(-c2c3nc(c(-c4c(F)cc(S(=O)(=O)[O-])cc4F)c4ccc([nH]4)c(-c4c(F)cc(S(=O)(=O)[O-])cc4F)c4nc(c(-c5c(F)cc(S(=O)(=O)[O-])cc5F)c5ccc2[nH]5)C=C4)C=C3)cc1
REMARK SMILES IDX 23 1 22 2 21 3 20 4 19 5 17 6 18 7 16 9 11 10 12 11 13 12
REMARK SMILES IDX 15 13 14 14 10 15 9 16 1 17 2 18 3 19 4 20 7 21 5 22 6 23
REMARK SMILES IDX 8 24 24 25 25 26 26 27 27 28 28 30 29 31 30 32 94 33 31 34
REMARK SMILES IDX 93 35 32 36 33 37 34 38 87 39 35 40 92 41 86 42 88 43 36 44
REMARK SMILES IDX 91 45 85 46 84 47 37 49 71 50 50 51 70 52 51 53 54 54 69 55
REMARK SMILES IDX 89 56 52 57 53 58 68 60 90 61 55 62 38 63 39 64 48 65 40 66
REMARK SMILES IDX 41 67 47 68 49 69 42 70 43 71 44 72 45 73 46 74 72 75 73 76
REMARK SMILES IDX 82 77 74 78 75 79 81 80 83 81 76 82 77 83 78 84 79 85 80 86
REMARK SMILES IDX 56 87 57 88 66 89 58 90 59 91 65 92 67 93 60 94 61 95 62 96
REMARK SMILES IDX 63 97 64 98
REMARK H PARENT 19 8 26 29 88 48 54 59
REMARK Flexibility Score: inf
ROOT
ATOM      1  C   UNL A   1      36.054  23.249  26.008  1.00  0.00     0.002 C 
ENDROOT
BRANCH   1   2
ATOM      2  C   UNL A   1      35.618  21.807  26.275  1.00  0.00     0.002 C 
BRANCH   2   3
ATOM      3  C   UNL A   1      35.105  21.059  25.044  1.00  0.00     0.021 C 
BRANCH   3   4
ATOM      4  C   UNL A   1      33.872  21.685  24.384  1.00  0.00     0.116 C 
BRANCH   4   5
ATOM      5  N   UNL A   1      32.930  22.148  25.381  1.00  0.00    -0.356 N 
ATOM      6  C   UNL A   1      32.359  23.365  25.577  1.00  0.00     0.223 C 
ATOM      7  O   UNL A   1      31.568  23.441  26.523  1.00  0.00    -0.275 OA
ATOM      8  H   UNL A   1      32.655  21.460  26.030  1.00  0.00     0.163 HD
BRANCH   6   9
ATOM      9  C   UNL A   1      32.609  24.564  24.628  1.00  0.00     0.083 C 
ATOM     10  C   UNL A   1      32.191  25.959  25.168  1.00  0.00     0.021 C 
ATOM     11  C   UNL A   1      30.663  25.967  25.345  1.00  0.00     0.006 C 
ATOM     12  C   UNL A   1      29.914  25.724  24.041  1.00  0.00     0.000 C 
ATOM     13  C   UNL A   1      31.890  24.307  23.278  1.00  0.00     0.014 C 
ATOM     14  C   UNL A   1      30.364  24.427  23.378  1.00  0.00     0.001 C 
BRANCH  10  15
ATOM     15  C   UNL A   1      32.747  27.119  24.291  1.00  0.00     0.126 C 
BRANCH  15  16
ATOM     16  N   UNL A   1      32.396  28.467  24.841  1.00  0.00    -0.349 N 
ATOM     17  C   UNL A   1      34.309  28.302  26.526  1.00  0.00     0.064 C 
ATOM     18  C   UNL A   1      33.072  28.983  25.987  1.00  0.00     0.018 A 
ATOM     19  C   UNL A   1      32.684  30.110  26.612  1.00  0.00     0.073 A 
ATOM     20  C   UNL A   1      31.516  30.853  26.119  1.00  0.00     0.182 A 
ATOM     21  C   UNL A   1      31.381  29.277  24.262  1.00  0.00     0.018 A 
ATOM     22  O   UNL A   1      31.063  31.817  26.721  1.00  0.00    -0.290 OA
ATOM     23  C   UNL A   1      30.932  30.403  24.849  1.00  0.00     0.073 A 
ATOM     24  C   UNL A   1      30.775  28.976  22.914  1.00  0.00     0.064 C 
ENDBRANCH  15  16
ENDBRANCH  10  15
ENDBRANCH   6   9
ENDBRANCH   4   5
ENDBRANCH   3   4
ENDBRANCH   2   3
ENDBRANCH   1   2
BRANCH   1  25
ATOM     25  C   UNL A   1      37.495  23.409  25.513  1.00  0.00     0.021 C 
BRANCH  25  26
ATOM     26  C   UNL A   1      38.403  24.194  26.458  1.00  0.00     0.116 C 
BRANCH  26  27
ATOM     27  N   UNL A   1      39.803  24.030  26.101  1.00  0.00    -0.352 N 
ATOM     28  C   UNL A   1      40.870  24.834  26.414  1.00  0.00     0.251 C 
ATOM     29  H   UNL A   1      40.013  23.234  25.563  1.00  0.00     0.163 HD
ATOM     30  O   UNL A   1      41.927  24.720  25.803  1.00  0.00    -0.269 OA
BRANCH  28  31
ATOM     31  C   UNL A   1      40.735  25.836  27.491  1.00  0.00     0.039 A 
ATOM     32  C   UNL A   1      39.731  25.679  28.448  1.00  0.00     0.014 A 
ATOM     33  C   UNL A   1      41.590  26.943  27.537  1.00  0.00     0.014 A 
ATOM     34  C   UNL A   1      39.610  26.614  29.479  1.00  0.00     0.010 A 
ATOM     35  C   UNL A   1      41.509  27.838  28.600  1.00  0.00     0.010 A 
ATOM     36  C   UNL A   1      40.509  27.688  29.572  1.00  0.00    -0.014 A 
BRANCH  36  37
ATOM     37  C   UNL A   1      40.401  28.689  30.662  1.00  0.00     0.031 A 
ATOM     38  C   UNL A   1      41.293  28.578  31.868  1.00  0.00     0.074 A 
ATOM     39  C   UNL A   1      39.477  29.667  30.583  1.00  0.00     0.049 A 
ATOM     40  N   UNL A   1      41.313  29.312  32.950  1.00  0.00    -0.248 NA
ATOM     41  C   UNL A   1      42.280  27.486  31.866  1.00  0.00     0.031 C 
ATOM     42  C   UNL A   1      38.539  29.855  29.474  1.00  0.00     0.029 A 
ATOM     43  N   UNL A   1      39.169  30.681  31.453  1.00  0.00    -0.354 N 
ATOM     44  C   UNL A   1      42.306  28.769  33.756  1.00  0.00     0.074 A 
ATOM     45  C   UNL A   1      42.831  27.613  33.064  1.00  0.00     0.031 C 
ATOM     46  C   UNL A   1      37.777  30.934  29.721  1.00  0.00     0.029 A 
ATOM     47  C   UNL A   1      38.146  31.489  31.020  1.00  0.00     0.049 A 
ATOM     48  H   UNL A   1      39.638  30.816  32.308  1.00  0.00     0.167 HD
ATOM     49  C   UNL A   1      42.756  29.211  34.954  1.00  0.00     0.037 A 
ATOM     50  C   UNL A   1      37.567  32.556  31.607  1.00  0.00     0.037 A 
ATOM     51  C   UNL A   1      42.240  30.373  35.629  1.00  0.00     0.049 A 
ATOM     52  C   UNL A   1      38.070  33.011  32.950  1.00  0.00     0.074 A 
ATOM     53  C   UNL A   1      42.651  30.925  36.830  1.00  0.00     0.029 A 
ATOM     54  N   UNL A   1      41.200  31.162  35.160  1.00  0.00    -0.354 N 
ATOM     55  N   UNL A   1      39.035  32.509  33.683  1.00  0.00    -0.248 NA
ATOM     56  C   UNL A   1      37.407  34.180  33.547  1.00  0.00     0.031 C 
ATOM     57  C   UNL A   1      41.835  32.026  37.106  1.00  0.00     0.029 A 
ATOM     58  C   UNL A   1      40.945  32.189  36.054  1.00  0.00     0.049 A 
ATOM     59  H   UNL A   1      40.715  31.016  34.317  1.00  0.00     0.167 HD
ATOM     60  C   UNL A   1      39.110  33.313  34.816  1.00  0.00     0.074 A 
ATOM     61  C   UNL A   1      38.101  34.341  34.664  1.00  0.00     0.031 C 
ATOM     62  C   UNL A   1      39.938  33.207  35.885  1.00  0.00     0.037 A 
BRANCH  49  63
ATOM     63  C   UNL A   1      43.875  28.446  35.606  1.00  0.00     0.058 A 
ATOM     64  C   UNL A   1      43.619  27.390  36.496  1.00  0.00     0.135 A 
ATOM     65  C   UNL A   1      45.216  28.732  35.300  1.00  0.00     0.135 A 
ATOM     66  F   UNL A   1      42.357  27.085  36.838  1.00  0.00    -0.206 F 
ATOM     67  C   UNL A   1      44.650  26.657  37.072  1.00  0.00     0.059 A 
ATOM     68  C   UNL A   1      46.263  27.995  35.846  1.00  0.00     0.059 A 
ATOM     69  F   UNL A   1      45.518  29.734  34.458  1.00  0.00    -0.206 F 
ATOM     70  C   UNL A   1      45.970  26.965  36.738  1.00  0.00     0.060 A 
BRANCH  70  71
ATOM     71  S   UNL A   1      47.294  25.983  37.475  1.00  0.00     0.124 S 
ATOM     72  O   UNL A   1      48.481  26.644  36.941  1.00  0.00    -0.237 OA
ATOM     73  O   UNL A   1      47.057  26.166  38.903  1.00  0.00    -0.237 OA
ATOM     74  O   UNL A   1      47.044  24.637  36.968  1.00  0.00    -0.744 OA
ENDBRANCH  70  71
ENDBRANCH  49  63
BRANCH  50  75
ATOM     75  C   UNL A   1      36.468  33.279  30.914  1.00  0.00     0.058 A 
ATOM     76  C   UNL A   1      35.138  33.143  31.340  1.00  0.00     0.135 A 
ATOM     77  C   UNL A   1      36.723  34.137  29.834  1.00  0.00     0.135 A 
ATOM     78  F   UNL A   1      34.843  32.327  32.363  1.00  0.00    -0.206 F 
ATOM     79  C   UNL A   1      34.098  33.822  30.714  1.00  0.00     0.059 A 
ATOM     80  C   UNL A   1      35.703  34.847  29.207  1.00  0.00     0.059 A 
ATOM     81  F   UNL A   1      37.980  34.316  29.398  1.00  0.00    -0.206 F 
ATOM     82  C   UNL A   1      34.392  34.677  29.651  1.00  0.00     0.060 A 
BRANCH  82  83
ATOM     83  S   UNL A   1      33.041  35.599  28.883  1.00  0.00     0.124 S 
ATOM     84  O   UNL A   1      33.768  36.583  28.090  1.00  0.00    -0.237 OA
ATOM     85  O   UNL A   1      32.350  34.555  28.130  1.00  0.00    -0.237 OA
ATOM     86  O   UNL A   1      32.303  36.127  30.026  1.00  0.00    -0.744 OA
ENDBRANCH  82  83
ENDBRANCH  50  75
BRANCH  62  87
ATOM     87  C   UNL A   1      39.806  34.240  36.968  1.00  0.00     0.058 A 
ATOM     88  C   UNL A   1      39.052  33.998  38.126  1.00  0.00     0.135 A 
ATOM     89  C   UNL A   1      40.494  35.461  36.875  1.00  0.00     0.135 A 
ATOM     90  F   UNL A   1      38.371  32.849  38.262  1.00  0.00    -0.206 F 
ATOM     91  C   UNL A   1      38.968  34.940  39.147  1.00  0.00     0.059 A 
ATOM     92  C   UNL A   1      40.446  36.405  37.894  1.00  0.00     0.059 A 
ATOM     93  F   UNL A   1      41.238  35.738  35.792  1.00  0.00    -0.206 F 
ATOM     94  C   UNL A   1      39.672  36.139  39.024  1.00  0.00     0.060 A 
BRANCH  94  95
ATOM     95  S   UNL A   1      39.581  37.336  40.372  1.00  0.00     0.124 S 
ATOM     96  O   UNL A   1      40.943  37.298  40.892  1.00  0.00    -0.237 OA
ATOM     97  O   UNL A   1      39.202  38.561  39.675  1.00  0.00    -0.237 OA
ATOM     98  O   UNL A   1      38.557  36.780  41.252  1.00  0.00    -0.744 OA
ENDBRANCH  94  95
ENDBRANCH  62  87
ENDBRANCH  36  37
ENDBRANCH  28  31
ENDBRANCH  26  27
ENDBRANCH  25  26
ENDBRANCH   1  25
TORSDOF 18
ENDMDL
