MODEL 1
REMARK VINA RESULT:     -10.8      0.000      0.000
REMARK SMILES C/C(=N/OCC(=O)NCCCCCCNC(=O)c1ccc(-c2c3nc(c(-c4c(F)cc(S(=O)(=O)[O-])cc4F)c4ccc([nH]4)c(-c4c(F)cc(S(=O)(=O)[O-])cc4F)c4nc(c(-c5c(F)cc(S(=O)(=O)[O-])cc5F)c5ccc2[nH]5)C=C4)C=C3)cc1)c1ccc(C)cc1
REMARK SMILES IDX 11 1 10 2 9 3 8 4 6 5 7 6 5 8 4 9 3 10 1 11 2 12 84 13 85 14
REMARK SMILES IDX 90 15 86 16 89 17 87 18 88 19 12 20 13 21 14 22 15 23 16 24
REMARK SMILES IDX 17 26 18 27 19 28 83 29 20 30 82 31 21 32 22 33 23 34 76 35
REMARK SMILES IDX 24 36 81 37 75 38 77 39 25 40 80 41 74 42 73 43 26 45 60 46
REMARK SMILES IDX 39 47 59 48 40 49 43 50 58 51 78 52 41 53 42 54 57 56 79 57
REMARK SMILES IDX 44 58 27 59 28 60 37 61 29 62 30 63 36 64 38 65 31 66 32 67
REMARK SMILES IDX 33 68 34 69 35 70 61 71 62 72 71 73 63 74 64 75 70 76 72 77
REMARK SMILES IDX 65 78 66 79 67 80 68 81 69 82 45 83 46 84 55 85 47 86 48 87
REMARK SMILES IDX 54 88 56 89 49 90 50 91 51 92 52 93 53 94
REMARK H PARENT 8 7 15 25 77 44 43 55
REMARK Flexibility Score: inf
ROOT
ATOM      1  C   UNL A   1      35.831  24.222  25.366  1.00  0.00     0.002 C 
ENDROOT
BRANCH   1   2
ATOM      2  C   UNL A   1      34.357  24.487  25.705  1.00  0.00     0.021 C 
BRANCH   2   3
ATOM      3  C   UNL A   1      33.418  23.332  25.359  1.00  0.00     0.116 C 
BRANCH   3   4
ATOM      4  N   UNL A   1      32.356  23.202  26.339  1.00  0.00    -0.353 N 
ATOM      5  C   UNL A   1      31.158  23.857  26.396  1.00  0.00     0.260 C 
ATOM      6  O   UNL A   1      30.403  23.609  27.342  1.00  0.00    -0.271 OA
ATOM      7  H   UNL A   1      32.521  22.553  27.061  1.00  0.00     0.163 HD
BRANCH   5   8
ATOM      8  C   UNL A   1      30.731  24.767  25.246  1.00  0.00     0.363 C 
BRANCH   8   9
ATOM      9  O   UNL A   1      30.401  26.097  25.601  1.00  0.00    -0.385 OA
BRANCH   9  10
ATOM     10  N   UNL A   1      30.073  26.832  24.458  1.00  0.00    -0.091 NA
ATOM     11  C   UNL A   1      30.450  28.836  23.192  1.00  0.00     0.071 C 
ATOM     12  C   UNL A   1      30.778  27.922  24.351  1.00  0.00     0.084 C 
BRANCH  12  13
ATOM     13  C   UNL A   1      31.883  28.354  25.257  1.00  0.00    -0.001 A 
ATOM     14  C   UNL A   1      31.638  29.285  26.272  1.00  0.00     0.010 A 
ATOM     15  C   UNL A   1      33.164  27.813  25.112  1.00  0.00     0.010 A 
ATOM     16  C   UNL A   1      32.674  29.696  27.115  1.00  0.00     0.004 A 
ATOM     17  C   UNL A   1      34.197  28.218  25.964  1.00  0.00     0.004 A 
ATOM     18  C   UNL A   1      33.959  29.163  26.969  1.00  0.00    -0.051 A 
ATOM     19  C   UNL A   1      35.065  29.622  27.875  1.00  0.00     0.044 C 
ENDBRANCH  12  13
ENDBRANCH   9  10
ENDBRANCH   8   9
ENDBRANCH   5   8
ENDBRANCH   3   4
ENDBRANCH   2   3
ENDBRANCH   1   2
BRANCH   1  20
ATOM     20  C   UNL A   1      36.477  23.057  26.123  1.00  0.00     0.002 C 
BRANCH  20  21
ATOM     21  C   UNL A   1      37.983  22.895  25.905  1.00  0.00     0.021 C 
BRANCH  21  22
ATOM     22  C   UNL A   1      38.841  23.967  26.567  1.00  0.00     0.116 C 
BRANCH  22  23
ATOM     23  N   UNL A   1      40.221  23.928  26.107  1.00  0.00    -0.352 N 
ATOM     24  C   UNL A   1      41.267  24.752  26.434  1.00  0.00     0.251 C 
ATOM     25  H   UNL A   1      40.434  23.207  25.472  1.00  0.00     0.163 HD
ATOM     26  O   UNL A   1      42.320  24.683  25.800  1.00  0.00    -0.269 OA
BRANCH  24  27
ATOM     27  C   UNL A   1      41.126  25.734  27.532  1.00  0.00     0.039 A 
ATOM     28  C   UNL A   1      42.063  26.765  27.644  1.00  0.00     0.014 A 
ATOM     29  C   UNL A   1      40.088  25.627  28.462  1.00  0.00     0.014 A 
ATOM     30  C   UNL A   1      41.931  27.713  28.663  1.00  0.00     0.010 A 
ATOM     31  C   UNL A   1      39.914  26.615  29.427  1.00  0.00     0.010 A 
ATOM     32  C   UNL A   1      40.843  27.660  29.549  1.00  0.00    -0.014 A 
BRANCH  32  33
ATOM     33  C   UNL A   1      40.676  28.664  30.632  1.00  0.00     0.031 A 
ATOM     34  C   UNL A   1      41.521  28.572  31.877  1.00  0.00     0.074 A 
ATOM     35  C   UNL A   1      39.736  29.624  30.522  1.00  0.00     0.049 A 
ATOM     36  N   UNL A   1      41.475  29.299  32.962  1.00  0.00    -0.248 NA
ATOM     37  C   UNL A   1      42.531  27.500  31.917  1.00  0.00     0.031 C 
ATOM     38  C   UNL A   1      38.827  29.793  29.386  1.00  0.00     0.029 A 
ATOM     39  N   UNL A   1      39.378  30.632  31.384  1.00  0.00    -0.354 N 
ATOM     40  C   UNL A   1      42.433  28.766  33.818  1.00  0.00     0.074 A 
ATOM     41  C   UNL A   1      43.006  27.619  33.148  1.00  0.00     0.031 C 
ATOM     42  C   UNL A   1      38.033  30.852  29.612  1.00  0.00     0.029 A 
ATOM     43  C   UNL A   1      38.345  31.414  30.922  1.00  0.00     0.049 A 
ATOM     44  H   UNL A   1      39.820  30.779  32.250  1.00  0.00     0.167 HD
ATOM     45  C   UNL A   1      42.820  29.206  35.038  1.00  0.00     0.037 A 
ATOM     46  C   UNL A   1      37.714  32.458  31.496  1.00  0.00     0.037 A 
ATOM     47  C   UNL A   1      42.270  30.369  35.685  1.00  0.00     0.049 A 
ATOM     48  C   UNL A   1      38.165  32.930  32.853  1.00  0.00     0.074 A 
ATOM     49  C   UNL A   1      42.632  30.931  36.897  1.00  0.00     0.029 A 
ATOM     50  N   UNL A   1      41.246  31.152  35.172  1.00  0.00    -0.354 N 
ATOM     51  N   UNL A   1      39.111  32.447  33.623  1.00  0.00    -0.248 NA
ATOM     52  C   UNL A   1      37.469  34.096  33.417  1.00  0.00     0.031 C 
ATOM     53  C   UNL A   1      41.794  32.025  37.139  1.00  0.00     0.029 A 
ATOM     54  C   UNL A   1      40.951  32.180  36.051  1.00  0.00     0.049 A 
ATOM     55  H   UNL A   1      40.795  30.999  34.310  1.00  0.00     0.167 HD
ATOM     56  C   UNL A   1      39.150  33.272  34.742  1.00  0.00     0.074 A 
ATOM     57  C   UNL A   1      38.137  34.288  34.546  1.00  0.00     0.031 C 
ATOM     58  C   UNL A   1      39.952  33.197  35.833  1.00  0.00     0.037 A 
BRANCH  45  59
ATOM     59  C   UNL A   1      43.894  28.434  35.757  1.00  0.00     0.058 A 
ATOM     60  C   UNL A   1      43.585  27.389  36.643  1.00  0.00     0.135 A 
ATOM     61  C   UNL A   1      45.250  28.708  35.518  1.00  0.00     0.135 A 
ATOM     62  F   UNL A   1      42.306  27.094  36.921  1.00  0.00    -0.206 F 
ATOM     63  C   UNL A   1      44.581  26.660  37.284  1.00  0.00     0.059 A 
ATOM     64  C   UNL A   1      46.264  27.972  36.125  1.00  0.00     0.059 A 
ATOM     65  F   UNL A   1      45.603  29.698  34.682  1.00  0.00    -0.206 F 
ATOM     66  C   UNL A   1      45.918  26.957  37.016  1.00  0.00     0.060 A 
BRANCH  66  67
ATOM     67  S   UNL A   1      47.197  25.988  37.841  1.00  0.00     0.124 S 
ATOM     68  O   UNL A   1      46.594  24.659  37.851  1.00  0.00    -0.237 OA
ATOM     69  O   UNL A   1      48.340  26.158  36.950  1.00  0.00    -0.237 OA
ATOM     70  O   UNL A   1      47.322  26.629  39.146  1.00  0.00    -0.744 OA
ENDBRANCH  66  67
ENDBRANCH  45  59
BRANCH  46  71
ATOM     71  C   UNL A   1      36.602  33.143  30.783  1.00  0.00     0.058 A 
ATOM     72  C   UNL A   1      36.851  33.973  29.679  1.00  0.00     0.135 A 
ATOM     73  C   UNL A   1      35.268  32.990  31.195  1.00  0.00     0.135 A 
ATOM     74  F   UNL A   1      38.108  34.156  29.249  1.00  0.00    -0.206 F 
ATOM     75  C   UNL A   1      35.824  34.648  29.027  1.00  0.00     0.059 A 
ATOM     76  C   UNL A   1      34.221  33.631  30.540  1.00  0.00     0.059 A 
ATOM     77  F   UNL A   1      34.972  32.193  32.234  1.00  0.00    -0.206 F 
ATOM     78  C   UNL A   1      34.511  34.471  29.466  1.00  0.00     0.060 A 
BRANCH  78  79
ATOM     79  S   UNL A   1      33.183  35.330  28.596  1.00  0.00     0.124 S 
ATOM     80  O   UNL A   1      33.934  36.253  27.753  1.00  0.00    -0.237 OA
ATOM     81  O   UNL A   1      32.510  34.235  27.905  1.00  0.00    -0.237 OA
ATOM     82  O   UNL A   1      32.417  35.944  29.677  1.00  0.00    -0.744 OA
ENDBRANCH  78  79
ENDBRANCH  46  71
BRANCH  58  83
ATOM     83  C   UNL A   1      39.813  34.272  36.875  1.00  0.00     0.058 A 
ATOM     84  C   UNL A   1      38.951  34.134  37.975  1.00  0.00     0.135 A 
ATOM     85  C   UNL A   1      40.597  35.435  36.800  1.00  0.00     0.135 A 
ATOM     86  F   UNL A   1      38.175  33.045  38.093  1.00  0.00    -0.206 F 
ATOM     87  C   UNL A   1      38.851  35.124  38.948  1.00  0.00     0.059 A 
ATOM     88  C   UNL A   1      40.537  36.423  37.778  1.00  0.00     0.059 A 
ATOM     89  F   UNL A   1      41.448  35.611  35.776  1.00  0.00    -0.206 F 
ATOM     90  C   UNL A   1      39.650  36.264  38.841  1.00  0.00     0.060 A 
BRANCH  90  91
ATOM     91  S   UNL A   1      39.535  37.525  40.127  1.00  0.00     0.124 S 
ATOM     92  O   UNL A   1      38.447  38.358  39.626  1.00  0.00    -0.237 OA
ATOM     93  O   UNL A   1      39.231  36.732  41.315  1.00  0.00    -0.237 OA
ATOM     94  O   UNL A   1      40.857  38.144  40.117  1.00  0.00    -0.744 OA
ENDBRANCH  90  91
ENDBRANCH  58  83
ENDBRANCH  32  33
ENDBRANCH  24  27
ENDBRANCH  22  23
ENDBRANCH  21  22
ENDBRANCH  20  21
ENDBRANCH   1  20
TORSDOF 19
ENDMDL
MODEL 2
REMARK VINA RESULT:     -10.7      2.800      3.724
REMARK SMILES C/C(=N/OCC(=O)NCCCCCCNC(=O)c1ccc(-c2c3nc(c(-c4c(F)cc(S(=O)(=O)[O-])cc4F)c4ccc([nH]4)c(-c4c(F)cc(S(=O)(=O)[O-])cc4F)c4nc(c(-c5c(F)cc(S(=O)(=O)[O-])cc5F)c5ccc2[nH]5)C=C4)C=C3)cc1)c1ccc(C)cc1
REMARK SMILES IDX 11 1 10 2 9 3 8 4 6 5 7 6 5 8 4 9 3 10 1 11 2 12 84 13 85 14
REMARK SMILES IDX 90 15 86 16 89 17 87 18 88 19 12 20 13 21 14 22 15 23 16 24
REMARK SMILES IDX 17 26 18 27 19 28 83 29 20 30 82 31 21 32 22 33 23 34 76 35
REMARK SMILES IDX 24 36 81 37 75 38 77 39 25 40 80 41 74 42 73 43 26 45 60 46
REMARK SMILES IDX 39 47 59 48 40 49 43 50 58 51 78 52 41 53 42 54 57 56 79 57
REMARK SMILES IDX 44 58 27 59 28 60 37 61 29 62 30 63 36 64 38 65 31 66 32 67
REMARK SMILES IDX 33 68 34 69 35 70 61 71 62 72 71 73 63 74 64 75 70 76 72 77
REMARK SMILES IDX 65 78 66 79 67 80 68 81 69 82 45 83 46 84 55 85 47 86 48 87
REMARK SMILES IDX 54 88 56 89 49 90 50 91 51 92 52 93 53 94
REMARK H PARENT 8 7 15 25 77 44 43 55
REMARK Flexibility Score: inf
ROOT
ATOM      1  C   UNL A   1      33.940  22.559  23.478  1.00  0.00     0.002 C 
ENDROOT
BRANCH   1   2
ATOM      2  C   UNL A   1      33.612  23.302  22.175  1.00  0.00     0.021 C 
BRANCH   2   3
ATOM      3  C   UNL A   1      32.649  24.476  22.349  1.00  0.00     0.116 C 
BRANCH   3   4
ATOM      4  N   UNL A   1      33.356  25.743  22.355  1.00  0.00    -0.353 N 
ATOM      5  C   UNL A   1      32.845  27.010  22.368  1.00  0.00     0.260 C 
ATOM      6  O   UNL A   1      33.636  27.959  22.346  1.00  0.00    -0.271 OA
ATOM      7  H   UNL A   1      34.339  25.681  22.350  1.00  0.00     0.163 HD
BRANCH   5   8
ATOM      8  C   UNL A   1      31.341  27.224  22.535  1.00  0.00     0.363 C 
BRANCH   8   9
ATOM      9  O   UNL A   1      30.893  27.447  23.859  1.00  0.00    -0.385 OA
BRANCH   9  10
ATOM     10  N   UNL A   1      30.889  26.246  24.573  1.00  0.00    -0.091 NA
ATOM     11  C   UNL A   1      31.756  25.033  26.455  1.00  0.00     0.071 C 
ATOM     12  C   UNL A   1      31.624  26.304  25.647  1.00  0.00     0.084 C 
BRANCH  12  13
ATOM     13  C   UNL A   1      32.345  27.507  26.161  1.00  0.00    -0.001 A 
ATOM     14  C   UNL A   1      33.732  27.612  26.016  1.00  0.00     0.010 A 
ATOM     15  C   UNL A   1      31.634  28.545  26.771  1.00  0.00     0.010 A 
ATOM     16  C   UNL A   1      34.407  28.733  26.504  1.00  0.00     0.004 A 
ATOM     17  C   UNL A   1      32.311  29.672  27.250  1.00  0.00     0.004 A 
ATOM     18  C   UNL A   1      33.701  29.772  27.121  1.00  0.00    -0.051 A 
ATOM     19  C   UNL A   1      34.443  30.966  27.652  1.00  0.00     0.044 C 
ENDBRANCH  12  13
ENDBRANCH   9  10
ENDBRANCH   8   9
ENDBRANCH   5   8
ENDBRANCH   3   4
ENDBRANCH   2   3
ENDBRANCH   1   2
BRANCH   1  20
ATOM     20  C   UNL A   1      35.383  22.711  23.972  1.00  0.00     0.002 C 
BRANCH  20  21
ATOM     21  C   UNL A   1      35.684  24.018  24.709  1.00  0.00     0.021 C 
BRANCH  21  22
ATOM     22  C   UNL A   1      36.426  23.847  26.029  1.00  0.00     0.116 C 
BRANCH  22  23
ATOM     23  N   UNL A   1      37.569  22.957  25.906  1.00  0.00    -0.352 N 
ATOM     24  C   UNL A   1      38.882  23.179  26.238  1.00  0.00     0.251 C 
ATOM     25  H   UNL A   1      37.373  22.067  25.534  1.00  0.00     0.163 HD
ATOM     26  O   UNL A   1      39.745  22.375  25.887  1.00  0.00    -0.269 OA
BRANCH  24  27
ATOM     27  C   UNL A   1      39.261  24.390  26.999  1.00  0.00     0.039 A 
ATOM     28  C   UNL A   1      38.909  24.482  28.348  1.00  0.00     0.014 A 
ATOM     29  C   UNL A   1      39.943  25.442  26.381  1.00  0.00     0.014 A 
ATOM     30  C   UNL A   1      39.279  25.608  29.087  1.00  0.00     0.010 A 
ATOM     31  C   UNL A   1      40.379  26.527  27.137  1.00  0.00     0.010 A 
ATOM     32  C   UNL A   1      40.038  26.631  28.494  1.00  0.00    -0.014 A 
BRANCH  32  33
ATOM     33  C   UNL A   1      40.453  27.833  29.263  1.00  0.00     0.031 A 
ATOM     34  C   UNL A   1      41.774  27.840  29.989  1.00  0.00     0.074 A 
ATOM     35  C   UNL A   1      39.626  28.893  29.353  1.00  0.00     0.049 A 
ATOM     36  N   UNL A   1      42.281  28.754  30.774  1.00  0.00    -0.248 NA
ATOM     37  C   UNL A   1      42.624  26.646  29.836  1.00  0.00     0.031 C 
ATOM     38  C   UNL A   1      38.304  28.991  28.731  1.00  0.00     0.029 A 
ATOM     39  N   UNL A   1      39.769  30.088  30.014  1.00  0.00    -0.354 N 
ATOM     40  C   UNL A   1      43.495  28.244  31.219  1.00  0.00     0.074 A 
ATOM     41  C   UNL A   1      43.623  26.915  30.662  1.00  0.00     0.031 C 
ATOM     42  C   UNL A   1      37.767  30.188  29.023  1.00  0.00     0.029 A 
ATOM     43  C   UNL A   1      38.686  30.927  29.884  1.00  0.00     0.049 A 
ATOM     44  H   UNL A   1      40.572  30.322  30.534  1.00  0.00     0.167 HD
ATOM     45  C   UNL A   1      44.431  28.836  31.998  1.00  0.00     0.037 A 
ATOM     46  C   UNL A   1      38.455  32.147  30.408  1.00  0.00     0.037 A 
ATOM     47  C   UNL A   1      44.312  30.173  32.521  1.00  0.00     0.049 A 
ATOM     48  C   UNL A   1      39.513  32.786  31.269  1.00  0.00     0.074 A 
ATOM     49  C   UNL A   1      45.229  30.885  33.274  1.00  0.00     0.029 A 
ATOM     50  N   UNL A   1      43.214  31.000  32.341  1.00  0.00    -0.354 N 
ATOM     51  N   UNL A   1      40.680  32.308  31.633  1.00  0.00    -0.248 NA
ATOM     52  C   UNL A   1      39.228  34.132  31.785  1.00  0.00     0.031 C 
ATOM     53  C   UNL A   1      44.664  32.125  33.592  1.00  0.00     0.029 A 
ATOM     54  C   UNL A   1      43.421  32.208  32.985  1.00  0.00     0.049 A 
ATOM     55  H   UNL A   1      42.405  30.763  31.832  1.00  0.00     0.167 HD
ATOM     56  C   UNL A   1      41.283  33.311  32.386  1.00  0.00     0.074 A 
ATOM     57  C   UNL A   1      40.354  34.422  32.420  1.00  0.00     0.031 C 
ATOM     58  C   UNL A   1      42.495  33.313  32.994  1.00  0.00     0.037 A 
BRANCH  45  59
ATOM     59  C   UNL A   1      45.670  28.050  32.331  1.00  0.00     0.058 A 
ATOM     60  C   UNL A   1      45.750  27.249  33.482  1.00  0.00     0.135 A 
ATOM     61  C   UNL A   1      46.772  28.055  31.461  1.00  0.00     0.135 A 
ATOM     62  F   UNL A   1      44.733  27.218  34.357  1.00  0.00    -0.206 F 
ATOM     63  C   UNL A   1      46.888  26.503  33.772  1.00  0.00     0.059 A 
ATOM     64  C   UNL A   1      47.909  27.292  31.715  1.00  0.00     0.059 A 
ATOM     65  F   UNL A   1      46.752  28.804  30.347  1.00  0.00    -0.206 F 
ATOM     66  C   UNL A   1      47.961  26.528  32.880  1.00  0.00     0.060 A 
BRANCH  66  67
ATOM     67  S   UNL A   1      49.420  25.537  33.262  1.00  0.00     0.124 S 
ATOM     68  O   UNL A   1      48.813  24.286  33.706  1.00  0.00    -0.237 OA
ATOM     69  O   UNL A   1      50.107  25.486  31.975  1.00  0.00    -0.237 OA
ATOM     70  O   UNL A   1      50.095  26.310  34.299  1.00  0.00    -0.744 OA
ENDBRANCH  66  67
ENDBRANCH  45  59
BRANCH  46  71
ATOM     71  C   UNL A   1      37.180  32.857  30.118  1.00  0.00     0.058 A 
ATOM     72  C   UNL A   1      36.036  32.642  30.903  1.00  0.00     0.135 A 
ATOM     73  C   UNL A   1      37.074  33.758  29.047  1.00  0.00     0.135 A 
ATOM     74  F   UNL A   1      36.083  31.786  31.935  1.00  0.00    -0.206 F 
ATOM     75  C   UNL A   1      34.828  33.271  30.620  1.00  0.00     0.059 A 
ATOM     76  C   UNL A   1      35.885  34.422  28.763  1.00  0.00     0.059 A 
ATOM     77  F   UNL A   1      38.143  34.015  28.275  1.00  0.00    -0.206 F 
ATOM     78  C   UNL A   1      34.763  34.160  29.546  1.00  0.00     0.060 A 
BRANCH  78  79
ATOM     79  S   UNL A   1      33.197  34.992  29.205  1.00  0.00     0.124 S 
ATOM     80  O   UNL A   1      32.552  34.952  30.512  1.00  0.00    -0.237 OA
ATOM     81  O   UNL A   1      33.642  36.306  28.751  1.00  0.00    -0.237 OA
ATOM     82  O   UNL A   1      32.590  34.154  28.175  1.00  0.00    -0.744 OA
ENDBRANCH  78  79
ENDBRANCH  46  71
BRANCH  58  83
ATOM     83  C   UNL A   1      42.919  34.572  33.699  1.00  0.00     0.058 A 
ATOM     84  C   UNL A   1      42.674  34.777  35.066  1.00  0.00     0.135 A 
ATOM     85  C   UNL A   1      43.630  35.565  33.005  1.00  0.00     0.135 A 
ATOM     86  F   UNL A   1      41.995  33.862  35.776  1.00  0.00    -0.206 F 
ATOM     87  C   UNL A   1      43.096  35.934  35.714  1.00  0.00     0.059 A 
ATOM     88  C   UNL A   1      44.089  36.715  33.640  1.00  0.00     0.059 A 
ATOM     89  F   UNL A   1      43.903  35.414  31.699  1.00  0.00    -0.206 F 
ATOM     90  C   UNL A   1      43.805  36.897  34.992  1.00  0.00     0.060 A 
BRANCH  90  91
ATOM     91  S   UNL A   1      44.374  38.377  35.852  1.00  0.00     0.124 S 
ATOM     92  O   UNL A   1      45.822  38.221  35.781  1.00  0.00    -0.237 OA
ATOM     93  O   UNL A   1      43.810  39.448  35.035  1.00  0.00    -0.237 OA
ATOM     94  O   UNL A   1      43.791  38.242  37.184  1.00  0.00    -0.744 OA
ENDBRANCH  90  91
ENDBRANCH  58  83
ENDBRANCH  32  33
ENDBRANCH  24  27
ENDBRANCH  22  23
ENDBRANCH  21  22
ENDBRANCH  20  21
ENDBRANCH   1  20
TORSDOF 19
ENDMDL
MODEL 3
REMARK VINA RESULT:     -10.5      4.897     11.613
REMARK SMILES C/C(=N/OCC(=O)NCCCCCCNC(=O)c1ccc(-c2c3nc(c(-c4c(F)cc(S(=O)(=O)[O-])cc4F)c4ccc([nH]4)c(-c4c(F)cc(S(=O)(=O)[O-])cc4F)c4nc(c(-c5c(F)cc(S(=O)(=O)[O-])cc5F)c5ccc2[nH]5)C=C4)C=C3)cc1)c1ccc(C)cc1
REMARK SMILES IDX 11 1 10 2 9 3 8 4 6 5 7 6 5 8 4 9 3 10 1 11 2 12 84 13 85 14
REMARK SMILES IDX 90 15 86 16 89 17 87 18 88 19 12 20 13 21 14 22 15 23 16 24
REMARK SMILES IDX 17 26 18 27 19 28 83 29 20 30 82 31 21 32 22 33 23 34 76 35
REMARK SMILES IDX 24 36 81 37 75 38 77 39 25 40 80 41 74 42 73 43 26 45 60 46
REMARK SMILES IDX 39 47 59 48 40 49 43 50 58 51 78 52 41 53 42 54 57 56 79 57
REMARK SMILES IDX 44 58 27 59 28 60 37 61 29 62 30 63 36 64 38 65 31 66 32 67
REMARK SMILES IDX 33 68 34 69 35 70 61 71 62 72 71 73 63 74 64 75 70 76 72 77
REMARK SMILES IDX 65 78 66 79 67 80 68 81 69 82 45 83 46 84 55 85 47 86 48 87
REMARK SMILES IDX 54 88 56 89 49 90 50 91 51 92 52 93 53 94
REMARK H PARENT 8 7 15 25 77 44 43 55
REMARK Flexibility Score: inf
ROOT
ATOM      1  C   UNL A   1      35.213  33.730  31.605  1.00  0.00     0.002 C 
ENDROOT
BRANCH   1   2
ATOM      2  C   UNL A   1      35.152  32.267  32.069  1.00  0.00     0.021 C 
BRANCH   2   3
ATOM      3  C   UNL A   1      36.510  31.671  32.439  1.00  0.00     0.116 C 
BRANCH   3   4
ATOM      4  N   UNL A   1      36.777  31.804  33.860  1.00  0.00    -0.353 N 
ATOM      5  C   UNL A   1      37.980  31.848  34.505  1.00  0.00     0.260 C 
ATOM      6  O   UNL A   1      37.977  31.941  35.737  1.00  0.00    -0.271 OA
ATOM      7  H   UNL A   1      35.981  31.872  34.436  1.00  0.00     0.163 HD
BRANCH   5   8
ATOM      8  C   UNL A   1      39.276  31.909  33.699  1.00  0.00     0.363 C 
BRANCH   8   9
ATOM      9  O   UNL A   1      39.982  30.689  33.572  1.00  0.00    -0.385 OA
BRANCH   9  10
ATOM     10  N   UNL A   1      39.163  29.720  32.985  1.00  0.00    -0.091 NA
ATOM     11  C   UNL A   1      38.993  27.463  32.183  1.00  0.00     0.071 C 
ATOM     12  C   UNL A   1      39.759  28.566  32.879  1.00  0.00     0.084 C 
BRANCH  12  13
ATOM     13  C   UNL A   1      41.123  28.224  33.382  1.00  0.00    -0.001 A 
ATOM     14  C   UNL A   1      41.344  28.046  34.751  1.00  0.00     0.010 A 
ATOM     15  C   UNL A   1      42.182  28.057  32.485  1.00  0.00     0.010 A 
ATOM     16  C   UNL A   1      42.621  27.733  35.223  1.00  0.00     0.004 A 
ATOM     17  C   UNL A   1      43.458  27.734  32.958  1.00  0.00     0.004 A 
ATOM     18  C   UNL A   1      43.686  27.572  34.329  1.00  0.00    -0.051 A 
ATOM     19  C   UNL A   1      45.056  27.247  34.852  1.00  0.00     0.044 C 
ENDBRANCH  12  13
ENDBRANCH   9  10
ENDBRANCH   8   9
ENDBRANCH   5   8
ENDBRANCH   3   4
ENDBRANCH   2   3
ENDBRANCH   1   2
BRANCH   1  20
ATOM     20  C   UNL A   1      35.415  33.930  30.099  1.00  0.00     0.002 C 
BRANCH  20  21
ATOM     21  C   UNL A   1      34.218  33.548  29.226  1.00  0.00     0.021 C 
BRANCH  21  22
ATOM     22  C   UNL A   1      34.569  32.742  27.981  1.00  0.00     0.116 C 
BRANCH  22  23
ATOM     23  N   UNL A   1      33.818  31.498  27.901  1.00  0.00    -0.352 N 
ATOM     24  C   UNL A   1      34.279  30.207  27.889  1.00  0.00     0.251 C 
ATOM     25  H   UNL A   1      32.840  31.598  27.851  1.00  0.00     0.163 HD
ATOM     26  O   UNL A   1      33.506  29.285  27.625  1.00  0.00    -0.269 OA
BRANCH  24  27
ATOM     27  C   UNL A   1      35.703  29.922  28.172  1.00  0.00     0.039 A 
ATOM     28  C   UNL A   1      36.072  29.521  29.459  1.00  0.00     0.014 A 
ATOM     29  C   UNL A   1      36.677  30.070  27.179  1.00  0.00     0.014 A 
ATOM     30  C   UNL A   1      37.409  29.227  29.737  1.00  0.00     0.010 A 
ATOM     31  C   UNL A   1      37.994  29.702  27.437  1.00  0.00     0.010 A 
ATOM     32  C   UNL A   1      38.379  29.292  28.723  1.00  0.00    -0.014 A 
BRANCH  32  33
ATOM     33  C   UNL A   1      39.805  28.973  28.993  1.00  0.00     0.031 A 
ATOM     34  C   UNL A   1      40.715  30.030  29.565  1.00  0.00     0.074 A 
ATOM     35  C   UNL A   1      40.294  27.756  28.679  1.00  0.00     0.049 A 
ATOM     36  N   UNL A   1      42.001  29.975  29.798  1.00  0.00    -0.248 NA
ATOM     37  C   UNL A   1      40.104  31.330  29.887  1.00  0.00     0.031 C 
ATOM     38  C   UNL A   1      39.524  26.663  28.082  1.00  0.00     0.029 A 
ATOM     39  N   UNL A   1      41.559  27.239  28.807  1.00  0.00    -0.354 N 
ATOM     40  C   UNL A   1      42.354  31.231  30.278  1.00  0.00     0.074 A 
ATOM     41  C   UNL A   1      41.158  32.046  30.248  1.00  0.00     0.031 C 
ATOM     42  C   UNL A   1      40.328  25.599  27.915  1.00  0.00     0.029 A 
ATOM     43  C   UNL A   1      41.677  25.945  28.353  1.00  0.00     0.049 A 
ATOM     44  H   UNL A   1      42.312  27.747  29.186  1.00  0.00     0.167 HD
ATOM     45  C   UNL A   1      43.557  31.661  30.727  1.00  0.00     0.037 A 
ATOM     46  C   UNL A   1      42.751  25.134  28.289  1.00  0.00     0.037 A 
ATOM     47  C   UNL A   1      44.734  30.835  30.785  1.00  0.00     0.049 A 
ATOM     48  C   UNL A   1      44.077  25.634  28.797  1.00  0.00     0.074 A 
ATOM     49  C   UNL A   1      45.988  31.158  31.276  1.00  0.00     0.029 A 
ATOM     50  N   UNL A   1      44.805  29.521  30.346  1.00  0.00    -0.354 N 
ATOM     51  N   UNL A   1      44.379  26.808  29.299  1.00  0.00    -0.248 NA
ATOM     52  C   UNL A   1      45.209  24.698  28.739  1.00  0.00     0.031 C 
ATOM     53  C   UNL A   1      46.829  30.056  31.087  1.00  0.00     0.029 A 
ATOM     54  C   UNL A   1      46.084  29.026  30.535  1.00  0.00     0.049 A 
ATOM     55  H   UNL A   1      44.055  29.015  29.956  1.00  0.00     0.167 HD
ATOM     56  C   UNL A   1      45.723  26.738  29.652  1.00  0.00     0.074 A 
ATOM     57  C   UNL A   1      46.173  25.404  29.312  1.00  0.00     0.031 C 
ATOM     58  C   UNL A   1      46.513  27.689  30.209  1.00  0.00     0.037 A 
BRANCH  45  59
ATOM     59  C   UNL A   1      43.664  33.086  31.197  1.00  0.00     0.058 A 
ATOM     60  C   UNL A   1      43.369  33.451  32.522  1.00  0.00     0.135 A 
ATOM     61  C   UNL A   1      44.116  34.092  30.329  1.00  0.00     0.135 A 
ATOM     62  F   UNL A   1      42.917  32.533  33.391  1.00  0.00    -0.206 F 
ATOM     63  C   UNL A   1      43.496  34.765  32.961  1.00  0.00     0.059 A 
ATOM     64  C   UNL A   1      44.280  35.408  30.755  1.00  0.00     0.059 A 
ATOM     65  F   UNL A   1      44.410  33.802  29.051  1.00  0.00    -0.206 F 
ATOM     66  C   UNL A   1      43.955  35.736  32.070  1.00  0.00     0.060 A 
BRANCH  66  67
ATOM     67  S   UNL A   1      44.133  37.431  32.662  1.00  0.00     0.124 S 
ATOM     68  O   UNL A   1      45.542  37.459  33.045  1.00  0.00    -0.237 OA
ATOM     69  O   UNL A   1      43.783  38.212  31.480  1.00  0.00    -0.237 OA
ATOM     70  O   UNL A   1      43.182  37.509  33.766  1.00  0.00    -0.744 OA
ENDBRANCH  66  67
ENDBRANCH  45  59
BRANCH  46  71
ATOM     71  C   UNL A   1      42.617  23.757  27.741  1.00  0.00     0.058 A 
ATOM     72  C   UNL A   1      42.712  23.513  26.362  1.00  0.00     0.135 A 
ATOM     73  C   UNL A   1      42.384  22.657  28.583  1.00  0.00     0.135 A 
ATOM     74  F   UNL A   1      42.929  24.530  25.516  1.00  0.00    -0.206 F 
ATOM     75  C   UNL A   1      42.552  22.236  25.835  1.00  0.00     0.059 A 
ATOM     76  C   UNL A   1      42.251  21.366  28.081  1.00  0.00     0.059 A 
ATOM     77  F   UNL A   1      42.304  22.831  29.912  1.00  0.00    -0.206 F 
ATOM     78  C   UNL A   1      42.321  21.168  26.703  1.00  0.00     0.060 A 
BRANCH  78  79
ATOM     79  S   UNL A   1      42.143  19.510  26.010  1.00  0.00     0.124 S 
ATOM     80  O   UNL A   1      42.998  19.591  24.831  1.00  0.00    -0.237 OA
ATOM     81  O   UNL A   1      42.631  18.669  27.098  1.00  0.00    -0.237 OA
ATOM     82  O   UNL A   1      40.711  19.411  25.744  1.00  0.00    -0.744 OA
ENDBRANCH  78  79
ENDBRANCH  46  71
BRANCH  58  83
ATOM     83  C   UNL A   1      47.930  27.311  30.542  1.00  0.00     0.058 A 
ATOM     84  C   UNL A   1      48.260  26.629  31.724  1.00  0.00     0.135 A 
ATOM     85  C   UNL A   1      48.966  27.589  29.635  1.00  0.00     0.135 A 
ATOM     86  F   UNL A   1      47.309  26.343  32.628  1.00  0.00    -0.206 F 
ATOM     87  C   UNL A   1      49.571  26.260  32.007  1.00  0.00     0.059 A 
ATOM     88  C   UNL A   1      50.279  27.202  29.884  1.00  0.00     0.059 A 
ATOM     89  F   UNL A   1      48.703  28.227  28.484  1.00  0.00    -0.206 F 
ATOM     90  C   UNL A   1      50.574  26.549  31.079  1.00  0.00     0.060 A 
BRANCH  90  91
ATOM     91  S   UNL A   1      52.265  26.037  31.445  1.00  0.00     0.124 S 
ATOM     92  O   UNL A   1      52.696  27.081  32.368  1.00  0.00    -0.237 OA
ATOM     93  O   UNL A   1      52.070  24.714  32.030  1.00  0.00    -0.237 OA
ATOM     94  O   UNL A   1      52.914  26.046  30.137  1.00  0.00    -0.744 OA
ENDBRANCH  90  91
ENDBRANCH  58  83
ENDBRANCH  32  33
ENDBRANCH  24  27
ENDBRANCH  22  23
ENDBRANCH  21  22
ENDBRANCH  20  21
ENDBRANCH   1  20
TORSDOF 19
ENDMDL
