MODEL 1
REMARK VINA RESULT:     -12.1      0.000      0.000
REMARK SMILES Nc1nccc(N2CCC[C@@](Cc3ccc(F)cc3F)(C(=O)NCCCCCCNC(=O)c3ccc(-c4c5nc(c(-c6c(F)cc(S(=O)(=O)[O-])cc6F)c6ccc([nH]6)c(-c6c(F)cc(S(=O)(=O)[O-])cc6F)c6nc(c(-c7c(F)cc(S(=O)(=O)[O-])cc7F)c7ccc4[nH]7)C=C6)C=C5)cc3)C2)n1
REMARK SMILES IDX 27 1 26 2 25 3 24 4 23 5 21 6 22 7 11 9 7 10 8 11 99 12 9 13
REMARK SMILES IDX 10 14 6 15 2 16 3 17 100 18 4 19 5 20 1 21 12 24 13 25 14 26
REMARK SMILES IDX 19 27 15 28 18 29 20 30 16 31 17 32 28 33 29 34 30 35 31 36
REMARK SMILES IDX 32 38 33 39 34 40 98 41 35 42 97 43 36 44 37 45 38 46 91 47
REMARK SMILES IDX 39 48 96 49 90 50 92 51 40 52 95 53 89 54 88 55 41 57 75 58
REMARK SMILES IDX 54 59 74 60 55 61 58 62 73 63 93 64 56 65 57 66 72 68 94 69
REMARK SMILES IDX 59 70 42 71 43 72 52 73 44 74 45 75 51 76 53 77 46 78 47 79
REMARK SMILES IDX 48 80 49 81 50 82 76 83 77 84 86 85 78 86 79 87 85 88 87 89
REMARK SMILES IDX 80 90 81 91 82 92 83 93 84 94 60 95 61 96 70 97 62 98 63 99
REMARK SMILES IDX 69 100 71 101 64 102 65 103 66 104 67 105 68 106
REMARK H PARENT 23 8 1 22 1 23 30 37 92 56 58 67
REMARK Flexibility Score: inf
ROOT
ATOM      1  C   UNL A   1      37.849  23.852  26.171  1.00  0.00     0.002 C 
ENDROOT
BRANCH   1   2
ATOM      2  C   UNL A   1      36.424  23.353  25.892  1.00  0.00     0.002 C 
BRANCH   2   3
ATOM      3  C   UNL A   1      35.926  23.517  24.454  1.00  0.00     0.021 C 
BRANCH   3   4
ATOM      4  C   UNL A   1      34.410  23.551  24.319  1.00  0.00     0.116 C 
BRANCH   4   5
ATOM      5  N   UNL A   1      33.948  23.918  22.998  1.00  0.00    -0.356 N 
ATOM      6  C   UNL A   1      33.241  24.991  22.552  1.00  0.00     0.228 C 
ATOM      7  O   UNL A   1      33.259  25.153  21.326  1.00  0.00    -0.274 OA
ATOM      8  H   UNL A   1      34.188  23.272  22.294  1.00  0.00     0.163 HD
BRANCH   6   9
ATOM      9  C   UNL A   1      32.471  25.966  23.474  1.00  0.00     0.071 C 
ATOM     10  N   UNL A   1      30.215  26.926  23.686  1.00  0.00    -0.355 N 
ATOM     11  C   UNL A   1      29.853  26.324  24.953  1.00  0.00     0.118 C 
ATOM     12  C   UNL A   1      31.059  26.132  22.798  1.00  0.00     0.135 C 
ATOM     13  C   UNL A   1      31.140  26.064  25.721  1.00  0.00     0.023 C 
ATOM     14  C   UNL A   1      32.203  25.349  24.879  1.00  0.00     0.021 C 
BRANCH  10  15
ATOM     15  C   UNL A   1      29.390  27.889  23.147  1.00  0.00     0.134 A 
ATOM     16  C   UNL A   1      29.072  29.808  21.949  1.00  0.00     0.221 A 
ATOM     17  N   UNL A   1      27.758  29.846  22.187  1.00  0.00    -0.222 NA
ATOM     18  N   UNL A   1      29.914  28.881  22.413  1.00  0.00    -0.196 NA
ATOM     19  C   UNL A   1      27.267  28.852  22.942  1.00  0.00     0.119 A 
ATOM     20  C   UNL A   1      28.040  27.832  23.433  1.00  0.00     0.067 A 
BRANCH  16  21
ATOM     21  N   UNL A   1      29.589  30.789  21.154  1.00  0.00    -0.368 N 
ATOM     22  H   UNL A   1      29.945  31.614  21.557  1.00  0.00     0.159 HD
ATOM     23  H   UNL A   1      29.606  30.672  20.177  1.00  0.00     0.159 HD
ENDBRANCH  16  21
ENDBRANCH  10  15
BRANCH   9  24
ATOM     24  C   UNL A   1      33.104  27.397  23.465  1.00  0.00     0.057 C 
BRANCH  24  25
ATOM     25  C   UNL A   1      33.147  28.230  24.720  1.00  0.00    -0.011 A 
ATOM     26  C   UNL A   1      32.300  29.341  24.867  1.00  0.00     0.010 A 
ATOM     27  C   UNL A   1      34.004  27.901  25.779  1.00  0.00     0.129 A 
ATOM     28  C   UNL A   1      32.370  30.132  26.016  1.00  0.00     0.040 A 
ATOM     29  C   UNL A   1      34.077  28.681  26.927  1.00  0.00     0.078 A 
ATOM     30  F   UNL A   1      34.790  26.820  25.687  1.00  0.00    -0.207 F 
ATOM     31  C   UNL A   1      33.267  29.802  27.027  1.00  0.00     0.126 A 
ATOM     32  F   UNL A   1      33.366  30.593  28.101  1.00  0.00    -0.207 F 
ENDBRANCH  24  25
ENDBRANCH   9  24
ENDBRANCH   6   9
ENDBRANCH   4   5
ENDBRANCH   3   4
ENDBRANCH   2   3
ENDBRANCH   1   2
BRANCH   1  33
ATOM     33  C   UNL A   1      38.909  22.767  26.390  1.00  0.00     0.021 C 
BRANCH  33  34
ATOM     34  C   UNL A   1      40.205  23.248  27.027  1.00  0.00     0.116 C 
BRANCH  34  35
ATOM     35  N   UNL A   1      41.113  23.829  26.053  1.00  0.00    -0.352 N 
ATOM     36  C   UNL A   1      41.605  25.106  25.977  1.00  0.00     0.251 C 
ATOM     37  H   UNL A   1      41.417  23.218  25.344  1.00  0.00     0.163 HD
ATOM     38  O   UNL A   1      42.221  25.459  24.970  1.00  0.00    -0.269 OA
BRANCH  36  39
ATOM     39  C   UNL A   1      41.388  26.058  27.085  1.00  0.00     0.039 A 
ATOM     40  C   UNL A   1      40.443  25.745  28.066  1.00  0.00     0.014 A 
ATOM     41  C   UNL A   1      42.091  27.266  27.150  1.00  0.00     0.014 A 
ATOM     42  C   UNL A   1      40.237  26.620  29.135  1.00  0.00     0.010 A 
ATOM     43  C   UNL A   1      41.939  28.100  28.255  1.00  0.00     0.010 A 
ATOM     44  C   UNL A   1      41.002  27.791  29.252  1.00  0.00    -0.014 A 
BRANCH  44  45
ATOM     45  C   UNL A   1      40.826  28.710  30.406  1.00  0.00     0.031 A 
ATOM     46  C   UNL A   1      41.699  28.570  31.623  1.00  0.00     0.074 A 
ATOM     47  C   UNL A   1      39.851  29.639  30.373  1.00  0.00     0.049 A 
ATOM     48  N   UNL A   1      41.667  29.243  32.744  1.00  0.00    -0.248 NA
ATOM     49  C   UNL A   1      42.725  27.515  31.588  1.00  0.00     0.031 C 
ATOM     50  C   UNL A   1      38.918  29.843  29.263  1.00  0.00     0.029 A 
ATOM     51  N   UNL A   1      39.480  30.584  31.296  1.00  0.00    -0.354 N 
ATOM     52  C   UNL A   1      42.657  28.689  33.548  1.00  0.00     0.074 A 
ATOM     53  C   UNL A   1      43.232  27.587  32.809  1.00  0.00     0.031 C 
ATOM     54  C   UNL A   1      38.105  30.871  29.555  1.00  0.00     0.029 A 
ATOM     55  C   UNL A   1      38.431  31.373  30.886  1.00  0.00     0.049 A 
ATOM     56  H   UNL A   1      39.923  30.687  32.169  1.00  0.00     0.167 HD
ATOM     57  C   UNL A   1      43.068  29.082  34.778  1.00  0.00     0.037 A 
ATOM     58  C   UNL A   1      37.802  32.385  31.514  1.00  0.00     0.037 A 
ATOM     59  C   UNL A   1      42.501  30.194  35.496  1.00  0.00     0.049 A 
ATOM     60  C   UNL A   1      38.265  32.797  32.884  1.00  0.00     0.074 A 
ATOM     61  C   UNL A   1      42.874  30.704  36.726  1.00  0.00     0.029 A 
ATOM     62  N   UNL A   1      41.438  30.968  35.048  1.00  0.00    -0.354 N 
ATOM     63  N   UNL A   1      39.234  32.294  33.611  1.00  0.00    -0.248 NA
ATOM     64  C   UNL A   1      37.553  33.914  33.519  1.00  0.00     0.031 C 
ATOM     65  C   UNL A   1      42.007  31.755  37.046  1.00  0.00     0.029 A 
ATOM     66  C   UNL A   1      41.127  31.936  35.990  1.00  0.00     0.049 A 
ATOM     67  H   UNL A   1      40.973  30.846  34.190  1.00  0.00     0.167 HD
ATOM     68  C   UNL A   1      39.264  33.047  34.779  1.00  0.00     0.074 A 
ATOM     69  C   UNL A   1      38.221  34.046  34.657  1.00  0.00     0.031 C 
ATOM     70  C   UNL A   1      40.084  32.923  35.854  1.00  0.00     0.037 A 
BRANCH  57  71
ATOM     71  C   UNL A   1      44.182  28.301  35.422  1.00  0.00     0.058 A 
ATOM     72  C   UNL A   1      45.525  28.642  35.188  1.00  0.00     0.135 A 
ATOM     73  C   UNL A   1      43.926  27.199  36.255  1.00  0.00     0.135 A 
ATOM     74  F   UNL A   1      45.829  29.684  34.399  1.00  0.00    -0.206 F 
ATOM     75  C   UNL A   1      46.573  27.928  35.763  1.00  0.00     0.059 A 
ATOM     76  C   UNL A   1      44.956  26.491  36.865  1.00  0.00     0.059 A 
ATOM     77  F   UNL A   1      42.662  26.835  36.526  1.00  0.00    -0.206 F 
ATOM     78  C   UNL A   1      46.278  26.865  36.614  1.00  0.00     0.060 A 
BRANCH  78  79
ATOM     79  S   UNL A   1      47.600  25.945  37.428  1.00  0.00     0.124 S 
ATOM     80  O   UNL A   1      46.846  25.122  38.369  1.00  0.00    -0.237 OA
ATOM     81  O   UNL A   1      48.213  25.231  36.313  1.00  0.00    -0.237 OA
ATOM     82  O   UNL A   1      48.422  26.990  38.030  1.00  0.00    -0.744 OA
ENDBRANCH  78  79
ENDBRANCH  57  71
BRANCH  58  83
ATOM     83  C   UNL A   1      36.694  33.100  30.824  1.00  0.00     0.058 A 
ATOM     84  C   UNL A   1      36.950  34.116  29.889  1.00  0.00     0.135 A 
ATOM     85  C   UNL A   1      35.355  32.816  31.132  1.00  0.00     0.135 A 
ATOM     86  F   UNL A   1      38.213  34.435  29.572  1.00  0.00    -0.206 F 
ATOM     87  C   UNL A   1      35.920  34.845  29.302  1.00  0.00     0.059 A 
ATOM     88  C   UNL A   1      34.307  33.515  30.540  1.00  0.00     0.059 A 
ATOM     89  F   UNL A   1      35.060  31.849  32.013  1.00  0.00    -0.206 F 
ATOM     90  C   UNL A   1      34.601  34.536  29.634  1.00  0.00     0.060 A 
BRANCH  90  91
ATOM     91  S   UNL A   1      33.233  35.485  28.934  1.00  0.00     0.124 S 
ATOM     92  O   UNL A   1      33.927  36.350  27.987  1.00  0.00    -0.237 OA
ATOM     93  O   UNL A   1      32.404  34.435  28.351  1.00  0.00    -0.237 OA
ATOM     94  O   UNL A   1      32.659  36.156  30.097  1.00  0.00    -0.744 OA
ENDBRANCH  90  91
ENDBRANCH  58  83
BRANCH  70  95
ATOM     95  C   UNL A   1      39.907  33.904  36.980  1.00  0.00     0.058 A 
ATOM     96  C   UNL A   1      39.100  33.581  38.083  1.00  0.00     0.135 A 
ATOM     97  C   UNL A   1      40.474  35.187  36.936  1.00  0.00     0.135 A 
ATOM     98  F   UNL A   1      38.525  32.371  38.169  1.00  0.00    -0.206 F 
ATOM     99  C   UNL A   1      38.847  34.498  39.097  1.00  0.00     0.059 A 
ATOM    100  C   UNL A   1      40.259  36.111  37.954  1.00  0.00     0.059 A 
ATOM    101  F   UNL A   1      41.261  35.544  35.908  1.00  0.00    -0.206 F 
ATOM    102  C   UNL A   1      39.438  35.758  39.028  1.00  0.00     0.060 A 
BRANCH 102 103
ATOM    103  S   UNL A   1      39.135  36.984  40.319  1.00  0.00     0.124 S 
ATOM    104  O   UNL A   1      38.985  38.206  39.535  1.00  0.00    -0.237 OA
ATOM    105  O   UNL A   1      37.917  36.479  40.945  1.00  0.00    -0.237 OA
ATOM    106  O   UNL A   1      40.335  36.912  41.147  1.00  0.00    -0.744 OA
ENDBRANCH 102 103
ENDBRANCH  70  95
ENDBRANCH  44  45
ENDBRANCH  36  39
ENDBRANCH  34  35
ENDBRANCH  33  34
ENDBRANCH   1  33
TORSDOF 20
ENDMDL
MODEL 2
REMARK VINA RESULT:     -12.0      6.389     11.794
REMARK SMILES Nc1nccc(N2CCC[C@@](Cc3ccc(F)cc3F)(C(=O)NCCCCCCNC(=O)c3ccc(-c4c5nc(c(-c6c(F)cc(S(=O)(=O)[O-])cc6F)c6ccc([nH]6)c(-c6c(F)cc(S(=O)(=O)[O-])cc6F)c6nc(c(-c7c(F)cc(S(=O)(=O)[O-])cc7F)c7ccc4[nH]7)C=C6)C=C5)cc3)C2)n1
REMARK SMILES IDX 27 1 26 2 25 3 24 4 23 5 21 6 22 7 11 9 7 10 8 11 99 12 9 13
REMARK SMILES IDX 10 14 6 15 2 16 3 17 100 18 4 19 5 20 1 21 12 24 13 25 14 26
REMARK SMILES IDX 19 27 15 28 18 29 20 30 16 31 17 32 28 33 29 34 30 35 31 36
REMARK SMILES IDX 32 38 33 39 34 40 98 41 35 42 97 43 36 44 37 45 38 46 91 47
REMARK SMILES IDX 39 48 96 49 90 50 92 51 40 52 95 53 89 54 88 55 41 57 75 58
REMARK SMILES IDX 54 59 74 60 55 61 58 62 73 63 93 64 56 65 57 66 72 68 94 69
REMARK SMILES IDX 59 70 42 71 43 72 52 73 44 74 45 75 51 76 53 77 46 78 47 79
REMARK SMILES IDX 48 80 49 81 50 82 76 83 77 84 86 85 78 86 79 87 85 88 87 89
REMARK SMILES IDX 80 90 81 91 82 92 83 93 84 94 60 95 61 96 70 97 62 98 63 99
REMARK SMILES IDX 69 100 71 101 64 102 65 103 66 104 67 105 68 106
REMARK H PARENT 23 8 1 22 1 23 30 37 92 56 58 67
REMARK Flexibility Score: inf
ROOT
ATOM      1  C   UNL A   1      33.378  30.385  26.859  1.00  0.00     0.002 C 
ENDROOT
BRANCH   1   2
ATOM      2  C   UNL A   1      32.633  29.370  25.980  1.00  0.00     0.002 C 
BRANCH   2   3
ATOM      3  C   UNL A   1      33.281  29.051  24.630  1.00  0.00     0.021 C 
BRANCH   3   4
ATOM      4  C   UNL A   1      33.935  27.678  24.561  1.00  0.00     0.116 C 
BRANCH   4   5
ATOM      5  N   UNL A   1      33.637  26.829  25.693  1.00  0.00    -0.356 N 
ATOM      6  C   UNL A   1      33.374  25.497  25.781  1.00  0.00     0.228 C 
ATOM      7  O   UNL A   1      33.447  25.027  26.923  1.00  0.00    -0.274 OA
ATOM      8  H   UNL A   1      33.620  27.301  26.557  1.00  0.00     0.163 HD
BRANCH   6   9
ATOM      9  C   UNL A   1      33.019  24.602  24.570  1.00  0.00     0.071 C 
ATOM     10  N   UNL A   1      31.927  22.444  24.116  1.00  0.00    -0.355 N 
ATOM     11  C   UNL A   1      30.789  22.942  23.372  1.00  0.00     0.118 C 
ATOM     12  C   UNL A   1      32.424  23.287  25.199  1.00  0.00     0.135 C 
ATOM     13  C   UNL A   1      31.203  24.253  22.723  1.00  0.00     0.023 C 
ATOM     14  C   UNL A   1      31.878  25.217  23.706  1.00  0.00     0.021 C 
BRANCH  10  15
ATOM     15  C   UNL A   1      32.146  21.084  24.168  1.00  0.00     0.134 A 
ATOM     16  C   UNL A   1      32.646  19.181  25.328  1.00  0.00     0.221 A 
ATOM     17  N   UNL A   1      32.689  18.417  24.233  1.00  0.00    -0.222 NA
ATOM     18  N   UNL A   1      32.403  20.494  25.344  1.00  0.00    -0.196 NA
ATOM     19  C   UNL A   1      32.448  19.040  23.070  1.00  0.00     0.119 A 
ATOM     20  C   UNL A   1      32.149  20.374  22.983  1.00  0.00     0.067 A 
BRANCH  16  21
ATOM     21  N   UNL A   1      32.853  18.563  26.527  1.00  0.00    -0.368 N 
ATOM     22  H   UNL A   1      32.227  18.710  27.272  1.00  0.00     0.159 HD
ATOM     23  H   UNL A   1      33.630  17.970  26.646  1.00  0.00     0.159 HD
ENDBRANCH  16  21
ENDBRANCH  10  15
BRANCH   9  24
ATOM     24  C   UNL A   1      34.296  24.145  23.791  1.00  0.00     0.057 C 
BRANCH  24  25
ATOM     25  C   UNL A   1      35.459  23.516  24.514  1.00  0.00    -0.011 A 
ATOM     26  C   UNL A   1      36.252  24.278  25.387  1.00  0.00     0.010 A 
ATOM     27  C   UNL A   1      35.755  22.154  24.361  1.00  0.00     0.129 A 
ATOM     28  C   UNL A   1      37.351  23.699  26.027  1.00  0.00     0.040 A 
ATOM     29  C   UNL A   1      36.844  21.570  24.997  1.00  0.00     0.078 A 
ATOM     30  F   UNL A   1      34.988  21.391  23.572  1.00  0.00    -0.207 F 
ATOM     31  C   UNL A   1      37.643  22.355  25.814  1.00  0.00     0.126 A 
ATOM     32  F   UNL A   1      38.726  21.820  26.388  1.00  0.00    -0.207 F 
ENDBRANCH  24  25
ENDBRANCH   9  24
ENDBRANCH   6   9
ENDBRANCH   4   5
ENDBRANCH   3   4
ENDBRANCH   2   3
ENDBRANCH   1   2
BRANCH   1  33
ATOM     33  C   UNL A   1      34.666  29.882  27.518  1.00  0.00     0.021 C 
BRANCH  33  34
ATOM     34  C   UNL A   1      35.511  30.956  28.191  1.00  0.00     0.116 C 
BRANCH  34  35
ATOM     35  N   UNL A   1      35.417  30.901  29.639  1.00  0.00    -0.352 N 
ATOM     36  C   UNL A   1      36.297  30.375  30.548  1.00  0.00     0.251 C 
ATOM     37  H   UNL A   1      34.603  31.297  30.024  1.00  0.00     0.163 HD
ATOM     38  O   UNL A   1      35.956  30.259  31.726  1.00  0.00    -0.269 OA
BRANCH  36  39
ATOM     39  C   UNL A   1      37.641  29.934  30.118  1.00  0.00     0.039 A 
ATOM     40  C   UNL A   1      37.987  30.048  28.770  1.00  0.00     0.014 A 
ATOM     41  C   UNL A   1      38.550  29.389  31.032  1.00  0.00     0.014 A 
ATOM     42  C   UNL A   1      39.260  29.659  28.345  1.00  0.00     0.010 A 
ATOM     43  C   UNL A   1      39.843  29.073  30.621  1.00  0.00     0.010 A 
ATOM     44  C   UNL A   1      40.206  29.193  29.272  1.00  0.00    -0.014 A 
BRANCH  44  45
ATOM     45  C   UNL A   1      41.578  28.817  28.843  1.00  0.00     0.031 A 
ATOM     46  C   UNL A   1      42.678  29.843  28.845  1.00  0.00     0.074 A 
ATOM     47  C   UNL A   1      41.818  27.564  28.410  1.00  0.00     0.049 A 
ATOM     48  N   UNL A   1      43.923  29.719  28.463  1.00  0.00    -0.248 NA
ATOM     49  C   UNL A   1      42.326  31.194  29.311  1.00  0.00     0.031 C 
ATOM     50  C   UNL A   1      40.822  26.495  28.326  1.00  0.00     0.029 A 
ATOM     51  N   UNL A   1      42.973  26.977  27.958  1.00  0.00    -0.354 N 
ATOM     52  C   UNL A   1      44.498  30.973  28.633  1.00  0.00     0.074 A 
ATOM     53  C   UNL A   1      43.452  31.858  29.096  1.00  0.00     0.031 C 
ATOM     54  C   UNL A   1      41.415  25.374  27.885  1.00  0.00     0.029 A 
ATOM     55  C   UNL A   1      42.822  25.654  27.616  1.00  0.00     0.049 A 
ATOM     56  H   UNL A   1      43.829  27.458  27.885  1.00  0.00     0.167 HD
ATOM     57  C   UNL A   1      45.788  31.347  28.447  1.00  0.00     0.037 A 
ATOM     58  C   UNL A   1      43.716  24.767  27.138  1.00  0.00     0.037 A 
ATOM     59  C   UNL A   1      46.826  30.452  28.005  1.00  0.00     0.049 A 
ATOM     60  C   UNL A   1      45.139  25.204  26.926  1.00  0.00     0.074 A 
ATOM     61  C   UNL A   1      48.172  30.716  27.828  1.00  0.00     0.029 A 
ATOM     62  N   UNL A   1      46.632  29.119  27.666  1.00  0.00    -0.354 N 
ATOM     63  N   UNL A   1      45.678  26.382  27.137  1.00  0.00    -0.248 NA
ATOM     64  C   UNL A   1      46.076  24.195  26.415  1.00  0.00     0.031 C 
ATOM     65  C   UNL A   1      48.784  29.558  27.337  1.00  0.00     0.029 A 
ATOM     66  C   UNL A   1      47.830  28.555  27.260  1.00  0.00     0.049 A 
ATOM     67  H   UNL A   1      45.771  28.645  27.709  1.00  0.00     0.167 HD
ATOM     68  C   UNL A   1      47.022  26.250  26.806  1.00  0.00     0.074 A 
ATOM     69  C   UNL A   1      47.215  24.875  26.390  1.00  0.00     0.031 C 
ATOM     70  C   UNL A   1      48.007  27.184  26.847  1.00  0.00     0.037 A 
BRANCH  57  71
ATOM     71  C   UNL A   1      46.143  32.784  28.720  1.00  0.00     0.058 A 
ATOM     72  C   UNL A   1      46.597  33.181  29.989  1.00  0.00     0.135 A 
ATOM     73  C   UNL A   1      46.015  33.777  27.735  1.00  0.00     0.135 A 
ATOM     74  F   UNL A   1      46.737  32.276  30.970  1.00  0.00    -0.206 F 
ATOM     75  C   UNL A   1      46.921  34.505  30.270  1.00  0.00     0.059 A 
ATOM     76  C   UNL A   1      46.362  35.101  27.983  1.00  0.00     0.059 A 
ATOM     77  F   UNL A   1      45.598  33.454  26.500  1.00  0.00    -0.206 F 
ATOM     78  C   UNL A   1      46.817  35.455  29.255  1.00  0.00     0.060 A 
BRANCH  78  79
ATOM     79  S   UNL A   1      47.279  37.173  29.553  1.00  0.00     0.124 S 
ATOM     80  O   UNL A   1      46.077  37.879  29.118  1.00  0.00    -0.237 OA
ATOM     81  O   UNL A   1      47.533  37.182  30.990  1.00  0.00    -0.237 OA
ATOM     82  O   UNL A   1      48.455  37.362  28.709  1.00  0.00    -0.744 OA
ENDBRANCH  78  79
ENDBRANCH  57  71
BRANCH  58  83
ATOM     83  C   UNL A   1      43.289  23.367  26.871  1.00  0.00     0.058 A 
ATOM     84  C   UNL A   1      43.012  22.475  27.919  1.00  0.00     0.135 A 
ATOM     85  C   UNL A   1      43.206  22.879  25.559  1.00  0.00     0.135 A 
ATOM     86  F   UNL A   1      43.092  22.888  29.193  1.00  0.00    -0.206 F 
ATOM     87  C   UNL A   1      42.693  21.141  27.679  1.00  0.00     0.059 A 
ATOM     88  C   UNL A   1      42.866  21.557  25.292  1.00  0.00     0.059 A 
ATOM     89  F   UNL A   1      43.454  23.696  24.523  1.00  0.00    -0.206 F 
ATOM     90  C   UNL A   1      42.622  20.692  26.361  1.00  0.00     0.060 A 
BRANCH  90  91
ATOM     91  S   UNL A   1      42.257  18.960  26.001  1.00  0.00     0.124 S 
ATOM     92  O   UNL A   1      42.719  18.301  27.218  1.00  0.00    -0.237 OA
ATOM     93  O   UNL A   1      40.812  18.991  25.802  1.00  0.00    -0.237 OA
ATOM     94  O   UNL A   1      43.044  18.692  24.801  1.00  0.00    -0.744 OA
ENDBRANCH  90  91
ENDBRANCH  58  83
BRANCH  70  95
ATOM     95  C   UNL A   1      49.391  26.751  26.453  1.00  0.00     0.058 A 
ATOM     96  C   UNL A   1      49.820  26.866  25.120  1.00  0.00     0.135 A 
ATOM     97  C   UNL A   1      50.268  26.156  27.374  1.00  0.00     0.135 A 
ATOM     98  F   UNL A   1      49.017  27.419  24.198  1.00  0.00    -0.206 F 
ATOM     99  C   UNL A   1      51.062  26.396  24.708  1.00  0.00     0.059 A 
ATOM    100  C   UNL A   1      51.526  25.703  26.990  1.00  0.00     0.059 A 
ATOM    101  F   UNL A   1      49.911  26.027  28.662  1.00  0.00    -0.206 F 
ATOM    102  C   UNL A   1      51.912  25.822  25.653  1.00  0.00     0.060 A 
BRANCH 102 103
ATOM    103  S   UNL A   1      53.532  25.192  25.164  1.00  0.00     0.124 S 
ATOM    104  O   UNL A   1      53.605  25.620  23.770  1.00  0.00    -0.237 OA
ATOM    105  O   UNL A   1      54.425  25.884  26.088  1.00  0.00    -0.237 OA
ATOM    106  O   UNL A   1      53.416  23.752  25.373  1.00  0.00    -0.744 OA
ENDBRANCH 102 103
ENDBRANCH  70  95
ENDBRANCH  44  45
ENDBRANCH  36  39
ENDBRANCH  34  35
ENDBRANCH  33  34
ENDBRANCH   1  33
TORSDOF 20
ENDMDL
MODEL 3
REMARK VINA RESULT:     -11.8      6.155     11.402
REMARK SMILES Nc1nccc(N2CCC[C@@](Cc3ccc(F)cc3F)(C(=O)NCCCCCCNC(=O)c3ccc(-c4c5nc(c(-c6c(F)cc(S(=O)(=O)[O-])cc6F)c6ccc([nH]6)c(-c6c(F)cc(S(=O)(=O)[O-])cc6F)c6nc(c(-c7c(F)cc(S(=O)(=O)[O-])cc7F)c7ccc4[nH]7)C=C6)C=C5)cc3)C2)n1
REMARK SMILES IDX 27 1 26 2 25 3 24 4 23 5 21 6 22 7 11 9 7 10 8 11 99 12 9 13
REMARK SMILES IDX 10 14 6 15 2 16 3 17 100 18 4 19 5 20 1 21 12 24 13 25 14 26
REMARK SMILES IDX 19 27 15 28 18 29 20 30 16 31 17 32 28 33 29 34 30 35 31 36
REMARK SMILES IDX 32 38 33 39 34 40 98 41 35 42 97 43 36 44 37 45 38 46 91 47
REMARK SMILES IDX 39 48 96 49 90 50 92 51 40 52 95 53 89 54 88 55 41 57 75 58
REMARK SMILES IDX 54 59 74 60 55 61 58 62 73 63 93 64 56 65 57 66 72 68 94 69
REMARK SMILES IDX 59 70 42 71 43 72 52 73 44 74 45 75 51 76 53 77 46 78 47 79
REMARK SMILES IDX 48 80 49 81 50 82 76 83 77 84 86 85 78 86 79 87 85 88 87 89
REMARK SMILES IDX 80 90 81 91 82 92 83 93 84 94 60 95 61 96 70 97 62 98 63 99
REMARK SMILES IDX 69 100 71 101 64 102 65 103 66 104 67 105 68 106
REMARK H PARENT 23 8 1 22 1 23 30 37 92 56 58 67
REMARK Flexibility Score: inf
ROOT
ATOM      1  C   UNL A   1      35.761  29.708  27.719  1.00  0.00     0.002 C 
ENDROOT
BRANCH   1   2
ATOM      2  C   UNL A   1      34.414  29.111  27.289  1.00  0.00     0.002 C 
BRANCH   2   3
ATOM      3  C   UNL A   1      33.292  30.117  27.016  1.00  0.00     0.021 C 
BRANCH   3   4
ATOM      4  C   UNL A   1      32.659  29.988  25.638  1.00  0.00     0.116 C 
BRANCH   4   5
ATOM      5  N   UNL A   1      33.481  29.284  24.680  1.00  0.00    -0.356 N 
ATOM      6  C   UNL A   1      33.290  28.115  24.010  1.00  0.00     0.228 C 
ATOM      7  O   UNL A   1      34.047  27.937  23.047  1.00  0.00    -0.274 OA
ATOM      8  H   UNL A   1      34.334  29.732  24.474  1.00  0.00     0.163 HD
BRANCH   6   9
ATOM      9  C   UNL A   1      32.214  27.068  24.383  1.00  0.00     0.071 C 
ATOM     10  N   UNL A   1      32.077  24.689  24.997  1.00  0.00    -0.355 N 
ATOM     11  C   UNL A   1      31.586  24.854  26.349  1.00  0.00     0.118 C 
ATOM     12  C   UNL A   1      32.998  25.707  24.503  1.00  0.00     0.135 C 
ATOM     13  C   UNL A   1      30.823  26.168  26.404  1.00  0.00     0.023 C 
ATOM     14  C   UNL A   1      31.604  27.336  25.790  1.00  0.00     0.021 C 
BRANCH  10  15
ATOM     15  C   UNL A   1      32.119  23.422  24.453  1.00  0.00     0.134 A 
ATOM     16  C   UNL A   1      32.322  21.157  24.673  1.00  0.00     0.221 A 
ATOM     17  N   UNL A   1      32.316  20.939  23.355  1.00  0.00    -0.222 NA
ATOM     18  N   UNL A   1      32.247  22.357  25.257  1.00  0.00    -0.196 NA
ATOM     19  C   UNL A   1      32.209  22.027  22.578  1.00  0.00     0.119 A 
ATOM     20  C   UNL A   1      32.085  23.296  23.078  1.00  0.00     0.067 A 
BRANCH  16  21
ATOM     21  N   UNL A   1      32.395  20.064  25.486  1.00  0.00    -0.368 N 
ATOM     22  H   UNL A   1      31.711  19.917  26.178  1.00  0.00     0.159 HD
ATOM     23  H   UNL A   1      33.133  19.421  25.378  1.00  0.00     0.159 HD
ENDBRANCH  16  21
ENDBRANCH  10  15
BRANCH   9  24
ATOM     24  C   UNL A   1      31.188  26.851  23.222  1.00  0.00     0.057 C 
BRANCH  24  25
ATOM     25  C   UNL A   1      30.147  27.894  22.907  1.00  0.00    -0.011 A 
ATOM     26  C   UNL A   1      30.501  29.074  22.234  1.00  0.00     0.010 A 
ATOM     27  C   UNL A   1      28.801  27.697  23.246  1.00  0.00     0.129 A 
ATOM     28  C   UNL A   1      29.539  30.054  21.977  1.00  0.00     0.040 A 
ATOM     29  C   UNL A   1      27.837  28.666  22.991  1.00  0.00     0.078 A 
ATOM     30  F   UNL A   1      28.424  26.561  23.847  1.00  0.00    -0.207 F 
ATOM     31  C   UNL A   1      28.220  29.845  22.370  1.00  0.00     0.126 A 
ATOM     32  F   UNL A   1      27.315  30.809  22.168  1.00  0.00    -0.207 F 
ENDBRANCH  24  25
ENDBRANCH   9  24
ENDBRANCH   6   9
ENDBRANCH   4   5
ENDBRANCH   3   4
ENDBRANCH   2   3
ENDBRANCH   1   2
BRANCH   1  33
ATOM     33  C   UNL A   1      35.899  30.049  29.206  1.00  0.00     0.021 C 
BRANCH  33  34
ATOM     34  C   UNL A   1      36.124  31.522  29.515  1.00  0.00     0.116 C 
BRANCH  34  35
ATOM     35  N   UNL A   1      36.232  31.775  30.941  1.00  0.00    -0.352 N 
ATOM     36  C   UNL A   1      37.265  31.494  31.798  1.00  0.00     0.251 C 
ATOM     37  H   UNL A   1      35.451  32.208  31.353  1.00  0.00     0.163 HD
ATOM     38  O   UNL A   1      37.097  31.618  33.012  1.00  0.00    -0.269 OA
BRANCH  36  39
ATOM     39  C   UNL A   1      38.566  31.031  31.273  1.00  0.00     0.039 A 
ATOM     40  C   UNL A   1      39.283  30.077  32.000  1.00  0.00     0.014 A 
ATOM     41  C   UNL A   1      39.092  31.547  30.084  1.00  0.00     0.014 A 
ATOM     42  C   UNL A   1      40.505  29.608  31.511  1.00  0.00     0.010 A 
ATOM     43  C   UNL A   1      40.272  31.023  29.561  1.00  0.00     0.010 A 
ATOM     44  C   UNL A   1      40.996  30.058  30.275  1.00  0.00    -0.014 A 
BRANCH  44  45
ATOM     45  C   UNL A   1      42.272  29.536  29.721  1.00  0.00     0.031 A 
ATOM     46  C   UNL A   1      43.491  30.417  29.672  1.00  0.00     0.074 A 
ATOM     47  C   UNL A   1      42.317  28.286  29.220  1.00  0.00     0.049 A 
ATOM     48  N   UNL A   1      44.677  30.159  29.185  1.00  0.00    -0.248 NA
ATOM     49  C   UNL A   1      43.350  31.777  30.218  1.00  0.00     0.031 C 
ATOM     50  C   UNL A   1      41.189  27.354  29.177  1.00  0.00     0.029 A 
ATOM     51  N   UNL A   1      43.350  27.584  28.652  1.00  0.00    -0.354 N 
ATOM     52  C   UNL A   1      45.418  31.323  29.356  1.00  0.00     0.074 A 
ATOM     53  C   UNL A   1      44.531  32.307  29.938  1.00  0.00     0.031 C 
ATOM     54  C   UNL A   1      41.600  26.191  28.645  1.00  0.00     0.029 A 
ATOM     55  C   UNL A   1      43.006  26.308  28.273  1.00  0.00     0.049 A 
ATOM     56  H   UNL A   1      44.252  27.959  28.528  1.00  0.00     0.167 HD
ATOM     57  C   UNL A   1      46.726  31.543  29.079  1.00  0.00     0.037 A 
ATOM     58  C   UNL A   1      43.741  25.342  27.688  1.00  0.00     0.037 A 
ATOM     59  C   UNL A   1      47.605  30.550  28.518  1.00  0.00     0.049 A 
ATOM     60  C   UNL A   1      45.188  25.610  27.377  1.00  0.00     0.074 A 
ATOM     61  C   UNL A   1      48.956  30.654  28.242  1.00  0.00     0.029 A 
ATOM     62  N   UNL A   1      47.218  29.269  28.145  1.00  0.00    -0.354 N 
ATOM     63  N   UNL A   1      45.886  26.700  27.589  1.00  0.00    -0.248 NA
ATOM     64  C   UNL A   1      45.947  24.520  26.752  1.00  0.00     0.031 C 
ATOM     65  C   UNL A   1      49.377  29.454  27.658  1.00  0.00     0.029 A 
ATOM     66  C   UNL A   1      48.301  28.582  27.619  1.00  0.00     0.049 A 
ATOM     67  H   UNL A   1      46.310  28.904  28.239  1.00  0.00     0.167 HD
ATOM     68  C   UNL A   1      47.173  26.420  27.144  1.00  0.00     0.074 A 
ATOM     69  C   UNL A   1      47.157  25.054  26.660  1.00  0.00     0.031 C 
ATOM     70  C   UNL A   1      48.269  27.222  27.140  1.00  0.00     0.037 A 
BRANCH  57  71
ATOM     71  C   UNL A   1      47.281  32.910  29.378  1.00  0.00     0.058 A 
ATOM     72  C   UNL A   1      47.820  33.203  30.643  1.00  0.00     0.135 A 
ATOM     73  C   UNL A   1      47.262  33.940  28.424  1.00  0.00     0.135 A 
ATOM     74  F   UNL A   1      47.863  32.259  31.595  1.00  0.00    -0.206 F 
ATOM     75  C   UNL A   1      48.329  34.463  30.947  1.00  0.00     0.059 A 
ATOM     76  C   UNL A   1      47.793  35.197  28.696  1.00  0.00     0.059 A 
ATOM     77  F   UNL A   1      46.771  33.714  27.195  1.00  0.00    -0.206 F 
ATOM     78  C   UNL A   1      48.327  35.448  29.962  1.00  0.00     0.060 A 
BRANCH  78  79
ATOM     79  S   UNL A   1      49.027  37.078  30.290  1.00  0.00     0.124 S 
ATOM     80  O   UNL A   1      49.435  36.945  31.686  1.00  0.00    -0.237 OA
ATOM     81  O   UNL A   1      50.112  37.152  29.318  1.00  0.00    -0.237 OA
ATOM     82  O   UNL A   1      47.909  37.985  30.049  1.00  0.00    -0.744 OA
ENDBRANCH  78  79
ENDBRANCH  57  71
BRANCH  58  83
ATOM     83  C   UNL A   1      43.120  24.020  27.402  1.00  0.00     0.058 A 
ATOM     84  C   UNL A   1      43.023  23.029  28.392  1.00  0.00     0.135 A 
ATOM     85  C   UNL A   1      42.663  23.705  26.114  1.00  0.00     0.135 A 
ATOM     86  F   UNL A   1      43.461  23.276  29.636  1.00  0.00    -0.206 F 
ATOM     87  C   UNL A   1      42.520  21.762  28.110  1.00  0.00     0.059 A 
ATOM     88  C   UNL A   1      42.134  22.454  25.814  1.00  0.00     0.059 A 
ATOM     89  F   UNL A   1      42.727  24.623  25.137  1.00  0.00    -0.206 F 
ATOM     90  C   UNL A   1      42.077  21.485  26.817  1.00  0.00     0.060 A 
BRANCH  90  91
ATOM     91  S   UNL A   1      41.460  19.841  26.393  1.00  0.00     0.124 S 
ATOM     92  O   UNL A   1      41.689  19.109  27.634  1.00  0.00    -0.237 OA
ATOM     93  O   UNL A   1      40.065  20.118  26.063  1.00  0.00    -0.237 OA
ATOM     94  O   UNL A   1      42.298  19.447  25.264  1.00  0.00    -0.744 OA
ENDBRANCH  90  91
ENDBRANCH  58  83
BRANCH  70  95
ATOM     95  C   UNL A   1      49.553  26.641  26.617  1.00  0.00     0.058 A 
ATOM     96  C   UNL A   1      50.444  25.990  27.486  1.00  0.00     0.135 A 
ATOM     97  C   UNL A   1      49.937  26.789  25.276  1.00  0.00     0.135 A 
ATOM     98  F   UNL A   1      50.130  25.831  28.781  1.00  0.00    -0.206 F 
ATOM     99  C   UNL A   1      51.678  25.519  27.050  1.00  0.00     0.059 A 
ATOM    100  C   UNL A   1      51.155  26.301  24.810  1.00  0.00     0.059 A 
ATOM    101  F   UNL A   1      49.119  27.397  24.401  1.00  0.00    -0.206 F 
ATOM    102  C   UNL A   1      52.021  25.672  25.708  1.00  0.00     0.060 A 
BRANCH 102 103
ATOM    103  S   UNL A   1      53.614  25.082  25.097  1.00  0.00     0.124 S 
ATOM    104  O   UNL A   1      53.439  23.635  25.171  1.00  0.00    -0.237 OA
ATOM    105  O   UNL A   1      53.658  25.647  23.752  1.00  0.00    -0.237 OA
ATOM    106  O   UNL A   1      54.573  25.647  26.040  1.00  0.00    -0.744 OA
ENDBRANCH 102 103
ENDBRANCH  70  95
ENDBRANCH  44  45
ENDBRANCH  36  39
ENDBRANCH  34  35
ENDBRANCH  33  34
ENDBRANCH   1  33
TORSDOF 20
ENDMDL
