MODEL 1
REMARK VINA RESULT:      -9.9      0.000      0.000
REMARK SMILES CCN(CCC(=O)NCCCCCCNC(=O)c1ccc(-c2c3nc(c(-c4c(F)cc(S(=O)(=O)[O-])cc4F)c4ccc([nH]4)c(-c4c(F)cc(S(=O)(=O)[O-])cc4F)c4nc(c(-c5c(F)cc(S(=O)(=O)[O-])cc5F)c5ccc2[nH]5)C=C4)C=C3)cc1)C(=O)C1(C)CCCC1
REMARK SMILES IDX 11 1 10 2 9 3 8 4 6 5 7 6 5 8 4 9 3 10 2 11 1 12 84 13 85 14
REMARK SMILES IDX 86 15 87 16 88 17 91 18 89 19 90 20 12 21 13 22 14 23 15 24
REMARK SMILES IDX 16 25 17 27 18 28 19 29 83 30 20 31 82 32 21 33 22 34 23 35
REMARK SMILES IDX 76 36 24 37 81 38 75 39 77 40 25 41 80 42 74 43 73 44 26 46
REMARK SMILES IDX 60 47 39 48 59 49 40 50 43 51 58 52 78 53 41 54 42 55 57 57
REMARK SMILES IDX 79 58 44 59 27 60 28 61 37 62 29 63 30 64 36 65 38 66 31 67
REMARK SMILES IDX 32 68 33 69 34 70 35 71 61 72 62 73 71 74 63 75 64 76 70 77
REMARK SMILES IDX 72 78 65 79 66 80 67 81 68 82 69 83 45 84 46 85 55 86 47 87
REMARK SMILES IDX 48 88 54 89 56 90 49 91 50 92 51 93 52 94 53 95
REMARK H PARENT 8 7 15 26 77 45 43 56
REMARK Flexibility Score: inf
ROOT
ATOM      1  C   UNL A   1      40.371  22.157  26.961  1.00  0.00     0.002 C 
ENDROOT
BRANCH   1   2
ATOM      2  C   UNL A   1      39.175  21.668  26.123  1.00  0.00     0.021 C 
BRANCH   2   3
ATOM      3  C   UNL A   1      38.075  22.707  25.861  1.00  0.00     0.116 C 
BRANCH   3   4
ATOM      4  N   UNL A   1      37.435  22.613  24.561  1.00  0.00    -0.356 N 
ATOM      5  C   UNL A   1      36.367  23.277  24.037  1.00  0.00     0.221 C 
ATOM      6  O   UNL A   1      36.191  23.238  22.816  1.00  0.00    -0.275 OA
ATOM      7  H   UNL A   1      37.845  21.956  23.953  1.00  0.00     0.163 HD
BRANCH   5   8
ATOM      8  C   UNL A   1      35.432  24.067  24.922  1.00  0.00     0.121 C 
BRANCH   8   9
ATOM      9  C   UNL A   1      33.965  23.739  24.635  1.00  0.00     0.129 C 
BRANCH   9  10
ATOM     10  N   UNL A   1      32.998  24.574  25.374  1.00  0.00    -0.342 N 
BRANCH  10  11
ATOM     11  C   UNL A   1      31.889  23.849  25.993  1.00  0.00     0.116 C 
ATOM     12  C   UNL A   1      32.254  22.462  26.493  1.00  0.00     0.027 C 
ENDBRANCH  10  11
BRANCH  10  13
ATOM     13  C   UNL A   1      33.141  25.953  25.250  1.00  0.00     0.228 C 
ATOM     14  O   UNL A   1      33.658  26.571  26.192  1.00  0.00    -0.274 OA
BRANCH  13  15
ATOM     15  C   UNL A   1      32.476  26.800  24.122  1.00  0.00     0.047 C 
ATOM     16  C   UNL A   1      31.431  27.674  24.841  1.00  0.00     0.022 C 
ATOM     17  C   UNL A   1      33.568  27.733  23.489  1.00  0.00     0.016 C 
ATOM     18  C   UNL A   1      31.831  26.150  22.892  1.00  0.00     0.016 C 
ATOM     19  C   UNL A   1      33.652  27.401  22.003  1.00  0.00     0.001 C 
ATOM     20  C   UNL A   1      32.923  26.086  21.855  1.00  0.00     0.001 C 
ENDBRANCH  13  15
ENDBRANCH  10  13
ENDBRANCH   9  10
ENDBRANCH   8   9
ENDBRANCH   5   8
ENDBRANCH   3   4
ENDBRANCH   2   3
ENDBRANCH   1   2
BRANCH   1  21
ATOM     21  C   UNL A   1      41.789  21.768  26.494  1.00  0.00     0.002 C 
BRANCH  21  22
ATOM     22  C   UNL A   1      43.028  22.395  27.147  1.00  0.00     0.021 C 
BRANCH  22  23
ATOM     23  C   UNL A   1      43.603  23.679  26.553  1.00  0.00     0.116 C 
BRANCH  23  24
ATOM     24  N   UNL A   1      42.749  24.398  25.623  1.00  0.00    -0.352 N 
ATOM     25  C   UNL A   1      42.065  25.576  25.847  1.00  0.00     0.251 C 
ATOM     26  H   UNL A   1      42.646  23.999  24.729  1.00  0.00     0.163 HD
ATOM     27  O   UNL A   1      41.434  26.118  24.943  1.00  0.00    -0.269 OA
BRANCH  25  28
ATOM     28  C   UNL A   1      42.034  26.149  27.212  1.00  0.00     0.039 A 
ATOM     29  C   UNL A   1      42.954  27.153  27.526  1.00  0.00     0.014 A 
ATOM     30  C   UNL A   1      41.063  25.768  28.145  1.00  0.00     0.014 A 
ATOM     31  C   UNL A   1      42.834  27.853  28.729  1.00  0.00     0.010 A 
ATOM     32  C   UNL A   1      40.924  26.492  29.335  1.00  0.00     0.010 A 
ATOM     33  C   UNL A   1      41.783  27.567  29.618  1.00  0.00    -0.014 A 
BRANCH  33  34
ATOM     34  C   UNL A   1      41.505  28.483  30.758  1.00  0.00     0.031 A 
ATOM     35  C   UNL A   1      42.262  28.394  32.050  1.00  0.00     0.074 A 
ATOM     36  C   UNL A   1      40.511  29.387  30.633  1.00  0.00     0.049 A 
ATOM     37  N   UNL A   1      42.152  29.141  33.119  1.00  0.00    -0.248 NA
ATOM     38  C   UNL A   1      43.257  27.319  32.162  1.00  0.00     0.031 C 
ATOM     39  C   UNL A   1      39.657  29.539  29.454  1.00  0.00     0.029 A 
ATOM     40  N   UNL A   1      40.044  30.338  31.506  1.00  0.00    -0.354 N 
ATOM     41  C   UNL A   1      43.067  28.638  34.033  1.00  0.00     0.074 A 
ATOM     42  C   UNL A   1      43.692  27.490  33.405  1.00  0.00     0.031 C 
ATOM     43  C   UNL A   1      38.776  30.527  29.673  1.00  0.00     0.029 A 
ATOM     44  C   UNL A   1      38.984  31.063  31.016  1.00  0.00     0.049 A 
ATOM     45  H   UNL A   1      40.432  30.488  32.400  1.00  0.00     0.167 HD
ATOM     46  C   UNL A   1      43.372  29.098  35.272  1.00  0.00     0.037 A 
ATOM     47  C   UNL A   1      38.249  32.043  31.579  1.00  0.00     0.037 A 
ATOM     48  C   UNL A   1      42.745  30.236  35.898  1.00  0.00     0.049 A 
ATOM     49  C   UNL A   1      38.587  32.528  32.959  1.00  0.00     0.074 A 
ATOM     50  C   UNL A   1      43.050  30.826  37.112  1.00  0.00     0.029 A 
ATOM     51  N   UNL A   1      41.668  30.938  35.376  1.00  0.00    -0.354 N 
ATOM     52  N   UNL A   1      39.535  32.112  33.764  1.00  0.00    -0.248 NA
ATOM     53  C   UNL A   1      37.762  33.612  33.508  1.00  0.00     0.031 C 
ATOM     54  C   UNL A   1      42.124  31.850  37.349  1.00  0.00     0.029 A 
ATOM     55  C   UNL A   1      41.267  31.926  36.264  1.00  0.00     0.049 A 
ATOM     56  H   UNL A   1      41.248  30.760  34.503  1.00  0.00     0.167 HD
ATOM     57  C   UNL A   1      39.419  32.881  34.916  1.00  0.00     0.074 A 
ATOM     58  C   UNL A   1      38.324  33.804  34.694  1.00  0.00     0.031 C 
ATOM     59  C   UNL A   1      40.156  32.823  36.054  1.00  0.00     0.037 A 
BRANCH  46  60
ATOM     60  C   UNL A   1      44.430  28.355  36.039  1.00  0.00     0.058 A 
ATOM     61  C   UNL A   1      45.791  28.682  35.921  1.00  0.00     0.135 A 
ATOM     62  C   UNL A   1      44.082  27.306  36.905  1.00  0.00     0.135 A 
ATOM     63  F   UNL A   1      46.178  29.675  35.104  1.00  0.00    -0.206 F 
ATOM     64  C   UNL A   1      46.773  27.963  36.594  1.00  0.00     0.059 A 
ATOM     65  C   UNL A   1      45.046  26.589  37.608  1.00  0.00     0.059 A 
ATOM     66  F   UNL A   1      42.796  26.958  37.063  1.00  0.00    -0.206 F 
ATOM     67  C   UNL A   1      46.391  26.910  37.426  1.00  0.00     0.060 A 
BRANCH  67  68
ATOM     68  S   UNL A   1      47.678  25.952  38.254  1.00  0.00     0.124 S 
ATOM     69  O   UNL A   1      48.250  25.209  37.135  1.00  0.00    -0.237 OA
ATOM     70  O   UNL A   1      48.529  26.992  38.823  1.00  0.00    -0.237 OA
ATOM     71  O   UNL A   1      46.936  25.154  39.224  1.00  0.00    -0.744 OA
ENDBRANCH  67  68
ENDBRANCH  46  60
BRANCH  47  72
ATOM     72  C   UNL A   1      37.113  32.622  30.815  1.00  0.00     0.058 A 
ATOM     73  C   UNL A   1      35.817  32.105  30.939  1.00  0.00     0.135 A 
ATOM     74  C   UNL A   1      37.297  33.754  30.006  1.00  0.00     0.135 A 
ATOM     75  F   UNL A   1      35.596  31.019  31.693  1.00  0.00    -0.206 F 
ATOM     76  C   UNL A   1      34.735  32.700  30.298  1.00  0.00     0.059 A 
ATOM     77  C   UNL A   1      36.228  34.378  29.370  1.00  0.00     0.059 A 
ATOM     78  F   UNL A   1      38.519  34.292  29.869  1.00  0.00    -0.206 F 
ATOM     79  C   UNL A   1      34.950  33.844  29.525  1.00  0.00     0.060 A 
BRANCH  79  80
ATOM     80  S   UNL A   1      33.526  34.679  28.790  1.00  0.00     0.124 S 
ATOM     81  O   UNL A   1      32.734  35.002  29.971  1.00  0.00    -0.237 OA
ATOM     82  O   UNL A   1      34.150  35.808  28.110  1.00  0.00    -0.237 OA
ATOM     83  O   UNL A   1      32.962  33.661  27.908  1.00  0.00    -0.744 OA
ENDBRANCH  79  80
ENDBRANCH  47  72
BRANCH  59  84
ATOM     84  C   UNL A   1      39.788  33.764  37.167  1.00  0.00     0.058 A 
ATOM     85  C   UNL A   1      38.878  33.388  38.168  1.00  0.00     0.135 A 
ATOM     86  C   UNL A   1      40.391  35.028  37.272  1.00  0.00     0.135 A 
ATOM     87  F   UNL A   1      38.264  32.196  38.108  1.00  0.00    -0.206 F 
ATOM     88  C   UNL A   1      38.572  34.235  39.229  1.00  0.00     0.059 A 
ATOM     89  C   UNL A   1      40.116  35.883  38.337  1.00  0.00     0.059 A 
ATOM     90  F   UNL A   1      41.271  35.437  36.344  1.00  0.00    -0.206 F 
ATOM     91  C   UNL A   1      39.200  35.479  39.307  1.00  0.00     0.060 A 
BRANCH  91  92
ATOM     92  S   UNL A   1      38.834  36.547  40.718  1.00  0.00     0.124 S 
ATOM     93  O   UNL A   1      37.944  35.700  41.504  1.00  0.00    -0.237 OA
ATOM     94  O   UNL A   1      40.158  36.776  41.289  1.00  0.00    -0.237 OA
ATOM     95  O   UNL A   1      38.211  37.716  40.106  1.00  0.00    -0.744 OA
ENDBRANCH  91  92
ENDBRANCH  59  84
ENDBRANCH  33  34
ENDBRANCH  25  28
ENDBRANCH  23  24
ENDBRANCH  22  23
ENDBRANCH  21  22
ENDBRANCH   1  21
TORSDOF 21
ENDMDL
MODEL 2
REMARK VINA RESULT:      -9.9      0.907      2.112
REMARK SMILES CCN(CCC(=O)NCCCCCCNC(=O)c1ccc(-c2c3nc(c(-c4c(F)cc(S(=O)(=O)[O-])cc4F)c4ccc([nH]4)c(-c4c(F)cc(S(=O)(=O)[O-])cc4F)c4nc(c(-c5c(F)cc(S(=O)(=O)[O-])cc5F)c5ccc2[nH]5)C=C4)C=C3)cc1)C(=O)C1(C)CCCC1
REMARK SMILES IDX 11 1 10 2 9 3 8 4 6 5 7 6 5 8 4 9 3 10 2 11 1 12 84 13 85 14
REMARK SMILES IDX 86 15 87 16 88 17 91 18 89 19 90 20 12 21 13 22 14 23 15 24
REMARK SMILES IDX 16 25 17 27 18 28 19 29 83 30 20 31 82 32 21 33 22 34 23 35
REMARK SMILES IDX 76 36 24 37 81 38 75 39 77 40 25 41 80 42 74 43 73 44 26 46
REMARK SMILES IDX 60 47 39 48 59 49 40 50 43 51 58 52 78 53 41 54 42 55 57 57
REMARK SMILES IDX 79 58 44 59 27 60 28 61 37 62 29 63 30 64 36 65 38 66 31 67
REMARK SMILES IDX 32 68 33 69 34 70 35 71 61 72 62 73 71 74 63 75 64 76 70 77
REMARK SMILES IDX 72 78 65 79 66 80 67 81 68 82 69 83 45 84 46 85 55 86 47 87
REMARK SMILES IDX 48 88 54 89 56 90 49 91 50 92 51 93 52 94 53 95
REMARK H PARENT 8 7 15 26 77 45 43 56
REMARK Flexibility Score: inf
ROOT
ATOM      1  C   UNL A   1      40.838  22.196  27.125  1.00  0.00     0.002 C 
ENDROOT
BRANCH   1   2
ATOM      2  C   UNL A   1      39.615  21.596  26.407  1.00  0.00     0.021 C 
BRANCH   2   3
ATOM      3  C   UNL A   1      38.499  22.587  26.048  1.00  0.00     0.116 C 
BRANCH   3   4
ATOM      4  N   UNL A   1      37.781  22.291  24.822  1.00  0.00    -0.356 N 
ATOM      5  C   UNL A   1      36.781  22.959  24.183  1.00  0.00     0.221 C 
ATOM      6  O   UNL A   1      36.533  22.669  23.010  1.00  0.00    -0.275 OA
ATOM      7  H   UNL A   1      38.068  21.462  24.373  1.00  0.00     0.163 HD
BRANCH   5   8
ATOM      8  C   UNL A   1      36.006  24.052  24.883  1.00  0.00     0.121 C 
BRANCH   8   9
ATOM      9  C   UNL A   1      34.729  24.418  24.124  1.00  0.00     0.129 C 
BRANCH   9  10
ATOM     10  N   UNL A   1      33.588  24.776  24.989  1.00  0.00    -0.342 N 
BRANCH  10  11
ATOM     11  C   UNL A   1      33.839  25.854  25.944  1.00  0.00     0.116 C 
ATOM     12  C   UNL A   1      32.831  26.988  25.882  1.00  0.00     0.027 C 
ENDBRANCH  10  11
BRANCH  10  13
ATOM     13  C   UNL A   1      32.475  23.943  24.929  1.00  0.00     0.228 C 
ATOM     14  O   UNL A   1      31.530  24.284  24.202  1.00  0.00    -0.274 OA
BRANCH  13  15
ATOM     15  C   UNL A   1      32.230  22.745  25.898  1.00  0.00     0.047 C 
ATOM     16  C   UNL A   1      30.700  22.578  25.951  1.00  0.00     0.022 C 
ATOM     17  C   UNL A   1      32.859  21.454  25.264  1.00  0.00     0.016 C 
ATOM     18  C   UNL A   1      32.790  22.729  27.325  1.00  0.00     0.016 C 
ATOM     19  C   UNL A   1      33.896  20.918  26.245  1.00  0.00     0.001 C 
ATOM     20  C   UNL A   1      34.130  22.047  27.222  1.00  0.00     0.001 C 
ENDBRANCH  13  15
ENDBRANCH  10  13
ENDBRANCH   9  10
ENDBRANCH   8   9
ENDBRANCH   5   8
ENDBRANCH   3   4
ENDBRANCH   2   3
ENDBRANCH   1   2
BRANCH   1  21
ATOM     21  C   UNL A   1      42.227  21.984  26.488  1.00  0.00     0.002 C 
BRANCH  21  22
ATOM     22  C   UNL A   1      43.460  22.716  27.037  1.00  0.00     0.021 C 
BRANCH  22  23
ATOM     23  C   UNL A   1      43.818  24.086  26.463  1.00  0.00     0.116 C 
BRANCH  23  24
ATOM     24  N   UNL A   1      42.825  24.703  25.601  1.00  0.00    -0.352 N 
ATOM     25  C   UNL A   1      42.017  25.786  25.888  1.00  0.00     0.251 C 
ATOM     26  H   UNL A   1      42.716  24.304  24.707  1.00  0.00     0.163 HD
ATOM     27  O   UNL A   1      41.269  26.255  25.035  1.00  0.00    -0.269 OA
BRANCH  25  28
ATOM     28  C   UNL A   1      42.002  26.336  27.263  1.00  0.00     0.039 A 
ATOM     29  C   UNL A   1      42.911  27.351  27.575  1.00  0.00     0.014 A 
ATOM     30  C   UNL A   1      41.056  25.923  28.207  1.00  0.00     0.014 A 
ATOM     31  C   UNL A   1      42.802  28.028  28.792  1.00  0.00     0.010 A 
ATOM     32  C   UNL A   1      40.927  26.625  29.411  1.00  0.00     0.010 A 
ATOM     33  C   UNL A   1      41.773  27.710  29.696  1.00  0.00    -0.014 A 
BRANCH  33  34
ATOM     34  C   UNL A   1      41.501  28.603  30.856  1.00  0.00     0.031 A 
ATOM     35  C   UNL A   1      42.267  28.489  32.140  1.00  0.00     0.074 A 
ATOM     36  C   UNL A   1      40.505  29.506  30.756  1.00  0.00     0.049 A 
ATOM     37  N   UNL A   1      42.163  29.215  33.225  1.00  0.00    -0.248 NA
ATOM     38  C   UNL A   1      43.266  27.415  32.224  1.00  0.00     0.031 C 
ATOM     39  C   UNL A   1      39.642  29.680  29.586  1.00  0.00     0.029 A 
ATOM     40  N   UNL A   1      40.042  30.440  31.651  1.00  0.00    -0.354 N 
ATOM     41  C   UNL A   1      43.086  28.696  34.122  1.00  0.00     0.074 A 
ATOM     42  C   UNL A   1      43.709  27.562  33.467  1.00  0.00     0.031 C 
ATOM     43  C   UNL A   1      38.761  30.662  29.831  1.00  0.00     0.029 A 
ATOM     44  C   UNL A   1      38.977  31.172  31.183  1.00  0.00     0.049 A 
ATOM     45  H   UNL A   1      40.435  30.572  32.544  1.00  0.00     0.167 HD
ATOM     46  C   UNL A   1      43.398  29.131  35.368  1.00  0.00     0.037 A 
ATOM     47  C   UNL A   1      38.244  32.138  31.771  1.00  0.00     0.037 A 
ATOM     48  C   UNL A   1      42.774  30.255  36.021  1.00  0.00     0.049 A 
ATOM     49  C   UNL A   1      38.591  32.596  33.158  1.00  0.00     0.074 A 
ATOM     50  C   UNL A   1      43.086  30.822  37.244  1.00  0.00     0.029 A 
ATOM     51  N   UNL A   1      41.691  30.965  35.521  1.00  0.00    -0.354 N 
ATOM     52  N   UNL A   1      39.545  32.167  33.947  1.00  0.00    -0.248 NA
ATOM     53  C   UNL A   1      37.767  33.667  33.733  1.00  0.00     0.031 C 
ATOM     54  C   UNL A   1      42.160  31.839  37.508  1.00  0.00     0.029 A 
ATOM     55  C   UNL A   1      41.295  31.934  36.431  1.00  0.00     0.049 A 
ATOM     56  H   UNL A   1      41.266  30.804  34.647  1.00  0.00     0.167 HD
ATOM     57  C   UNL A   1      39.435  32.912  35.115  1.00  0.00     0.074 A 
ATOM     58  C   UNL A   1      38.337  33.837  34.920  1.00  0.00     0.031 C 
ATOM     59  C   UNL A   1      40.180  32.833  36.246  1.00  0.00     0.037 A 
BRANCH  46  60
ATOM     60  C   UNL A   1      44.464  28.376  36.112  1.00  0.00     0.058 A 
ATOM     61  C   UNL A   1      45.824  28.705  35.987  1.00  0.00     0.135 A 
ATOM     62  C   UNL A   1      44.124  27.313  36.964  1.00  0.00     0.135 A 
ATOM     63  F   UNL A   1      46.204  29.711  35.183  1.00  0.00    -0.206 F 
ATOM     64  C   UNL A   1      46.812  27.975  36.639  1.00  0.00     0.059 A 
ATOM     65  C   UNL A   1      45.094  26.584  37.646  1.00  0.00     0.059 A 
ATOM     66  F   UNL A   1      42.839  26.962  37.129  1.00  0.00    -0.206 F 
ATOM     67  C   UNL A   1      46.437  26.907  37.457  1.00  0.00     0.060 A 
BRANCH  67  68
ATOM     68  S   UNL A   1      47.732  25.936  38.257  1.00  0.00     0.124 S 
ATOM     69  O   UNL A   1      48.709  26.970  38.582  1.00  0.00    -0.237 OA
ATOM     70  O   UNL A   1      47.029  25.349  39.394  1.00  0.00    -0.237 OA
ATOM     71  O   UNL A   1      48.137  24.992  37.220  1.00  0.00    -0.744 OA
ENDBRANCH  67  68
ENDBRANCH  46  60
BRANCH  47  72
ATOM     72  C   UNL A   1      37.102  32.730  31.026  1.00  0.00     0.058 A 
ATOM     73  C   UNL A   1      37.307  33.683  30.020  1.00  0.00     0.135 A 
ATOM     74  C   UNL A   1      35.789  32.290  31.259  1.00  0.00     0.135 A 
ATOM     75  F   UNL A   1      38.543  34.140  29.770  1.00  0.00    -0.206 F 
ATOM     76  C   UNL A   1      36.250  34.171  29.257  1.00  0.00     0.059 A 
ATOM     77  C   UNL A   1      34.720  32.749  30.497  1.00  0.00     0.059 A 
ATOM     78  F   UNL A   1      35.547  31.367  32.203  1.00  0.00    -0.206 F 
ATOM     79  C   UNL A   1      34.962  33.688  29.496  1.00  0.00     0.060 A 
BRANCH  79  80
ATOM     80  S   UNL A   1      33.614  34.239  28.427  1.00  0.00     0.124 S 
ATOM     81  O   UNL A   1      33.241  32.997  27.761  1.00  0.00    -0.237 OA
ATOM     82  O   UNL A   1      32.652  34.762  29.391  1.00  0.00    -0.237 OA
ATOM     83  O   UNL A   1      34.249  35.245  27.581  1.00  0.00    -0.744 OA
ENDBRANCH  79  80
ENDBRANCH  47  72
BRANCH  59  84
ATOM     84  C   UNL A   1      39.818  33.751  37.380  1.00  0.00     0.058 A 
ATOM     85  C   UNL A   1      38.920  33.352  38.383  1.00  0.00     0.135 A 
ATOM     86  C   UNL A   1      40.416  35.017  37.503  1.00  0.00     0.135 A 
ATOM     87  F   UNL A   1      38.312  32.157  38.307  1.00  0.00    -0.206 F 
ATOM     88  C   UNL A   1      38.621  34.177  39.463  1.00  0.00     0.059 A 
ATOM     89  C   UNL A   1      40.147  35.850  38.587  1.00  0.00     0.059 A 
ATOM     90  F   UNL A   1      41.284  35.447  36.575  1.00  0.00    -0.206 F 
ATOM     91  C   UNL A   1      39.243  35.422  39.559  1.00  0.00     0.060 A 
BRANCH  91  92
ATOM     92  S   UNL A   1      38.885  36.461  40.992  1.00  0.00     0.124 S 
ATOM     93  O   UNL A   1      38.400  37.682  40.357  1.00  0.00    -0.237 OA
ATOM     94  O   UNL A   1      37.880  35.676  41.704  1.00  0.00    -0.237 OA
ATOM     95  O   UNL A   1      40.176  36.572  41.663  1.00  0.00    -0.744 OA
ENDBRANCH  91  92
ENDBRANCH  59  84
ENDBRANCH  33  34
ENDBRANCH  25  28
ENDBRANCH  23  24
ENDBRANCH  22  23
ENDBRANCH  21  22
ENDBRANCH   1  21
TORSDOF 21
ENDMDL
MODEL 3
REMARK VINA RESULT:      -9.5      2.360      8.877
REMARK SMILES CCN(CCC(=O)NCCCCCCNC(=O)c1ccc(-c2c3nc(c(-c4c(F)cc(S(=O)(=O)[O-])cc4F)c4ccc([nH]4)c(-c4c(F)cc(S(=O)(=O)[O-])cc4F)c4nc(c(-c5c(F)cc(S(=O)(=O)[O-])cc5F)c5ccc2[nH]5)C=C4)C=C3)cc1)C(=O)C1(C)CCCC1
REMARK SMILES IDX 11 1 10 2 9 3 8 4 6 5 7 6 5 8 4 9 3 10 2 11 1 12 84 13 85 14
REMARK SMILES IDX 86 15 87 16 88 17 91 18 89 19 90 20 12 21 13 22 14 23 15 24
REMARK SMILES IDX 16 25 17 27 18 28 19 29 83 30 20 31 82 32 21 33 22 34 23 35
REMARK SMILES IDX 76 36 24 37 81 38 75 39 77 40 25 41 80 42 74 43 73 44 26 46
REMARK SMILES IDX 60 47 39 48 59 49 40 50 43 51 58 52 78 53 41 54 42 55 57 57
REMARK SMILES IDX 79 58 44 59 27 60 28 61 37 62 29 63 30 64 36 65 38 66 31 67
REMARK SMILES IDX 32 68 33 69 34 70 35 71 61 72 62 73 71 74 63 75 64 76 70 77
REMARK SMILES IDX 72 78 65 79 66 80 67 81 68 82 69 83 45 84 46 85 55 86 47 87
REMARK SMILES IDX 48 88 54 89 56 90 49 91 50 92 51 93 52 94 53 95
REMARK H PARENT 8 7 15 26 77 45 43 56
REMARK Flexibility Score: inf
ROOT
ATOM      1  C   UNL A   1      33.221  28.803  26.303  1.00  0.00     0.002 C 
ENDROOT
BRANCH   1   2
ATOM      2  C   UNL A   1      33.217  29.274  24.837  1.00  0.00     0.021 C 
BRANCH   2   3
ATOM      3  C   UNL A   1      32.376  28.431  23.869  1.00  0.00     0.116 C 
BRANCH   3   4
ATOM      4  N   UNL A   1      33.137  27.639  22.919  1.00  0.00    -0.356 N 
ATOM      5  C   UNL A   1      33.437  26.310  22.896  1.00  0.00     0.221 C 
ATOM      6  O   UNL A   1      33.846  25.817  21.841  1.00  0.00    -0.275 OA
ATOM      7  H   UNL A   1      33.498  28.151  22.160  1.00  0.00     0.163 HD
BRANCH   5   8
ATOM      8  C   UNL A   1      33.250  25.449  24.123  1.00  0.00     0.121 C 
BRANCH   8   9
ATOM      9  C   UNL A   1      34.569  24.830  24.591  1.00  0.00     0.129 C 
BRANCH   9  10
ATOM     10  N   UNL A   1      34.856  23.501  24.018  1.00  0.00    -0.342 N 
BRANCH  10  11
ATOM     11  C   UNL A   1      36.216  23.316  23.512  1.00  0.00     0.116 C 
ATOM     12  C   UNL A   1      36.943  22.122  24.106  1.00  0.00     0.027 C 
ENDBRANCH  10  11
BRANCH  10  13
ATOM     13  C   UNL A   1      33.771  22.644  23.855  1.00  0.00     0.228 C 
ATOM     14  O   UNL A   1      33.176  22.659  22.767  1.00  0.00    -0.274 OA
BRANCH  13  15
ATOM     15  C   UNL A   1      33.102  21.853  25.021  1.00  0.00     0.047 C 
ATOM     16  C   UNL A   1      33.276  20.369  24.650  1.00  0.00     0.022 C 
ATOM     17  C   UNL A   1      33.900  22.143  26.342  1.00  0.00     0.016 C 
ATOM     18  C   UNL A   1      31.649  22.103  25.441  1.00  0.00     0.016 C 
ATOM     19  C   UNL A   1      32.926  22.752  27.344  1.00  0.00     0.001 C 
ATOM     20  C   UNL A   1      31.720  23.149  26.524  1.00  0.00     0.001 C 
ENDBRANCH  13  15
ENDBRANCH  10  13
ENDBRANCH   9  10
ENDBRANCH   8   9
ENDBRANCH   5   8
ENDBRANCH   3   4
ENDBRANCH   2   3
ENDBRANCH   1   2
BRANCH   1  21
ATOM     21  C   UNL A   1      34.140  29.544  27.298  1.00  0.00     0.002 C 
BRANCH  21  22
ATOM     22  C   UNL A   1      33.695  30.865  27.940  1.00  0.00     0.021 C 
BRANCH  22  23
ATOM     23  C   UNL A   1      33.920  32.167  27.174  1.00  0.00     0.116 C 
BRANCH  23  24
ATOM     24  N   UNL A   1      33.097  33.297  27.566  1.00  0.00    -0.352 N 
ATOM     25  C   UNL A   1      33.359  34.227  28.554  1.00  0.00     0.251 C 
ATOM     26  H   UNL A   1      32.254  33.415  27.071  1.00  0.00     0.163 HD
ATOM     27  O   UNL A   1      32.608  35.182  28.733  1.00  0.00    -0.269 OA
BRANCH  25  28
ATOM     28  C   UNL A   1      34.519  34.024  29.452  1.00  0.00     0.039 A 
ATOM     29  C   UNL A   1      34.294  33.422  30.692  1.00  0.00     0.014 A 
ATOM     30  C   UNL A   1      35.820  34.344  29.049  1.00  0.00     0.014 A 
ATOM     31  C   UNL A   1      35.380  33.038  31.483  1.00  0.00     0.010 A 
ATOM     32  C   UNL A   1      36.907  33.928  29.828  1.00  0.00     0.010 A 
ATOM     33  C   UNL A   1      36.697  33.236  31.031  1.00  0.00    -0.014 A 
BRANCH  33  34
ATOM     34  C   UNL A   1      37.832  32.591  31.747  1.00  0.00     0.031 A 
ATOM     35  C   UNL A   1      38.317  33.090  33.076  1.00  0.00     0.074 A 
ATOM     36  C   UNL A   1      38.466  31.558  31.155  1.00  0.00     0.049 A 
ATOM     37  N   UNL A   1      39.274  32.613  33.832  1.00  0.00    -0.248 NA
ATOM     38  C   UNL A   1      37.656  34.284  33.618  1.00  0.00     0.031 C 
ATOM     39  C   UNL A   1      38.135  31.012  29.837  1.00  0.00     0.029 A 
ATOM     40  N   UNL A   1      39.523  30.789  31.576  1.00  0.00    -0.354 N 
ATOM     41  C   UNL A   1      39.329  33.440  34.945  1.00  0.00     0.074 A 
ATOM     42  C   UNL A   1      38.336  34.477  34.741  1.00  0.00     0.031 C 
ATOM     43  C   UNL A   1      38.966  29.996  29.560  1.00  0.00     0.029 A 
ATOM     44  C   UNL A   1      39.905  29.831  30.667  1.00  0.00     0.049 A 
ATOM     45  H   UNL A   1      39.967  30.913  32.447  1.00  0.00     0.167 HD
ATOM     46  C   UNL A   1      40.120  33.337  36.043  1.00  0.00     0.037 A 
ATOM     47  C   UNL A   1      40.902  28.925  30.706  1.00  0.00     0.037 A 
ATOM     48  C   UNL A   1      41.111  32.309  36.242  1.00  0.00     0.049 A 
ATOM     49  C   UNL A   1      41.781  28.837  31.920  1.00  0.00     0.074 A 
ATOM     50  C   UNL A   1      41.894  32.074  37.358  1.00  0.00     0.029 A 
ATOM     51  N   UNL A   1      41.477  31.362  35.295  1.00  0.00    -0.354 N 
ATOM     52  N   UNL A   1      41.741  29.557  33.014  1.00  0.00    -0.248 NA
ATOM     53  C   UNL A   1      42.835  27.814  31.909  1.00  0.00     0.031 C 
ATOM     54  C   UNL A   1      42.771  31.020  37.066  1.00  0.00     0.029 A 
ATOM     55  C   UNL A   1      42.506  30.571  35.784  1.00  0.00     0.049 A 
ATOM     56  H   UNL A   1      41.066  31.266  34.405  1.00  0.00     0.167 HD
ATOM     57  C   UNL A   1      42.766  29.079  33.822  1.00  0.00     0.074 A 
ATOM     58  C   UNL A   1      43.393  27.990  33.100  1.00  0.00     0.031 C 
ATOM     59  C   UNL A   1      43.150  29.508  35.050  1.00  0.00     0.037 A 
BRANCH  46  60
ATOM     60  C   UNL A   1      39.947  34.378  37.113  1.00  0.00     0.058 A 
ATOM     61  C   UNL A   1      39.107  34.166  38.218  1.00  0.00     0.135 A 
ATOM     62  C   UNL A   1      40.632  35.602  37.037  1.00  0.00     0.135 A 
ATOM     63  F   UNL A   1      38.425  33.015  38.337  1.00  0.00    -0.206 F 
ATOM     64  C   UNL A   1      38.911  35.149  39.183  1.00  0.00     0.059 A 
ATOM     65  C   UNL A   1      40.471  36.590  38.004  1.00  0.00     0.059 A 
ATOM     66  F   UNL A   1      41.456  35.853  36.008  1.00  0.00    -0.206 F 
ATOM     67  C   UNL A   1      39.589  36.363  39.060  1.00  0.00     0.060 A 
BRANCH  67  68
ATOM     68  S   UNL A   1      39.288  37.649  40.290  1.00  0.00     0.124 S 
ATOM     69  O   UNL A   1      38.790  36.862  41.414  1.00  0.00    -0.237 OA
ATOM     70  O   UNL A   1      40.613  38.235  40.466  1.00  0.00    -0.237 OA
ATOM     71  O   UNL A   1      38.305  38.513  39.644  1.00  0.00    -0.744 OA
ENDBRANCH  67  68
ENDBRANCH  46  60
BRANCH  47  72
ATOM     72  C   UNL A   1      41.110  28.031  29.537  1.00  0.00     0.058 A 
ATOM     73  C   UNL A   1      42.192  28.215  28.666  1.00  0.00     0.135 A 
ATOM     74  C   UNL A   1      40.267  26.930  29.319  1.00  0.00     0.135 A 
ATOM     75  F   UNL A   1      43.016  29.260  28.830  1.00  0.00    -0.206 F 
ATOM     76  C   UNL A   1      42.443  27.327  27.624  1.00  0.00     0.059 A 
ATOM     77  C   UNL A   1      40.509  26.018  28.296  1.00  0.00     0.059 A 
ATOM     78  F   UNL A   1      39.227  26.706  30.136  1.00  0.00    -0.206 F 
ATOM     79  C   UNL A   1      41.602  26.224  27.456  1.00  0.00     0.060 A 
BRANCH  79  80
ATOM     80  S   UNL A   1      42.001  25.013  26.176  1.00  0.00     0.124 S 
ATOM     81  O   UNL A   1      41.912  25.824  24.967  1.00  0.00    -0.237 OA
ATOM     82  O   UNL A   1      43.341  24.587  26.564  1.00  0.00    -0.237 OA
ATOM     83  O   UNL A   1      40.960  24.002  26.338  1.00  0.00    -0.744 OA
ENDBRANCH  79  80
ENDBRANCH  47  72
BRANCH  59  84
ATOM     84  C   UNL A   1      44.325  28.821  35.688  1.00  0.00     0.058 A 
ATOM     85  C   UNL A   1      44.155  27.681  36.490  1.00  0.00     0.135 A 
ATOM     86  C   UNL A   1      45.637  29.264  35.451  1.00  0.00     0.135 A 
ATOM     87  F   UNL A   1      42.922  27.223  36.758  1.00  0.00    -0.206 F 
ATOM     88  C   UNL A   1      45.242  27.009  37.041  1.00  0.00     0.059 A 
ATOM     89  C   UNL A   1      46.741  28.595  35.975  1.00  0.00     0.059 A 
ATOM     90  F   UNL A   1      45.857  30.347  34.689  1.00  0.00    -0.206 F 
ATOM     91  C   UNL A   1      46.532  27.471  36.774  1.00  0.00     0.060 A 
BRANCH  91  92
ATOM     92  S   UNL A   1      47.936  26.560  37.452  1.00  0.00     0.124 S 
ATOM     93  O   UNL A   1      47.448  26.216  38.784  1.00  0.00    -0.237 OA
ATOM     94  O   UNL A   1      48.066  25.445  36.518  1.00  0.00    -0.237 OA
ATOM     95  O   UNL A   1      49.024  27.533  37.413  1.00  0.00    -0.744 OA
ENDBRANCH  91  92
ENDBRANCH  59  84
ENDBRANCH  33  34
ENDBRANCH  25  28
ENDBRANCH  23  24
ENDBRANCH  22  23
ENDBRANCH  21  22
ENDBRANCH   1  21
TORSDOF 21
ENDMDL
