MODEL 1
REMARK VINA RESULT:     -12.8      0.000      0.000
REMARK SMILES C[C@H]1c2ccc(O)cc2OC(=O)[C@@H]1CC(=O)N[C@@H](CC1=c2ccccc2=NC1)C(=O)NCCCCCCNC(=O)c1ccc(-c2c3nc(c(-c4c(F)cc(S(=O)(=O)[O-])cc4F)c4ccc([nH]4)c(-c4c(F)cc(S(=O)(=O)[O-])cc4F)c4nc(c(-c5c(F)cc(S(=O)(=O)[O-])cc5F)c5ccc2[nH]5)C=C4)C=C3)cc1
REMARK SMILES IDX 34 1 33 2 32 3 31 4 29 5 30 6 18 8 17 9 15 10 16 11 14 13
REMARK SMILES IDX 13 14 1 15 2 16 3 17 4 18 9 19 11 20 5 21 8 22 10 23 12 24
REMARK SMILES IDX 6 25 7 26 19 28 20 29 21 30 28 31 22 32 26 33 27 34 23 35
REMARK SMILES IDX 25 36 24 37 35 38 36 39 37 40 38 41 39 42 40 44 41 45 42 46
REMARK SMILES IDX 106 47 43 48 105 49 44 50 45 51 46 52 99 53 47 54 104 55
REMARK SMILES IDX 98 56 100 57 48 58 103 59 97 60 96 61 49 63 83 64 62 65
REMARK SMILES IDX 82 66 63 67 66 68 81 69 101 70 64 71 65 72 80 74 102 75
REMARK SMILES IDX 67 76 50 77 51 78 60 79 52 80 53 81 59 82 61 83 54 84 55 85
REMARK SMILES IDX 56 86 57 87 58 88 84 89 85 90 94 91 86 92 87 93 93 94 95 95
REMARK SMILES IDX 88 96 89 97 90 98 91 99 92 100 68 101 69 102 78 103 70 104
REMARK SMILES IDX 71 105 77 106 79 107 72 108 73 109 74 110 75 111 76 112
REMARK H PARENT 31 7 17 12 7 27 38 43 100 62 66 73
REMARK Flexibility Score: inf
ROOT
ATOM      1  C   UNL A   1      38.762  22.790  26.374  1.00  0.00     0.002 C 
ENDROOT
BRANCH   1   2
ATOM      2  C   UNL A   1      37.548  22.194  25.635  1.00  0.00     0.021 C 
BRANCH   2   3
ATOM      3  C   UNL A   1      36.402  23.137  25.310  1.00  0.00     0.116 C 
BRANCH   3   4
ATOM      4  N   UNL A   1      35.425  23.556  26.270  1.00  0.00    -0.354 N 
ATOM      5  C   UNL A   1      34.209  22.905  26.377  1.00  0.00     0.242 C 
ATOM      6  O   UNL A   1      33.806  22.670  27.523  1.00  0.00    -0.273 OA
ATOM      7  H   UNL A   1      35.621  24.318  26.862  1.00  0.00     0.163 HD
BRANCH   5   8
ATOM      8  C   UNL A   1      33.343  22.436  25.136  1.00  0.00     0.175 C 
BRANCH   8   9
ATOM      9  N   UNL A   1      33.661  22.954  23.800  1.00  0.00    -0.344 N 
ATOM     10  C   UNL A   1      32.957  23.833  23.026  1.00  0.00     0.221 C 
ATOM     11  O   UNL A   1      33.290  23.971  21.848  1.00  0.00    -0.275 OA
ATOM     12  H   UNL A   1      34.500  22.622  23.407  1.00  0.00     0.164 HD
BRANCH  10  13
ATOM     13  C   UNL A   1      31.838  24.688  23.613  1.00  0.00     0.116 C 
BRANCH  13  14
ATOM     14  C   UNL A   1      32.154  25.447  24.926  1.00  0.00     0.116 C 
ATOM     15  C   UNL A   1      31.262  26.995  26.760  1.00  0.00     0.014 C 
ATOM     16  C   UNL A   1      31.001  26.380  25.377  1.00  0.00     0.034 C 
ATOM     17  C   UNL A   1      30.830  27.467  24.340  1.00  0.00    -0.001 A 
ATOM     18  C   UNL A   1      29.602  28.086  24.102  1.00  0.00     0.011 A 
ATOM     19  C   UNL A   1      31.928  27.839  23.555  1.00  0.00     0.138 A 
ATOM     20  C   UNL A   1      33.341  26.373  24.808  1.00  0.00     0.315 C 
ATOM     21  C   UNL A   1      29.472  29.006  23.055  1.00  0.00     0.047 A 
ATOM     22  C   UNL A   1      31.805  28.714  22.482  1.00  0.00     0.093 A 
ATOM     23  O   UNL A   1      33.217  27.367  23.850  1.00  0.00    -0.426 OA
ATOM     24  O   UNL A   1      34.344  26.269  25.503  1.00  0.00    -0.251 OA
ATOM     25  C   UNL A   1      30.567  29.289  22.238  1.00  0.00     0.119 A 
BRANCH  25  26
ATOM     26  O   UNL A   1      30.463  30.147  21.184  1.00  0.00    -0.508 OA
ATOM     27  H   UNL A   1      29.959  30.932  21.266  1.00  0.00     0.293 HD
ENDBRANCH  25  26
ENDBRANCH  13  14
ENDBRANCH  10  13
ENDBRANCH   8   9
BRANCH   8  28
ATOM     28  C   UNL A   1      32.695  20.994  25.063  1.00  0.00     0.068 C 
BRANCH  28  29
ATOM     29  C   UNL A   1      33.294  19.821  24.280  1.00  0.00    -0.037 C 
ATOM     30  C   UNL A   1      33.841  18.737  24.882  1.00  0.00     0.001 A 
ATOM     31  C   UNL A   1      32.431  19.368  23.160  1.00  0.00     0.174 C 
ATOM     32  C   UNL A   1      34.849  17.807  24.321  1.00  0.00     0.010 A 
ATOM     33  C   UNL A   1      32.589  17.936  24.782  1.00  0.00     0.065 A 
ATOM     34  N   UNL A   1      31.819  18.180  23.773  1.00  0.00    -0.280 NA
ATOM     35  C   UNL A   1      34.717  16.483  24.581  1.00  0.00     0.001 A 
ATOM     36  C   UNL A   1      32.541  16.746  25.636  1.00  0.00     0.028 A 
ATOM     37  C   UNL A   1      33.651  16.009  25.467  1.00  0.00     0.002 A 
ENDBRANCH  28  29
ENDBRANCH   8  28
ENDBRANCH   5   8
ENDBRANCH   3   4
ENDBRANCH   2   3
ENDBRANCH   1   2
BRANCH   1  38
ATOM     38  C   UNL A   1      40.037  21.952  26.591  1.00  0.00     0.002 C 
BRANCH  38  39
ATOM     39  C   UNL A   1      41.039  22.343  27.680  1.00  0.00     0.021 C 
BRANCH  39  40
ATOM     40  C   UNL A   1      42.249  23.168  27.282  1.00  0.00     0.116 C 
BRANCH  40  41
ATOM     41  N   UNL A   1      41.980  24.068  26.178  1.00  0.00    -0.352 N 
ATOM     42  C   UNL A   1      41.558  25.379  26.180  1.00  0.00     0.251 C 
ATOM     43  H   UNL A   1      42.121  23.680  25.284  1.00  0.00     0.163 HD
ATOM     44  O   UNL A   1      41.269  25.922  25.127  1.00  0.00    -0.269 OA
BRANCH  42  45
ATOM     45  C   UNL A   1      41.419  26.119  27.461  1.00  0.00     0.039 A 
ATOM     46  C   UNL A   1      40.311  25.940  28.289  1.00  0.00     0.014 A 
ATOM     47  C   UNL A   1      42.428  27.013  27.835  1.00  0.00     0.014 A 
ATOM     48  C   UNL A   1      40.127  26.773  29.390  1.00  0.00     0.010 A 
ATOM     49  C   UNL A   1      42.284  27.788  28.991  1.00  0.00     0.010 A 
ATOM     50  C   UNL A   1      41.106  27.713  29.751  1.00  0.00    -0.014 A 
BRANCH  50  51
ATOM     51  C   UNL A   1      40.865  28.619  30.909  1.00  0.00     0.031 A 
ATOM     52  C   UNL A   1      41.746  28.554  32.131  1.00  0.00     0.074 A 
ATOM     53  C   UNL A   1      39.888  29.545  30.834  1.00  0.00     0.049 A 
ATOM     54  N   UNL A   1      41.702  29.281  33.219  1.00  0.00    -0.248 NA
ATOM     55  C   UNL A   1      42.817  27.543  32.136  1.00  0.00     0.031 C 
ATOM     56  C   UNL A   1      38.977  29.716  29.699  1.00  0.00     0.029 A 
ATOM     57  N   UNL A   1      39.514  30.533  31.709  1.00  0.00    -0.354 N 
ATOM     58  C   UNL A   1      42.725  28.813  34.036  1.00  0.00     0.074 A 
ATOM     59  C   UNL A   1      43.350  27.712  33.338  1.00  0.00     0.031 C 
ATOM     60  C   UNL A   1      38.189  30.778  29.924  1.00  0.00     0.029 A 
ATOM     61  C   UNL A   1      38.490  31.325  31.243  1.00  0.00     0.049 A 
ATOM     62  H   UNL A   1      39.939  30.663  32.589  1.00  0.00     0.167 HD
ATOM     63  C   UNL A   1      43.122  29.274  35.248  1.00  0.00     0.037 A 
ATOM     64  C   UNL A   1      37.854  32.367  31.814  1.00  0.00     0.037 A 
ATOM     65  C   UNL A   1      42.507  30.383  35.932  1.00  0.00     0.049 A 
ATOM     66  C   UNL A   1      38.274  32.816  33.186  1.00  0.00     0.074 A 
ATOM     67  C   UNL A   1      42.847  30.931  37.158  1.00  0.00     0.029 A 
ATOM     68  N   UNL A   1      41.432  31.116  35.453  1.00  0.00    -0.354 N 
ATOM     69  N   UNL A   1      39.250  32.366  33.937  1.00  0.00    -0.248 NA
ATOM     70  C   UNL A   1      37.501  33.909  33.792  1.00  0.00     0.031 C 
ATOM     71  C   UNL A   1      41.948  31.963  37.440  1.00  0.00     0.029 A 
ATOM     72  C   UNL A   1      41.081  32.095  36.367  1.00  0.00     0.049 A 
ATOM     73  H   UNL A   1      40.984  30.963  34.590  1.00  0.00     0.167 HD
ATOM     74  C   UNL A   1      39.218  33.130  35.098  1.00  0.00     0.074 A 
ATOM     75  C   UNL A   1      38.141  34.085  34.941  1.00  0.00     0.031 C 
ATOM     76  C   UNL A   1      40.008  33.044  36.197  1.00  0.00     0.037 A 
BRANCH  63  77
ATOM     77  C   UNL A   1      44.279  28.585  35.923  1.00  0.00     0.058 A 
ATOM     78  C   UNL A   1      45.602  29.006  35.721  1.00  0.00     0.135 A 
ATOM     79  C   UNL A   1      44.056  27.545  36.841  1.00  0.00     0.135 A 
ATOM     80  F   UNL A   1      45.876  29.984  34.844  1.00  0.00    -0.206 F 
ATOM     81  C   UNL A   1      46.666  28.410  36.394  1.00  0.00     0.059 A 
ATOM     82  C   UNL A   1      45.102  26.954  37.545  1.00  0.00     0.059 A 
ATOM     83  F   UNL A   1      42.810  27.104  37.072  1.00  0.00    -0.206 F 
ATOM     84  C   UNL A   1      46.404  27.389  37.309  1.00  0.00     0.060 A 
BRANCH  84  85
ATOM     85  S   UNL A   1      47.796  26.650  38.190  1.00  0.00     0.124 S 
ATOM     86  O   UNL A   1      48.822  27.676  38.026  1.00  0.00    -0.237 OA
ATOM     87  O   UNL A   1      47.263  26.499  39.540  1.00  0.00    -0.237 OA
ATOM     88  O   UNL A   1      48.037  25.404  37.469  1.00  0.00    -0.744 OA
ENDBRANCH  84  85
ENDBRANCH  63  77
BRANCH  64  89
ATOM     89  C   UNL A   1      36.753  33.053  31.085  1.00  0.00     0.058 A 
ATOM     90  C   UNL A   1      37.022  33.891  29.993  1.00  0.00     0.135 A 
ATOM     91  C   UNL A   1      35.411  32.870  31.454  1.00  0.00     0.135 A 
ATOM     92  F   UNL A   1      38.289  34.104  29.608  1.00  0.00    -0.206 F 
ATOM     93  C   UNL A   1      36.002  34.530  29.297  1.00  0.00     0.059 A 
ATOM     94  C   UNL A   1      34.372  33.474  30.754  1.00  0.00     0.059 A 
ATOM     95  F   UNL A   1      35.099  32.069  32.484  1.00  0.00    -0.206 F 
ATOM     96  C   UNL A   1      34.678  34.311  29.682  1.00  0.00     0.060 A 
BRANCH  96  97
ATOM     97  S   UNL A   1      33.360  35.107  28.739  1.00  0.00     0.124 S 
ATOM     98  O   UNL A   1      32.485  35.584  29.803  1.00  0.00    -0.237 OA
ATOM     99  O   UNL A   1      34.092  36.135  28.004  1.00  0.00    -0.237 OA
ATOM    100  O   UNL A   1      32.827  34.021  27.922  1.00  0.00    -0.744 OA
ENDBRANCH  96  97
ENDBRANCH  64  89
BRANCH  76 101
ATOM    101  C   UNL A   1      39.754  34.017  37.316  1.00  0.00     0.058 A 
ATOM    102  C   UNL A   1      39.020  33.651  38.454  1.00  0.00     0.135 A 
ATOM    103  C   UNL A   1      40.312  35.306  37.281  1.00  0.00     0.135 A 
ATOM    104  F   UNL A   1      38.460  32.433  38.534  1.00  0.00    -0.206 F 
ATOM    105  C   UNL A   1      38.836  34.532  39.514  1.00  0.00     0.059 A 
ATOM    106  C   UNL A   1      40.166  36.193  38.342  1.00  0.00     0.059 A 
ATOM    107  F   UNL A   1      41.031  35.702  36.219  1.00  0.00    -0.206 F 
ATOM    108  C   UNL A   1      39.419  35.800  39.451  1.00  0.00     0.060 A 
BRANCH 108 109
ATOM    109  S   UNL A   1      39.208  36.914  40.856  1.00  0.00     0.124 S 
ATOM    110  O   UNL A   1      38.441  38.002  40.258  1.00  0.00    -0.237 OA
ATOM    111  O   UNL A   1      38.484  36.077  41.808  1.00  0.00    -0.237 OA
ATOM    112  O   UNL A   1      40.578  37.247  41.236  1.00  0.00    -0.744 OA
ENDBRANCH 108 109
ENDBRANCH  76 101
ENDBRANCH  50  51
ENDBRANCH  42  45
ENDBRANCH  40  41
ENDBRANCH  39  40
ENDBRANCH  38  39
ENDBRANCH   1  38
TORSDOF 22
ENDMDL
MODEL 2
REMARK VINA RESULT:     -12.5      1.848      3.272
REMARK SMILES C[C@H]1c2ccc(O)cc2OC(=O)[C@@H]1CC(=O)N[C@@H](CC1=c2ccccc2=NC1)C(=O)NCCCCCCNC(=O)c1ccc(-c2c3nc(c(-c4c(F)cc(S(=O)(=O)[O-])cc4F)c4ccc([nH]4)c(-c4c(F)cc(S(=O)(=O)[O-])cc4F)c4nc(c(-c5c(F)cc(S(=O)(=O)[O-])cc5F)c5ccc2[nH]5)C=C4)C=C3)cc1
REMARK SMILES IDX 34 1 33 2 32 3 31 4 29 5 30 6 18 8 17 9 15 10 16 11 14 13
REMARK SMILES IDX 13 14 1 15 2 16 3 17 4 18 9 19 11 20 5 21 8 22 10 23 12 24
REMARK SMILES IDX 6 25 7 26 19 28 20 29 21 30 28 31 22 32 26 33 27 34 23 35
REMARK SMILES IDX 25 36 24 37 35 38 36 39 37 40 38 41 39 42 40 44 41 45 42 46
REMARK SMILES IDX 106 47 43 48 105 49 44 50 45 51 46 52 99 53 47 54 104 55
REMARK SMILES IDX 98 56 100 57 48 58 103 59 97 60 96 61 49 63 83 64 62 65
REMARK SMILES IDX 82 66 63 67 66 68 81 69 101 70 64 71 65 72 80 74 102 75
REMARK SMILES IDX 67 76 50 77 51 78 60 79 52 80 53 81 59 82 61 83 54 84 55 85
REMARK SMILES IDX 56 86 57 87 58 88 84 89 85 90 94 91 86 92 87 93 93 94 95 95
REMARK SMILES IDX 88 96 89 97 90 98 91 99 92 100 68 101 69 102 78 103 70 104
REMARK SMILES IDX 71 105 77 106 79 107 72 108 73 109 74 110 75 111 76 112
REMARK H PARENT 31 7 17 12 7 27 38 43 100 62 66 73
REMARK Flexibility Score: inf
ROOT
ATOM      1  C   UNL A   1      36.110  22.489  24.068  1.00  0.00     0.002 C 
ENDROOT
BRANCH   1   2
ATOM      2  C   UNL A   1      35.410  22.963  22.781  1.00  0.00     0.021 C 
BRANCH   2   3
ATOM      3  C   UNL A   1      34.230  23.907  22.939  1.00  0.00     0.116 C 
BRANCH   3   4
ATOM      4  N   UNL A   1      33.308  24.208  21.885  1.00  0.00    -0.354 N 
ATOM      5  C   UNL A   1      32.058  24.732  22.161  1.00  0.00     0.242 C 
ATOM      6  O   UNL A   1      31.676  25.660  21.437  1.00  0.00    -0.273 OA
ATOM      7  H   UNL A   1      33.568  24.039  20.950  1.00  0.00     0.163 HD
BRANCH   5   8
ATOM      8  C   UNL A   1      31.130  24.233  23.343  1.00  0.00     0.175 C 
BRANCH   8   9
ATOM      9  N   UNL A   1      29.887  24.955  23.636  1.00  0.00    -0.344 N 
ATOM     10  C   UNL A   1      29.705  26.096  24.367  1.00  0.00     0.221 C 
ATOM     11  O   UNL A   1      28.555  26.418  24.670  1.00  0.00    -0.275 OA
ATOM     12  H   UNL A   1      29.070  24.564  23.252  1.00  0.00     0.164 HD
BRANCH  10  13
ATOM     13  C   UNL A   1      30.878  26.999  24.733  1.00  0.00     0.116 C 
BRANCH  13  14
ATOM     14  C   UNL A   1      31.583  27.737  23.568  1.00  0.00     0.116 C 
ATOM     15  C   UNL A   1      33.816  28.461  22.546  1.00  0.00     0.014 C 
ATOM     16  C   UNL A   1      33.112  27.878  23.780  1.00  0.00     0.034 C 
ATOM     17  C   UNL A   1      33.350  28.758  24.987  1.00  0.00    -0.001 A 
ATOM     18  C   UNL A   1      34.484  28.632  25.791  1.00  0.00     0.011 A 
ATOM     19  C   UNL A   1      32.380  29.703  25.343  1.00  0.00     0.138 A 
ATOM     20  C   UNL A   1      31.111  29.160  23.392  1.00  0.00     0.315 C 
ATOM     21  C   UNL A   1      34.601  29.394  26.960  1.00  0.00     0.047 A 
ATOM     22  C   UNL A   1      32.460  30.432  26.523  1.00  0.00     0.093 A 
ATOM     23  O   UNL A   1      31.300  29.982  24.491  1.00  0.00    -0.426 OA
ATOM     24  O   UNL A   1      30.601  29.574  22.358  1.00  0.00    -0.251 OA
ATOM     25  C   UNL A   1      33.576  30.264  27.329  1.00  0.00     0.119 A 
BRANCH  25  26
ATOM     26  O   UNL A   1      33.640  30.988  28.483  1.00  0.00    -0.508 OA
ATOM     27  H   UNL A   1      34.264  30.762  29.144  1.00  0.00     0.293 HD
ENDBRANCH  25  26
ENDBRANCH  13  14
ENDBRANCH  10  13
ENDBRANCH   8   9
BRANCH   8  28
ATOM     28  C   UNL A   1      31.021  22.703  23.734  1.00  0.00     0.068 C 
BRANCH  28  29
ATOM     29  C   UNL A   1      31.398  22.138  25.108  1.00  0.00    -0.037 C 
ATOM     30  C   UNL A   1      32.678  22.056  25.544  1.00  0.00     0.001 A 
ATOM     31  C   UNL A   1      30.546  22.662  26.206  1.00  0.00     0.174 C 
ATOM     32  C   UNL A   1      33.225  21.136  26.569  1.00  0.00     0.010 A 
ATOM     33  C   UNL A   1      32.604  23.344  26.290  1.00  0.00     0.065 A 
ATOM     34  N   UNL A   1      31.452  23.673  26.772  1.00  0.00    -0.280 NA
ATOM     35  C   UNL A   1      34.146  21.618  27.440  1.00  0.00     0.001 A 
ATOM     36  C   UNL A   1      33.896  23.914  26.678  1.00  0.00     0.028 A 
ATOM     37  C   UNL A   1      34.644  22.989  27.302  1.00  0.00     0.002 A 
ENDBRANCH  28  29
ENDBRANCH   8  28
ENDBRANCH   5   8
ENDBRANCH   3   4
ENDBRANCH   2   3
ENDBRANCH   1   2
BRANCH   1  38
ATOM     38  C   UNL A   1      37.088  23.417  24.816  1.00  0.00     0.002 C 
BRANCH  38  39
ATOM     39  C   UNL A   1      38.116  22.830  25.786  1.00  0.00     0.021 C 
BRANCH  39  40
ATOM     40  C   UNL A   1      38.928  23.787  26.640  1.00  0.00     0.116 C 
BRANCH  40  41
ATOM     41  N   UNL A   1      40.343  23.762  26.326  1.00  0.00    -0.352 N 
ATOM     42  C   UNL A   1      41.356  24.610  26.715  1.00  0.00     0.251 C 
ATOM     43  H   UNL A   1      40.624  23.021  25.741  1.00  0.00     0.163 HD
ATOM     44  O   UNL A   1      42.470  24.481  26.232  1.00  0.00    -0.269 OA
BRANCH  42  45
ATOM     45  C   UNL A   1      41.089  25.698  27.690  1.00  0.00     0.039 A 
ATOM     46  C   UNL A   1      41.905  26.827  27.762  1.00  0.00     0.014 A 
ATOM     47  C   UNL A   1      39.993  25.578  28.550  1.00  0.00     0.014 A 
ATOM     48  C   UNL A   1      41.733  27.742  28.798  1.00  0.00     0.010 A 
ATOM     49  C   UNL A   1      39.768  26.545  29.537  1.00  0.00     0.010 A 
ATOM     50  C   UNL A   1      40.668  27.609  29.704  1.00  0.00    -0.014 A 
BRANCH  50  51
ATOM     51  C   UNL A   1      40.531  28.579  30.827  1.00  0.00     0.031 A 
ATOM     52  C   UNL A   1      41.493  28.550  31.987  1.00  0.00     0.074 A 
ATOM     53  C   UNL A   1      39.575  29.528  30.769  1.00  0.00     0.049 A 
ATOM     54  N   UNL A   1      41.543  29.333  33.035  1.00  0.00    -0.248 NA
ATOM     55  C   UNL A   1      42.535  27.510  31.973  1.00  0.00     0.031 C 
ATOM     56  C   UNL A   1      38.592  29.668  29.691  1.00  0.00     0.029 A 
ATOM     57  N   UNL A   1      39.289  30.570  31.614  1.00  0.00    -0.354 N 
ATOM     58  C   UNL A   1      42.608  28.878  33.805  1.00  0.00     0.074 A 
ATOM     59  C   UNL A   1      43.155  27.724  33.126  1.00  0.00     0.031 C 
ATOM     60  C   UNL A   1      37.850  30.762  29.912  1.00  0.00     0.029 A 
ATOM     61  C   UNL A   1      38.256  31.367  31.177  1.00  0.00     0.049 A 
ATOM     62  H   UNL A   1      39.776  30.733  32.455  1.00  0.00     0.167 HD
ATOM     63  C   UNL A   1      43.099  29.387  34.962  1.00  0.00     0.037 A 
ATOM     64  C   UNL A   1      37.688  32.455  31.734  1.00  0.00     0.037 A 
ATOM     65  C   UNL A   1      42.562  30.548  35.626  1.00  0.00     0.049 A 
ATOM     66  C   UNL A   1      38.214  32.961  33.048  1.00  0.00     0.074 A 
ATOM     67  C   UNL A   1      43.000  31.147  36.795  1.00  0.00     0.029 A 
ATOM     68  N   UNL A   1      41.476  31.287  35.182  1.00  0.00    -0.354 N 
ATOM     69  N   UNL A   1      39.227  32.521  33.755  1.00  0.00    -0.248 NA
ATOM     70  C   UNL A   1      37.513  34.105  33.648  1.00  0.00     0.031 C 
ATOM     71  C   UNL A   1      42.150  32.218  37.083  1.00  0.00     0.029 A 
ATOM     72  C   UNL A   1      41.215  32.321  36.066  1.00  0.00     0.049 A 
ATOM     73  H   UNL A   1      40.965  31.103  34.361  1.00  0.00     0.167 HD
ATOM     74  C   UNL A   1      39.296  33.344  34.873  1.00  0.00     0.074 A 
ATOM     75  C   UNL A   1      38.235  34.322  34.739  1.00  0.00     0.031 C 
ATOM     76  C   UNL A   1      40.158  33.291  35.919  1.00  0.00     0.037 A 
BRANCH  63  77
ATOM     77  C   UNL A   1      44.282  28.700  35.591  1.00  0.00     0.058 A 
ATOM     78  C   UNL A   1      44.120  27.661  36.520  1.00  0.00     0.135 A 
ATOM     79  C   UNL A   1      45.591  29.032  35.204  1.00  0.00     0.135 A 
ATOM     80  F   UNL A   1      42.893  27.312  36.938  1.00  0.00    -0.206 F 
ATOM     81  C   UNL A   1      45.212  26.983  37.053  1.00  0.00     0.059 A 
ATOM     82  C   UNL A   1      46.698  28.349  35.704  1.00  0.00     0.059 A 
ATOM     83  F   UNL A   1      45.805  30.018  34.319  1.00  0.00    -0.206 F 
ATOM     84  C   UNL A   1      46.498  27.331  36.633  1.00  0.00     0.060 A 
BRANCH  84  85
ATOM     85  S   UNL A   1      47.899  26.421  37.317  1.00  0.00     0.124 S 
ATOM     86  O   UNL A   1      49.021  27.260  36.906  1.00  0.00    -0.237 OA
ATOM     87  O   UNL A   1      47.600  26.419  38.745  1.00  0.00    -0.237 OA
ATOM     88  O   UNL A   1      47.816  25.120  36.659  1.00  0.00    -0.744 OA
ENDBRANCH  84  85
ENDBRANCH  63  77
BRANCH  64  89
ATOM     89  C   UNL A   1      36.557  33.135  31.047  1.00  0.00     0.058 A 
ATOM     90  C   UNL A   1      35.245  33.020  31.528  1.00  0.00     0.135 A 
ATOM     91  C   UNL A   1      36.769  33.929  29.908  1.00  0.00     0.135 A 
ATOM     92  F   UNL A   1      34.991  32.266  32.608  1.00  0.00    -0.206 F 
ATOM     93  C   UNL A   1      34.181  33.659  30.901  1.00  0.00     0.059 A 
ATOM     94  C   UNL A   1      35.726  34.602  29.282  1.00  0.00     0.059 A 
ATOM     95  F   UNL A   1      38.007  34.081  29.414  1.00  0.00    -0.206 F 
ATOM     96  C   UNL A   1      34.432  34.453  29.781  1.00  0.00     0.060 A 
BRANCH  96  97
ATOM     97  S   UNL A   1      33.049  35.318  29.006  1.00  0.00     0.124 S 
ATOM     98  O   UNL A   1      32.620  34.347  28.007  1.00  0.00    -0.237 OA
ATOM     99  O   UNL A   1      32.145  35.516  30.135  1.00  0.00    -0.237 OA
ATOM    100  O   UNL A   1      33.662  36.535  28.483  1.00  0.00    -0.744 OA
ENDBRANCH  96  97
ENDBRANCH  64  89
BRANCH  76 101
ATOM    101  C   UNL A   1      40.007  34.327  37.000  1.00  0.00     0.058 A 
ATOM    102  C   UNL A   1      40.617  35.586  36.899  1.00  0.00     0.135 A 
ATOM    103  C   UNL A   1      39.185  34.082  38.112  1.00  0.00     0.135 A 
ATOM    104  F   UNL A   1      41.419  35.868  35.859  1.00  0.00    -0.206 F 
ATOM    105  C   UNL A   1      40.429  36.563  37.870  1.00  0.00     0.059 A 
ATOM    106  C   UNL A   1      38.959  35.055  39.080  1.00  0.00     0.059 A 
ATOM    107  F   UNL A   1      38.570  32.897  38.251  1.00  0.00    -0.206 F 
ATOM    108  C   UNL A   1      39.592  36.291  38.954  1.00  0.00     0.060 A 
BRANCH 108 109
ATOM    109  S   UNL A   1      39.323  37.587  40.181  1.00  0.00     0.124 S 
ATOM    110  O   UNL A   1      38.264  38.371  39.556  1.00  0.00    -0.237 OA
ATOM    111  O   UNL A   1      38.933  36.821  41.361  1.00  0.00    -0.237 OA
ATOM    112  O   UNL A   1      40.623  38.247  40.271  1.00  0.00    -0.744 OA
ENDBRANCH 108 109
ENDBRANCH  76 101
ENDBRANCH  50  51
ENDBRANCH  42  45
ENDBRANCH  40  41
ENDBRANCH  39  40
ENDBRANCH  38  39
ENDBRANCH   1  38
TORSDOF 22
ENDMDL
MODEL 3
REMARK VINA RESULT:     -12.5      6.111     10.427
REMARK SMILES C[C@H]1c2ccc(O)cc2OC(=O)[C@@H]1CC(=O)N[C@@H](CC1=c2ccccc2=NC1)C(=O)NCCCCCCNC(=O)c1ccc(-c2c3nc(c(-c4c(F)cc(S(=O)(=O)[O-])cc4F)c4ccc([nH]4)c(-c4c(F)cc(S(=O)(=O)[O-])cc4F)c4nc(c(-c5c(F)cc(S(=O)(=O)[O-])cc5F)c5ccc2[nH]5)C=C4)C=C3)cc1
REMARK SMILES IDX 34 1 33 2 32 3 31 4 29 5 30 6 18 8 17 9 15 10 16 11 14 13
REMARK SMILES IDX 13 14 1 15 2 16 3 17 4 18 9 19 11 20 5 21 8 22 10 23 12 24
REMARK SMILES IDX 6 25 7 26 19 28 20 29 21 30 28 31 22 32 26 33 27 34 23 35
REMARK SMILES IDX 25 36 24 37 35 38 36 39 37 40 38 41 39 42 40 44 41 45 42 46
REMARK SMILES IDX 106 47 43 48 105 49 44 50 45 51 46 52 99 53 47 54 104 55
REMARK SMILES IDX 98 56 100 57 48 58 103 59 97 60 96 61 49 63 83 64 62 65
REMARK SMILES IDX 82 66 63 67 66 68 81 69 101 70 64 71 65 72 80 74 102 75
REMARK SMILES IDX 67 76 50 77 51 78 60 79 52 80 53 81 59 82 61 83 54 84 55 85
REMARK SMILES IDX 56 86 57 87 58 88 84 89 85 90 94 91 86 92 87 93 93 94 95 95
REMARK SMILES IDX 88 96 89 97 90 98 91 99 92 100 68 101 69 102 78 103 70 104
REMARK SMILES IDX 71 105 77 106 79 107 72 108 73 109 74 110 75 111 76 112
REMARK H PARENT 31 7 17 12 7 27 38 43 100 62 66 73
REMARK Flexibility Score: inf
ROOT
ATOM      1  C   UNL A   1      39.296  21.875  26.480  1.00  0.00     0.002 C 
ENDROOT
BRANCH   1   2
ATOM      2  C   UNL A   1      38.041  21.549  25.648  1.00  0.00     0.021 C 
BRANCH   2   3
ATOM      3  C   UNL A   1      37.131  22.710  25.280  1.00  0.00     0.116 C 
BRANCH   3   4
ATOM      4  N   UNL A   1      36.295  23.391  26.223  1.00  0.00    -0.354 N 
ATOM      5  C   UNL A   1      35.023  22.930  26.508  1.00  0.00     0.242 C 
ATOM      6  O   UNL A   1      34.692  22.920  27.700  1.00  0.00    -0.273 OA
ATOM      7  H   UNL A   1      36.631  24.198  26.675  1.00  0.00     0.163 HD
BRANCH   5   8
ATOM      8  C   UNL A   1      34.006  22.404  25.413  1.00  0.00     0.175 C 
BRANCH   8   9
ATOM      9  N   UNL A   1      34.150  22.852  24.023  1.00  0.00    -0.344 N 
ATOM     10  C   UNL A   1      33.613  23.950  23.411  1.00  0.00     0.221 C 
ATOM     11  O   UNL A   1      33.683  24.027  22.184  1.00  0.00    -0.275 OA
ATOM     12  H   UNL A   1      34.713  22.282  23.452  1.00  0.00     0.164 HD
BRANCH  10  13
ATOM     13  C   UNL A   1      33.014  25.096  24.221  1.00  0.00     0.116 C 
BRANCH  13  14
ATOM     14  C   UNL A   1      31.480  25.075  24.433  1.00  0.00     0.116 C 
ATOM     15  C   UNL A   1      29.275  26.349  24.166  1.00  0.00     0.014 C 
ATOM     16  C   UNL A   1      30.808  26.434  24.110  1.00  0.00     0.034 C 
ATOM     17  C   UNL A   1      31.314  27.466  25.094  1.00  0.00    -0.001 A 
ATOM     18  C   UNL A   1      31.402  28.822  24.775  1.00  0.00     0.011 A 
ATOM     19  C   UNL A   1      31.755  27.045  26.355  1.00  0.00     0.138 A 
ATOM     20  C   UNL A   1      31.080  24.806  25.863  1.00  0.00     0.315 C 
ATOM     21  C   UNL A   1      31.983  29.717  25.681  1.00  0.00     0.047 A 
ATOM     22  C   UNL A   1      32.376  27.913  27.245  1.00  0.00     0.093 A 
ATOM     23  O   UNL A   1      31.548  25.726  26.787  1.00  0.00    -0.426 OA
ATOM     24  O   UNL A   1      30.389  23.852  26.197  1.00  0.00    -0.251 OA
ATOM     25  C   UNL A   1      32.489  29.249  26.894  1.00  0.00     0.119 A 
BRANCH  25  26
ATOM     26  O   UNL A   1      33.099  30.089  27.779  1.00  0.00    -0.508 OA
ATOM     27  H   UNL A   1      33.031  31.016  27.669  1.00  0.00     0.293 HD
ENDBRANCH  25  26
ENDBRANCH  13  14
ENDBRANCH  10  13
ENDBRANCH   8   9
BRANCH   8  28
ATOM     28  C   UNL A   1      33.356  20.963  25.496  1.00  0.00     0.068 C 
BRANCH  28  29
ATOM     29  C   UNL A   1      33.614  19.844  24.481  1.00  0.00    -0.037 C 
ATOM     30  C   UNL A   1      34.027  18.605  24.842  1.00  0.00     0.001 A 
ATOM     31  C   UNL A   1      32.536  19.718  23.469  1.00  0.00     0.174 C 
ATOM     32  C   UNL A   1      34.759  17.621  24.010  1.00  0.00     0.010 A 
ATOM     33  C   UNL A   1      32.647  18.044  24.844  1.00  0.00     0.065 A 
ATOM     34  N   UNL A   1      31.804  18.565  24.015  1.00  0.00    -0.280 NA
ATOM     35  C   UNL A   1      34.421  16.312  24.115  1.00  0.00     0.001 A 
ATOM     36  C   UNL A   1      32.497  16.761  25.534  1.00  0.00     0.028 A 
ATOM     37  C   UNL A   1      33.417  15.887  25.094  1.00  0.00     0.002 A 
ENDBRANCH  28  29
ENDBRANCH   8  28
ENDBRANCH   5   8
ENDBRANCH   3   4
ENDBRANCH   2   3
ENDBRANCH   1   2
BRANCH   1  38
ATOM     38  C   UNL A   1      40.657  21.246  26.125  1.00  0.00     0.002 C 
BRANCH  38  39
ATOM     39  C   UNL A   1      40.813  19.724  26.077  1.00  0.00     0.021 C 
BRANCH  39  40
ATOM     40  C   UNL A   1      42.115  19.118  26.567  1.00  0.00     0.116 C 
BRANCH  40  41
ATOM     41  N   UNL A   1      43.038  18.816  25.490  1.00  0.00    -0.352 N 
ATOM     42  C   UNL A   1      43.882  19.643  24.783  1.00  0.00     0.251 C 
ATOM     43  H   UNL A   1      43.064  17.869  25.222  1.00  0.00     0.163 HD
ATOM     44  O   UNL A   1      44.491  19.204  23.822  1.00  0.00    -0.269 OA
BRANCH  42  45
ATOM     45  C   UNL A   1      44.025  21.071  25.166  1.00  0.00     0.039 A 
ATOM     46  C   UNL A   1      43.810  22.096  24.245  1.00  0.00     0.014 A 
ATOM     47  C   UNL A   1      44.385  21.384  26.481  1.00  0.00     0.014 A 
ATOM     48  C   UNL A   1      44.121  23.411  24.586  1.00  0.00     0.010 A 
ATOM     49  C   UNL A   1      44.612  22.715  26.848  1.00  0.00     0.010 A 
ATOM     50  C   UNL A   1      44.534  23.737  25.889  1.00  0.00    -0.014 A 
BRANCH  50  51
ATOM     51  C   UNL A   1      44.899  25.144  26.215  1.00  0.00     0.031 A 
ATOM     52  C   UNL A   1      43.874  26.090  26.785  1.00  0.00     0.074 A 
ATOM     53  C   UNL A   1      46.174  25.551  26.054  1.00  0.00     0.049 A 
ATOM     54  N   UNL A   1      44.019  27.338  27.154  1.00  0.00    -0.248 NA
ATOM     55  C   UNL A   1      42.507  25.573  26.967  1.00  0.00     0.031 C 
ATOM     56  C   UNL A   1      47.262  24.724  25.523  1.00  0.00     0.029 A 
ATOM     57  N   UNL A   1      46.782  26.746  26.347  1.00  0.00    -0.354 N 
ATOM     58  C   UNL A   1      42.769  27.755  27.600  1.00  0.00     0.074 A 
ATOM     59  C   UNL A   1      41.865  26.641  27.419  1.00  0.00     0.031 C 
ATOM     60  C   UNL A   1      48.409  25.417  25.579  1.00  0.00     0.029 A 
ATOM     61  C   UNL A   1      48.132  26.758  26.086  1.00  0.00     0.049 A 
ATOM     62  H   UNL A   1      46.296  27.524  26.708  1.00  0.00     0.167 HD
ATOM     63  C   UNL A   1      42.413  28.951  28.131  1.00  0.00     0.037 A 
ATOM     64  C   UNL A   1      49.047  27.737  26.227  1.00  0.00     0.037 A 
ATOM     65  C   UNL A   1      43.322  30.052  28.325  1.00  0.00     0.049 A 
ATOM     66  C   UNL A   1      48.611  29.073  26.761  1.00  0.00     0.074 A 
ATOM     67  C   UNL A   1      43.056  31.298  28.867  1.00  0.00     0.029 A 
ATOM     68  N   UNL A   1      44.667  30.042  27.989  1.00  0.00    -0.354 N 
ATOM     69  N   UNL A   1      47.426  29.444  27.185  1.00  0.00    -0.248 NA
ATOM     70  C   UNL A   1      49.631  30.128  26.826  1.00  0.00     0.031 C 
ATOM     71  C   UNL A   1      44.229  32.057  28.815  1.00  0.00     0.029 A 
ATOM     72  C   UNL A   1      45.239  31.267  28.290  1.00  0.00     0.049 A 
ATOM     73  H   UNL A   1      45.145  29.278  27.594  1.00  0.00     0.167 HD
ATOM     74  C   UNL A   1      47.563  30.769  27.583  1.00  0.00     0.074 A 
ATOM     75  C   UNL A   1      48.950  31.129  27.368  1.00  0.00     0.031 C 
ATOM     76  C   UNL A   1      46.623  31.612  28.076  1.00  0.00     0.037 A 
BRANCH  63  77
ATOM     77  C   UNL A   1      40.978  29.140  28.548  1.00  0.00     0.058 A 
ATOM     78  C   UNL A   1      40.601  29.148  29.899  1.00  0.00     0.135 A 
ATOM     79  C   UNL A   1      39.983  29.395  27.590  1.00  0.00     0.135 A 
ATOM     80  F   UNL A   1      41.507  28.896  30.857  1.00  0.00    -0.206 F 
ATOM     81  C   UNL A   1      39.286  29.387  30.287  1.00  0.00     0.059 A 
ATOM     82  C   UNL A   1      38.666  29.663  27.956  1.00  0.00     0.059 A 
ATOM     83  F   UNL A   1      40.288  29.400  26.283  1.00  0.00    -0.206 F 
ATOM     84  C   UNL A   1      38.326  29.649  29.307  1.00  0.00     0.060 A 
BRANCH  84  85
ATOM     85  S   UNL A   1      36.632  29.984  29.834  1.00  0.00     0.124 S 
ATOM     86  O   UNL A   1      36.635  31.442  29.916  1.00  0.00    -0.237 OA
ATOM     87  O   UNL A   1      35.850  29.413  28.743  1.00  0.00    -0.237 OA
ATOM     88  O   UNL A   1      36.527  29.286  31.112  1.00  0.00    -0.744 OA
ENDBRANCH  84  85
ENDBRANCH  63  77
BRANCH  64  89
ATOM     89  C   UNL A   1      50.466  27.486  25.855  1.00  0.00     0.058 A 
ATOM     90  C   UNL A   1      51.414  27.130  26.825  1.00  0.00     0.135 A 
ATOM     91  C   UNL A   1      50.896  27.577  24.521  1.00  0.00     0.135 A 
ATOM     92  F   UNL A   1      51.054  27.037  28.113  1.00  0.00    -0.206 F 
ATOM     93  C   UNL A   1      52.741  26.882  26.489  1.00  0.00     0.059 A 
ATOM     94  C   UNL A   1      52.210  27.305  24.157  1.00  0.00     0.059 A 
ATOM     95  F   UNL A   1      50.026  27.903  23.554  1.00  0.00    -0.206 F 
ATOM     96  C   UNL A   1      53.128  26.967  25.150  1.00  0.00     0.060 A 
BRANCH  96  97
ATOM     97  S   UNL A   1      54.843  26.594  24.721  1.00  0.00     0.124 S 
ATOM     98  O   UNL A   1      55.570  27.445  25.656  1.00  0.00    -0.237 OA
ATOM     99  O   UNL A   1      54.913  25.158  24.976  1.00  0.00    -0.237 OA
ATOM    100  O   UNL A   1      54.930  26.980  23.316  1.00  0.00    -0.744 OA
ENDBRANCH  96  97
ENDBRANCH  64  89
BRANCH  76 101
ATOM    101  C   UNL A   1      47.058  33.006  28.437  1.00  0.00     0.058 A 
ATOM    102  C   UNL A   1      47.577  33.307  29.705  1.00  0.00     0.135 A 
ATOM    103  C   UNL A   1      47.021  34.034  27.481  1.00  0.00     0.135 A 
ATOM    104  F   UNL A   1      47.627  32.362  30.658  1.00  0.00    -0.206 F 
ATOM    105  C   UNL A   1      48.034  34.583  30.018  1.00  0.00     0.059 A 
ATOM    106  C   UNL A   1      47.500  35.310  27.763  1.00  0.00     0.059 A 
ATOM    107  F   UNL A   1      46.543  33.796  26.250  1.00  0.00    -0.206 F 
ATOM    108  C   UNL A   1      47.997  35.577  29.037  1.00  0.00     0.060 A 
BRANCH 108 109
ATOM    109  S   UNL A   1      48.636  37.215  29.447  1.00  0.00     0.124 S 
ATOM    110  O   UNL A   1      49.869  36.883  30.153  1.00  0.00    -0.237 OA
ATOM    111  O   UNL A   1      48.803  37.820  28.129  1.00  0.00    -0.237 OA
ATOM    112  O   UNL A   1      47.579  37.797  30.269  1.00  0.00    -0.744 OA
ENDBRANCH 108 109
ENDBRANCH  76 101
ENDBRANCH  50  51
ENDBRANCH  42  45
ENDBRANCH  40  41
ENDBRANCH  39  40
ENDBRANCH  38  39
ENDBRANCH   1  38
TORSDOF 22
ENDMDL
