MODEL 1
REMARK VINA RESULT:     -11.2      0.000      0.000
REMARK SMILES Cc1cc(C(=O)N[C@](C)(C(=O)NCCCCCCNC(=O)c2ccc(-c3c4nc(c(-c5c(F)cc(S(=O)(=O)[O-])cc5F)c5ccc([nH]5)c(-c5c(F)cc(S(=O)(=O)[O-])cc5F)c5nc(c(-c6c(F)cc(S(=O)(=O)[O-])cc6F)c6ccc3[nH]6)C=C5)C=C4)cc2)C(F)(F)F)no1
REMARK SMILES IDX 16 1 15 2 14 3 13 4 12 5 10 6 11 7 8 9 9 10 7 11 5 12 6 13
REMARK SMILES IDX 4 15 1 16 2 17 3 18 93 19 92 20 88 21 89 22 90 23 91 24
REMARK SMILES IDX 17 25 18 26 19 27 20 28 21 30 22 31 23 32 87 33 24 34 86 35
REMARK SMILES IDX 25 36 26 37 27 38 80 39 28 40 85 41 79 42 81 43 29 44 84 45
REMARK SMILES IDX 78 46 77 47 30 49 64 50 43 51 63 52 44 53 47 54 62 55 82 56
REMARK SMILES IDX 45 57 46 58 61 60 83 61 48 62 31 63 32 64 41 65 33 66 34 67
REMARK SMILES IDX 40 68 42 69 35 70 36 71 37 72 38 73 39 74 65 75 66 76 75 77
REMARK SMILES IDX 67 78 68 79 74 80 76 81 69 82 70 83 71 84 72 85 73 86 49 87
REMARK SMILES IDX 50 88 59 89 51 90 52 91 58 92 60 93 53 94 54 95 55 96 56 97
REMARK SMILES IDX 57 98
REMARK H PARENT 12 8 7 14 19 29 81 48 47 59
REMARK Flexibility Score: inf
ROOT
ATOM      1  C   UNL A   1      32.594  28.948  24.876  1.00  0.00     0.002 C 
ENDROOT
BRANCH   1   2
ATOM      2  C   UNL A   1      31.201  29.166  24.280  1.00  0.00     0.002 C 
BRANCH   2   3
ATOM      3  C   UNL A   1      31.055  28.769  22.805  1.00  0.00     0.021 C 
BRANCH   3   4
ATOM      4  C   UNL A   1      30.841  27.274  22.584  1.00  0.00     0.116 C 
BRANCH   4   5
ATOM      5  N   UNL A   1      31.669  26.795  21.488  1.00  0.00    -0.354 N 
ATOM      6  C   UNL A   1      32.408  25.657  21.361  1.00  0.00     0.254 C 
ATOM      7  O   UNL A   1      33.052  25.545  20.316  1.00  0.00    -0.272 OA
ATOM      8  H   UNL A   1      31.701  27.395  20.707  1.00  0.00     0.163 HD
BRANCH   6   9
ATOM      9  C   UNL A   1      32.517  24.638  22.507  1.00  0.00     0.212 C 
ATOM     10  C   UNL A   1      31.177  24.705  23.289  1.00  0.00     0.056 C 
BRANCH   9  11
ATOM     11  N   UNL A   1      32.732  23.215  22.069  1.00  0.00    -0.329 N 
ATOM     12  C   UNL A   1      32.423  22.028  22.711  1.00  0.00     0.274 C 
ATOM     13  O   UNL A   1      31.973  21.126  22.006  1.00  0.00    -0.267 OA
ATOM     14  H   UNL A   1      33.159  23.113  21.188  1.00  0.00     0.165 HD
BRANCH  12  15
ATOM     15  C   UNL A   1      32.833  21.812  24.097  1.00  0.00     0.171 A 
ATOM     16  C   UNL A   1      33.163  22.335  27.701  1.00  0.00     0.091 C 
ATOM     17  C   UNL A   1      33.111  21.957  26.278  1.00  0.00     0.134 A 
ATOM     18  C   UNL A   1      32.128  21.950  25.319  1.00  0.00     0.082 A 
ATOM     19  O   UNL A   1      34.286  21.592  25.709  1.00  0.00    -0.361 OA
ATOM     20  N   UNL A   1      34.116  21.489  24.345  1.00  0.00    -0.074 NA
ENDBRANCH  12  15
ENDBRANCH   9  11
BRANCH   9  21
ATOM     21  C   UNL A   1      33.644  25.102  23.457  1.00  0.00     0.420 C 
ATOM     22  F   UNL A   1      33.349  24.945  24.766  1.00  0.00    -0.168 F 
ATOM     23  F   UNL A   1      34.763  24.362  23.228  1.00  0.00    -0.168 F 
ATOM     24  F   UNL A   1      33.988  26.394  23.253  1.00  0.00    -0.168 F 
ENDBRANCH   9  21
ENDBRANCH   6   9
ENDBRANCH   4   5
ENDBRANCH   3   4
ENDBRANCH   2   3
ENDBRANCH   1   2
BRANCH   1  25
ATOM     25  C   UNL A   1      32.669  27.959  26.036  1.00  0.00     0.021 C 
BRANCH  25  26
ATOM     26  C   UNL A   1      33.629  28.355  27.149  1.00  0.00     0.116 C 
BRANCH  26  27
ATOM     27  N   UNL A   1      33.488  29.746  27.547  1.00  0.00    -0.352 N 
ATOM     28  C   UNL A   1      34.422  30.556  28.144  1.00  0.00     0.251 C 
ATOM     29  H   UNL A   1      32.614  30.160  27.367  1.00  0.00     0.163 HD
ATOM     30  O   UNL A   1      34.117  31.678  28.537  1.00  0.00    -0.269 OA
BRANCH  28  31
ATOM     31  C   UNL A   1      35.794  30.039  28.339  1.00  0.00     0.039 A 
ATOM     32  C   UNL A   1      36.693  30.088  27.273  1.00  0.00     0.014 A 
ATOM     33  C   UNL A   1      36.198  29.565  29.590  1.00  0.00     0.014 A 
ATOM     34  C   UNL A   1      38.023  29.715  27.480  1.00  0.00     0.010 A 
ATOM     35  C   UNL A   1      37.538  29.269  29.813  1.00  0.00     0.010 A 
ATOM     36  C   UNL A   1      38.463  29.337  28.759  1.00  0.00    -0.014 A 
BRANCH  36  37
ATOM     37  C   UNL A   1      39.886  28.995  29.015  1.00  0.00     0.031 A 
ATOM     38  C   UNL A   1      40.813  30.033  29.587  1.00  0.00     0.074 A 
ATOM     39  C   UNL A   1      40.351  27.775  28.681  1.00  0.00     0.049 A 
ATOM     40  N   UNL A   1      42.098  29.957  29.813  1.00  0.00    -0.248 NA
ATOM     41  C   UNL A   1      40.222  31.340  29.922  1.00  0.00     0.031 C 
ATOM     42  C   UNL A   1      39.559  26.700  28.076  1.00  0.00     0.029 A 
ATOM     43  N   UNL A   1      41.608  27.234  28.795  1.00  0.00    -0.354 N 
ATOM     44  C   UNL A   1      42.471  31.202  30.305  1.00  0.00     0.074 A 
ATOM     45  C   UNL A   1      41.289  32.035  30.286  1.00  0.00     0.031 C 
ATOM     46  C   UNL A   1      40.342  25.623  27.898  1.00  0.00     0.029 A 
ATOM     47  C   UNL A   1      41.697  25.939  28.339  1.00  0.00     0.049 A 
ATOM     48  H   UNL A   1      42.373  27.726  29.170  1.00  0.00     0.167 HD
ATOM     49  C   UNL A   1      43.680  31.607  30.759  1.00  0.00     0.037 A 
ATOM     50  C   UNL A   1      42.753  25.106  28.279  1.00  0.00     0.037 A 
ATOM     51  C   UNL A   1      44.845  30.762  30.802  1.00  0.00     0.049 A 
ATOM     52  C   UNL A   1      44.088  25.581  28.786  1.00  0.00     0.074 A 
ATOM     53  C   UNL A   1      46.106  31.062  31.286  1.00  0.00     0.029 A 
ATOM     54  N   UNL A   1      44.889  29.451  30.352  1.00  0.00    -0.354 N 
ATOM     55  N   UNL A   1      44.409  26.746  29.297  1.00  0.00    -0.248 NA
ATOM     56  C   UNL A   1      45.205  24.627  28.715  1.00  0.00     0.031 C 
ATOM     57  C   UNL A   1      46.924  29.943  31.094  1.00  0.00     0.029 A 
ATOM     58  C   UNL A   1      46.159  28.932  30.534  1.00  0.00     0.049 A 
ATOM     59  H   UNL A   1      44.130  28.962  29.961  1.00  0.00     0.167 HD
ATOM     60  C   UNL A   1      45.755  26.654  29.636  1.00  0.00     0.074 A 
ATOM     61  C   UNL A   1      46.183  25.316  29.284  1.00  0.00     0.031 C 
ATOM     62  C   UNL A   1      46.563  27.592  30.191  1.00  0.00     0.037 A 
BRANCH  49  63
ATOM     63  C   UNL A   1      43.800  33.020  31.261  1.00  0.00     0.058 A 
ATOM     64  C   UNL A   1      43.529  33.348  32.599  1.00  0.00     0.135 A 
ATOM     65  C   UNL A   1      44.228  34.049  30.409  1.00  0.00     0.135 A 
ATOM     66  F   UNL A   1      43.099  32.405  33.454  1.00  0.00    -0.206 F 
ATOM     67  C   UNL A   1      43.654  34.651  33.068  1.00  0.00     0.059 A 
ATOM     68  C   UNL A   1      44.388  35.355  30.864  1.00  0.00     0.059 A 
ATOM     69  F   UNL A   1      44.498  33.792  29.120  1.00  0.00    -0.206 F 
ATOM     70  C   UNL A   1      44.086  35.648  32.193  1.00  0.00     0.060 A 
BRANCH  70  71
ATOM     71  S   UNL A   1      44.255  37.331  32.823  1.00  0.00     0.124 S 
ATOM     72  O   UNL A   1      44.200  38.110  31.590  1.00  0.00    -0.237 OA
ATOM     73  O   UNL A   1      43.097  37.454  33.702  1.00  0.00    -0.237 OA
ATOM     74  O   UNL A   1      45.550  37.314  33.496  1.00  0.00    -0.744 OA
ENDBRANCH  70  71
ENDBRANCH  49  63
BRANCH  50  75
ATOM     75  C   UNL A   1      42.591  23.727  27.741  1.00  0.00     0.058 A 
ATOM     76  C   UNL A   1      42.584  23.489  26.359  1.00  0.00     0.135 A 
ATOM     77  C   UNL A   1      42.429  22.624  28.594  1.00  0.00     0.135 A 
ATOM     78  F   UNL A   1      42.731  24.512  25.503  1.00  0.00    -0.206 F 
ATOM     79  C   UNL A   1      42.394  22.213  25.839  1.00  0.00     0.059 A 
ATOM     80  C   UNL A   1      42.264  21.334  28.098  1.00  0.00     0.059 A 
ATOM     81  F   UNL A   1      42.447  22.794  29.925  1.00  0.00    -0.206 F 
ATOM     82  C   UNL A   1      42.231  21.141  26.718  1.00  0.00     0.060 A 
BRANCH  82  83
ATOM     83  S   UNL A   1      42.004  19.486  26.033  1.00  0.00     0.124 S 
ATOM     84  O   UNL A   1      40.566  19.463  25.793  1.00  0.00    -0.237 OA
ATOM     85  O   UNL A   1      42.850  19.527  24.844  1.00  0.00    -0.237 OA
ATOM     86  O   UNL A   1      42.480  18.614  27.102  1.00  0.00    -0.744 OA
ENDBRANCH  82  83
ENDBRANCH  50  75
BRANCH  62  87
ATOM     87  C   UNL A   1      47.981  27.193  30.490  1.00  0.00     0.058 A 
ATOM     88  C   UNL A   1      49.025  27.447  29.589  1.00  0.00     0.135 A 
ATOM     89  C   UNL A   1      48.305  26.596  31.720  1.00  0.00     0.135 A 
ATOM     90  F   UNL A   1      48.768  28.010  28.397  1.00  0.00    -0.206 F 
ATOM     91  C   UNL A   1      50.340  27.104  29.887  1.00  0.00     0.059 A 
ATOM     92  C   UNL A   1      49.615  26.271  32.050  1.00  0.00     0.059 A 
ATOM     93  F   UNL A   1      47.343  26.343  32.622  1.00  0.00    -0.206 F 
ATOM     94  C   UNL A   1      50.625  26.518  31.122  1.00  0.00     0.060 A 
BRANCH  94  95
ATOM     95  S   UNL A   1      52.340  26.112  31.511  1.00  0.00     0.124 S 
ATOM     96  O   UNL A   1      52.675  27.148  32.483  1.00  0.00    -0.237 OA
ATOM     97  O   UNL A   1      52.229  24.756  32.042  1.00  0.00    -0.237 OA
ATOM     98  O   UNL A   1      53.016  26.218  30.221  1.00  0.00    -0.744 OA
ENDBRANCH  94  95
ENDBRANCH  62  87
ENDBRANCH  36  37
ENDBRANCH  28  31
ENDBRANCH  26  27
ENDBRANCH  25  26
ENDBRANCH   1  25
TORSDOF 19
ENDMDL
MODEL 2
REMARK VINA RESULT:     -11.0      1.303      2.041
REMARK SMILES Cc1cc(C(=O)N[C@](C)(C(=O)NCCCCCCNC(=O)c2ccc(-c3c4nc(c(-c5c(F)cc(S(=O)(=O)[O-])cc5F)c5ccc([nH]5)c(-c5c(F)cc(S(=O)(=O)[O-])cc5F)c5nc(c(-c6c(F)cc(S(=O)(=O)[O-])cc6F)c6ccc3[nH]6)C=C5)C=C4)cc2)C(F)(F)F)no1
REMARK SMILES IDX 16 1 15 2 14 3 13 4 12 5 10 6 11 7 8 9 9 10 7 11 5 12 6 13
REMARK SMILES IDX 4 15 1 16 2 17 3 18 93 19 92 20 88 21 89 22 90 23 91 24
REMARK SMILES IDX 17 25 18 26 19 27 20 28 21 30 22 31 23 32 87 33 24 34 86 35
REMARK SMILES IDX 25 36 26 37 27 38 80 39 28 40 85 41 79 42 81 43 29 44 84 45
REMARK SMILES IDX 78 46 77 47 30 49 64 50 43 51 63 52 44 53 47 54 62 55 82 56
REMARK SMILES IDX 45 57 46 58 61 60 83 61 48 62 31 63 32 64 41 65 33 66 34 67
REMARK SMILES IDX 40 68 42 69 35 70 36 71 37 72 38 73 39 74 65 75 66 76 75 77
REMARK SMILES IDX 67 78 68 79 74 80 76 81 69 82 70 83 71 84 72 85 73 86 49 87
REMARK SMILES IDX 50 88 59 89 51 90 52 91 58 92 60 93 53 94 54 95 55 96 56 97
REMARK SMILES IDX 57 98
REMARK H PARENT 12 8 7 14 19 29 81 48 47 59
REMARK Flexibility Score: inf
ROOT
ATOM      1  C   UNL A   1      33.117  28.032  24.668  1.00  0.00     0.002 C 
ENDROOT
BRANCH   1   2
ATOM      2  C   UNL A   1      32.186  27.219  23.765  1.00  0.00     0.002 C 
BRANCH   2   3
ATOM      3  C   UNL A   1      30.813  26.894  24.370  1.00  0.00     0.021 C 
BRANCH   3   4
ATOM      4  C   UNL A   1      30.377  25.444  24.173  1.00  0.00     0.116 C 
BRANCH   4   5
ATOM      5  N   UNL A   1      30.152  24.800  25.458  1.00  0.00    -0.354 N 
ATOM      6  C   UNL A   1      30.927  23.931  26.166  1.00  0.00     0.254 C 
ATOM      7  O   UNL A   1      30.443  23.513  27.220  1.00  0.00    -0.272 OA
ATOM      8  H   UNL A   1      29.296  25.030  25.886  1.00  0.00     0.163 HD
BRANCH   6   9
ATOM      9  C   UNL A   1      32.269  23.421  25.618  1.00  0.00     0.212 C 
ATOM     10  C   UNL A   1      32.478  22.001  26.210  1.00  0.00     0.056 C 
BRANCH   9  11
ATOM     11  N   UNL A   1      32.340  23.318  24.119  1.00  0.00    -0.329 N 
ATOM     12  C   UNL A   1      33.113  22.493  23.318  1.00  0.00     0.274 C 
ATOM     13  O   UNL A   1      32.560  22.020  22.326  1.00  0.00    -0.267 OA
ATOM     14  H   UNL A   1      31.745  23.931  23.632  1.00  0.00     0.165 HD
BRANCH  12  15
ATOM     15  C   UNL A   1      34.555  22.398  23.534  1.00  0.00     0.171 A 
ATOM     16  C   UNL A   1      37.752  22.122  25.287  1.00  0.00     0.091 C 
ATOM     17  C   UNL A   1      36.562  22.204  24.423  1.00  0.00     0.134 A 
ATOM     18  C   UNL A   1      35.321  21.617  24.436  1.00  0.00     0.082 A 
ATOM     19  O   UNL A   1      36.617  23.100  23.406  1.00  0.00    -0.361 OA
ATOM     20  N   UNL A   1      35.366  23.217  22.839  1.00  0.00    -0.074 NA
ENDBRANCH  12  15
ENDBRANCH   9  11
BRANCH   9  21
ATOM     21  C   UNL A   1      33.391  24.332  26.164  1.00  0.00     0.420 C 
ATOM     22  F   UNL A   1      34.345  23.666  26.849  1.00  0.00    -0.168 F 
ATOM     23  F   UNL A   1      34.023  24.944  25.127  1.00  0.00    -0.168 F 
ATOM     24  F   UNL A   1      32.910  25.317  26.957  1.00  0.00    -0.168 F 
ENDBRANCH   9  21
ENDBRANCH   6   9
ENDBRANCH   4   5
ENDBRANCH   3   4
ENDBRANCH   2   3
ENDBRANCH   1   2
BRANCH   1  25
ATOM     25  C   UNL A   1      32.676  28.165  26.123  1.00  0.00     0.021 C 
BRANCH  25  26
ATOM     26  C   UNL A   1      33.784  28.554  27.091  1.00  0.00     0.116 C 
BRANCH  26  27
ATOM     27  N   UNL A   1      33.652  29.916  27.583  1.00  0.00    -0.352 N 
ATOM     28  C   UNL A   1      34.581  30.669  28.257  1.00  0.00     0.251 C 
ATOM     29  H   UNL A   1      32.787  30.354  27.411  1.00  0.00     0.163 HD
ATOM     30  O   UNL A   1      34.281  31.764  28.720  1.00  0.00    -0.269 OA
BRANCH  28  31
ATOM     31  C   UNL A   1      35.941  30.120  28.447  1.00  0.00     0.039 A 
ATOM     32  C   UNL A   1      36.854  30.192  27.394  1.00  0.00     0.014 A 
ATOM     33  C   UNL A   1      36.322  29.590  29.683  1.00  0.00     0.014 A 
ATOM     34  C   UNL A   1      38.173  29.787  27.601  1.00  0.00     0.010 A 
ATOM     35  C   UNL A   1      37.653  29.262  29.910  1.00  0.00     0.010 A 
ATOM     36  C   UNL A   1      38.592  29.353  28.870  1.00  0.00    -0.014 A 
BRANCH  36  37
ATOM     37  C   UNL A   1      40.005  28.975  29.128  1.00  0.00     0.031 A 
ATOM     38  C   UNL A   1      40.947  29.977  29.740  1.00  0.00     0.074 A 
ATOM     39  C   UNL A   1      40.449  27.756  28.762  1.00  0.00     0.049 A 
ATOM     40  N   UNL A   1      42.228  29.868  29.976  1.00  0.00    -0.248 NA
ATOM     41  C   UNL A   1      40.378  31.284  30.109  1.00  0.00     0.031 C 
ATOM     42  C   UNL A   1      39.643  26.717  28.117  1.00  0.00     0.029 A 
ATOM     43  N   UNL A   1      41.694  27.187  28.871  1.00  0.00    -0.354 N 
ATOM     44  C   UNL A   1      42.620  31.091  30.508  1.00  0.00     0.074 A 
ATOM     45  C   UNL A   1      41.455  31.947  30.504  1.00  0.00     0.031 C 
ATOM     46  C   UNL A   1      40.406  25.630  27.914  1.00  0.00     0.029 A 
ATOM     47  C   UNL A   1      41.762  25.906  28.377  1.00  0.00     0.049 A 
ATOM     48  H   UNL A   1      42.465  27.653  29.267  1.00  0.00     0.167 HD
ATOM     49  C   UNL A   1      43.832  31.457  30.985  1.00  0.00     0.037 A 
ATOM     50  C   UNL A   1      42.802  25.053  28.301  1.00  0.00     0.037 A 
ATOM     51  C   UNL A   1      44.980  30.589  31.014  1.00  0.00     0.049 A 
ATOM     52  C   UNL A   1      44.142  25.486  28.835  1.00  0.00     0.074 A 
ATOM     53  C   UNL A   1      46.242  30.848  31.519  1.00  0.00     0.029 A 
ATOM     54  N   UNL A   1      45.003  29.292  30.524  1.00  0.00    -0.354 N 
ATOM     55  N   UNL A   1      44.481  26.629  29.384  1.00  0.00    -0.248 NA
ATOM     56  C   UNL A   1      45.240  24.514  28.746  1.00  0.00     0.031 C 
ATOM     57  C   UNL A   1      47.039  29.720  31.300  1.00  0.00     0.029 A 
ATOM     58  C   UNL A   1      46.261  28.742  30.702  1.00  0.00     0.049 A 
ATOM     59  H   UNL A   1      44.238  28.830  30.112  1.00  0.00     0.167 HD
ATOM     60  C   UNL A   1      45.820  26.500  29.732  1.00  0.00     0.074 A 
ATOM     61  C   UNL A   1      46.226  25.165  29.344  1.00  0.00     0.031 C 
ATOM     62  C   UNL A   1      46.641  27.405  30.323  1.00  0.00     0.037 A 
BRANCH  49  63
ATOM     63  C   UNL A   1      43.975  32.852  31.531  1.00  0.00     0.058 A 
ATOM     64  C   UNL A   1      43.797  33.126  32.897  1.00  0.00     0.135 A 
ATOM     65  C   UNL A   1      44.333  33.917  30.690  1.00  0.00     0.135 A 
ATOM     66  F   UNL A   1      43.436  32.148  33.743  1.00  0.00    -0.206 F 
ATOM     67  C   UNL A   1      43.943  34.412  33.405  1.00  0.00     0.059 A 
ATOM     68  C   UNL A   1      44.512  35.207  31.182  1.00  0.00     0.059 A 
ATOM     69  F   UNL A   1      44.513  33.712  29.377  1.00  0.00    -0.206 F 
ATOM     70  C   UNL A   1      44.302  35.447  32.540  1.00  0.00     0.060 A 
BRANCH  70  71
ATOM     71  S   UNL A   1      44.501  37.107  33.220  1.00  0.00     0.124 S 
ATOM     72  O   UNL A   1      45.134  37.804  32.104  1.00  0.00    -0.237 OA
ATOM     73  O   UNL A   1      43.124  37.493  33.508  1.00  0.00    -0.237 OA
ATOM     74  O   UNL A   1      45.349  36.897  34.389  1.00  0.00    -0.744 OA
ENDBRANCH  70  71
ENDBRANCH  49  63
BRANCH  50  75
ATOM     75  C   UNL A   1      42.619  23.695  27.721  1.00  0.00     0.058 A 
ATOM     76  C   UNL A   1      42.408  22.580  28.547  1.00  0.00     0.135 A 
ATOM     77  C   UNL A   1      42.663  23.481  26.334  1.00  0.00     0.135 A 
ATOM     78  F   UNL A   1      42.363  22.734  29.879  1.00  0.00    -0.206 F 
ATOM     79  C   UNL A   1      42.276  21.299  28.024  1.00  0.00     0.059 A 
ATOM     80  C   UNL A   1      42.507  22.211  25.786  1.00  0.00     0.059 A 
ATOM     81  F   UNL A   1      42.844  24.515  25.499  1.00  0.00    -0.206 F 
ATOM     82  C   UNL A   1      42.330  21.124  26.640  1.00  0.00     0.060 A 
BRANCH  82  83
ATOM     83  S   UNL A   1      42.138  19.458  25.969  1.00  0.00     0.124 S 
ATOM     84  O   UNL A   1      42.978  19.524  24.779  1.00  0.00    -0.237 OA
ATOM     85  O   UNL A   1      42.640  18.628  27.060  1.00  0.00    -0.237 OA
ATOM     86  O   UNL A   1      40.703  19.359  25.726  1.00  0.00    -0.744 OA
ENDBRANCH  82  83
ENDBRANCH  50  75
BRANCH  62  87
ATOM     87  C   UNL A   1      48.049  26.969  30.623  1.00  0.00     0.058 A 
ATOM     88  C   UNL A   1      49.114  27.269  29.761  1.00  0.00     0.135 A 
ATOM     89  C   UNL A   1      48.340  26.288  31.817  1.00  0.00     0.135 A 
ATOM     90  F   UNL A   1      48.888  27.913  28.605  1.00  0.00    -0.206 F 
ATOM     91  C   UNL A   1      50.418  26.890  30.062  1.00  0.00     0.059 A 
ATOM     92  C   UNL A   1      49.640  25.926  32.151  1.00  0.00     0.059 A 
ATOM     93  F   UNL A   1      47.357  25.988  32.681  1.00  0.00    -0.206 F 
ATOM     94  C   UNL A   1      50.671  26.220  31.261  1.00  0.00     0.060 A 
BRANCH  94  95
ATOM     95  S   UNL A   1      52.373  25.767  31.656  1.00  0.00     0.124 S 
ATOM     96  O   UNL A   1      52.214  24.389  32.107  1.00  0.00    -0.237 OA
ATOM     97  O   UNL A   1      53.050  25.941  30.373  1.00  0.00    -0.237 OA
ATOM     98  O   UNL A   1      52.749  26.728  32.689  1.00  0.00    -0.744 OA
ENDBRANCH  94  95
ENDBRANCH  62  87
ENDBRANCH  36  37
ENDBRANCH  28  31
ENDBRANCH  26  27
ENDBRANCH  25  26
ENDBRANCH   1  25
TORSDOF 19
ENDMDL
MODEL 3
REMARK VINA RESULT:     -10.9      1.279      2.238
REMARK SMILES Cc1cc(C(=O)N[C@](C)(C(=O)NCCCCCCNC(=O)c2ccc(-c3c4nc(c(-c5c(F)cc(S(=O)(=O)[O-])cc5F)c5ccc([nH]5)c(-c5c(F)cc(S(=O)(=O)[O-])cc5F)c5nc(c(-c6c(F)cc(S(=O)(=O)[O-])cc6F)c6ccc3[nH]6)C=C5)C=C4)cc2)C(F)(F)F)no1
REMARK SMILES IDX 16 1 15 2 14 3 13 4 12 5 10 6 11 7 8 9 9 10 7 11 5 12 6 13
REMARK SMILES IDX 4 15 1 16 2 17 3 18 93 19 92 20 88 21 89 22 90 23 91 24
REMARK SMILES IDX 17 25 18 26 19 27 20 28 21 30 22 31 23 32 87 33 24 34 86 35
REMARK SMILES IDX 25 36 26 37 27 38 80 39 28 40 85 41 79 42 81 43 29 44 84 45
REMARK SMILES IDX 78 46 77 47 30 49 64 50 43 51 63 52 44 53 47 54 62 55 82 56
REMARK SMILES IDX 45 57 46 58 61 60 83 61 48 62 31 63 32 64 41 65 33 66 34 67
REMARK SMILES IDX 40 68 42 69 35 70 36 71 37 72 38 73 39 74 65 75 66 76 75 77
REMARK SMILES IDX 67 78 68 79 74 80 76 81 69 82 70 83 71 84 72 85 73 86 49 87
REMARK SMILES IDX 50 88 59 89 51 90 52 91 58 92 60 93 53 94 54 95 55 96 56 97
REMARK SMILES IDX 57 98
REMARK H PARENT 12 8 7 14 19 29 81 48 47 59
REMARK Flexibility Score: inf
ROOT
ATOM      1  C   UNL A   1      31.610  27.407  25.758  1.00  0.00     0.002 C 
ENDROOT
BRANCH   1   2
ATOM      2  C   UNL A   1      30.684  26.189  25.796  1.00  0.00     0.002 C 
BRANCH   2   3
ATOM      3  C   UNL A   1      30.542  25.437  24.466  1.00  0.00     0.021 C 
BRANCH   3   4
ATOM      4  C   UNL A   1      31.401  24.179  24.370  1.00  0.00     0.116 C 
BRANCH   4   5
ATOM      5  N   UNL A   1      31.638  23.620  25.691  1.00  0.00    -0.354 N 
ATOM      6  C   UNL A   1      32.727  22.981  26.205  1.00  0.00     0.254 C 
ATOM      7  O   UNL A   1      32.615  22.573  27.364  1.00  0.00    -0.272 OA
ATOM      8  H   UNL A   1      30.886  23.720  26.319  1.00  0.00     0.163 HD
BRANCH   6   9
ATOM      9  C   UNL A   1      33.967  22.689  25.346  1.00  0.00     0.212 C 
ATOM     10  C   UNL A   1      34.856  21.716  26.167  1.00  0.00     0.056 C 
BRANCH   9  11
ATOM     11  N   UNL A   1      33.677  22.049  24.016  1.00  0.00    -0.329 N 
ATOM     12  C   UNL A   1      32.865  20.972  23.703  1.00  0.00     0.274 C 
ATOM     13  O   UNL A   1      32.195  21.072  22.676  1.00  0.00    -0.267 OA
ATOM     14  H   UNL A   1      34.136  22.461  23.249  1.00  0.00     0.165 HD
BRANCH  12  15
ATOM     15  C   UNL A   1      32.992  19.715  24.438  1.00  0.00     0.171 A 
ATOM     16  C   UNL A   1      33.497  16.151  25.082  1.00  0.00     0.091 C 
ATOM     17  C   UNL A   1      33.303  17.609  25.009  1.00  0.00     0.134 A 
ATOM     18  C   UNL A   1      33.883  18.623  24.285  1.00  0.00     0.082 A 
ATOM     19  O   UNL A   1      32.288  18.120  25.749  1.00  0.00    -0.361 OA
ATOM     20  N   UNL A   1      32.095  19.441  25.404  1.00  0.00    -0.074 NA
ENDBRANCH  12  15
ENDBRANCH   9  11
BRANCH   9  21
ATOM     21  C   UNL A   1      34.751  24.009  25.166  1.00  0.00     0.420 C 
ATOM     22  F   UNL A   1      34.675  24.519  23.919  1.00  0.00    -0.168 F 
ATOM     23  F   UNL A   1      34.238  24.957  25.997  1.00  0.00    -0.168 F 
ATOM     24  F   UNL A   1      36.057  23.877  25.492  1.00  0.00    -0.168 F 
ENDBRANCH   9  21
ENDBRANCH   6   9
ENDBRANCH   4   5
ENDBRANCH   3   4
ENDBRANCH   2   3
ENDBRANCH   1   2
BRANCH   1  25
ATOM     25  C   UNL A   1      32.614  27.510  26.902  1.00  0.00     0.021 C 
BRANCH  25  26
ATOM     26  C   UNL A   1      33.785  28.446  26.640  1.00  0.00     0.116 C 
BRANCH  26  27
ATOM     27  N   UNL A   1      33.580  29.775  27.193  1.00  0.00    -0.352 N 
ATOM     28  C   UNL A   1      34.448  30.521  27.951  1.00  0.00     0.251 C 
ATOM     29  H   UNL A   1      32.710  30.193  26.999  1.00  0.00     0.163 HD
ATOM     30  O   UNL A   1      34.087  31.580  28.454  1.00  0.00    -0.269 OA
BRANCH  28  31
ATOM     31  C   UNL A   1      35.815  30.008  28.183  1.00  0.00     0.039 A 
ATOM     32  C   UNL A   1      36.757  30.102  27.157  1.00  0.00     0.014 A 
ATOM     33  C   UNL A   1      36.172  29.490  29.431  1.00  0.00     0.014 A 
ATOM     34  C   UNL A   1      38.080  29.731  27.404  1.00  0.00     0.010 A 
ATOM     35  C   UNL A   1      37.505  29.196  29.697  1.00  0.00     0.010 A 
ATOM     36  C   UNL A   1      38.471  29.309  28.685  1.00  0.00    -0.014 A 
BRANCH  36  37
ATOM     37  C   UNL A   1      39.885  28.968  28.987  1.00  0.00     0.031 A 
ATOM     38  C   UNL A   1      40.790  30.004  29.597  1.00  0.00     0.074 A 
ATOM     39  C   UNL A   1      40.364  27.752  28.659  1.00  0.00     0.049 A 
ATOM     40  N   UNL A   1      42.067  29.929  29.867  1.00  0.00    -0.248 NA
ATOM     41  C   UNL A   1      40.185  31.307  29.922  1.00  0.00     0.031 C 
ATOM     42  C   UNL A   1      39.596  26.681  28.020  1.00  0.00     0.029 A 
ATOM     43  N   UNL A   1      41.618  27.213  28.811  1.00  0.00    -0.354 N 
ATOM     44  C   UNL A   1      42.420  31.171  30.380  1.00  0.00     0.074 A 
ATOM     45  C   UNL A   1      41.237  32.002  30.328  1.00  0.00     0.031 C 
ATOM     46  C   UNL A   1      40.387  25.606  27.860  1.00  0.00     0.029 A 
ATOM     47  C   UNL A   1      41.725  25.922  28.349  1.00  0.00     0.049 A 
ATOM     48  H   UNL A   1      42.369  27.704  29.215  1.00  0.00     0.167 HD
ATOM     49  C   UNL A   1      43.612  31.575  30.878  1.00  0.00     0.037 A 
ATOM     50  C   UNL A   1      42.784  25.091  28.318  1.00  0.00     0.037 A 
ATOM     51  C   UNL A   1      44.777  30.733  30.954  1.00  0.00     0.049 A 
ATOM     52  C   UNL A   1      44.101  25.565  28.874  1.00  0.00     0.074 A 
ATOM     53  C   UNL A   1      46.021  31.031  31.482  1.00  0.00     0.029 A 
ATOM     54  N   UNL A   1      44.839  29.425  30.495  1.00  0.00    -0.354 N 
ATOM     55  N   UNL A   1      44.402  26.727  29.404  1.00  0.00    -0.248 NA
ATOM     56  C   UNL A   1      45.222  24.615  28.833  1.00  0.00     0.031 C 
ATOM     57  C   UNL A   1      46.846  29.916  31.309  1.00  0.00     0.029 A 
ATOM     58  C   UNL A   1      46.104  28.907  30.716  1.00  0.00     0.049 A 
ATOM     59  H   UNL A   1      44.095  28.938  30.075  1.00  0.00     0.167 HD
ATOM     60  C   UNL A   1      45.735  26.636  29.787  1.00  0.00     0.074 A 
ATOM     61  C   UNL A   1      46.179  25.301  29.440  1.00  0.00     0.031 C 
ATOM     62  C   UNL A   1      46.522  27.571  30.376  1.00  0.00     0.037 A 
BRANCH  49  63
ATOM     63  C   UNL A   1      43.712  32.984  31.394  1.00  0.00     0.058 A 
ATOM     64  C   UNL A   1      43.443  33.293  32.737  1.00  0.00     0.135 A 
ATOM     65  C   UNL A   1      44.118  34.030  30.551  1.00  0.00     0.135 A 
ATOM     66  F   UNL A   1      43.033  32.335  33.584  1.00  0.00    -0.206 F 
ATOM     67  C   UNL A   1      43.549  34.593  33.220  1.00  0.00     0.059 A 
ATOM     68  C   UNL A   1      44.258  35.333  31.019  1.00  0.00     0.059 A 
ATOM     69  F   UNL A   1      44.385  33.791  29.258  1.00  0.00    -0.206 F 
ATOM     70  C   UNL A   1      43.959  35.607  32.353  1.00  0.00     0.060 A 
BRANCH  70  71
ATOM     71  S   UNL A   1      44.105  37.286  33.000  1.00  0.00     0.124 S 
ATOM     72  O   UNL A   1      44.045  38.076  31.774  1.00  0.00    -0.237 OA
ATOM     73  O   UNL A   1      42.941  37.385  33.875  1.00  0.00    -0.237 OA
ATOM     74  O   UNL A   1      45.397  37.278  33.679  1.00  0.00    -0.744 OA
ENDBRANCH  70  71
ENDBRANCH  49  63
BRANCH  50  75
ATOM     75  C   UNL A   1      42.645  23.717  27.765  1.00  0.00     0.058 A 
ATOM     76  C   UNL A   1      42.727  23.483  26.384  1.00  0.00     0.135 A 
ATOM     77  C   UNL A   1      42.415  22.612  28.600  1.00  0.00     0.135 A 
ATOM     78  F   UNL A   1      42.941  24.508  25.544  1.00  0.00    -0.206 F 
ATOM     79  C   UNL A   1      42.558  22.212  25.846  1.00  0.00     0.059 A 
ATOM     80  C   UNL A   1      42.269  21.326  28.088  1.00  0.00     0.059 A 
ATOM     81  F   UNL A   1      42.346  22.777  29.930  1.00  0.00    -0.206 F 
ATOM     82  C   UNL A   1      42.326  21.139  26.708  1.00  0.00     0.060 A 
BRANCH  82  83
ATOM     83  S   UNL A   1      42.128  19.488  26.002  1.00  0.00     0.124 S 
ATOM     84  O   UNL A   1      42.943  19.585  24.798  1.00  0.00    -0.237 OA
ATOM     85  O   UNL A   1      42.654  18.636  27.064  1.00  0.00    -0.237 OA
ATOM     86  O   UNL A   1      40.688  19.389  25.784  1.00  0.00    -0.744 OA
ENDBRANCH  82  83
ENDBRANCH  50  75
BRANCH  62  87
ATOM     87  C   UNL A   1      47.931  27.173  30.720  1.00  0.00     0.058 A 
ATOM     88  C   UNL A   1      48.250  26.576  31.948  1.00  0.00     0.135 A 
ATOM     89  C   UNL A   1      48.964  27.345  29.784  1.00  0.00     0.135 A 
ATOM     90  F   UNL A   1      47.300  26.395  32.880  1.00  0.00    -0.206 F 
ATOM     91  C   UNL A   1      49.551  26.183  32.246  1.00  0.00     0.059 A 
ATOM     92  C   UNL A   1      50.264  26.933  30.049  1.00  0.00     0.059 A 
ATOM     93  F   UNL A   1      48.708  27.901  28.589  1.00  0.00    -0.206 F 
ATOM     94  C   UNL A   1      50.551  26.363  31.289  1.00  0.00     0.060 A 
BRANCH  94  95
ATOM     95  S   UNL A   1      52.227  25.814  31.674  1.00  0.00     0.124 S 
ATOM     96  O   UNL A   1      51.998  24.427  32.068  1.00  0.00    -0.237 OA
ATOM     97  O   UNL A   1      52.920  26.006  30.403  1.00  0.00    -0.237 OA
ATOM     98  O   UNL A   1      52.641  26.713  32.747  1.00  0.00    -0.744 OA
ENDBRANCH  94  95
ENDBRANCH  62  87
ENDBRANCH  36  37
ENDBRANCH  28  31
ENDBRANCH  26  27
ENDBRANCH  25  26
ENDBRANCH   1  25
TORSDOF 19
ENDMDL
