MODEL 1
REMARK VINA RESULT:     -10.8      0.000      0.000
REMARK SMILES CC(C)CN(C)c1ccc([N+](=O)[O-])cc1C(=O)NCCCCCCNC(=O)c1ccc(-c2c3nc(c(-c4c(F)cc(S(=O)(=O)[O-])cc4F)c4ccc([nH]4)c(-c4c(F)cc(S(=O)(=O)[O-])cc4F)c4nc(c(-c5c(F)cc(S(=O)(=O)[O-])cc5F)c5ccc2[nH]5)C=C4)C=C3)cc1
REMARK SMILES IDX 21 1 20 2 19 3 18 4 16 5 17 6 15 8 7 9 8 10 9 11 14 12 10 13
REMARK SMILES IDX 5 14 6 15 4 16 2 17 1 18 3 19 11 20 12 21 13 22 22 23 23 24
REMARK SMILES IDX 24 25 25 26 26 27 27 29 28 30 29 31 93 32 30 33 92 34 31 35
REMARK SMILES IDX 32 36 33 37 86 38 34 39 91 40 85 41 87 42 35 43 90 44 84 45
REMARK SMILES IDX 83 46 36 48 70 49 49 50 69 51 50 52 53 53 68 54 88 55 51 56
REMARK SMILES IDX 52 57 67 59 89 60 54 61 37 62 38 63 47 64 39 65 40 66 46 67
REMARK SMILES IDX 48 68 41 69 42 70 43 71 44 72 45 73 71 74 72 75 81 76 73 77
REMARK SMILES IDX 74 78 80 79 82 80 75 81 76 82 77 83 78 84 79 85 55 86 56 87
REMARK SMILES IDX 65 88 57 89 58 90 64 91 66 92 59 93 60 94 61 95 62 96 63 97
REMARK H PARENT 18 7 25 28 87 47 53 58
REMARK Flexibility Score: inf
ROOT
ATOM      1  C   UNL A   1      33.682  26.318  23.941  1.00  0.00     0.002 C 
ENDROOT
BRANCH   1   2
ATOM      2  C   UNL A   1      33.844  25.019  23.133  1.00  0.00     0.021 C 
BRANCH   2   3
ATOM      3  C   UNL A   1      32.678  24.673  22.209  1.00  0.00     0.116 C 
BRANCH   3   4
ATOM      4  N   UNL A   1      32.503  23.259  21.972  1.00  0.00    -0.352 N 
ATOM      5  C   UNL A   1      32.309  22.223  22.854  1.00  0.00     0.253 C 
ATOM      6  O   UNL A   1      32.166  21.099  22.359  1.00  0.00    -0.269 OA
ATOM      7  H   UNL A   1      32.526  22.994  21.024  1.00  0.00     0.163 HD
BRANCH   5   8
ATOM      8  C   UNL A   1      32.317  22.333  24.354  1.00  0.00     0.069 A 
ATOM      9  C   UNL A   1      33.291  21.846  25.263  1.00  0.00     0.050 A 
ATOM     10  C   UNL A   1      33.072  22.058  26.649  1.00  0.00     0.034 A 
ATOM     11  C   UNL A   1      31.998  22.799  27.136  1.00  0.00     0.088 A 
ATOM     12  C   UNL A   1      31.254  23.128  24.857  1.00  0.00     0.101 A 
ATOM     13  C   UNL A   1      31.117  23.372  26.228  1.00  0.00     0.270 A 
BRANCH   9  14
ATOM     14  N   UNL A   1      34.495  21.241  24.886  1.00  0.00    -0.374 N 
ATOM     15  C   UNL A   1      34.448  19.775  24.754  1.00  0.00     0.143 C 
BRANCH  14  16
ATOM     16  C   UNL A   1      35.767  21.788  25.423  1.00  0.00     0.119 C 
BRANCH  16  17
ATOM     17  C   UNL A   1      36.218  23.120  24.789  1.00  0.00     0.002 C 
ATOM     18  C   UNL A   1      37.306  23.818  25.612  1.00  0.00     0.009 C 
ATOM     19  C   UNL A   1      36.749  22.915  23.365  1.00  0.00     0.009 C 
ENDBRANCH  16  17
ENDBRANCH  14  16
ENDBRANCH   9  14
BRANCH  13  20
ATOM     20  N   UNL A   1      30.072  24.276  26.715  1.00  0.00     0.062 N 
ATOM     21  O   UNL A   1      29.209  23.802  27.467  1.00  0.00    -0.258 OA
ATOM     22  O   UNL A   1      30.127  25.462  26.366  1.00  0.00    -0.258 OA
ENDBRANCH  13  20
ENDBRANCH   5   8
ENDBRANCH   3   4
ENDBRANCH   2   3
ENDBRANCH   1   2
BRANCH   1  23
ATOM     23  C   UNL A   1      33.410  26.194  25.444  1.00  0.00     0.002 C 
BRANCH  23  24
ATOM     24  C   UNL A   1      33.630  27.431  26.315  1.00  0.00     0.021 C 
BRANCH  24  25
ATOM     25  C   UNL A   1      34.107  28.694  25.611  1.00  0.00     0.116 C 
BRANCH  25  26
ATOM     26  N   UNL A   1      33.700  29.924  26.261  1.00  0.00    -0.352 N 
ATOM     27  C   UNL A   1      34.292  30.609  27.300  1.00  0.00     0.251 C 
ATOM     28  H   UNL A   1      32.876  30.330  25.908  1.00  0.00     0.163 HD
ATOM     29  O   UNL A   1      33.755  31.617  27.738  1.00  0.00    -0.269 OA
BRANCH  27  30
ATOM     30  C   UNL A   1      35.545  30.108  27.922  1.00  0.00     0.039 A 
ATOM     31  C   UNL A   1      36.755  30.337  27.257  1.00  0.00     0.014 A 
ATOM     32  C   UNL A   1      35.549  29.419  29.137  1.00  0.00     0.014 A 
ATOM     33  C   UNL A   1      37.964  29.947  27.843  1.00  0.00     0.010 A 
ATOM     34  C   UNL A   1      36.758  29.101  29.758  1.00  0.00     0.010 A 
ATOM     35  C   UNL A   1      37.979  29.362  29.119  1.00  0.00    -0.014 A 
BRANCH  35  36
ATOM     36  C   UNL A   1      39.258  29.021  29.801  1.00  0.00     0.031 A 
ATOM     37  C   UNL A   1      39.723  29.826  30.987  1.00  0.00     0.074 A 
ATOM     38  C   UNL A   1      40.038  28.037  29.307  1.00  0.00     0.049 A 
ATOM     39  N   UNL A   1      40.846  29.739  31.655  1.00  0.00    -0.248 NA
ATOM     40  C   UNL A   1      38.825  30.889  31.467  1.00  0.00     0.031 C 
ATOM     41  C   UNL A   1      39.731  27.222  28.130  1.00  0.00     0.029 A 
ATOM     42  N   UNL A   1      41.260  27.565  29.722  1.00  0.00    -0.354 N 
ATOM     43  C   UNL A   1      40.802  30.750  32.607  1.00  0.00     0.074 A 
ATOM     44  C   UNL A   1      39.559  31.463  32.409  1.00  0.00     0.031 C 
ATOM     45  C   UNL A   1      40.727  26.344  27.926  1.00  0.00     0.029 A 
ATOM     46  C   UNL A   1      41.761  26.554  28.934  1.00  0.00     0.049 A 
ATOM     47  H   UNL A   1      41.733  27.918  30.509  1.00  0.00     0.167 HD
ATOM     48  C   UNL A   1      41.707  31.046  33.571  1.00  0.00     0.037 A 
ATOM     49  C   UNL A   1      42.926  25.880  29.007  1.00  0.00     0.037 A 
ATOM     50  C   UNL A   1      42.914  30.298  33.802  1.00  0.00     0.049 A 
ATOM     51  C   UNL A   1      43.896  26.206  30.112  1.00  0.00     0.074 A 
ATOM     52  C   UNL A   1      43.842  30.457  34.818  1.00  0.00     0.029 A 
ATOM     53  N   UNL A   1      43.363  29.250  33.013  1.00  0.00    -0.354 N 
ATOM     54  N   UNL A   1      43.794  27.109  31.057  1.00  0.00    -0.248 NA
ATOM     55  C   UNL A   1      45.135  25.417  30.166  1.00  0.00     0.031 C 
ATOM     56  C   UNL A   1      44.872  29.533  34.618  1.00  0.00     0.029 A 
ATOM     57  C   UNL A   1      44.565  28.770  33.504  1.00  0.00     0.049 A 
ATOM     58  H   UNL A   1      42.895  28.899  32.220  1.00  0.00     0.167 HD
ATOM     59  C   UNL A   1      44.939  26.976  31.834  1.00  0.00     0.074 A 
ATOM     60  C   UNL A   1      45.715  25.899  31.257  1.00  0.00     0.031 C 
ATOM     61  C   UNL A   1      45.316  27.683  32.928  1.00  0.00     0.037 A 
BRANCH  48  62
ATOM     62  C   UNL A   1      41.431  32.224  34.464  1.00  0.00     0.058 A 
ATOM     63  C   UNL A   1      41.798  33.529  34.099  1.00  0.00     0.135 A 
ATOM     64  C   UNL A   1      40.725  32.055  35.667  1.00  0.00     0.135 A 
ATOM     65  F   UNL A   1      42.487  33.746  32.968  1.00  0.00    -0.206 F 
ATOM     66  C   UNL A   1      41.490  34.622  34.903  1.00  0.00     0.059 A 
ATOM     67  C   UNL A   1      40.383  33.136  36.473  1.00  0.00     0.059 A 
ATOM     68  F   UNL A   1      40.352  30.827  36.063  1.00  0.00    -0.206 F 
ATOM     69  C   UNL A   1      40.779  34.416  36.086  1.00  0.00     0.060 A 
BRANCH  69  70
ATOM     70  S   UNL A   1      40.359  35.848  37.101  1.00  0.00     0.124 S 
ATOM     71  O   UNL A   1      39.393  35.272  38.031  1.00  0.00    -0.237 OA
ATOM     72  O   UNL A   1      41.650  36.214  37.675  1.00  0.00    -0.237 OA
ATOM     73  O   UNL A   1      39.811  36.800  36.138  1.00  0.00    -0.744 OA
ENDBRANCH  69  70
ENDBRANCH  48  62
BRANCH  49  74
ATOM     74  C   UNL A   1      43.245  24.820  28.012  1.00  0.00     0.058 A 
ATOM     75  C   UNL A   1      42.889  23.483  28.241  1.00  0.00     0.135 A 
ATOM     76  C   UNL A   1      43.932  25.118  26.825  1.00  0.00     0.135 A 
ATOM     77  F   UNL A   1      42.235  23.146  29.365  1.00  0.00    -0.206 F 
ATOM     78  C   UNL A   1      43.230  22.472  27.347  1.00  0.00     0.059 A 
ATOM     79  C   UNL A   1      44.260  24.130  25.903  1.00  0.00     0.059 A 
ATOM     80  F   UNL A   1      44.279  26.384  26.548  1.00  0.00    -0.206 F 
ATOM     81  C   UNL A   1      43.921  22.806  26.182  1.00  0.00     0.060 A 
BRANCH  81  82
ATOM     82  S   UNL A   1      44.345  21.493  25.016  1.00  0.00     0.124 S 
ATOM     83  O   UNL A   1      45.680  21.120  25.470  1.00  0.00    -0.237 OA
ATOM     84  O   UNL A   1      43.289  20.515  25.255  1.00  0.00    -0.237 OA
ATOM     85  O   UNL A   1      44.282  22.166  23.722  1.00  0.00    -0.744 OA
ENDBRANCH  81  82
ENDBRANCH  49  74
BRANCH  61  86
ATOM     86  C   UNL A   1      46.602  27.291  33.600  1.00  0.00     0.058 A 
ATOM     87  C   UNL A   1      47.827  27.876  33.248  1.00  0.00     0.135 A 
ATOM     88  C   UNL A   1      46.597  26.356  34.647  1.00  0.00     0.135 A 
ATOM     89  F   UNL A   1      47.886  28.771  32.248  1.00  0.00    -0.206 F 
ATOM     90  C   UNL A   1      49.008  27.533  33.896  1.00  0.00     0.059 A 
ATOM     91  C   UNL A   1      47.763  26.017  35.328  1.00  0.00     0.059 A 
ATOM     92  F   UNL A   1      45.449  25.775  35.030  1.00  0.00    -0.206 F 
ATOM     93  C   UNL A   1      48.966  26.602  34.937  1.00  0.00     0.060 A 
BRANCH  93  94
ATOM     94  S   UNL A   1      50.499  26.192  35.797  1.00  0.00     0.124 S 
ATOM     95  O   UNL A   1      50.019  25.947  37.153  1.00  0.00    -0.237 OA
ATOM     96  O   UNL A   1      50.962  25.016  35.067  1.00  0.00    -0.237 OA
ATOM     97  O   UNL A   1      51.315  27.390  35.626  1.00  0.00    -0.744 OA
ENDBRANCH  93  94
ENDBRANCH  61  86
ENDBRANCH  35  36
ENDBRANCH  27  30
ENDBRANCH  25  26
ENDBRANCH  24  25
ENDBRANCH  23  24
ENDBRANCH   1  23
TORSDOF 20
ENDMDL
MODEL 2
REMARK VINA RESULT:     -10.4      2.495      3.083
REMARK SMILES CC(C)CN(C)c1ccc([N+](=O)[O-])cc1C(=O)NCCCCCCNC(=O)c1ccc(-c2c3nc(c(-c4c(F)cc(S(=O)(=O)[O-])cc4F)c4ccc([nH]4)c(-c4c(F)cc(S(=O)(=O)[O-])cc4F)c4nc(c(-c5c(F)cc(S(=O)(=O)[O-])cc5F)c5ccc2[nH]5)C=C4)C=C3)cc1
REMARK SMILES IDX 21 1 20 2 19 3 18 4 16 5 17 6 15 8 7 9 8 10 9 11 14 12 10 13
REMARK SMILES IDX 5 14 6 15 4 16 2 17 1 18 3 19 11 20 12 21 13 22 22 23 23 24
REMARK SMILES IDX 24 25 25 26 26 27 27 29 28 30 29 31 93 32 30 33 92 34 31 35
REMARK SMILES IDX 32 36 33 37 86 38 34 39 91 40 85 41 87 42 35 43 90 44 84 45
REMARK SMILES IDX 83 46 36 48 70 49 49 50 69 51 50 52 53 53 68 54 88 55 51 56
REMARK SMILES IDX 52 57 67 59 89 60 54 61 37 62 38 63 47 64 39 65 40 66 46 67
REMARK SMILES IDX 48 68 41 69 42 70 43 71 44 72 45 73 71 74 72 75 81 76 73 77
REMARK SMILES IDX 74 78 80 79 82 80 75 81 76 82 77 83 78 84 79 85 55 86 56 87
REMARK SMILES IDX 65 88 57 89 58 90 64 91 66 92 59 93 60 94 61 95 62 96 63 97
REMARK H PARENT 18 7 25 28 87 47 53 58
REMARK Flexibility Score: inf
ROOT
ATOM      1  C   UNL A   1      33.266  27.188  22.814  1.00  0.00     0.002 C 
ENDROOT
BRANCH   1   2
ATOM      2  C   UNL A   1      32.680  25.951  22.114  1.00  0.00     0.021 C 
BRANCH   2   3
ATOM      3  C   UNL A   1      33.657  24.799  21.889  1.00  0.00     0.116 C 
BRANCH   3   4
ATOM      4  N   UNL A   1      33.033  23.505  21.743  1.00  0.00    -0.352 N 
ATOM      5  C   UNL A   1      32.599  22.610  22.692  1.00  0.00     0.253 C 
ATOM      6  O   UNL A   1      32.075  21.573  22.271  1.00  0.00    -0.269 OA
ATOM      7  H   UNL A   1      32.895  23.217  20.812  1.00  0.00     0.163 HD
BRANCH   5   8
ATOM      8  C   UNL A   1      32.764  22.759  24.180  1.00  0.00     0.069 A 
ATOM      9  C   UNL A   1      33.793  22.237  25.004  1.00  0.00     0.050 A 
ATOM     10  C   UNL A   1      33.726  22.498  26.397  1.00  0.00     0.034 A 
ATOM     11  C   UNL A   1      32.752  23.317  26.963  1.00  0.00     0.088 A 
ATOM     12  C   UNL A   1      31.805  23.632  24.758  1.00  0.00     0.101 A 
ATOM     13  C   UNL A   1      31.821  23.919  26.128  1.00  0.00     0.270 A 
BRANCH   9  14
ATOM     14  N   UNL A   1      34.916  21.549  24.531  1.00  0.00    -0.374 N 
ATOM     15  C   UNL A   1      35.048  20.161  25.003  1.00  0.00     0.143 C 
BRANCH  14  16
ATOM     16  C   UNL A   1      36.194  22.289  24.377  1.00  0.00     0.119 C 
BRANCH  16  17
ATOM     17  C   UNL A   1      37.029  22.416  25.668  1.00  0.00     0.002 C 
ATOM     18  C   UNL A   1      38.401  21.748  25.542  1.00  0.00     0.009 C 
ATOM     19  C   UNL A   1      37.241  23.883  26.061  1.00  0.00     0.009 C 
ENDBRANCH  16  17
ENDBRANCH  14  16
ENDBRANCH   9  14
BRANCH  13  20
ATOM     20  N   UNL A   1      30.884  24.899  26.686  1.00  0.00     0.062 N 
ATOM     21  O   UNL A   1      29.707  24.543  26.841  1.00  0.00    -0.258 OA
ATOM     22  O   UNL A   1      31.329  26.013  26.990  1.00  0.00    -0.258 OA
ENDBRANCH  13  20
ENDBRANCH   5   8
ENDBRANCH   3   4
ENDBRANCH   2   3
ENDBRANCH   1   2
BRANCH   1  23
ATOM     23  C   UNL A   1      33.371  27.159  24.344  1.00  0.00     0.002 C 
BRANCH  23  24
ATOM     24  C   UNL A   1      33.191  28.476  25.098  1.00  0.00     0.021 C 
BRANCH  24  25
ATOM     25  C   UNL A   1      33.763  28.548  26.507  1.00  0.00     0.116 C 
BRANCH  25  26
ATOM     26  N   UNL A   1      33.600  29.838  27.147  1.00  0.00    -0.352 N 
ATOM     27  C   UNL A   1      34.487  30.556  27.920  1.00  0.00     0.251 C 
ATOM     28  H   UNL A   1      32.724  30.265  27.010  1.00  0.00     0.163 HD
ATOM     29  O   UNL A   1      34.131  31.618  28.412  1.00  0.00    -0.269 OA
BRANCH  27  30
ATOM     30  C   UNL A   1      35.848  30.029  28.201  1.00  0.00     0.039 A 
ATOM     31  C   UNL A   1      36.808  30.098  27.186  1.00  0.00     0.014 A 
ATOM     32  C   UNL A   1      36.190  29.471  29.434  1.00  0.00     0.014 A 
ATOM     33  C   UNL A   1      38.121  29.680  27.431  1.00  0.00     0.010 A 
ATOM     34  C   UNL A   1      37.516  29.129  29.704  1.00  0.00     0.010 A 
ATOM     35  C   UNL A   1      38.497  29.231  28.707  1.00  0.00    -0.014 A 
BRANCH  35  36
ATOM     36  C   UNL A   1      39.907  28.866  29.018  1.00  0.00     0.031 A 
ATOM     37  C   UNL A   1      40.840  29.888  29.614  1.00  0.00     0.074 A 
ATOM     38  C   UNL A   1      40.369  27.641  28.692  1.00  0.00     0.049 A 
ATOM     39  N   UNL A   1      42.120  29.787  29.870  1.00  0.00    -0.248 NA
ATOM     40  C   UNL A   1      40.270  31.206  29.937  1.00  0.00     0.031 C 
ATOM     41  C   UNL A   1      39.584  26.581  28.056  1.00  0.00     0.029 A 
ATOM     42  N   UNL A   1      41.617  27.084  28.833  1.00  0.00    -0.354 N 
ATOM     43  C   UNL A   1      42.512  31.031  30.351  1.00  0.00     0.074 A 
ATOM     44  C   UNL A   1      41.344  31.883  30.318  1.00  0.00     0.031 C 
ATOM     45  C   UNL A   1      40.362  25.500  27.876  1.00  0.00     0.029 A 
ATOM     46  C   UNL A   1      41.710  25.799  28.350  1.00  0.00     0.049 A 
ATOM     47  H   UNL A   1      42.374  27.561  29.243  1.00  0.00     0.167 HD
ATOM     48  C   UNL A   1      43.730  31.422  30.797  1.00  0.00     0.037 A 
ATOM     49  C   UNL A   1      42.762  24.960  28.285  1.00  0.00     0.037 A 
ATOM     50  C   UNL A   1      44.875  30.554  30.883  1.00  0.00     0.049 A 
ATOM     51  C   UNL A   1      44.095  25.409  28.823  1.00  0.00     0.074 A 
ATOM     52  C   UNL A   1      46.123  30.829  31.417  1.00  0.00     0.029 A 
ATOM     53  N   UNL A   1      44.915  29.245  30.428  1.00  0.00    -0.354 N 
ATOM     54  N   UNL A   1      44.422  26.562  29.355  1.00  0.00    -0.248 NA
ATOM     55  C   UNL A   1      45.200  24.442  28.759  1.00  0.00     0.031 C 
ATOM     56  C   UNL A   1      46.929  29.700  31.246  1.00  0.00     0.029 A 
ATOM     57  C   UNL A   1      46.172  28.708  30.647  1.00  0.00     0.049 A 
ATOM     58  H   UNL A   1      44.161  28.768  30.012  1.00  0.00     0.167 HD
ATOM     59  C   UNL A   1      45.760  26.448  29.716  1.00  0.00     0.074 A 
ATOM     60  C   UNL A   1      46.179  25.111  29.352  1.00  0.00     0.031 C 
ATOM     61  C   UNL A   1      46.570  27.368  30.296  1.00  0.00     0.037 A 
BRANCH  48  62
ATOM     62  C   UNL A   1      43.897  32.849  31.239  1.00  0.00     0.058 A 
ATOM     63  C   UNL A   1      43.721  33.234  32.578  1.00  0.00     0.135 A 
ATOM     64  C   UNL A   1      44.310  33.832  30.325  1.00  0.00     0.135 A 
ATOM     65  F   UNL A   1      43.311  32.338  33.490  1.00  0.00    -0.206 F 
ATOM     66  C   UNL A   1      43.932  34.546  32.990  1.00  0.00     0.059 A 
ATOM     67  C   UNL A   1      44.553  35.144  30.720  1.00  0.00     0.059 A 
ATOM     68  F   UNL A   1      44.492  33.517  29.032  1.00  0.00    -0.206 F 
ATOM     69  C   UNL A   1      44.352  35.493  32.055  1.00  0.00     0.060 A 
BRANCH  69  70
ATOM     70  S   UNL A   1      44.653  37.183  32.614  1.00  0.00     0.124 S 
ATOM     71  O   UNL A   1      43.365  37.527  33.205  1.00  0.00    -0.237 OA
ATOM     72  O   UNL A   1      45.755  37.009  33.554  1.00  0.00    -0.237 OA
ATOM     73  O   UNL A   1      44.989  37.893  31.383  1.00  0.00    -0.744 OA
ENDBRANCH  69  70
ENDBRANCH  48  62
BRANCH  49  74
ATOM     74  C   UNL A   1      42.606  23.602  27.696  1.00  0.00     0.058 A 
ATOM     75  C   UNL A   1      42.387  22.481  28.512  1.00  0.00     0.135 A 
ATOM     76  C   UNL A   1      42.694  23.393  26.311  1.00  0.00     0.135 A 
ATOM     77  F   UNL A   1      42.301  22.628  29.844  1.00  0.00    -0.206 F 
ATOM     78  C   UNL A   1      42.296  21.198  27.981  1.00  0.00     0.059 A 
ATOM     79  C   UNL A   1      42.578  22.124  25.754  1.00  0.00     0.059 A 
ATOM     80  F   UNL A   1      42.882  24.434  25.484  1.00  0.00    -0.206 F 
ATOM     81  C   UNL A   1      42.397  21.030  26.599  1.00  0.00     0.060 A 
BRANCH  81  82
ATOM     82  S   UNL A   1      42.259  19.364  25.914  1.00  0.00     0.124 S 
ATOM     83  O   UNL A   1      40.822  19.259  25.691  1.00  0.00    -0.237 OA
ATOM     84  O   UNL A   1      43.089  19.452  24.718  1.00  0.00    -0.237 OA
ATOM     85  O   UNL A   1      42.798  18.522  26.979  1.00  0.00    -0.744 OA
ENDBRANCH  81  82
ENDBRANCH  49  74
BRANCH  61  86
ATOM     86  C   UNL A   1      47.978  26.951  30.613  1.00  0.00     0.058 A 
ATOM     87  C   UNL A   1      49.031  27.163  29.712  1.00  0.00     0.135 A 
ATOM     88  C   UNL A   1      48.284  26.382  31.860  1.00  0.00     0.135 A 
ATOM     89  F   UNL A   1      48.790  27.698  28.504  1.00  0.00    -0.206 F 
ATOM     90  C   UNL A   1      50.338  26.806  30.025  1.00  0.00     0.059 A 
ATOM     91  C   UNL A   1      49.588  26.042  32.206  1.00  0.00     0.059 A 
ATOM     92  F   UNL A   1      47.314  26.169  32.763  1.00  0.00    -0.206 F 
ATOM     93  C   UNL A   1      50.607  26.247  31.277  1.00  0.00     0.060 A 
BRANCH  93  94
ATOM     94  S   UNL A   1      52.313  25.821  31.688  1.00  0.00     0.124 S 
ATOM     95  O   UNL A   1      52.183  24.415  32.055  1.00  0.00    -0.237 OA
ATOM     96  O   UNL A   1      53.012  26.087  30.435  1.00  0.00    -0.237 OA
ATOM     97  O   UNL A   1      52.635  26.730  32.784  1.00  0.00    -0.744 OA
ENDBRANCH  93  94
ENDBRANCH  61  86
ENDBRANCH  35  36
ENDBRANCH  27  30
ENDBRANCH  25  26
ENDBRANCH  24  25
ENDBRANCH  23  24
ENDBRANCH   1  23
TORSDOF 20
ENDMDL
MODEL 3
REMARK VINA RESULT:     -10.2      1.319      2.554
REMARK SMILES CC(C)CN(C)c1ccc([N+](=O)[O-])cc1C(=O)NCCCCCCNC(=O)c1ccc(-c2c3nc(c(-c4c(F)cc(S(=O)(=O)[O-])cc4F)c4ccc([nH]4)c(-c4c(F)cc(S(=O)(=O)[O-])cc4F)c4nc(c(-c5c(F)cc(S(=O)(=O)[O-])cc5F)c5ccc2[nH]5)C=C4)C=C3)cc1
REMARK SMILES IDX 21 1 20 2 19 3 18 4 16 5 17 6 15 8 7 9 8 10 9 11 14 12 10 13
REMARK SMILES IDX 5 14 6 15 4 16 2 17 1 18 3 19 11 20 12 21 13 22 22 23 23 24
REMARK SMILES IDX 24 25 25 26 26 27 27 29 28 30 29 31 93 32 30 33 92 34 31 35
REMARK SMILES IDX 32 36 33 37 86 38 34 39 91 40 85 41 87 42 35 43 90 44 84 45
REMARK SMILES IDX 83 46 36 48 70 49 49 50 69 51 50 52 53 53 68 54 88 55 51 56
REMARK SMILES IDX 52 57 67 59 89 60 54 61 37 62 38 63 47 64 39 65 40 66 46 67
REMARK SMILES IDX 48 68 41 69 42 70 43 71 44 72 45 73 71 74 72 75 81 76 73 77
REMARK SMILES IDX 74 78 80 79 82 80 75 81 76 82 77 83 78 84 79 85 55 86 56 87
REMARK SMILES IDX 65 88 57 89 58 90 64 91 66 92 59 93 60 94 61 95 62 96 63 97
REMARK H PARENT 18 7 25 28 87 47 53 58
REMARK Flexibility Score: inf
ROOT
ATOM      1  C   UNL A   1      30.832  26.668  26.548  1.00  0.00     0.002 C 
ENDROOT
BRANCH   1   2
ATOM      2  C   UNL A   1      30.157  25.485  25.833  1.00  0.00     0.021 C 
BRANCH   2   3
ATOM      3  C   UNL A   1      30.572  24.100  26.323  1.00  0.00     0.116 C 
BRANCH   3   4
ATOM      4  N   UNL A   1      31.938  24.013  26.785  1.00  0.00    -0.352 N 
ATOM      5  C   UNL A   1      33.105  23.806  26.090  1.00  0.00     0.253 C 
ATOM      6  O   UNL A   1      34.147  23.800  26.754  1.00  0.00    -0.269 OA
ATOM      7  H   UNL A   1      32.051  24.121  27.757  1.00  0.00     0.163 HD
BRANCH   5   8
ATOM      8  C   UNL A   1      33.211  23.528  24.615  1.00  0.00     0.069 A 
ATOM      9  C   UNL A   1      33.283  22.269  23.964  1.00  0.00     0.050 A 
ATOM     10  C   UNL A   1      33.396  22.259  22.550  1.00  0.00     0.034 A 
ATOM     11  C   UNL A   1      33.343  23.419  21.781  1.00  0.00     0.088 A 
ATOM     12  C   UNL A   1      33.108  24.700  23.822  1.00  0.00     0.101 A 
ATOM     13  C   UNL A   1      33.151  24.635  22.424  1.00  0.00     0.270 A 
BRANCH   9  14
ATOM     14  N   UNL A   1      33.171  21.034  24.611  1.00  0.00    -0.374 N 
ATOM     15  C   UNL A   1      34.414  20.525  25.215  1.00  0.00     0.143 C 
BRANCH  14  16
ATOM     16  C   UNL A   1      32.282  19.999  24.024  1.00  0.00     0.119 C 
BRANCH  16  17
ATOM     17  C   UNL A   1      32.882  18.578  23.983  1.00  0.00     0.002 C 
ATOM     18  C   UNL A   1      32.309  17.673  25.078  1.00  0.00     0.009 C 
ATOM     19  C   UNL A   1      32.643  17.904  22.626  1.00  0.00     0.009 C 
ENDBRANCH  16  17
ENDBRANCH  14  16
ENDBRANCH   9  14
BRANCH  13  20
ATOM     20  N   UNL A   1      32.943  25.844  21.624  1.00  0.00     0.062 N 
ATOM     21  O   UNL A   1      32.652  26.888  22.225  1.00  0.00    -0.258 OA
ATOM     22  O   UNL A   1      33.093  25.757  20.398  1.00  0.00    -0.258 OA
ENDBRANCH  13  20
ENDBRANCH   5   8
ENDBRANCH   3   4
ENDBRANCH   2   3
ENDBRANCH   1   2
BRANCH   1  23
ATOM     23  C   UNL A   1      31.830  27.510  25.745  1.00  0.00     0.002 C 
BRANCH  23  24
ATOM     24  C   UNL A   1      33.242  27.675  26.307  1.00  0.00     0.021 C 
BRANCH  24  25
ATOM     25  C   UNL A   1      34.068  28.835  25.770  1.00  0.00     0.116 C 
BRANCH  25  26
ATOM     26  N   UNL A   1      33.741  30.118  26.361  1.00  0.00    -0.352 N 
ATOM     27  C   UNL A   1      34.385  30.818  27.358  1.00  0.00     0.251 C 
ATOM     28  H   UNL A   1      32.938  30.555  25.995  1.00  0.00     0.163 HD
ATOM     29  O   UNL A   1      33.914  31.877  27.749  1.00  0.00    -0.269 OA
BRANCH  27  30
ATOM     30  C   UNL A   1      35.615  30.276  27.993  1.00  0.00     0.039 A 
ATOM     31  C   UNL A   1      36.849  30.559  27.398  1.00  0.00     0.014 A 
ATOM     32  C   UNL A   1      35.573  29.498  29.152  1.00  0.00     0.014 A 
ATOM     33  C   UNL A   1      38.036  30.129  28.003  1.00  0.00     0.010 A 
ATOM     34  C   UNL A   1      36.756  29.138  29.797  1.00  0.00     0.010 A 
ATOM     35  C   UNL A   1      38.002  29.450  29.231  1.00  0.00    -0.014 A 
BRANCH  35  36
ATOM     36  C   UNL A   1      39.253  29.063  29.939  1.00  0.00     0.031 A 
ATOM     37  C   UNL A   1      39.678  29.796  31.185  1.00  0.00     0.074 A 
ATOM     38  C   UNL A   1      40.047  28.103  29.418  1.00  0.00     0.049 A 
ATOM     39  N   UNL A   1      40.775  29.663  31.887  1.00  0.00    -0.248 NA
ATOM     40  C   UNL A   1      38.767  30.835  31.692  1.00  0.00     0.031 C 
ATOM     41  C   UNL A   1      39.779  27.359  28.185  1.00  0.00     0.029 A 
ATOM     42  N   UNL A   1      41.251  27.601  29.849  1.00  0.00    -0.354 N 
ATOM     43  C   UNL A   1      40.700  30.619  32.893  1.00  0.00     0.074 A 
ATOM     44  C   UNL A   1      39.469  31.350  32.691  1.00  0.00     0.031 C 
ATOM     45  C   UNL A   1      40.779  26.488  27.968  1.00  0.00     0.029 A 
ATOM     46  C   UNL A   1      41.776  26.634  29.023  1.00  0.00     0.049 A 
ATOM     47  H   UNL A   1      41.696  27.906  30.672  1.00  0.00     0.167 HD
ATOM     48  C   UNL A   1      41.570  30.854  33.905  1.00  0.00     0.037 A 
ATOM     49  C   UNL A   1      42.934  25.949  29.100  1.00  0.00     0.037 A 
ATOM     50  C   UNL A   1      42.765  30.086  34.136  1.00  0.00     0.049 A 
ATOM     51  C   UNL A   1      43.865  26.206  30.256  1.00  0.00     0.074 A 
ATOM     52  C   UNL A   1      43.656  30.181  35.193  1.00  0.00     0.029 A 
ATOM     53  N   UNL A   1      43.238  29.083  33.305  1.00  0.00    -0.354 N 
ATOM     54  N   UNL A   1      43.732  27.054  31.248  1.00  0.00    -0.248 NA
ATOM     55  C   UNL A   1      45.097  25.407  30.311  1.00  0.00     0.031 C 
ATOM     56  C   UNL A   1      44.689  29.265  34.977  1.00  0.00     0.029 A 
ATOM     57  C   UNL A   1      44.419  28.568  33.811  1.00  0.00     0.049 A 
ATOM     58  H   UNL A   1      42.798  28.781  32.477  1.00  0.00     0.167 HD
ATOM     59  C   UNL A   1      44.848  26.870  32.057  1.00  0.00     0.074 A 
ATOM     60  C   UNL A   1      45.639  25.823  31.447  1.00  0.00     0.031 C 
ATOM     61  C   UNL A   1      45.187  27.511  33.202  1.00  0.00     0.037 A 
BRANCH  48  62
ATOM     62  C   UNL A   1      41.266  31.982  34.853  1.00  0.00     0.058 A 
ATOM     63  C   UNL A   1      41.734  33.285  34.624  1.00  0.00     0.135 A 
ATOM     64  C   UNL A   1      40.437  31.770  35.966  1.00  0.00     0.135 A 
ATOM     65  F   UNL A   1      42.543  33.540  33.584  1.00  0.00    -0.206 F 
ATOM     66  C   UNL A   1      41.403  34.335  35.475  1.00  0.00     0.059 A 
ATOM     67  C   UNL A   1      40.071  32.810  36.815  1.00  0.00     0.059 A 
ATOM     68  F   UNL A   1      39.963  30.541  36.231  1.00  0.00    -0.206 F 
ATOM     69  C   UNL A   1      40.568  34.089  36.565  1.00  0.00     0.060 A 
BRANCH  69  70
ATOM     70  S   UNL A   1      40.121  35.469  37.640  1.00  0.00     0.124 S 
ATOM     71  O   UNL A   1      41.177  35.408  38.644  1.00  0.00    -0.237 OA
ATOM     72  O   UNL A   1      40.180  36.607  36.727  1.00  0.00    -0.237 OA
ATOM     73  O   UNL A   1      38.785  35.115  38.111  1.00  0.00    -0.744 OA
ENDBRANCH  69  70
ENDBRANCH  48  62
BRANCH  49  74
ATOM     74  C   UNL A   1      43.286  24.946  28.059  1.00  0.00     0.058 A 
ATOM     75  C   UNL A   1      42.840  23.619  28.154  1.00  0.00     0.135 A 
ATOM     76  C   UNL A   1      44.092  25.286  26.961  1.00  0.00     0.135 A 
ATOM     77  F   UNL A   1      42.071  23.242  29.188  1.00  0.00    -0.206 F 
ATOM     78  C   UNL A   1      43.207  22.656  27.218  1.00  0.00     0.059 A 
ATOM     79  C   UNL A   1      44.449  24.348  25.998  1.00  0.00     0.059 A 
ATOM     80  F   UNL A   1      44.529  26.546  26.812  1.00  0.00    -0.206 F 
ATOM     81  C   UNL A   1      44.016  23.031  26.145  1.00  0.00     0.060 A 
BRANCH  81  82
ATOM     82  S   UNL A   1      44.474  21.781  24.924  1.00  0.00     0.124 S 
ATOM     83  O   UNL A   1      45.892  21.599  25.210  1.00  0.00    -0.237 OA
ATOM     84  O   UNL A   1      43.600  20.668  25.278  1.00  0.00    -0.237 OA
ATOM     85  O   UNL A   1      44.163  22.430  23.653  1.00  0.00    -0.744 OA
ENDBRANCH  81  82
ENDBRANCH  49  74
BRANCH  61  86
ATOM     86  C   UNL A   1      46.445  27.073  33.897  1.00  0.00     0.058 A 
ATOM     87  C   UNL A   1      46.445  26.033  34.838  1.00  0.00     0.135 A 
ATOM     88  C   UNL A   1      47.676  27.666  33.573  1.00  0.00     0.135 A 
ATOM     89  F   UNL A   1      45.293  25.437  35.186  1.00  0.00    -0.206 F 
ATOM     90  C   UNL A   1      47.618  25.609  35.452  1.00  0.00     0.059 A 
ATOM     91  C   UNL A   1      48.866  27.240  34.155  1.00  0.00     0.059 A 
ATOM     92  F   UNL A   1      47.733  28.658  32.671  1.00  0.00    -0.206 F 
ATOM     93  C   UNL A   1      48.826  26.218  35.102  1.00  0.00     0.060 A 
BRANCH  93  94
ATOM     94  S   UNL A   1      50.348  25.636  35.878  1.00  0.00     0.124 S 
ATOM     95  O   UNL A   1      51.130  26.866  35.949  1.00  0.00    -0.237 OA
ATOM     96  O   UNL A   1      49.869  25.115  37.155  1.00  0.00    -0.237 OA
ATOM     97  O   UNL A   1      50.842  24.630  34.943  1.00  0.00    -0.744 OA
ENDBRANCH  93  94
ENDBRANCH  61  86
ENDBRANCH  35  36
ENDBRANCH  27  30
ENDBRANCH  25  26
ENDBRANCH  24  25
ENDBRANCH  23  24
ENDBRANCH   1  23
TORSDOF 20
ENDMDL
