MODEL 1
REMARK VINA RESULT:     -13.0      0.000      0.000
REMARK SMILES O=C(NCCCCCCNC(=O)c1ccc(-c2c3nc(c(-c4c(F)cc(S(=O)(=O)[O-])cc4F)c4ccc([nH]4)c(-c4c(F)cc(S(=O)(=O)[O-])cc4F)c4nc(c(-c5c(F)cc(S(=O)(=O)[O-])cc5F)c5ccc2[nH]5)C=C4)C=C3)cc1)C1=Cc2cc(Cl)cc(-c3ccc(Cl)cc3)c2O[C@@H]1C(F)(F)F
REMARK SMILES IDX 7 1 6 2 5 3 4 4 3 5 1 6 2 7 79 9 80 10 96 11 81 12 95 13
REMARK SMILES IDX 82 14 94 15 83 16 86 17 84 18 85 19 97 20 98 21 99 22 100 23
REMARK SMILES IDX 87 24 88 25 93 26 89 27 92 28 90 29 91 30 8 31 9 32 10 33
REMARK SMILES IDX 11 34 12 36 13 37 14 38 78 39 15 40 77 41 16 42 17 43 18 44
REMARK SMILES IDX 71 45 19 46 76 47 70 48 72 49 20 50 75 51 69 52 68 53 21 55
REMARK SMILES IDX 55 56 34 57 54 58 35 59 38 60 53 61 73 62 36 63 37 64 52 66
REMARK SMILES IDX 74 67 39 68 22 69 23 70 32 71 24 72 25 73 31 74 33 75 26 76
REMARK SMILES IDX 27 77 28 78 29 79 30 80 56 81 57 82 66 83 58 84 59 85 65 86
REMARK SMILES IDX 67 87 60 88 61 89 62 90 63 91 64 92 40 93 41 94 50 95 42 96
REMARK SMILES IDX 43 97 49 98 51 99 44 100 45 101 46 102 47 103 48 104
REMARK H PARENT 3 8 10 35 72 54 38 65
REMARK Flexibility Score: inf
ROOT
ATOM      1  C   UNL A   1      38.080  23.647  26.127  1.00  0.00     0.002 C 
ENDROOT
BRANCH   1   2
ATOM      2  C   UNL A   1      37.098  23.344  24.989  1.00  0.00     0.002 C 
BRANCH   2   3
ATOM      3  C   UNL A   1      35.633  23.141  25.377  1.00  0.00     0.021 C 
BRANCH   3   4
ATOM      4  C   UNL A   1      34.639  22.948  24.235  1.00  0.00     0.116 C 
BRANCH   4   5
ATOM      5  N   UNL A   1      34.420  24.120  23.404  1.00  0.00    -0.352 N 
ATOM      6  O   UNL A   1      33.763  26.195  22.861  1.00  0.00    -0.270 OA
ATOM      7  C   UNL A   1      33.724  25.267  23.669  1.00  0.00     0.251 C 
ATOM      8  H   UNL A   1      34.834  24.081  22.511  1.00  0.00     0.163 HD
BRANCH   7   9
ATOM      9  C   UNL A   1      32.981  25.485  24.949  1.00  0.00     0.067 C 
ATOM     10  C   UNL A   1      33.511  26.166  25.979  1.00  0.00     0.025 C 
ATOM     11  C   UNL A   1      31.490  25.588  24.728  1.00  0.00     0.314 C 
ATOM     12  C   UNL A   1      32.902  27.511  26.137  1.00  0.00     0.019 A 
ATOM     13  O   UNL A   1      31.089  26.977  24.597  1.00  0.00    -0.475 OA
ATOM     14  C   UNL A   1      33.619  28.462  26.868  1.00  0.00     0.032 A 
ATOM     15  C   UNL A   1      31.811  27.898  25.326  1.00  0.00     0.135 A 
ATOM     16  C   UNL A   1      33.300  29.806  26.729  1.00  0.00     0.042 A 
ATOM     17  C   UNL A   1      31.530  29.264  25.129  1.00  0.00     0.026 A 
ATOM     18  Cl  UNL A   1      34.278  30.993  27.499  1.00  0.00    -0.084 Cl
ATOM     19  C   UNL A   1      32.278  30.205  25.867  1.00  0.00     0.033 A 
BRANCH  11  20
ATOM     20  C   UNL A   1      30.691  24.837  25.810  1.00  0.00     0.429 C 
ATOM     21  F   UNL A   1      29.559  25.502  26.144  1.00  0.00    -0.167 F 
ATOM     22  F   UNL A   1      30.309  23.610  25.377  1.00  0.00    -0.167 F 
ATOM     23  F   UNL A   1      31.396  24.649  26.950  1.00  0.00    -0.167 F 
ENDBRANCH  11  20
BRANCH  17  24
ATOM     24  C   UNL A   1      30.654  29.748  24.041  1.00  0.00    -0.015 A 
ATOM     25  C   UNL A   1      29.748  30.793  24.310  1.00  0.00     0.010 A 
ATOM     26  C   UNL A   1      30.682  29.236  22.740  1.00  0.00     0.010 A 
ATOM     27  C   UNL A   1      28.893  31.307  23.336  1.00  0.00     0.021 A 
ATOM     28  C   UNL A   1      29.821  29.743  21.755  1.00  0.00     0.021 A 
ATOM     29  C   UNL A   1      28.931  30.774  22.057  1.00  0.00     0.041 A 
ATOM     30  Cl  UNL A   1      27.876  31.391  20.848  1.00  0.00    -0.084 Cl
ENDBRANCH  17  24
ENDBRANCH   7   9
ENDBRANCH   4   5
ENDBRANCH   3   4
ENDBRANCH   2   3
ENDBRANCH   1   2
BRANCH   1  31
ATOM     31  C   UNL A   1      39.118  22.567  26.449  1.00  0.00     0.021 C 
BRANCH  31  32
ATOM     32  C   UNL A   1      40.426  23.044  27.066  1.00  0.00     0.116 C 
BRANCH  32  33
ATOM     33  N   UNL A   1      41.277  23.704  26.090  1.00  0.00    -0.352 N 
ATOM     34  C   UNL A   1      41.708  25.006  26.010  1.00  0.00     0.251 C 
ATOM     35  H   UNL A   1      41.597  23.120  25.365  1.00  0.00     0.163 HD
ATOM     36  O   UNL A   1      42.238  25.388  24.969  1.00  0.00    -0.269 OA
BRANCH  34  37
ATOM     37  C   UNL A   1      41.541  25.956  27.140  1.00  0.00     0.039 A 
ATOM     38  C   UNL A   1      40.493  25.746  28.045  1.00  0.00     0.014 A 
ATOM     39  C   UNL A   1      42.351  27.084  27.282  1.00  0.00     0.014 A 
ATOM     40  C   UNL A   1      40.291  26.636  29.107  1.00  0.00     0.010 A 
ATOM     41  C   UNL A   1      42.206  27.920  28.389  1.00  0.00     0.010 A 
ATOM     42  C   UNL A   1      41.162  27.719  29.304  1.00  0.00    -0.014 A 
BRANCH  42  43
ATOM     43  C   UNL A   1      40.980  28.671  30.433  1.00  0.00     0.031 A 
ATOM     44  C   UNL A   1      41.855  28.566  31.657  1.00  0.00     0.074 A 
ATOM     45  C   UNL A   1      39.992  29.587  30.387  1.00  0.00     0.049 A 
ATOM     46  N   UNL A   1      41.797  29.238  32.777  1.00  0.00    -0.248 NA
ATOM     47  C   UNL A   1      42.918  27.546  31.631  1.00  0.00     0.031 C 
ATOM     48  C   UNL A   1      39.050  29.763  29.280  1.00  0.00     0.029 A 
ATOM     49  N   UNL A   1      39.608  30.538  31.301  1.00  0.00    -0.354 N 
ATOM     50  C   UNL A   1      42.786  28.704  33.596  1.00  0.00     0.074 A 
ATOM     51  C   UNL A   1      43.403  27.622  32.861  1.00  0.00     0.031 C 
ATOM     52  C   UNL A   1      38.215  30.774  29.567  1.00  0.00     0.029 A 
ATOM     53  C   UNL A   1      38.533  31.294  30.893  1.00  0.00     0.049 A 
ATOM     54  H   UNL A   1      40.058  30.666  32.166  1.00  0.00     0.167 HD
ATOM     55  C   UNL A   1      43.161  29.093  34.838  1.00  0.00     0.037 A 
ATOM     56  C   UNL A   1      37.875  32.289  31.520  1.00  0.00     0.037 A 
ATOM     57  C   UNL A   1      42.580  30.206  35.543  1.00  0.00     0.049 A 
ATOM     58  C   UNL A   1      38.325  32.716  32.891  1.00  0.00     0.074 A 
ATOM     59  C   UNL A   1      42.946  30.734  36.768  1.00  0.00     0.029 A 
ATOM     60  N   UNL A   1      41.512  30.963  35.083  1.00  0.00    -0.354 N 
ATOM     61  N   UNL A   1      39.307  32.241  33.622  1.00  0.00    -0.248 NA
ATOM     62  C   UNL A   1      37.583  33.815  33.523  1.00  0.00     0.031 C 
ATOM     63  C   UNL A   1      42.074  31.785  37.069  1.00  0.00     0.029 A 
ATOM     64  C   UNL A   1      41.194  31.942  36.010  1.00  0.00     0.049 A 
ATOM     65  H   UNL A   1      41.051  30.826  34.225  1.00  0.00     0.167 HD
ATOM     66  C   UNL A   1      39.319  33.005  34.784  1.00  0.00     0.074 A 
ATOM     67  C   UNL A   1      38.252  33.977  34.656  1.00  0.00     0.031 C 
ATOM     68  C   UNL A   1      40.138  32.911  35.860  1.00  0.00     0.037 A 
BRANCH  55  69
ATOM     69  C   UNL A   1      44.258  28.318  35.518  1.00  0.00     0.058 A 
ATOM     70  C   UNL A   1      45.613  28.645  35.345  1.00  0.00     0.135 A 
ATOM     71  C   UNL A   1      43.948  27.261  36.391  1.00  0.00     0.135 A 
ATOM     72  F   UNL A   1      45.968  29.635  34.512  1.00  0.00    -0.206 F 
ATOM     73  C   UNL A   1      46.621  27.937  35.991  1.00  0.00     0.059 A 
ATOM     74  C   UNL A   1      44.938  26.557  37.069  1.00  0.00     0.059 A 
ATOM     75  F   UNL A   1      42.669  26.905  36.593  1.00  0.00    -0.206 F 
ATOM     76  C   UNL A   1      46.273  26.893  36.852  1.00  0.00     0.060 A 
BRANCH  76  77
ATOM     77  S   UNL A   1      47.594  25.993  37.692  1.00  0.00     0.124 S 
ATOM     78  O   UNL A   1      46.872  25.394  38.810  1.00  0.00    -0.237 OA
ATOM     79  O   UNL A   1      48.046  25.065  36.660  1.00  0.00    -0.237 OA
ATOM     80  O   UNL A   1      48.546  27.041  38.050  1.00  0.00    -0.744 OA
ENDBRANCH  76  77
ENDBRANCH  55  69
BRANCH  56  81
ATOM     81  C   UNL A   1      36.736  32.972  30.848  1.00  0.00     0.058 A 
ATOM     82  C   UNL A   1      35.416  32.743  31.262  1.00  0.00     0.135 A 
ATOM     83  C   UNL A   1      36.941  33.863  29.784  1.00  0.00     0.135 A 
ATOM     84  F   UNL A   1      35.168  31.895  32.272  1.00  0.00    -0.206 F 
ATOM     85  C   UNL A   1      34.336  33.353  30.631  1.00  0.00     0.059 A 
ATOM     86  C   UNL A   1      35.879  34.507  29.154  1.00  0.00     0.059 A 
ATOM     87  F   UNL A   1      38.187  34.132  29.361  1.00  0.00    -0.206 F 
ATOM     88  C   UNL A   1      34.579  34.234  29.576  1.00  0.00     0.060 A 
BRANCH  88  89
ATOM     89  S   UNL A   1      33.174  35.047  28.786  1.00  0.00     0.124 S 
ATOM     90  O   UNL A   1      33.825  36.156  28.099  1.00  0.00    -0.237 OA
ATOM     91  O   UNL A   1      32.646  33.987  27.931  1.00  0.00    -0.237 OA
ATOM     92  O   UNL A   1      32.322  35.414  29.914  1.00  0.00    -0.744 OA
ENDBRANCH  88  89
ENDBRANCH  56  81
BRANCH  68  93
ATOM     93  C   UNL A   1      39.944  33.908  36.967  1.00  0.00     0.058 A 
ATOM     94  C   UNL A   1      40.515  35.188  36.915  1.00  0.00     0.135 A 
ATOM     95  C   UNL A   1      39.130  33.595  38.068  1.00  0.00     0.135 A 
ATOM     96  F   UNL A   1      41.305  35.534  35.886  1.00  0.00    -0.206 F 
ATOM     97  C   UNL A   1      40.304  36.118  37.928  1.00  0.00     0.059 A 
ATOM     98  C   UNL A   1      38.885  34.518  39.079  1.00  0.00     0.059 A 
ATOM     99  F   UNL A   1      38.551  32.387  38.161  1.00  0.00    -0.206 F 
ATOM    100  C   UNL A   1      39.485  35.774  39.006  1.00  0.00     0.060 A 
BRANCH 100 101
ATOM    101  S   UNL A   1      39.190  37.001  40.295  1.00  0.00     0.124 S 
ATOM    102  O   UNL A   1      38.537  38.068  39.543  1.00  0.00    -0.237 OA
ATOM    103  O   UNL A   1      38.339  36.274  41.232  1.00  0.00    -0.237 OA
ATOM    104  O   UNL A   1      40.530  37.309  40.786  1.00  0.00    -0.744 OA
ENDBRANCH 100 101
ENDBRANCH  68  93
ENDBRANCH  42  43
ENDBRANCH  34  37
ENDBRANCH  32  33
ENDBRANCH  31  32
ENDBRANCH   1  31
TORSDOF 18
ENDMDL
MODEL 2
REMARK VINA RESULT:     -12.9      0.547      7.976
REMARK SMILES O=C(NCCCCCCNC(=O)c1ccc(-c2c3nc(c(-c4c(F)cc(S(=O)(=O)[O-])cc4F)c4ccc([nH]4)c(-c4c(F)cc(S(=O)(=O)[O-])cc4F)c4nc(c(-c5c(F)cc(S(=O)(=O)[O-])cc5F)c5ccc2[nH]5)C=C4)C=C3)cc1)C1=Cc2cc(Cl)cc(-c3ccc(Cl)cc3)c2O[C@@H]1C(F)(F)F
REMARK SMILES IDX 7 1 6 2 5 3 4 4 3 5 1 6 2 7 79 9 80 10 96 11 81 12 95 13
REMARK SMILES IDX 82 14 94 15 83 16 86 17 84 18 85 19 97 20 98 21 99 22 100 23
REMARK SMILES IDX 87 24 88 25 93 26 89 27 92 28 90 29 91 30 8 31 9 32 10 33
REMARK SMILES IDX 11 34 12 36 13 37 14 38 78 39 15 40 77 41 16 42 17 43 18 44
REMARK SMILES IDX 71 45 19 46 76 47 70 48 72 49 20 50 75 51 69 52 68 53 21 55
REMARK SMILES IDX 55 56 34 57 54 58 35 59 38 60 53 61 73 62 36 63 37 64 52 66
REMARK SMILES IDX 74 67 39 68 22 69 23 70 32 71 24 72 25 73 31 74 33 75 26 76
REMARK SMILES IDX 27 77 28 78 29 79 30 80 56 81 57 82 66 83 58 84 59 85 65 86
REMARK SMILES IDX 67 87 60 88 61 89 62 90 63 91 64 92 40 93 41 94 50 95 42 96
REMARK SMILES IDX 43 97 49 98 51 99 44 100 45 101 46 102 47 103 48 104
REMARK H PARENT 3 8 10 35 72 54 38 65
REMARK Flexibility Score: inf
ROOT
ATOM      1  C   UNL A   1      38.318  23.494  26.417  1.00  0.00     0.002 C 
ENDROOT
BRANCH   1   2
ATOM      2  C   UNL A   1      37.294  23.058  25.362  1.00  0.00     0.002 C 
BRANCH   2   3
ATOM      3  C   UNL A   1      35.858  23.552  25.548  1.00  0.00     0.021 C 
BRANCH   3   4
ATOM      4  C   UNL A   1      34.868  23.222  24.435  1.00  0.00     0.116 C 
BRANCH   4   5
ATOM      5  N   UNL A   1      34.554  24.324  23.541  1.00  0.00    -0.352 N 
ATOM      6  O   UNL A   1      33.710  26.295  22.881  1.00  0.00    -0.270 OA
ATOM      7  C   UNL A   1      33.743  25.408  23.735  1.00  0.00     0.251 C 
ATOM      8  H   UNL A   1      34.991  24.283  22.660  1.00  0.00     0.163 HD
BRANCH   7   9
ATOM      9  C   UNL A   1      32.953  25.614  24.988  1.00  0.00     0.067 C 
ATOM     10  C   UNL A   1      33.433  26.308  26.033  1.00  0.00     0.025 C 
ATOM     11  C   UNL A   1      31.468  25.687  24.715  1.00  0.00     0.314 C 
ATOM     12  C   UNL A   1      32.793  27.641  26.167  1.00  0.00     0.019 A 
ATOM     13  O   UNL A   1      31.045  27.068  24.566  1.00  0.00    -0.475 OA
ATOM     14  C   UNL A   1      33.465  28.607  26.919  1.00  0.00     0.032 A 
ATOM     15  C   UNL A   1      31.723  28.004  25.317  1.00  0.00     0.135 A 
ATOM     16  C   UNL A   1      33.125  29.944  26.765  1.00  0.00     0.042 A 
ATOM     17  C   UNL A   1      31.421  29.364  25.107  1.00  0.00     0.026 A 
ATOM     18  Cl  UNL A   1      34.052  31.152  27.565  1.00  0.00    -0.084 Cl
ATOM     19  C   UNL A   1      32.126  30.321  25.868  1.00  0.00     0.033 A 
BRANCH  11  20
ATOM     20  C   UNL A   1      30.647  24.923  25.771  1.00  0.00     0.429 C 
ATOM     21  F   UNL A   1      30.313  23.683  25.340  1.00  0.00    -0.167 F 
ATOM     22  F   UNL A   1      31.351  24.760  26.919  1.00  0.00    -0.167 F 
ATOM     23  F   UNL A   1      29.497  25.555  26.102  1.00  0.00    -0.167 F 
ENDBRANCH  11  20
BRANCH  17  24
ATOM     24  C   UNL A   1      30.575  29.828  23.988  1.00  0.00    -0.015 A 
ATOM     25  C   UNL A   1      29.632  30.848  24.226  1.00  0.00     0.010 A 
ATOM     26  C   UNL A   1      30.664  29.321  22.688  1.00  0.00     0.010 A 
ATOM     27  C   UNL A   1      28.801  31.343  23.222  1.00  0.00     0.021 A 
ATOM     28  C   UNL A   1      29.827  29.808  21.673  1.00  0.00     0.021 A 
ATOM     29  C   UNL A   1      28.900  30.814  21.944  1.00  0.00     0.041 A 
ATOM     30  Cl  UNL A   1      27.874  31.408  20.698  1.00  0.00    -0.084 Cl
ENDBRANCH  17  24
ENDBRANCH   7   9
ENDBRANCH   4   5
ENDBRANCH   3   4
ENDBRANCH   2   3
ENDBRANCH   1   2
BRANCH   1  31
ATOM     31  C   UNL A   1      39.544  22.595  26.602  1.00  0.00     0.021 C 
BRANCH  31  32
ATOM     32  C   UNL A   1      40.830  23.281  27.043  1.00  0.00     0.116 C 
BRANCH  32  33
ATOM     33  N   UNL A   1      41.349  24.170  26.018  1.00  0.00    -0.352 N 
ATOM     34  C   UNL A   1      41.458  25.540  25.989  1.00  0.00     0.251 C 
ATOM     35  H   UNL A   1      41.678  23.716  25.209  1.00  0.00     0.163 HD
ATOM     36  O   UNL A   1      41.721  26.087  24.920  1.00  0.00    -0.269 OA
BRANCH  34  37
ATOM     37  C   UNL A   1      41.256  26.366  27.206  1.00  0.00     0.039 A 
ATOM     38  C   UNL A   1      42.118  27.445  27.439  1.00  0.00     0.014 A 
ATOM     39  C   UNL A   1      40.280  26.056  28.156  1.00  0.00     0.014 A 
ATOM     40  C   UNL A   1      41.973  28.228  28.589  1.00  0.00     0.010 A 
ATOM     41  C   UNL A   1      40.078  26.889  29.256  1.00  0.00     0.010 A 
ATOM     42  C   UNL A   1      40.934  27.974  29.497  1.00  0.00    -0.014 A 
BRANCH  42  43
ATOM     43  C   UNL A   1      40.746  28.800  30.720  1.00  0.00     0.031 A 
ATOM     44  C   UNL A   1      39.659  29.846  30.764  1.00  0.00     0.074 A 
ATOM     45  C   UNL A   1      41.587  28.658  31.764  1.00  0.00     0.049 A 
ATOM     46  N   UNL A   1      39.392  30.724  31.696  1.00  0.00    -0.248 NA
ATOM     47  C   UNL A   1      38.775  29.938  29.590  1.00  0.00     0.031 C 
ATOM     48  C   UNL A   1      42.704  27.714  31.829  1.00  0.00     0.029 A 
ATOM     49  N   UNL A   1      41.640  29.314  32.969  1.00  0.00    -0.354 N 
ATOM     50  C   UNL A   1      38.338  31.489  31.209  1.00  0.00     0.074 A 
ATOM     51  C   UNL A   1      38.040  31.001  29.881  1.00  0.00     0.031 C 
ATOM     52  C   UNL A   1      43.315  27.834  33.018  1.00  0.00     0.029 A 
ATOM     53  C   UNL A   1      42.661  28.888  33.786  1.00  0.00     0.049 A 
ATOM     54  H   UNL A   1      41.007  30.023  33.224  1.00  0.00     0.167 HD
ATOM     55  C   UNL A   1      37.663  32.492  31.821  1.00  0.00     0.037 A 
ATOM     56  C   UNL A   1      43.033  29.306  35.013  1.00  0.00     0.037 A 
ATOM     57  C   UNL A   1      37.928  32.937  33.164  1.00  0.00     0.049 A 
ATOM     58  C   UNL A   1      42.254  30.408  35.679  1.00  0.00     0.074 A 
ATOM     59  C   UNL A   1      37.247  33.887  33.907  1.00  0.00     0.029 A 
ATOM     60  N   UNL A   1      38.953  32.461  33.969  1.00  0.00    -0.354 N 
ATOM     61  N   UNL A   1      41.217  31.074  35.228  1.00  0.00    -0.248 NA
ATOM     62  C   UNL A   1      42.692  30.814  37.022  1.00  0.00     0.031 C 
ATOM     63  C   UNL A   1      37.885  34.014  35.144  1.00  0.00     0.029 A 
ATOM     64  C   UNL A   1      38.936  33.112  35.191  1.00  0.00     0.049 A 
ATOM     65  H   UNL A   1      39.597  31.763  33.709  1.00  0.00     0.167 HD
ATOM     66  C   UNL A   1      40.861  31.955  36.244  1.00  0.00     0.074 A 
ATOM     67  C   UNL A   1      41.787  31.731  37.335  1.00  0.00     0.031 C 
ATOM     68  C   UNL A   1      39.857  32.866  36.272  1.00  0.00     0.037 A 
BRANCH  55  69
ATOM     69  C   UNL A   1      36.566  33.177  31.051  1.00  0.00     0.058 A 
ATOM     70  C   UNL A   1      35.210  32.955  31.338  1.00  0.00     0.135 A 
ATOM     71  C   UNL A   1      36.877  34.103  30.040  1.00  0.00     0.135 A 
ATOM     72  F   UNL A   1      34.855  32.070  32.282  1.00  0.00    -0.206 F 
ATOM     73  C   UNL A   1      34.201  33.605  30.634  1.00  0.00     0.059 A 
ATOM     74  C   UNL A   1      35.885  34.785  29.343  1.00  0.00     0.059 A 
ATOM     75  F   UNL A   1      38.157  34.353  29.724  1.00  0.00    -0.206 F 
ATOM     76  C   UNL A   1      34.549  34.519  29.638  1.00  0.00     0.060 A 
BRANCH  76  77
ATOM     77  S   UNL A   1      33.227  35.363  28.744  1.00  0.00     0.124 S 
ATOM     78  O   UNL A   1      32.478  35.973  29.838  1.00  0.00    -0.237 OA
ATOM     79  O   UNL A   1      33.966  36.287  27.890  1.00  0.00    -0.237 OA
ATOM     80  O   UNL A   1      32.542  34.278  28.045  1.00  0.00    -0.744 OA
ENDBRANCH  76  77
ENDBRANCH  55  69
BRANCH  56  81
ATOM     81  C   UNL A   1      44.181  28.662  35.706  1.00  0.00     0.058 A 
ATOM     82  C   UNL A   1      45.492  29.120  35.504  1.00  0.00     0.135 A 
ATOM     83  C   UNL A   1      43.996  27.580  36.580  1.00  0.00     0.135 A 
ATOM     84  F   UNL A   1      45.721  30.148  34.673  1.00  0.00    -0.206 F 
ATOM     85  C   UNL A   1      46.581  28.516  36.123  1.00  0.00     0.059 A 
ATOM     86  C   UNL A   1      45.067  26.975  37.233  1.00  0.00     0.059 A 
ATOM     87  F   UNL A   1      42.761  27.114  36.823  1.00  0.00    -0.206 F 
ATOM     88  C   UNL A   1      46.358  27.442  36.987  1.00  0.00     0.060 A 
BRANCH  88  89
ATOM     89  S   UNL A   1      47.774  26.686  37.813  1.00  0.00     0.124 S 
ATOM     90  O   UNL A   1      48.818  27.674  37.568  1.00  0.00    -0.237 OA
ATOM     91  O   UNL A   1      47.305  26.579  39.191  1.00  0.00    -0.237 OA
ATOM     92  O   UNL A   1      47.929  25.414  37.112  1.00  0.00    -0.744 OA
ENDBRANCH  88  89
ENDBRANCH  56  81
BRANCH  68  93
ATOM     93  C   UNL A   1      39.679  33.661  37.534  1.00  0.00     0.058 A 
ATOM     94  C   UNL A   1      40.303  34.904  37.717  1.00  0.00     0.135 A 
ATOM     95  C   UNL A   1      38.829  33.197  38.550  1.00  0.00     0.135 A 
ATOM     96  F   UNL A   1      41.130  35.390  36.777  1.00  0.00    -0.206 F 
ATOM     97  C   UNL A   1      40.108  35.651  38.874  1.00  0.00     0.059 A 
ATOM     98  C   UNL A   1      38.599  33.938  39.705  1.00  0.00     0.059 A 
ATOM     99  F   UNL A   1      38.199  32.018  38.420  1.00  0.00    -0.206 F 
ATOM    100  C   UNL A   1      39.252  35.160  39.862  1.00  0.00     0.060 A 
BRANCH 100 101
ATOM    101  S   UNL A   1      38.978  36.154  41.343  1.00  0.00     0.124 S 
ATOM    102  O   UNL A   1      40.190  35.881  42.109  1.00  0.00    -0.237 OA
ATOM    103  O   UNL A   1      38.863  37.503  40.799  1.00  0.00    -0.237 OA
ATOM    104  O   UNL A   1      37.746  35.603  41.900  1.00  0.00    -0.744 OA
ENDBRANCH 100 101
ENDBRANCH  68  93
ENDBRANCH  42  43
ENDBRANCH  34  37
ENDBRANCH  32  33
ENDBRANCH  31  32
ENDBRANCH   1  31
TORSDOF 18
ENDMDL
MODEL 3
REMARK VINA RESULT:     -12.8      6.514     11.921
REMARK SMILES O=C(NCCCCCCNC(=O)c1ccc(-c2c3nc(c(-c4c(F)cc(S(=O)(=O)[O-])cc4F)c4ccc([nH]4)c(-c4c(F)cc(S(=O)(=O)[O-])cc4F)c4nc(c(-c5c(F)cc(S(=O)(=O)[O-])cc5F)c5ccc2[nH]5)C=C4)C=C3)cc1)C1=Cc2cc(Cl)cc(-c3ccc(Cl)cc3)c2O[C@@H]1C(F)(F)F
REMARK SMILES IDX 7 1 6 2 5 3 4 4 3 5 1 6 2 7 79 9 80 10 96 11 81 12 95 13
REMARK SMILES IDX 82 14 94 15 83 16 86 17 84 18 85 19 97 20 98 21 99 22 100 23
REMARK SMILES IDX 87 24 88 25 93 26 89 27 92 28 90 29 91 30 8 31 9 32 10 33
REMARK SMILES IDX 11 34 12 36 13 37 14 38 78 39 15 40 77 41 16 42 17 43 18 44
REMARK SMILES IDX 71 45 19 46 76 47 70 48 72 49 20 50 75 51 69 52 68 53 21 55
REMARK SMILES IDX 55 56 34 57 54 58 35 59 38 60 53 61 73 62 36 63 37 64 52 66
REMARK SMILES IDX 74 67 39 68 22 69 23 70 32 71 24 72 25 73 31 74 33 75 26 76
REMARK SMILES IDX 27 77 28 78 29 79 30 80 56 81 57 82 66 83 58 84 59 85 65 86
REMARK SMILES IDX 67 87 60 88 61 89 62 90 63 91 64 92 40 93 41 94 50 95 42 96
REMARK SMILES IDX 43 97 49 98 51 99 44 100 45 101 46 102 47 103 48 104
REMARK H PARENT 3 8 10 35 72 54 38 65
REMARK Flexibility Score: inf
ROOT
ATOM      1  C   UNL A   1      33.616  29.766  26.788  1.00  0.00     0.002 C 
ENDROOT
BRANCH   1   2
ATOM      2  C   UNL A   1      32.138  29.357  26.819  1.00  0.00     0.002 C 
BRANCH   2   3
ATOM      3  C   UNL A   1      31.818  27.966  27.368  1.00  0.00     0.021 C 
BRANCH   3   4
ATOM      4  C   UNL A   1      31.451  26.893  26.346  1.00  0.00     0.116 C 
BRANCH   4   5
ATOM      5  N   UNL A   1      31.514  25.526  26.837  1.00  0.00    -0.352 N 
ATOM      6  O   UNL A   1      32.236  23.410  27.020  1.00  0.00    -0.270 OA
ATOM      7  C   UNL A   1      32.240  24.461  26.378  1.00  0.00     0.251 C 
ATOM      8  H   UNL A   1      30.945  25.338  27.618  1.00  0.00     0.163 HD
BRANCH   7   9
ATOM      9  C   UNL A   1      33.117  24.540  25.169  1.00  0.00     0.067 C 
ATOM     10  C   UNL A   1      34.418  24.865  25.247  1.00  0.00     0.025 C 
ATOM     11  C   UNL A   1      32.698  23.557  24.101  1.00  0.00     0.314 C 
ATOM     12  C   UNL A   1      35.305  23.694  25.030  1.00  0.00     0.019 A 
ATOM     13  O   UNL A   1      33.459  22.326  24.215  1.00  0.00    -0.475 OA
ATOM     14  C   UNL A   1      36.622  23.789  25.487  1.00  0.00     0.032 A 
ATOM     15  C   UNL A   1      34.755  22.443  24.669  1.00  0.00     0.135 A 
ATOM     16  C   UNL A   1      37.365  22.629  25.659  1.00  0.00     0.042 A 
ATOM     17  C   UNL A   1      35.482  21.260  24.908  1.00  0.00     0.026 A 
ATOM     18  Cl  UNL A   1      38.928  22.722  26.372  1.00  0.00    -0.084 Cl
ATOM     19  C   UNL A   1      36.804  21.382  25.384  1.00  0.00     0.033 A 
BRANCH  11  20
ATOM     20  C   UNL A   1      32.767  24.171  22.690  1.00  0.00     0.429 C 
ATOM     21  F   UNL A   1      33.065  23.238  21.754  1.00  0.00    -0.167 F 
ATOM     22  F   UNL A   1      31.578  24.717  22.331  1.00  0.00    -0.167 F 
ATOM     23  F   UNL A   1      33.694  25.151  22.587  1.00  0.00    -0.167 F 
ENDBRANCH  11  20
BRANCH  17  24
ATOM     24  C   UNL A   1      34.853  19.922  24.891  1.00  0.00    -0.015 A 
ATOM     25  C   UNL A   1      33.507  19.799  25.289  1.00  0.00     0.010 A 
ATOM     26  C   UNL A   1      35.516  18.760  24.484  1.00  0.00     0.010 A 
ATOM     27  C   UNL A   1      32.842  18.573  25.296  1.00  0.00     0.021 A 
ATOM     28  C   UNL A   1      34.857  17.522  24.494  1.00  0.00     0.021 A 
ATOM     29  C   UNL A   1      33.525  17.434  24.901  1.00  0.00     0.041 A 
ATOM     30  Cl  UNL A   1      32.721  15.913  24.913  1.00  0.00    -0.084 Cl
ENDBRANCH  17  24
ENDBRANCH   7   9
ENDBRANCH   4   5
ENDBRANCH   3   4
ENDBRANCH   2   3
ENDBRANCH   1   2
BRANCH   1  31
ATOM     31  C   UNL A   1      34.011  30.990  27.620  1.00  0.00     0.021 C 
BRANCH  31  32
ATOM     32  C   UNL A   1      35.416  30.989  28.206  1.00  0.00     0.116 C 
BRANCH  32  33
ATOM     33  N   UNL A   1      35.396  30.976  29.659  1.00  0.00    -0.352 N 
ATOM     34  C   UNL A   1      36.314  30.501  30.565  1.00  0.00     0.251 C 
ATOM     35  H   UNL A   1      34.591  31.375  30.062  1.00  0.00     0.163 HD
ATOM     36  O   UNL A   1      35.978  30.395  31.743  1.00  0.00    -0.269 OA
BRANCH  34  37
ATOM     37  C   UNL A   1      37.686  30.107  30.155  1.00  0.00     0.039 A 
ATOM     38  C   UNL A   1      38.076  30.315  28.826  1.00  0.00     0.014 A 
ATOM     39  C   UNL A   1      38.567  29.474  31.034  1.00  0.00     0.014 A 
ATOM     40  C   UNL A   1      39.353  29.933  28.399  1.00  0.00     0.010 A 
ATOM     41  C   UNL A   1      39.869  29.175  30.633  1.00  0.00     0.010 A 
ATOM     42  C   UNL A   1      40.272  29.382  29.306  1.00  0.00    -0.014 A 
BRANCH  42  43
ATOM     43  C   UNL A   1      41.641  28.980  28.883  1.00  0.00     0.031 A 
ATOM     44  C   UNL A   1      42.749  30.003  28.846  1.00  0.00     0.074 A 
ATOM     45  C   UNL A   1      41.875  27.718  28.473  1.00  0.00     0.049 A 
ATOM     46  N   UNL A   1      43.981  29.875  28.424  1.00  0.00    -0.248 NA
ATOM     47  C   UNL A   1      42.420  31.360  29.316  1.00  0.00     0.031 C 
ATOM     48  C   UNL A   1      40.879  26.645  28.419  1.00  0.00     0.029 A 
ATOM     49  N   UNL A   1      43.024  27.123  28.012  1.00  0.00    -0.354 N 
ATOM     50  C   UNL A   1      44.559  31.134  28.546  1.00  0.00     0.074 A 
ATOM     51  C   UNL A   1      43.533  32.024  29.041  1.00  0.00     0.031 C 
ATOM     52  C   UNL A   1      41.464  25.521  27.978  1.00  0.00     0.029 A 
ATOM     53  C   UNL A   1      42.865  25.798  27.678  1.00  0.00     0.049 A 
ATOM     54  H   UNL A   1      43.880  27.600  27.928  1.00  0.00     0.167 HD
ATOM     55  C   UNL A   1      45.835  31.510  28.291  1.00  0.00     0.037 A 
ATOM     56  C   UNL A   1      43.747  24.909  27.180  1.00  0.00     0.037 A 
ATOM     57  C   UNL A   1      46.867  30.608  27.850  1.00  0.00     0.049 A 
ATOM     58  C   UNL A   1      45.164  25.347  26.925  1.00  0.00     0.074 A 
ATOM     59  C   UNL A   1      48.210  30.871  27.645  1.00  0.00     0.029 A 
ATOM     60  N   UNL A   1      46.671  29.267  27.550  1.00  0.00    -0.354 N 
ATOM     61  N   UNL A   1      45.709  26.526  27.110  1.00  0.00    -0.248 NA
ATOM     62  C   UNL A   1      46.089  24.334  26.396  1.00  0.00     0.031 C 
ATOM     63  C   UNL A   1      48.819  29.700  27.182  1.00  0.00     0.029 A 
ATOM     64  C   UNL A   1      47.865  28.695  27.142  1.00  0.00     0.049 A 
ATOM     65  H   UNL A   1      45.812  28.793  27.618  1.00  0.00     0.167 HD
ATOM     66  C   UNL A   1      47.045  26.388  26.750  1.00  0.00     0.074 A 
ATOM     67  C   UNL A   1      47.228  25.009  26.345  1.00  0.00     0.031 C 
ATOM     68  C   UNL A   1      48.032  27.317  26.755  1.00  0.00     0.037 A 
BRANCH  55  69
ATOM     69  C   UNL A   1      46.196  32.958  28.486  1.00  0.00     0.058 A 
ATOM     70  C   UNL A   1      46.089  33.895  27.446  1.00  0.00     0.135 A 
ATOM     71  C   UNL A   1      46.613  33.425  29.745  1.00  0.00     0.135 A 
ATOM     72  F   UNL A   1      45.710  33.503  26.219  1.00  0.00    -0.206 F 
ATOM     73  C   UNL A   1      46.405  35.236  27.638  1.00  0.00     0.059 A 
ATOM     74  C   UNL A   1      46.908  34.767  29.967  1.00  0.00     0.059 A 
ATOM     75  F   UNL A   1      46.733  32.573  30.775  1.00  0.00    -0.206 F 
ATOM     76  C   UNL A   1      46.814  35.662  28.903  1.00  0.00     0.060 A 
BRANCH  76  77
ATOM     77  S   UNL A   1      47.210  37.409  29.138  1.00  0.00     0.124 S 
ATOM     78  O   UNL A   1      46.011  38.052  28.610  1.00  0.00    -0.237 OA
ATOM     79  O   UNL A   1      47.393  37.497  30.582  1.00  0.00    -0.237 OA
ATOM     80  O   UNL A   1      48.421  37.593  28.342  1.00  0.00    -0.744 OA
ENDBRANCH  76  77
ENDBRANCH  55  69
BRANCH  56  81
ATOM     81  C   UNL A   1      43.327  23.506  26.916  1.00  0.00     0.058 A 
ATOM     82  C   UNL A   1      43.155  22.597  27.970  1.00  0.00     0.135 A 
ATOM     83  C   UNL A   1      43.090  23.044  25.612  1.00  0.00     0.135 A 
ATOM     84  F   UNL A   1      43.375  22.988  29.235  1.00  0.00    -0.206 F 
ATOM     85  C   UNL A   1      42.786  21.275  27.743  1.00  0.00     0.059 A 
ATOM     86  C   UNL A   1      42.695  21.734  25.360  1.00  0.00     0.059 A 
ATOM     87  F   UNL A   1      43.223  23.879  24.568  1.00  0.00    -0.206 F 
ATOM     88  C   UNL A   1      42.559  20.852  26.432  1.00  0.00     0.060 A 
BRANCH  88  89
ATOM     89  S   UNL A   1      42.048  19.144  26.149  1.00  0.00     0.124 S 
ATOM     90  O   UNL A   1      40.615  19.299  25.929  1.00  0.00    -0.237 OA
ATOM     91  O   UNL A   1      42.839  18.776  24.978  1.00  0.00    -0.237 OA
ATOM     92  O   UNL A   1      42.428  18.472  27.388  1.00  0.00    -0.744 OA
ENDBRANCH  88  89
ENDBRANCH  56  81
BRANCH  68  93
ATOM     93  C   UNL A   1      49.407  26.869  26.351  1.00  0.00     0.058 A 
ATOM     94  C   UNL A   1      49.872  27.008  25.034  1.00  0.00     0.135 A 
ATOM     95  C   UNL A   1      50.291  26.342  27.307  1.00  0.00     0.135 A 
ATOM     96  F   UNL A   1      49.064  27.502  24.082  1.00  0.00    -0.206 F 
ATOM     97  C   UNL A   1      51.159  26.621  24.674  1.00  0.00     0.059 A 
ATOM     98  C   UNL A   1      51.590  25.972  26.974  1.00  0.00     0.059 A 
ATOM     99  F   UNL A   1      49.900  26.197  28.583  1.00  0.00    -0.206 F 
ATOM    100  C   UNL A   1      52.011  26.106  25.652  1.00  0.00     0.060 A 
BRANCH 100 101
ATOM    101  S   UNL A   1      53.690  25.641  25.180  1.00  0.00     0.124 S 
ATOM    102  O   UNL A   1      53.974  26.601  24.119  1.00  0.00    -0.237 OA
ATOM    103  O   UNL A   1      54.430  25.832  26.423  1.00  0.00    -0.237 OA
ATOM    104  O   UNL A   1      53.550  24.253  24.749  1.00  0.00    -0.744 OA
ENDBRANCH 100 101
ENDBRANCH  68  93
ENDBRANCH  42  43
ENDBRANCH  34  37
ENDBRANCH  32  33
ENDBRANCH  31  32
ENDBRANCH   1  31
TORSDOF 18
ENDMDL
