MODEL 1
REMARK VINA RESULT:     -11.0      0.000      0.000
REMARK SMILES CCC1CCN(C(=O)NC[C@@H]2CC[C@H](C(=O)NCCCCCCNC(=O)c3ccc(-c4c5nc(c(-c6c(F)cc(S(=O)(=O)[O-])cc6F)c6ccc([nH]6)c(-c6c(F)cc(S(=O)(=O)[O-])cc6F)c6nc(c(-c7c(F)cc(S(=O)(=O)[O-])cc7F)c7ccc4[nH]7)C=C6)C=C5)cc3)O2)CC1
REMARK SMILES IDX 20 1 19 2 18 3 17 4 15 5 16 6 14 8 11 9 12 10 93 11 13 12
REMARK SMILES IDX 10 13 9 14 3 15 4 16 95 17 5 18 94 19 6 20 7 21 8 22 2 24
REMARK SMILES IDX 1 25 21 26 22 27 23 28 24 29 25 30 26 32 27 33 28 34 92 35
REMARK SMILES IDX 29 36 91 37 30 38 31 39 32 40 85 41 33 42 90 43 84 44 86 45
REMARK SMILES IDX 34 46 89 47 83 48 82 49 35 51 69 52 48 53 68 54 49 55 52 56
REMARK SMILES IDX 67 57 87 58 50 59 51 60 66 62 88 63 53 64 36 65 37 66 46 67
REMARK SMILES IDX 38 68 39 69 45 70 47 71 40 72 41 73 42 74 43 75 44 76 70 77
REMARK SMILES IDX 71 78 80 79 72 80 73 81 79 82 81 83 74 84 75 85 76 86 77 87
REMARK SMILES IDX 78 88 54 89 55 90 64 91 56 92 57 93 63 94 65 95 58 96 59 97
REMARK SMILES IDX 60 98 61 99 62 100
REMARK H PARENT 17 7 9 23 24 31 86 50 52 61
REMARK Flexibility Score: inf
ROOT
ATOM      1  C   UNL A   1      36.206  33.172  28.079  1.00  0.00     0.002 C 
ENDROOT
BRANCH   1   2
ATOM      2  C   UNL A   1      35.541  31.825  27.773  1.00  0.00     0.021 C 
BRANCH   2   3
ATOM      3  C   UNL A   1      34.207  31.605  28.484  1.00  0.00     0.116 C 
BRANCH   3   4
ATOM      4  N   UNL A   1      33.091  31.681  27.566  1.00  0.00    -0.354 N 
ATOM      5  C   UNL A   1      32.544  30.717  26.770  1.00  0.00     0.249 C 
ATOM      6  O   UNL A   1      31.624  31.059  26.019  1.00  0.00    -0.272 OA
ATOM      7  H   UNL A   1      32.661  32.565  27.507  1.00  0.00     0.163 HD
BRANCH   5   8
ATOM      8  C   UNL A   1      33.027  29.249  26.804  1.00  0.00     0.207 C 
ATOM      9  C   UNL A   1      32.799  27.401  25.374  1.00  0.00     0.138 C 
ATOM     10  C   UNL A   1      31.827  27.167  26.524  1.00  0.00     0.037 C 
ATOM     11  O   UNL A   1      33.268  28.754  25.489  1.00  0.00    -0.363 OA
ATOM     12  C   UNL A   1      32.129  28.261  27.528  1.00  0.00     0.045 C 
BRANCH   9  13
ATOM     13  C   UNL A   1      32.184  27.268  23.971  1.00  0.00     0.149 C 
BRANCH  13  14
ATOM     14  N   UNL A   1      30.909  26.582  23.946  1.00  0.00    -0.335 N 
ATOM     15  C   UNL A   1      28.032  30.603  22.106  1.00  0.00    -0.008 C 
ATOM     16  C   UNL A   1      27.198  29.340  22.291  1.00  0.00     0.025 C 
ATOM     17  C   UNL A   1      29.448  30.181  21.738  1.00  0.00     0.025 C 
ATOM     18  C   UNL A   1      27.790  28.360  23.291  1.00  0.00     0.121 C 
ATOM     19  C   UNL A   1      30.083  29.158  22.679  1.00  0.00     0.121 C 
ATOM     20  N   UNL A   1      29.222  28.074  23.132  1.00  0.00    -0.325 N 
ATOM     21  C   UNL A   1      29.634  26.867  23.637  1.00  0.00     0.317 C 
ATOM     22  O   UNL A   1      28.842  25.951  23.888  1.00  0.00    -0.249 OA
ATOM     23  H   UNL A   1      31.005  25.646  24.235  1.00  0.00     0.165 HD
BRANCH  15  24
ATOM     24  C   UNL A   1      27.895  31.635  23.243  1.00  0.00     0.000 C 
ATOM     25  C   UNL A   1      29.057  32.560  23.563  1.00  0.00     0.004 C 
ENDBRANCH  15  24
ENDBRANCH  13  14
ENDBRANCH   9  13
ENDBRANCH   5   8
ENDBRANCH   3   4
ENDBRANCH   2   3
ENDBRANCH   1   2
BRANCH   1  26
ATOM     26  C   UNL A   1      35.408  34.122  28.982  1.00  0.00     0.002 C 
BRANCH  26  27
ATOM     27  C   UNL A   1      35.912  34.242  30.423  1.00  0.00     0.021 C 
BRANCH  27  28
ATOM     28  C   UNL A   1      36.971  33.222  30.841  1.00  0.00     0.116 C 
BRANCH  28  29
ATOM     29  N   UNL A   1      36.379  32.013  31.385  1.00  0.00    -0.352 N 
ATOM     30  C   UNL A   1      36.781  30.704  31.281  1.00  0.00     0.251 C 
ATOM     31  H   UNL A   1      35.559  32.155  31.911  1.00  0.00     0.163 HD
ATOM     32  O   UNL A   1      36.015  29.816  31.653  1.00  0.00    -0.269 OA
BRANCH  30  33
ATOM     33  C   UNL A   1      38.106  30.338  30.721  1.00  0.00     0.039 A 
ATOM     34  C   UNL A   1      39.155  30.064  31.605  1.00  0.00     0.014 A 
ATOM     35  C   UNL A   1      38.348  30.326  29.345  1.00  0.00     0.014 A 
ATOM     36  C   UNL A   1      40.423  29.729  31.114  1.00  0.00     0.010 A 
ATOM     37  C   UNL A   1      39.602  29.939  28.856  1.00  0.00     0.010 A 
ATOM     38  C   UNL A   1      40.654  29.634  29.732  1.00  0.00    -0.014 A 
BRANCH  38  39
ATOM     39  C   UNL A   1      41.986  29.222  29.201  1.00  0.00     0.031 A 
ATOM     40  C   UNL A   1      43.114  30.216  29.099  1.00  0.00     0.074 A 
ATOM     41  C   UNL A   1      42.176  27.959  28.766  1.00  0.00     0.049 A 
ATOM     42  N   UNL A   1      44.323  30.050  28.624  1.00  0.00    -0.248 NA
ATOM     43  C   UNL A   1      42.842  31.583  29.571  1.00  0.00     0.031 C 
ATOM     44  C   UNL A   1      41.162  26.902  28.767  1.00  0.00     0.029 A 
ATOM     45  N   UNL A   1      43.287  27.348  28.235  1.00  0.00    -0.354 N 
ATOM     46  C   UNL A   1      44.949  31.288  28.727  1.00  0.00     0.074 A 
ATOM     47  C   UNL A   1      43.969  32.208  29.264  1.00  0.00     0.031 C 
ATOM     48  C   UNL A   1      41.704  25.771  28.286  1.00  0.00     0.029 A 
ATOM     49  C   UNL A   1      43.091  26.026  27.907  1.00  0.00     0.049 A 
ATOM     50  H   UNL A   1      44.144  27.813  28.101  1.00  0.00     0.167 HD
ATOM     51  C   UNL A   1      46.227  31.626  28.425  1.00  0.00     0.037 A 
ATOM     52  C   UNL A   1      43.927  25.121  27.359  1.00  0.00     0.037 A 
ATOM     53  C   UNL A   1      47.213  30.706  27.918  1.00  0.00     0.049 A 
ATOM     54  C   UNL A   1      45.341  25.519  27.031  1.00  0.00     0.074 A 
ATOM     55  C   UNL A   1      48.548  30.946  27.639  1.00  0.00     0.029 A 
ATOM     56  N   UNL A   1      46.977  29.375  27.614  1.00  0.00    -0.354 N 
ATOM     57  N   UNL A   1      45.929  26.680  27.194  1.00  0.00    -0.248 NA
ATOM     58  C   UNL A   1      46.208  24.483  26.451  1.00  0.00     0.031 C 
ATOM     59  C   UNL A   1      49.107  29.771  27.123  1.00  0.00     0.029 A 
ATOM     60  C   UNL A   1      48.135  28.786  27.130  1.00  0.00     0.049 A 
ATOM     61  H   UNL A   1      46.114  28.915  27.724  1.00  0.00     0.167 HD
ATOM     62  C   UNL A   1      47.241  26.505  26.762  1.00  0.00     0.074 A 
ATOM     63  C   UNL A   1      47.364  25.125  26.342  1.00  0.00     0.031 C 
ATOM     64  C   UNL A   1      48.251  27.408  26.720  1.00  0.00     0.037 A 
BRANCH  51  65
ATOM     65  C   UNL A   1      46.639  33.058  28.638  1.00  0.00     0.058 A 
ATOM     66  C   UNL A   1      47.168  33.499  29.862  1.00  0.00     0.135 A 
ATOM     67  C   UNL A   1      46.544  33.992  27.593  1.00  0.00     0.135 A 
ATOM     68  F   UNL A   1      47.271  32.652  30.899  1.00  0.00    -0.206 F 
ATOM     69  C   UNL A   1      47.556  34.821  30.053  1.00  0.00     0.059 A 
ATOM     70  C   UNL A   1      46.954  35.312  27.752  1.00  0.00     0.059 A 
ATOM     71  F   UNL A   1      46.049  33.624  26.401  1.00  0.00    -0.206 F 
ATOM     72  C   UNL A   1      47.444  35.721  28.992  1.00  0.00     0.060 A 
BRANCH  72  73
ATOM     73  S   UNL A   1      47.949  37.434  29.255  1.00  0.00     0.124 S 
ATOM     74  O   UNL A   1      48.981  37.592  28.233  1.00  0.00    -0.237 OA
ATOM     75  O   UNL A   1      46.708  38.166  29.016  1.00  0.00    -0.237 OA
ATOM     76  O   UNL A   1      48.424  37.442  30.633  1.00  0.00    -0.744 OA
ENDBRANCH  72  73
ENDBRANCH  51  65
BRANCH  52  77
ATOM     77  C   UNL A   1      43.453  23.734  27.102  1.00  0.00     0.058 A 
ATOM     78  C   UNL A   1      43.233  22.839  28.160  1.00  0.00     0.135 A 
ATOM     79  C   UNL A   1      43.204  23.277  25.799  1.00  0.00     0.135 A 
ATOM     80  F   UNL A   1      43.466  23.226  29.424  1.00  0.00    -0.206 F 
ATOM     81  C   UNL A   1      42.800  21.537  27.936  1.00  0.00     0.059 A 
ATOM     82  C   UNL A   1      42.745  21.987  25.551  1.00  0.00     0.059 A 
ATOM     83  F   UNL A   1      43.382  24.101  24.753  1.00  0.00    -0.206 F 
ATOM     84  C   UNL A   1      42.556  21.121  26.626  1.00  0.00     0.060 A 
BRANCH  84  85
ATOM     85  S   UNL A   1      41.944  19.444  26.351  1.00  0.00     0.124 S 
ATOM     86  O   UNL A   1      40.502  19.641  26.435  1.00  0.00    -0.237 OA
ATOM     87  O   UNL A   1      42.470  19.140  25.023  1.00  0.00    -0.237 OA
ATOM     88  O   UNL A   1      42.544  18.685  27.442  1.00  0.00    -0.744 OA
ENDBRANCH  84  85
ENDBRANCH  52  77
BRANCH  64  89
ATOM     89  C   UNL A   1      49.594  26.931  26.235  1.00  0.00     0.058 A 
ATOM     90  C   UNL A   1      50.486  26.250  27.079  1.00  0.00     0.135 A 
ATOM     91  C   UNL A   1      49.971  27.111  24.894  1.00  0.00     0.135 A 
ATOM     92  F   UNL A   1      50.178  26.058  28.371  1.00  0.00    -0.206 F 
ATOM     93  C   UNL A   1      51.711  25.782  26.616  1.00  0.00     0.059 A 
ATOM     94  C   UNL A   1      51.180  26.627  24.403  1.00  0.00     0.059 A 
ATOM     95  F   UNL A   1      49.152  27.746  24.041  1.00  0.00    -0.206 F 
ATOM     96  C   UNL A   1      52.049  25.974  25.275  1.00  0.00     0.060 A 
BRANCH  96  97
ATOM     97  S   UNL A   1      53.626  25.328  24.676  1.00  0.00     0.124 S 
ATOM     98  O   UNL A   1      53.518  25.572  23.242  1.00  0.00    -0.237 OA
ATOM     99  O   UNL A   1      54.594  26.156  25.389  1.00  0.00    -0.237 OA
ATOM    100  O   UNL A   1      53.593  23.926  25.079  1.00  0.00    -0.744 OA
ENDBRANCH  96  97
ENDBRANCH  64  89
ENDBRANCH  38  39
ENDBRANCH  30  33
ENDBRANCH  28  29
ENDBRANCH  27  28
ENDBRANCH  26  27
ENDBRANCH   1  26
TORSDOF 19
ENDMDL
MODEL 2
REMARK VINA RESULT:     -10.8      3.099      9.141
REMARK SMILES CCC1CCN(C(=O)NC[C@@H]2CC[C@H](C(=O)NCCCCCCNC(=O)c3ccc(-c4c5nc(c(-c6c(F)cc(S(=O)(=O)[O-])cc6F)c6ccc([nH]6)c(-c6c(F)cc(S(=O)(=O)[O-])cc6F)c6nc(c(-c7c(F)cc(S(=O)(=O)[O-])cc7F)c7ccc4[nH]7)C=C6)C=C5)cc3)O2)CC1
REMARK SMILES IDX 20 1 19 2 18 3 17 4 15 5 16 6 14 8 11 9 12 10 93 11 13 12
REMARK SMILES IDX 10 13 9 14 3 15 4 16 95 17 5 18 94 19 6 20 7 21 8 22 2 24
REMARK SMILES IDX 1 25 21 26 22 27 23 28 24 29 25 30 26 32 27 33 28 34 92 35
REMARK SMILES IDX 29 36 91 37 30 38 31 39 32 40 85 41 33 42 90 43 84 44 86 45
REMARK SMILES IDX 34 46 89 47 83 48 82 49 35 51 69 52 48 53 68 54 49 55 52 56
REMARK SMILES IDX 67 57 87 58 50 59 51 60 66 62 88 63 53 64 36 65 37 66 46 67
REMARK SMILES IDX 38 68 39 69 45 70 47 71 40 72 41 73 42 74 43 75 44 76 70 77
REMARK SMILES IDX 71 78 80 79 72 80 73 81 79 82 81 83 74 84 75 85 76 86 77 87
REMARK SMILES IDX 78 88 54 89 55 90 64 91 56 92 57 93 63 94 65 95 58 96 59 97
REMARK SMILES IDX 60 98 61 99 62 100
REMARK H PARENT 17 7 9 23 24 31 86 50 52 61
REMARK Flexibility Score: inf
ROOT
ATOM      1  C   UNL A   1      39.417  23.701  26.308  1.00  0.00     0.002 C 
ENDROOT
BRANCH   1   2
ATOM      2  C   UNL A   1      37.923  24.024  26.430  1.00  0.00     0.021 C 
BRANCH   2   3
ATOM      3  C   UNL A   1      37.002  23.013  25.749  1.00  0.00     0.116 C 
BRANCH   3   4
ATOM      4  N   UNL A   1      35.933  22.587  26.625  1.00  0.00    -0.354 N 
ATOM      5  C   UNL A   1      34.822  21.841  26.354  1.00  0.00     0.249 C 
ATOM      6  O   UNL A   1      34.019  21.669  27.277  1.00  0.00    -0.272 OA
ATOM      7  H   UNL A   1      36.021  22.880  27.561  1.00  0.00     0.163 HD
BRANCH   5   8
ATOM      8  C   UNL A   1      34.571  21.215  24.964  1.00  0.00     0.207 C 
ATOM      9  C   UNL A   1      33.137  21.698  23.169  1.00  0.00     0.138 C 
ATOM     10  C   UNL A   1      32.529  20.497  23.882  1.00  0.00     0.037 C 
ATOM     11  O   UNL A   1      34.183  22.204  24.014  1.00  0.00    -0.363 OA
ATOM     12  C   UNL A   1      33.563  20.079  24.909  1.00  0.00     0.045 C 
BRANCH   9  13
ATOM     13  C   UNL A   1      32.166  22.865  22.926  1.00  0.00     0.149 C 
BRANCH  13  14
ATOM     14  N   UNL A   1      32.647  23.849  21.980  1.00  0.00    -0.335 N 
ATOM     15  C   UNL A   1      33.417  27.763  25.433  1.00  0.00    -0.008 C 
ATOM     16  C   UNL A   1      33.833  28.156  24.020  1.00  0.00     0.025 C 
ATOM     17  C   UNL A   1      33.663  26.269  25.596  1.00  0.00     0.025 C 
ATOM     18  C   UNL A   1      33.156  27.335  22.935  1.00  0.00     0.121 C 
ATOM     19  C   UNL A   1      33.048  25.390  24.508  1.00  0.00     0.121 C 
ATOM     20  N   UNL A   1      33.159  25.881  23.140  1.00  0.00    -0.325 N 
ATOM     21  C   UNL A   1      33.048  25.131  21.997  1.00  0.00     0.317 C 
ATOM     22  O   UNL A   1      33.274  25.599  20.876  1.00  0.00    -0.249 OA
ATOM     23  H   UNL A   1      32.693  23.474  21.071  1.00  0.00     0.165 HD
BRANCH  15  24
ATOM     24  C   UNL A   1      32.031  28.283  25.862  1.00  0.00     0.000 C 
ATOM     25  C   UNL A   1      31.784  28.653  27.315  1.00  0.00     0.004 C 
ENDBRANCH  15  24
ENDBRANCH  13  14
ENDBRANCH   9  13
ENDBRANCH   5   8
ENDBRANCH   3   4
ENDBRANCH   2   3
ENDBRANCH   1   2
BRANCH   1  26
ATOM     26  C   UNL A   1      39.892  22.442  27.047  1.00  0.00     0.002 C 
BRANCH  26  27
ATOM     27  C   UNL A   1      39.940  21.163  26.206  1.00  0.00     0.021 C 
BRANCH  27  28
ATOM     28  C   UNL A   1      40.452  19.916  26.927  1.00  0.00     0.116 C 
BRANCH  28  29
ATOM     29  N   UNL A   1      41.567  19.303  26.228  1.00  0.00    -0.352 N 
ATOM     30  C   UNL A   1      42.703  19.868  25.703  1.00  0.00     0.251 C 
ATOM     31  H   UNL A   1      41.497  18.328  26.113  1.00  0.00     0.163 HD
ATOM     32  O   UNL A   1      43.422  19.187  24.972  1.00  0.00    -0.269 OA
BRANCH  30  33
ATOM     33  C   UNL A   1      43.074  21.278  25.983  1.00  0.00     0.039 A 
ATOM     34  C   UNL A   1      43.427  21.631  27.290  1.00  0.00     0.014 A 
ATOM     35  C   UNL A   1      43.014  22.266  24.997  1.00  0.00     0.014 A 
ATOM     36  C   UNL A   1      43.769  22.954  27.596  1.00  0.00     0.010 A 
ATOM     37  C   UNL A   1      43.408  23.578  25.294  1.00  0.00     0.010 A 
ATOM     38  C   UNL A   1      43.792  23.938  26.595  1.00  0.00    -0.014 A 
BRANCH  38  39
ATOM     39  C   UNL A   1      44.210  25.337  26.899  1.00  0.00     0.031 A 
ATOM     40  C   UNL A   1      45.599  25.815  26.561  1.00  0.00     0.074 A 
ATOM     41  C   UNL A   1      43.356  26.175  27.521  1.00  0.00     0.049 A 
ATOM     42  N   UNL A   1      46.152  26.980  26.789  1.00  0.00    -0.248 NA
ATOM     43  C   UNL A   1      46.493  24.851  25.900  1.00  0.00     0.031 C 
ATOM     44  C   UNL A   1      41.994  25.837  27.943  1.00  0.00     0.029 A 
ATOM     45  N   UNL A   1      43.503  27.485  27.911  1.00  0.00    -0.354 N 
ATOM     46  C   UNL A   1      47.456  26.885  26.315  1.00  0.00     0.074 A 
ATOM     47  C   UNL A   1      47.627  25.532  25.831  1.00  0.00     0.031 C 
ATOM     48  C   UNL A   1      41.427  26.915  28.509  1.00  0.00     0.029 A 
ATOM     49  C   UNL A   1      42.390  28.012  28.525  1.00  0.00     0.049 A 
ATOM     50  H   UNL A   1      44.330  27.999  27.765  1.00  0.00     0.167 HD
ATOM     51  C   UNL A   1      48.417  27.841  26.264  1.00  0.00     0.037 A 
ATOM     52  C   UNL A   1      42.168  29.235  29.047  1.00  0.00     0.037 A 
ATOM     53  C   UNL A   1      48.241  29.197  26.719  1.00  0.00     0.049 A 
ATOM     54  C   UNL A   1      43.250  30.279  28.980  1.00  0.00     0.074 A 
ATOM     55  C   UNL A   1      49.140  30.248  26.653  1.00  0.00     0.029 A 
ATOM     56  N   UNL A   1      47.094  29.692  27.320  1.00  0.00    -0.354 N 
ATOM     57  N   UNL A   1      44.455  30.186  28.472  1.00  0.00    -0.248 NA
ATOM     58  C   UNL A   1      42.940  31.598  29.553  1.00  0.00     0.031 C 
ATOM     59  C   UNL A   1      48.553  31.366  27.256  1.00  0.00     0.029 A 
ATOM     60  C   UNL A   1      47.270  31.026  27.650  1.00  0.00     0.049 A 
ATOM     61  H   UNL A   1      46.276  29.171  27.489  1.00  0.00     0.167 HD
ATOM     62  C   UNL A   1      45.036  31.439  28.639  1.00  0.00     0.074 A 
ATOM     63  C   UNL A   1      44.048  32.277  29.284  1.00  0.00     0.031 C 
ATOM     64  C   UNL A   1      46.277  31.856  28.286  1.00  0.00     0.037 A 
BRANCH  51  65
ATOM     65  C   UNL A   1      49.755  27.455  25.693  1.00  0.00     0.058 A 
ATOM     66  C   UNL A   1      50.824  27.068  26.518  1.00  0.00     0.135 A 
ATOM     67  C   UNL A   1      49.960  27.431  24.304  1.00  0.00     0.135 A 
ATOM     68  F   UNL A   1      50.689  27.085  27.853  1.00  0.00    -0.206 F 
ATOM     69  C   UNL A   1      52.058  26.704  25.987  1.00  0.00     0.059 A 
ATOM     70  C   UNL A   1      51.176  27.041  23.750  1.00  0.00     0.059 A 
ATOM     71  F   UNL A   1      48.971  27.788  23.469  1.00  0.00    -0.206 F 
ATOM     72  C   UNL A   1      52.225  26.695  24.602  1.00  0.00     0.060 A 
BRANCH  72  73
ATOM     73  S   UNL A   1      53.831  26.222  23.928  1.00  0.00     0.124 S 
ATOM     74  O   UNL A   1      54.131  25.023  24.708  1.00  0.00    -0.237 OA
ATOM     75  O   UNL A   1      53.523  25.996  22.518  1.00  0.00    -0.237 OA
ATOM     76  O   UNL A   1      54.672  27.378  24.206  1.00  0.00    -0.744 OA
ENDBRANCH  72  73
ENDBRANCH  51  65
BRANCH  52  77
ATOM     77  C   UNL A   1      40.850  29.549  29.665  1.00  0.00     0.058 A 
ATOM     78  C   UNL A   1      39.727  29.818  28.871  1.00  0.00     0.135 A 
ATOM     79  C   UNL A   1      40.687  29.580  31.059  1.00  0.00     0.135 A 
ATOM     80  F   UNL A   1      39.834  29.810  27.532  1.00  0.00    -0.206 F 
ATOM     81  C   UNL A   1      38.492  30.123  29.432  1.00  0.00     0.059 A 
ATOM     82  C   UNL A   1      39.456  29.856  31.645  1.00  0.00     0.059 A 
ATOM     83  F   UNL A   1      41.729  29.311  31.864  1.00  0.00    -0.206 F 
ATOM     84  C   UNL A   1      38.367  30.137  30.822  1.00  0.00     0.060 A 
BRANCH  84  85
ATOM     85  S   UNL A   1      36.746  30.483  31.542  1.00  0.00     0.124 S 
ATOM     86  O   UNL A   1      36.882  31.888  31.910  1.00  0.00    -0.237 OA
ATOM     87  O   UNL A   1      35.849  30.200  30.425  1.00  0.00    -0.237 OA
ATOM     88  O   UNL A   1      36.665  29.543  32.654  1.00  0.00    -0.744 OA
ENDBRANCH  84  85
ENDBRANCH  52  77
BRANCH  64  89
ATOM     89  C   UNL A   1      46.633  33.294  28.556  1.00  0.00     0.058 A 
ATOM     90  C   UNL A   1      46.365  34.309  27.625  1.00  0.00     0.135 A 
ATOM     91  C   UNL A   1      47.200  33.668  29.786  1.00  0.00     0.135 A 
ATOM     92  F   UNL A   1      45.830  34.006  26.431  1.00  0.00    -0.206 F 
ATOM     93  C   UNL A   1      46.666  35.641  27.893  1.00  0.00     0.059 A 
ATOM     94  C   UNL A   1      47.483  34.996  30.087  1.00  0.00     0.059 A 
ATOM     95  F   UNL A   1      47.468  32.738  30.717  1.00  0.00    -0.206 F 
ATOM     96  C   UNL A   1      47.223  35.975  29.129  1.00  0.00     0.060 A 
BRANCH  96  97
ATOM     97  S   UNL A   1      47.574  37.711  29.482  1.00  0.00     0.124 S 
ATOM     98  O   UNL A   1      48.214  37.622  30.790  1.00  0.00    -0.237 OA
ATOM     99  O   UNL A   1      48.446  38.086  28.373  1.00  0.00    -0.237 OA
ATOM    100  O   UNL A   1      46.254  38.334  29.470  1.00  0.00    -0.744 OA
ENDBRANCH  96  97
ENDBRANCH  64  89
ENDBRANCH  38  39
ENDBRANCH  30  33
ENDBRANCH  28  29
ENDBRANCH  27  28
ENDBRANCH  26  27
ENDBRANCH   1  26
TORSDOF 19
ENDMDL
MODEL 3
REMARK VINA RESULT:     -10.6      0.585      8.155
REMARK SMILES CCC1CCN(C(=O)NC[C@@H]2CC[C@H](C(=O)NCCCCCCNC(=O)c3ccc(-c4c5nc(c(-c6c(F)cc(S(=O)(=O)[O-])cc6F)c6ccc([nH]6)c(-c6c(F)cc(S(=O)(=O)[O-])cc6F)c6nc(c(-c7c(F)cc(S(=O)(=O)[O-])cc7F)c7ccc4[nH]7)C=C6)C=C5)cc3)O2)CC1
REMARK SMILES IDX 20 1 19 2 18 3 17 4 15 5 16 6 14 8 11 9 12 10 93 11 13 12
REMARK SMILES IDX 10 13 9 14 3 15 4 16 95 17 5 18 94 19 6 20 7 21 8 22 2 24
REMARK SMILES IDX 1 25 21 26 22 27 23 28 24 29 25 30 26 32 27 33 28 34 92 35
REMARK SMILES IDX 29 36 91 37 30 38 31 39 32 40 85 41 33 42 90 43 84 44 86 45
REMARK SMILES IDX 34 46 89 47 83 48 82 49 35 51 69 52 48 53 68 54 49 55 52 56
REMARK SMILES IDX 67 57 87 58 50 59 51 60 66 62 88 63 53 64 36 65 37 66 46 67
REMARK SMILES IDX 38 68 39 69 45 70 47 71 40 72 41 73 42 74 43 75 44 76 70 77
REMARK SMILES IDX 71 78 80 79 72 80 73 81 79 82 81 83 74 84 75 85 76 86 77 87
REMARK SMILES IDX 78 88 54 89 55 90 64 91 56 92 57 93 63 94 65 95 58 96 59 97
REMARK SMILES IDX 60 98 61 99 62 100
REMARK H PARENT 17 7 9 23 24 31 86 50 52 61
REMARK Flexibility Score: inf
ROOT
ATOM      1  C   UNL A   1      36.055  32.866  27.848  1.00  0.00     0.002 C 
ENDROOT
BRANCH   1   2
ATOM      2  C   UNL A   1      35.502  31.436  27.885  1.00  0.00     0.021 C 
BRANCH   2   3
ATOM      3  C   UNL A   1      34.069  31.328  28.404  1.00  0.00     0.116 C 
BRANCH   3   4
ATOM      4  N   UNL A   1      33.103  31.411  27.331  1.00  0.00    -0.354 N 
ATOM      5  C   UNL A   1      32.536  30.420  26.582  1.00  0.00     0.249 C 
ATOM      6  O   UNL A   1      31.777  30.764  25.671  1.00  0.00    -0.272 OA
ATOM      7  H   UNL A   1      32.808  32.323  27.106  1.00  0.00     0.163 HD
BRANCH   5   8
ATOM      8  C   UNL A   1      32.805  28.923  26.860  1.00  0.00     0.207 C 
ATOM      9  C   UNL A   1      32.469  26.934  25.658  1.00  0.00     0.138 C 
ATOM     10  C   UNL A   1      31.363  26.986  26.705  1.00  0.00     0.037 C 
ATOM     11  O   UNL A   1      33.107  28.221  25.656  1.00  0.00    -0.363 OA
ATOM     12  C   UNL A   1      31.710  28.166  27.592  1.00  0.00     0.045 C 
BRANCH   9  13
ATOM     13  C   UNL A   1      31.987  26.681  24.221  1.00  0.00     0.149 C 
BRANCH  13  14
ATOM     14  N   UNL A   1      30.600  26.276  24.124  1.00  0.00    -0.335 N 
ATOM     15  C   UNL A   1      28.739  30.778  22.098  1.00  0.00    -0.008 C 
ATOM     16  C   UNL A   1      27.650  29.721  22.239  1.00  0.00     0.025 C 
ATOM     17  C   UNL A   1      30.054  30.063  21.816  1.00  0.00     0.025 C 
ATOM     18  C   UNL A   1      27.965  28.656  23.277  1.00  0.00     0.121 C 
ATOM     19  C   UNL A   1      30.405  28.946  22.798  1.00  0.00     0.121 C 
ATOM     20  N   UNL A   1      29.312  28.074  23.205  1.00  0.00    -0.325 N 
ATOM     21  C   UNL A   1      29.432  26.816  23.739  1.00  0.00     0.317 C 
ATOM     22  O   UNL A   1      28.453  26.091  23.948  1.00  0.00    -0.249 OA
ATOM     23  H   UNL A   1      30.480  25.346  24.423  1.00  0.00     0.165 HD
BRANCH  15  24
ATOM     24  C   UNL A   1      28.758  31.835  23.220  1.00  0.00     0.000 C 
ATOM     25  C   UNL A   1      28.745  33.311  22.862  1.00  0.00     0.004 C 
ENDBRANCH  15  24
ENDBRANCH  13  14
ENDBRANCH   9  13
ENDBRANCH   5   8
ENDBRANCH   3   4
ENDBRANCH   2   3
ENDBRANCH   1   2
BRANCH   1  26
ATOM     26  C   UNL A   1      35.305  33.895  28.705  1.00  0.00     0.002 C 
BRANCH  26  27
ATOM     27  C   UNL A   1      35.672  33.907  30.192  1.00  0.00     0.021 C 
BRANCH  27  28
ATOM     28  C   UNL A   1      36.822  32.986  30.598  1.00  0.00     0.116 C 
BRANCH  28  29
ATOM     29  N   UNL A   1      36.365  31.864  31.398  1.00  0.00    -0.352 N 
ATOM     30  C   UNL A   1      36.880  30.597  31.526  1.00  0.00     0.251 C 
ATOM     31  H   UNL A   1      35.558  32.039  31.934  1.00  0.00     0.163 HD
ATOM     32  O   UNL A   1      36.213  29.741  32.106  1.00  0.00    -0.269 OA
BRANCH  30  33
ATOM     33  C   UNL A   1      38.209  30.236  30.971  1.00  0.00     0.039 A 
ATOM     34  C   UNL A   1      38.377  30.233  29.582  1.00  0.00     0.014 A 
ATOM     35  C   UNL A   1      39.266  29.835  31.791  1.00  0.00     0.014 A 
ATOM     36  C   UNL A   1      39.611  29.884  29.021  1.00  0.00     0.010 A 
ATOM     37  C   UNL A   1      40.515  29.538  31.231  1.00  0.00     0.010 A 
ATOM     38  C   UNL A   1      40.705  29.560  29.840  1.00  0.00    -0.014 A 
BRANCH  38  39
ATOM     39  C   UNL A   1      42.039  29.243  29.254  1.00  0.00     0.031 A 
ATOM     40  C   UNL A   1      42.329  27.871  28.701  1.00  0.00     0.074 A 
ATOM     41  C   UNL A   1      43.014  30.175  29.253  1.00  0.00     0.049 A 
ATOM     42  N   UNL A   1      43.441  27.401  28.193  1.00  0.00    -0.248 NA
ATOM     43  C   UNL A   1      41.233  26.890  28.745  1.00  0.00     0.031 C 
ATOM     44  C   UNL A   1      42.887  31.532  29.791  1.00  0.00     0.029 A 
ATOM     45  N   UNL A   1      44.307  30.126  28.789  1.00  0.00    -0.354 N 
ATOM     46  C   UNL A   1      43.185  26.073  27.871  1.00  0.00     0.074 A 
ATOM     47  C   UNL A   1      41.826  25.797  28.287  1.00  0.00     0.031 C 
ATOM     48  C   UNL A   1      44.043  32.191  29.604  1.00  0.00     0.029 A 
ATOM     49  C   UNL A   1      45.007  31.297  28.967  1.00  0.00     0.049 A 
ATOM     50  H   UNL A   1      44.696  29.326  28.367  1.00  0.00     0.167 HD
ATOM     51  C   UNL A   1      43.995  25.170  27.264  1.00  0.00     0.037 A 
ATOM     52  C   UNL A   1      46.279  31.618  28.659  1.00  0.00     0.037 A 
ATOM     53  C   UNL A   1      45.337  25.450  26.823  1.00  0.00     0.049 A 
ATOM     54  C   UNL A   1      47.161  30.599  27.986  1.00  0.00     0.074 A 
ATOM     55  C   UNL A   1      46.211  24.614  26.147  1.00  0.00     0.029 A 
ATOM     56  N   UNL A   1      46.002  26.652  27.009  1.00  0.00    -0.354 N 
ATOM     57  N   UNL A   1      46.877  29.368  27.636  1.00  0.00    -0.248 NA
ATOM     58  C   UNL A   1      48.533  31.015  27.662  1.00  0.00     0.031 C 
ATOM     59  C   UNL A   1      47.419  25.296  25.965  1.00  0.00     0.029 A 
ATOM     60  C   UNL A   1      47.281  26.573  26.482  1.00  0.00     0.049 A 
ATOM     61  H   UNL A   1      45.622  27.444  27.452  1.00  0.00     0.167 HD
ATOM     62  C   UNL A   1      48.026  28.873  27.026  1.00  0.00     0.074 A 
ATOM     63  C   UNL A   1      49.004  29.940  27.044  1.00  0.00     0.031 C 
ATOM     64  C   UNL A   1      48.248  27.644  26.498  1.00  0.00     0.037 A 
BRANCH  51  65
ATOM     65  C   UNL A   1      43.450  23.785  27.037  1.00  0.00     0.058 A 
ATOM     66  C   UNL A   1      43.039  23.354  25.765  1.00  0.00     0.135 A 
ATOM     67  C   UNL A   1      43.377  22.864  28.095  1.00  0.00     0.135 A 
ATOM     68  F   UNL A   1      43.076  24.197  24.721  1.00  0.00    -0.206 F 
ATOM     69  C   UNL A   1      42.544  22.071  25.557  1.00  0.00     0.059 A 
ATOM     70  C   UNL A   1      42.913  21.566  27.903  1.00  0.00     0.059 A 
ATOM     71  F   UNL A   1      43.759  23.222  29.331  1.00  0.00    -0.206 F 
ATOM     72  C   UNL A   1      42.483  21.184  26.633  1.00  0.00     0.060 A 
BRANCH  72  73
ATOM     73  S   UNL A   1      41.837  19.522  26.348  1.00  0.00     0.124 S 
ATOM     74  O   UNL A   1      42.532  19.149  25.118  1.00  0.00    -0.237 OA
ATOM     75  O   UNL A   1      42.260  18.813  27.553  1.00  0.00    -0.237 OA
ATOM     76  O   UNL A   1      40.401  19.733  26.218  1.00  0.00    -0.744 OA
ENDBRANCH  72  73
ENDBRANCH  51  65
BRANCH  52  77
ATOM     77  C   UNL A   1      46.796  32.980  28.966  1.00  0.00     0.058 A 
ATOM     78  C   UNL A   1      47.345  33.276  30.222  1.00  0.00     0.135 A 
ATOM     79  C   UNL A   1      46.757  34.008  28.011  1.00  0.00     0.135 A 
ATOM     80  F   UNL A   1      47.396  32.329  31.172  1.00  0.00    -0.206 F 
ATOM     81  C   UNL A   1      47.823  34.546  30.528  1.00  0.00     0.059 A 
ATOM     82  C   UNL A   1      47.253  35.279  28.284  1.00  0.00     0.059 A 
ATOM     83  F   UNL A   1      46.257  33.770  26.788  1.00  0.00    -0.206 F 
ATOM     84  C   UNL A   1      47.775  35.540  29.550  1.00  0.00     0.060 A 
BRANCH  84  85
ATOM     85  S   UNL A   1      48.446  37.172  29.941  1.00  0.00     0.124 S 
ATOM     86  O   UNL A   1      49.387  36.853  31.008  1.00  0.00    -0.237 OA
ATOM     87  O   UNL A   1      49.035  37.573  28.667  1.00  0.00    -0.237 OA
ATOM     88  O   UNL A   1      47.267  37.931  30.343  1.00  0.00    -0.744 OA
ENDBRANCH  84  85
ENDBRANCH  52  77
BRANCH  64  89
ATOM     89  C   UNL A   1      49.587  27.389  25.860  1.00  0.00     0.058 A 
ATOM     90  C   UNL A   1      49.767  27.443  24.469  1.00  0.00     0.135 A 
ATOM     91  C   UNL A   1      50.718  27.141  26.656  1.00  0.00     0.135 A 
ATOM     92  F   UNL A   1      48.719  27.669  23.662  1.00  0.00    -0.206 F 
ATOM     93  C   UNL A   1      51.015  27.240  23.888  1.00  0.00     0.059 A 
ATOM     94  C   UNL A   1      51.980  26.963  26.099  1.00  0.00     0.059 A 
ATOM     95  F   UNL A   1      50.605  27.089  27.994  1.00  0.00    -0.206 F 
ATOM     96  C   UNL A   1      52.117  27.003  24.712  1.00  0.00     0.060 A 
BRANCH  96  97
ATOM     97  S   UNL A   1      53.738  26.778  23.949  1.00  0.00     0.124 S 
ATOM     98  O   UNL A   1      54.568  27.666  24.756  1.00  0.00    -0.237 OA
ATOM     99  O   UNL A   1      53.975  25.350  24.131  1.00  0.00    -0.237 OA
ATOM    100  O   UNL A   1      53.525  27.201  22.568  1.00  0.00    -0.744 OA
ENDBRANCH  96  97
ENDBRANCH  64  89
ENDBRANCH  38  39
ENDBRANCH  30  33
ENDBRANCH  28  29
ENDBRANCH  27  28
ENDBRANCH  26  27
ENDBRANCH   1  26
TORSDOF 19
ENDMDL
