MODEL 1
REMARK VINA RESULT:     -12.8      0.000      0.000
REMARK SMILES O=C(NCCCCCCNC(=O)c1cc2c(Cl)c(C(F)(F)F)cnc2n1S(=O)(=O)c1ccccc1)c1ccc(-c2c3nc(c(-c4c(F)cc(S(=O)(=O)[O-])cc4F)c4ccc([nH]4)c(-c4c(F)cc(S(=O)(=O)[O-])cc4F)c4nc(c(-c5c(F)cc(S(=O)(=O)[O-])cc5F)c5ccc2[nH]5)C=C4)C=C3)cc1
REMARK SMILES IDX 6 1 5 2 4 3 3 4 1 5 2 6 36 8 37 9 101 10 38 11 100 12 39 13
REMARK SMILES IDX 40 14 41 15 94 16 42 17 99 18 93 19 95 20 43 21 98 22 92 23
REMARK SMILES IDX 91 24 44 26 78 27 57 28 77 29 58 30 61 31 76 32 96 33 59 34
REMARK SMILES IDX 60 35 75 37 97 38 62 39 45 40 46 41 55 42 47 43 48 44 54 45
REMARK SMILES IDX 56 46 49 47 50 48 51 49 52 50 53 51 79 52 80 53 89 54 81 55
REMARK SMILES IDX 82 56 88 57 90 58 83 59 84 60 85 61 86 62 87 63 63 64 64 65
REMARK SMILES IDX 73 66 65 67 66 68 72 69 74 70 67 71 68 72 69 73 70 74 71 75
REMARK SMILES IDX 7 76 8 77 9 78 10 79 11 80 12 82 13 83 14 84 26 85 15 86
REMARK SMILES IDX 25 87 16 88 24 89 17 90 18 91 23 92 27 93 28 94 29 95 30 96
REMARK SMILES IDX 31 97 35 98 32 99 34 100 33 101 19 102 20 103 21 104 22 105
REMARK H PARENT 3 7 95 25 61 36 10 81
REMARK Flexibility Score: inf
ROOT
ATOM      1  C   UNL A   1      40.470  21.820  27.303  1.00  0.00     0.002 C 
ENDROOT
BRANCH   1   2
ATOM      2  C   UNL A   1      40.695  20.441  26.677  1.00  0.00     0.021 C 
BRANCH   2   3
ATOM      3  C   UNL A   1      42.102  19.869  26.819  1.00  0.00     0.116 C 
BRANCH   3   4
ATOM      4  N   UNL A   1      42.943  19.967  25.642  1.00  0.00    -0.352 N 
ATOM      5  O   UNL A   1      44.416  20.731  24.145  1.00  0.00    -0.269 OA
ATOM      6  C   UNL A   1      43.772  20.951  25.171  1.00  0.00     0.251 C 
ATOM      7  H   UNL A   1      42.912  19.168  25.068  1.00  0.00     0.163 HD
BRANCH   6   8
ATOM      8  C   UNL A   1      43.836  22.289  25.795  1.00  0.00     0.039 A 
ATOM      9  C   UNL A   1      44.493  22.550  26.997  1.00  0.00     0.014 A 
ATOM     10  C   UNL A   1      43.174  23.330  25.128  1.00  0.00     0.014 A 
ATOM     11  C   UNL A   1      44.330  23.777  27.625  1.00  0.00     0.010 A 
ATOM     12  C   UNL A   1      43.064  24.581  25.723  1.00  0.00     0.010 A 
ATOM     13  C   UNL A   1      43.580  24.778  27.006  1.00  0.00    -0.014 A 
BRANCH  13  14
ATOM     14  C   UNL A   1      43.397  26.035  27.732  1.00  0.00     0.031 A 
ATOM     15  C   UNL A   1      44.427  27.098  27.516  1.00  0.00     0.074 A 
ATOM     16  C   UNL A   1      42.288  26.294  28.450  1.00  0.00     0.049 A 
ATOM     17  N   UNL A   1      45.126  27.756  28.388  1.00  0.00    -0.248 NA
ATOM     18  C   UNL A   1      44.746  27.434  26.118  1.00  0.00     0.031 C 
ATOM     19  C   UNL A   1      41.047  25.513  28.511  1.00  0.00     0.029 A 
ATOM     20  N   UNL A   1      41.991  27.406  29.178  1.00  0.00    -0.354 N 
ATOM     21  C   UNL A   1      45.868  28.691  27.665  1.00  0.00     0.074 A 
ATOM     22  C   UNL A   1      45.660  28.392  26.269  1.00  0.00     0.031 C 
ATOM     23  C   UNL A   1      40.067  26.288  29.020  1.00  0.00     0.029 A 
ATOM     24  C   UNL A   1      40.637  27.559  29.434  1.00  0.00     0.049 A 
ATOM     25  H   UNL A   1      42.673  28.041  29.494  1.00  0.00     0.167 HD
ATOM     26  C   UNL A   1      46.515  29.751  28.226  1.00  0.00     0.037 A 
ATOM     27  C   UNL A   1      40.022  28.696  29.835  1.00  0.00     0.037 A 
ATOM     28  C   UNL A   1      46.666  29.632  29.646  1.00  0.00     0.049 A 
ATOM     29  C   UNL A   1      41.053  29.588  30.425  1.00  0.00     0.074 A 
ATOM     30  C   UNL A   1      47.352  28.776  30.483  1.00  0.00     0.029 A 
ATOM     31  N   UNL A   1      45.805  30.327  30.457  1.00  0.00    -0.354 N 
ATOM     32  N   UNL A   1      41.705  29.344  31.530  1.00  0.00    -0.248 NA
ATOM     33  C   UNL A   1      41.648  30.603  29.567  1.00  0.00     0.031 C 
ATOM     34  C   UNL A   1      46.541  28.661  31.649  1.00  0.00     0.029 A 
ATOM     35  C   UNL A   1      45.415  29.461  31.448  1.00  0.00     0.049 A 
ATOM     36  H   UNL A   1      45.521  31.263  30.348  1.00  0.00     0.167 HD
ATOM     37  C   UNL A   1      42.971  29.874  31.329  1.00  0.00     0.074 A 
ATOM     38  C   UNL A   1      42.842  30.725  30.151  1.00  0.00     0.031 C 
ATOM     39  C   UNL A   1      44.068  29.374  31.971  1.00  0.00     0.037 A 
BRANCH  26  40
ATOM     40  C   UNL A   1      46.816  31.024  27.486  1.00  0.00     0.058 A 
ATOM     41  C   UNL A   1      48.140  31.429  27.242  1.00  0.00     0.135 A 
ATOM     42  C   UNL A   1      45.813  31.979  27.208  1.00  0.00     0.135 A 
ATOM     43  F   UNL A   1      49.165  30.604  27.507  1.00  0.00    -0.206 F 
ATOM     44  C   UNL A   1      48.449  32.705  26.766  1.00  0.00     0.059 A 
ATOM     45  C   UNL A   1      46.093  33.238  26.689  1.00  0.00     0.059 A 
ATOM     46  F   UNL A   1      44.527  31.742  27.506  1.00  0.00    -0.206 F 
ATOM     47  C   UNL A   1      47.418  33.605  26.501  1.00  0.00     0.060 A 
BRANCH  47  48
ATOM     48  S   UNL A   1      47.821  35.281  25.969  1.00  0.00     0.124 S 
ATOM     49  O   UNL A   1      48.478  35.814  27.157  1.00  0.00    -0.237 OA
ATOM     50  O   UNL A   1      48.684  35.038  24.818  1.00  0.00    -0.237 OA
ATOM     51  O   UNL A   1      46.517  35.856  25.656  1.00  0.00    -0.744 OA
ENDBRANCH  47  48
ENDBRANCH  26  40
BRANCH  27  52
ATOM     52  C   UNL A   1      38.700  29.187  29.368  1.00  0.00     0.058 A 
ATOM     53  C   UNL A   1      37.681  29.511  30.277  1.00  0.00     0.135 A 
ATOM     54  C   UNL A   1      38.496  29.594  28.031  1.00  0.00     0.135 A 
ATOM     55  F   UNL A   1      37.811  29.197  31.575  1.00  0.00    -0.206 F 
ATOM     56  C   UNL A   1      36.541  30.223  29.891  1.00  0.00     0.059 A 
ATOM     57  C   UNL A   1      37.360  30.284  27.620  1.00  0.00     0.059 A 
ATOM     58  F   UNL A   1      39.441  29.413  27.097  1.00  0.00    -0.206 F 
ATOM     59  C   UNL A   1      36.397  30.618  28.562  1.00  0.00     0.060 A 
BRANCH  59  60
ATOM     60  S   UNL A   1      35.007  31.672  28.091  1.00  0.00     0.124 S 
ATOM     61  O   UNL A   1      35.684  32.811  27.482  1.00  0.00    -0.237 OA
ATOM     62  O   UNL A   1      34.265  30.807  27.180  1.00  0.00    -0.237 OA
ATOM     63  O   UNL A   1      34.344  31.949  29.363  1.00  0.00    -0.744 OA
ENDBRANCH  59  60
ENDBRANCH  27  52
BRANCH  39  64
ATOM     64  C   UNL A   1      43.848  28.419  33.116  1.00  0.00     0.058 A 
ATOM     65  C   UNL A   1      43.688  28.834  34.450  1.00  0.00     0.135 A 
ATOM     66  C   UNL A   1      43.622  27.062  32.837  1.00  0.00     0.135 A 
ATOM     67  F   UNL A   1      43.777  30.130  34.780  1.00  0.00    -0.206 F 
ATOM     68  C   UNL A   1      43.355  27.938  35.466  1.00  0.00     0.059 A 
ATOM     69  C   UNL A   1      43.260  26.155  33.832  1.00  0.00     0.059 A 
ATOM     70  F   UNL A   1      43.692  26.615  31.573  1.00  0.00    -0.206 F 
ATOM     71  C   UNL A   1      43.137  26.599  35.147  1.00  0.00     0.060 A 
BRANCH  71  72
ATOM     72  S   UNL A   1      42.600  25.465  36.448  1.00  0.00     0.124 S 
ATOM     73  O   UNL A   1      41.644  24.618  35.744  1.00  0.00    -0.237 OA
ATOM     74  O   UNL A   1      43.848  24.820  36.844  1.00  0.00    -0.237 OA
ATOM     75  O   UNL A   1      42.025  26.351  37.458  1.00  0.00    -0.744 OA
ENDBRANCH  71  72
ENDBRANCH  39  64
ENDBRANCH  13  14
ENDBRANCH   6   8
ENDBRANCH   3   4
ENDBRANCH   2   3
ENDBRANCH   1   2
BRANCH   1  76
ATOM     76  C   UNL A   1      39.767  22.873  26.433  1.00  0.00     0.002 C 
BRANCH  76  77
ATOM     77  C   UNL A   1      38.550  23.588  27.034  1.00  0.00     0.021 C 
BRANCH  77  78
ATOM     78  C   UNL A   1      37.490  24.026  26.035  1.00  0.00     0.116 C 
BRANCH  78  79
ATOM     79  N   UNL A   1      37.568  23.309  24.779  1.00  0.00    -0.351 N 
ATOM     80  C   UNL A   1      36.576  23.009  23.886  1.00  0.00     0.269 C 
ATOM     81  H   UNL A   1      38.466  22.992  24.531  1.00  0.00     0.163 HD
ATOM     82  O   UNL A   1      36.872  22.376  22.875  1.00  0.00    -0.268 OA
BRANCH  80  83
ATOM     83  C   UNL A   1      35.206  23.303  24.222  1.00  0.00     0.124 A 
ATOM     84  C   UNL A   1      34.587  24.537  24.069  1.00  0.00     0.047 A 
ATOM     85  N   UNL A   1      34.308  22.492  24.897  1.00  0.00    -0.211 N 
ATOM     86  C   UNL A   1      33.296  24.474  24.656  1.00  0.00     0.040 A 
ATOM     87  C   UNL A   1      33.159  23.192  25.186  1.00  0.00     0.156 A 
ATOM     88  C   UNL A   1      32.210  25.349  24.842  1.00  0.00     0.065 A 
ATOM     89  N   UNL A   1      32.077  22.743  25.845  1.00  0.00    -0.237 NA
ATOM     90  Cl  UNL A   1      32.426  26.928  24.217  1.00  0.00    -0.083 Cl
ATOM     91  C   UNL A   1      31.059  24.922  25.493  1.00  0.00     0.093 A 
ATOM     92  C   UNL A   1      31.061  23.621  25.965  1.00  0.00     0.128 A 
BRANCH  85  93
ATOM     93  S   UNL A   1      34.735  20.999  25.592  1.00  0.00     0.270 S 
ATOM     94  O   UNL A   1      36.164  20.917  25.437  1.00  0.00    -0.201 OA
ATOM     95  O   UNL A   1      34.104  21.056  26.906  1.00  0.00    -0.201 OA
BRANCH  93  96
ATOM     96  C   UNL A   1      34.053  19.655  24.670  1.00  0.00     0.088 A 
ATOM     97  C   UNL A   1      34.784  18.469  24.561  1.00  0.00     0.022 A 
ATOM     98  C   UNL A   1      32.850  19.815  23.969  1.00  0.00     0.022 A 
ATOM     99  C   UNL A   1      34.290  17.425  23.784  1.00  0.00     0.001 A 
ATOM    100  C   UNL A   1      32.350  18.753  23.213  1.00  0.00     0.001 A 
ATOM    101  C   UNL A   1      33.069  17.561  23.122  1.00  0.00     0.000 A 
ENDBRANCH  93  96
ENDBRANCH  85  93
BRANCH  91 102
ATOM    102  C   UNL A   1      29.869  25.795  25.694  1.00  0.00     0.419 C 
ATOM    103  F   UNL A   1      29.193  26.049  24.541  1.00  0.00    -0.166 F 
ATOM    104  F   UNL A   1      28.962  25.269  26.561  1.00  0.00    -0.166 F 
ATOM    105  F   UNL A   1      30.182  27.021  26.206  1.00  0.00    -0.166 F 
ENDBRANCH  91 102
ENDBRANCH  80  83
ENDBRANCH  78  79
ENDBRANCH  77  78
ENDBRANCH  76  77
ENDBRANCH   1  76
TORSDOF 19
ENDMDL
MODEL 2
REMARK VINA RESULT:     -12.1      3.155      9.476
REMARK SMILES O=C(NCCCCCCNC(=O)c1cc2c(Cl)c(C(F)(F)F)cnc2n1S(=O)(=O)c1ccccc1)c1ccc(-c2c3nc(c(-c4c(F)cc(S(=O)(=O)[O-])cc4F)c4ccc([nH]4)c(-c4c(F)cc(S(=O)(=O)[O-])cc4F)c4nc(c(-c5c(F)cc(S(=O)(=O)[O-])cc5F)c5ccc2[nH]5)C=C4)C=C3)cc1
REMARK SMILES IDX 6 1 5 2 4 3 3 4 1 5 2 6 36 8 37 9 101 10 38 11 100 12 39 13
REMARK SMILES IDX 40 14 41 15 94 16 42 17 99 18 93 19 95 20 43 21 98 22 92 23
REMARK SMILES IDX 91 24 44 26 78 27 57 28 77 29 58 30 61 31 76 32 96 33 59 34
REMARK SMILES IDX 60 35 75 37 97 38 62 39 45 40 46 41 55 42 47 43 48 44 54 45
REMARK SMILES IDX 56 46 49 47 50 48 51 49 52 50 53 51 79 52 80 53 89 54 81 55
REMARK SMILES IDX 82 56 88 57 90 58 83 59 84 60 85 61 86 62 87 63 63 64 64 65
REMARK SMILES IDX 73 66 65 67 66 68 72 69 74 70 67 71 68 72 69 73 70 74 71 75
REMARK SMILES IDX 7 76 8 77 9 78 10 79 11 80 12 82 13 83 14 84 26 85 15 86
REMARK SMILES IDX 25 87 16 88 24 89 17 90 18 91 23 92 27 93 28 94 29 95 30 96
REMARK SMILES IDX 31 97 35 98 32 99 34 100 33 101 19 102 20 103 21 104 22 105
REMARK H PARENT 3 7 95 25 61 36 10 81
REMARK Flexibility Score: inf
ROOT
ATOM      1  C   UNL A   1      35.584  32.335  27.904  1.00  0.00     0.002 C 
ENDROOT
BRANCH   1   2
ATOM      2  C   UNL A   1      34.347  32.390  28.806  1.00  0.00     0.021 C 
BRANCH   2   3
ATOM      3  C   UNL A   1      34.191  33.656  29.643  1.00  0.00     0.116 C 
BRANCH   3   4
ATOM      4  N   UNL A   1      34.114  33.455  31.077  1.00  0.00    -0.352 N 
ATOM      5  O   UNL A   1      34.648  32.886  33.171  1.00  0.00    -0.269 OA
ATOM      6  C   UNL A   1      34.957  32.863  31.980  1.00  0.00     0.251 C 
ATOM      7  H   UNL A   1      33.293  33.818  31.482  1.00  0.00     0.163 HD
BRANCH   6   8
ATOM      8  C   UNL A   1      36.161  32.116  31.557  1.00  0.00     0.039 A 
ATOM      9  C   UNL A   1      36.259  30.726  31.592  1.00  0.00     0.014 A 
ATOM     10  C   UNL A   1      37.254  32.877  31.118  1.00  0.00     0.014 A 
ATOM     11  C   UNL A   1      37.486  30.112  31.384  1.00  0.00     0.010 A 
ATOM     12  C   UNL A   1      38.468  32.259  30.844  1.00  0.00     0.010 A 
ATOM     13  C   UNL A   1      38.600  30.883  31.051  1.00  0.00    -0.014 A 
BRANCH  13  14
ATOM     14  C   UNL A   1      39.879  30.193  30.891  1.00  0.00     0.031 A 
ATOM     15  C   UNL A   1      40.701  29.994  32.125  1.00  0.00     0.074 A 
ATOM     16  C   UNL A   1      40.250  29.628  29.726  1.00  0.00     0.049 A 
ATOM     17  N   UNL A   1      41.939  30.307  32.350  1.00  0.00    -0.248 NA
ATOM     18  C   UNL A   1      40.016  29.399  33.285  1.00  0.00     0.031 C 
ATOM     19  C   UNL A   1      39.444  29.444  28.514  1.00  0.00     0.029 A 
ATOM     20  N   UNL A   1      41.406  28.970  29.433  1.00  0.00    -0.354 N 
ATOM     21  C   UNL A   1      42.238  29.822  33.623  1.00  0.00     0.074 A 
ATOM     22  C   UNL A   1      40.997  29.350  34.186  1.00  0.00     0.031 C 
ATOM     23  C   UNL A   1      40.037  28.518  27.731  1.00  0.00     0.029 A 
ATOM     24  C   UNL A   1      41.312  28.148  28.321  1.00  0.00     0.049 A 
ATOM     25  H   UNL A   1      42.230  29.068  29.961  1.00  0.00     0.167 HD
ATOM     26  C   UNL A   1      43.503  29.703  34.118  1.00  0.00     0.037 A 
ATOM     27  C   UNL A   1      42.164  27.150  27.989  1.00  0.00     0.037 A 
ATOM     28  C   UNL A   1      44.474  30.440  33.365  1.00  0.00     0.049 A 
ATOM     29  C   UNL A   1      43.447  27.390  28.701  1.00  0.00     0.074 A 
ATOM     30  C   UNL A   1      44.702  31.779  33.117  1.00  0.00     0.029 A 
ATOM     31  N   UNL A   1      45.262  29.762  32.469  1.00  0.00    -0.354 N 
ATOM     32  N   UNL A   1      44.251  28.391  28.466  1.00  0.00    -0.248 NA
ATOM     33  C   UNL A   1      43.660  26.708  29.968  1.00  0.00     0.031 C 
ATOM     34  C   UNL A   1      45.230  31.831  31.795  1.00  0.00     0.029 A 
ATOM     35  C   UNL A   1      45.295  30.518  31.325  1.00  0.00     0.049 A 
ATOM     36  H   UNL A   1      45.713  28.900  32.619  1.00  0.00     0.167 HD
ATOM     37  C   UNL A   1      44.803  28.710  29.699  1.00  0.00     0.074 A 
ATOM     38  C   UNL A   1      44.484  27.576  30.560  1.00  0.00     0.031 C 
ATOM     39  C   UNL A   1      45.236  29.973  29.985  1.00  0.00     0.037 A 
BRANCH  26  40
ATOM     40  C   UNL A   1      43.887  28.711  35.179  1.00  0.00     0.058 A 
ATOM     41  C   UNL A   1      44.376  29.133  36.427  1.00  0.00     0.135 A 
ATOM     42  C   UNL A   1      43.997  27.330  34.903  1.00  0.00     0.135 A 
ATOM     43  F   UNL A   1      44.346  30.432  36.768  1.00  0.00    -0.206 F 
ATOM     44  C   UNL A   1      44.950  28.244  37.338  1.00  0.00     0.059 A 
ATOM     45  C   UNL A   1      44.523  26.420  35.813  1.00  0.00     0.059 A 
ATOM     46  F   UNL A   1      43.666  26.833  33.702  1.00  0.00    -0.206 F 
ATOM     47  C   UNL A   1      45.027  26.890  37.017  1.00  0.00     0.060 A 
BRANCH  47  48
ATOM     48  S   UNL A   1      45.847  25.755  38.154  1.00  0.00     0.124 S 
ATOM     49  O   UNL A   1      46.947  26.578  38.644  1.00  0.00    -0.237 OA
ATOM     50  O   UNL A   1      44.788  25.467  39.117  1.00  0.00    -0.237 OA
ATOM     51  O   UNL A   1      46.226  24.637  37.297  1.00  0.00    -0.744 OA
ENDBRANCH  47  48
ENDBRANCH  26  40
BRANCH  27  52
ATOM     52  C   UNL A   1      41.786  25.827  27.429  1.00  0.00     0.058 A 
ATOM     53  C   UNL A   1      42.559  25.210  26.434  1.00  0.00     0.135 A 
ATOM     54  C   UNL A   1      40.802  25.022  28.043  1.00  0.00     0.135 A 
ATOM     55  F   UNL A   1      43.542  25.891  25.826  1.00  0.00    -0.206 F 
ATOM     56  C   UNL A   1      42.387  23.866  26.087  1.00  0.00     0.059 A 
ATOM     57  C   UNL A   1      40.599  23.689  27.700  1.00  0.00     0.059 A 
ATOM     58  F   UNL A   1      40.065  25.481  29.066  1.00  0.00    -0.206 F 
ATOM     59  C   UNL A   1      41.413  23.110  26.738  1.00  0.00     0.060 A 
BRANCH  59  60
ATOM     60  S   UNL A   1      41.295  21.338  26.407  1.00  0.00     0.124 S 
ATOM     61  O   UNL A   1      39.934  21.217  25.894  1.00  0.00    -0.237 OA
ATOM     62  O   UNL A   1      42.364  21.137  25.435  1.00  0.00    -0.237 OA
ATOM     63  O   UNL A   1      41.522  20.730  27.716  1.00  0.00    -0.744 OA
ENDBRANCH  59  60
ENDBRANCH  27  52
BRANCH  39  64
ATOM     64  C   UNL A   1      45.368  30.955  28.850  1.00  0.00     0.058 A 
ATOM     65  C   UNL A   1      44.294  31.718  28.358  1.00  0.00     0.135 A 
ATOM     66  C   UNL A   1      46.647  31.260  28.359  1.00  0.00     0.135 A 
ATOM     67  F   UNL A   1      43.060  31.566  28.857  1.00  0.00    -0.206 F 
ATOM     68  C   UNL A   1      44.476  32.713  27.397  1.00  0.00     0.059 A 
ATOM     69  C   UNL A   1      46.856  32.269  27.420  1.00  0.00     0.059 A 
ATOM     70  F   UNL A   1      47.722  30.613  28.838  1.00  0.00    -0.206 F 
ATOM     71  C   UNL A   1      45.763  32.987  26.937  1.00  0.00     0.060 A 
BRANCH  71  72
ATOM     72  S   UNL A   1      46.006  34.349  25.774  1.00  0.00     0.124 S 
ATOM     73  O   UNL A   1      45.107  33.987  24.684  1.00  0.00    -0.237 OA
ATOM     74  O   UNL A   1      45.612  35.514  26.561  1.00  0.00    -0.237 OA
ATOM     75  O   UNL A   1      47.430  34.279  25.458  1.00  0.00    -0.744 OA
ENDBRANCH  71  72
ENDBRANCH  39  64
ENDBRANCH  13  14
ENDBRANCH   6   8
ENDBRANCH   3   4
ENDBRANCH   2   3
ENDBRANCH   1   2
BRANCH   1  76
ATOM     76  C   UNL A   1      36.228  30.958  27.688  1.00  0.00     0.002 C 
BRANCH  76  77
ATOM     77  C   UNL A   1      35.511  29.741  28.288  1.00  0.00     0.021 C 
BRANCH  77  78
ATOM     78  C   UNL A   1      34.546  29.026  27.355  1.00  0.00     0.116 C 
BRANCH  78  79
ATOM     79  N   UNL A   1      33.168  29.112  27.792  1.00  0.00    -0.351 N 
ATOM     80  C   UNL A   1      32.081  28.388  27.389  1.00  0.00     0.269 C 
ATOM     81  H   UNL A   1      32.987  29.792  28.481  1.00  0.00     0.163 HD
ATOM     82  O   UNL A   1      30.990  28.639  27.897  1.00  0.00    -0.268 OA
BRANCH  80  83
ATOM     83  C   UNL A   1      32.210  27.468  26.287  1.00  0.00     0.124 A 
ATOM     84  C   UNL A   1      32.673  26.162  26.378  1.00  0.00     0.047 A 
ATOM     85  N   UNL A   1      32.062  27.741  24.936  1.00  0.00    -0.211 N 
ATOM     86  C   UNL A   1      32.806  25.634  25.067  1.00  0.00     0.040 A 
ATOM     87  C   UNL A   1      32.441  26.651  24.187  1.00  0.00     0.156 A 
ATOM     88  C   UNL A   1      33.221  24.421  24.487  1.00  0.00     0.065 A 
ATOM     89  N   UNL A   1      32.452  26.550  22.846  1.00  0.00    -0.237 NA
ATOM     90  Cl  UNL A   1      33.703  23.207  25.593  1.00  0.00    -0.083 Cl
ATOM     91  C   UNL A   1      33.222  24.260  23.107  1.00  0.00     0.093 A 
ATOM     92  C   UNL A   1      32.832  25.354  22.355  1.00  0.00     0.128 A 
BRANCH  85  93
ATOM     93  S   UNL A   1      31.828  29.309  24.319  1.00  0.00     0.270 S 
ATOM     94  O   UNL A   1      32.075  30.184  25.436  1.00  0.00    -0.201 OA
ATOM     95  O   UNL A   1      32.671  29.322  23.129  1.00  0.00    -0.201 OA
BRANCH  93  96
ATOM     96  C   UNL A   1      30.143  29.558  23.850  1.00  0.00     0.088 A 
ATOM     97  C   UNL A   1      29.431  28.493  23.293  1.00  0.00     0.022 A 
ATOM     98  C   UNL A   1      29.565  30.832  23.934  1.00  0.00     0.022 A 
ATOM     99  C   UNL A   1      28.123  28.691  22.858  1.00  0.00     0.001 A 
ATOM    100  C   UNL A   1      28.245  31.016  23.518  1.00  0.00     0.001 A 
ATOM    101  C   UNL A   1      27.526  29.946  22.983  1.00  0.00     0.000 A 
ENDBRANCH  93  96
ENDBRANCH  85  93
BRANCH  91 102
ATOM    102  C   UNL A   1      33.625  22.991  22.439  1.00  0.00     0.419 C 
ATOM    103  F   UNL A   1      33.000  21.896  22.953  1.00  0.00    -0.166 F 
ATOM    104  F   UNL A   1      33.365  22.985  21.103  1.00  0.00    -0.166 F 
ATOM    105  F   UNL A   1      34.959  22.727  22.543  1.00  0.00    -0.166 F 
ENDBRANCH  91 102
ENDBRANCH  80  83
ENDBRANCH  78  79
ENDBRANCH  77  78
ENDBRANCH  76  77
ENDBRANCH   1  76
TORSDOF 19
ENDMDL
MODEL 3
REMARK VINA RESULT:     -12.0      1.941      2.724
REMARK SMILES O=C(NCCCCCCNC(=O)c1cc2c(Cl)c(C(F)(F)F)cnc2n1S(=O)(=O)c1ccccc1)c1ccc(-c2c3nc(c(-c4c(F)cc(S(=O)(=O)[O-])cc4F)c4ccc([nH]4)c(-c4c(F)cc(S(=O)(=O)[O-])cc4F)c4nc(c(-c5c(F)cc(S(=O)(=O)[O-])cc5F)c5ccc2[nH]5)C=C4)C=C3)cc1
REMARK SMILES IDX 6 1 5 2 4 3 3 4 1 5 2 6 36 8 37 9 101 10 38 11 100 12 39 13
REMARK SMILES IDX 40 14 41 15 94 16 42 17 99 18 93 19 95 20 43 21 98 22 92 23
REMARK SMILES IDX 91 24 44 26 78 27 57 28 77 29 58 30 61 31 76 32 96 33 59 34
REMARK SMILES IDX 60 35 75 37 97 38 62 39 45 40 46 41 55 42 47 43 48 44 54 45
REMARK SMILES IDX 56 46 49 47 50 48 51 49 52 50 53 51 79 52 80 53 89 54 81 55
REMARK SMILES IDX 82 56 88 57 90 58 83 59 84 60 85 61 86 62 87 63 63 64 64 65
REMARK SMILES IDX 73 66 65 67 66 68 72 69 74 70 67 71 68 72 69 73 70 74 71 75
REMARK SMILES IDX 7 76 8 77 9 78 10 79 11 80 12 82 13 83 14 84 26 85 15 86
REMARK SMILES IDX 25 87 16 88 24 89 17 90 18 91 23 92 27 93 28 94 29 95 30 96
REMARK SMILES IDX 31 97 35 98 32 99 34 100 33 101 19 102 20 103 21 104 22 105
REMARK H PARENT 3 7 95 25 61 36 10 81
REMARK Flexibility Score: inf
ROOT
ATOM      1  C   UNL A   1      39.353  23.437  26.962  1.00  0.00     0.002 C 
ENDROOT
BRANCH   1   2
ATOM      2  C   UNL A   1      39.728  22.066  26.391  1.00  0.00     0.021 C 
BRANCH   2   3
ATOM      3  C   UNL A   1      41.178  21.636  26.590  1.00  0.00     0.116 C 
BRANCH   3   4
ATOM      4  N   UNL A   1      42.068  21.894  25.474  1.00  0.00    -0.352 N 
ATOM      5  O   UNL A   1      43.584  22.864  24.151  1.00  0.00    -0.269 OA
ATOM      6  C   UNL A   1      42.888  22.946  25.163  1.00  0.00     0.251 C 
ATOM      7  H   UNL A   1      42.088  21.167  24.811  1.00  0.00     0.163 HD
BRANCH   6   8
ATOM      8  C   UNL A   1      42.883  24.203  25.941  1.00  0.00     0.039 A 
ATOM      9  C   UNL A   1      43.570  24.369  27.143  1.00  0.00     0.014 A 
ATOM     10  C   UNL A   1      42.122  25.261  25.426  1.00  0.00     0.014 A 
ATOM     11  C   UNL A   1      43.346  25.498  27.919  1.00  0.00     0.010 A 
ATOM     12  C   UNL A   1      41.948  26.422  26.170  1.00  0.00     0.010 A 
ATOM     13  C   UNL A   1      42.502  26.506  27.450  1.00  0.00    -0.014 A 
BRANCH  13  14
ATOM     14  C   UNL A   1      42.261  27.651  28.328  1.00  0.00     0.031 A 
ATOM     15  C   UNL A   1      43.316  28.711  28.363  1.00  0.00     0.074 A 
ATOM     16  C   UNL A   1      41.090  27.831  28.968  1.00  0.00     0.049 A 
ATOM     17  N   UNL A   1      43.934  29.223  29.382  1.00  0.00    -0.248 NA
ATOM     18  C   UNL A   1      43.771  29.234  27.065  1.00  0.00     0.031 C 
ATOM     19  C   UNL A   1      39.842  27.077  28.799  1.00  0.00     0.029 A 
ATOM     20  N   UNL A   1      40.734  28.835  29.816  1.00  0.00    -0.354 N 
ATOM     21  C   UNL A   1      44.750  30.234  28.874  1.00  0.00     0.074 A 
ATOM     22  C   UNL A   1      44.676  30.139  27.437  1.00  0.00     0.031 C 
ATOM     23  C   UNL A   1      38.824  27.795  29.319  1.00  0.00     0.029 A 
ATOM     24  C   UNL A   1      39.364  28.981  29.962  1.00  0.00     0.049 A 
ATOM     25  H   UNL A   1      41.388  29.404  30.282  1.00  0.00     0.167 HD
ATOM     26  C   UNL A   1      45.350  31.189  29.639  1.00  0.00     0.037 A 
ATOM     27  C   UNL A   1      38.723  30.063  30.462  1.00  0.00     0.037 A 
ATOM     28  C   UNL A   1      45.362  30.867  31.035  1.00  0.00     0.049 A 
ATOM     29  C   UNL A   1      39.700  30.840  31.268  1.00  0.00     0.074 A 
ATOM     30  C   UNL A   1      45.956  29.885  31.803  1.00  0.00     0.029 A 
ATOM     31  N   UNL A   1      44.432  31.459  31.853  1.00  0.00    -0.354 N 
ATOM     32  N   UNL A   1      40.239  30.427  32.383  1.00  0.00    -0.248 NA
ATOM     33  C   UNL A   1      40.384  31.952  30.623  1.00  0.00     0.031 C 
ATOM     34  C   UNL A   1      45.035  29.626  32.859  1.00  0.00     0.029 A 
ATOM     35  C   UNL A   1      43.941  30.471  32.669  1.00  0.00     0.049 A 
ATOM     36  H   UNL A   1      44.169  32.408  31.852  1.00  0.00     0.167 HD
ATOM     37  C   UNL A   1      41.524  30.952  32.379  1.00  0.00     0.074 A 
ATOM     38  C   UNL A   1      41.517  31.963  31.329  1.00  0.00     0.031 C 
ATOM     39  C   UNL A   1      42.549  30.341  33.044  1.00  0.00     0.037 A 
BRANCH  26  40
ATOM     40  C   UNL A   1      45.732  32.547  29.121  1.00  0.00     0.058 A 
ATOM     41  C   UNL A   1      44.753  33.494  28.774  1.00  0.00     0.135 A 
ATOM     42  C   UNL A   1      47.057  32.854  28.740  1.00  0.00     0.135 A 
ATOM     43  F   UNL A   1      43.460  33.277  29.063  1.00  0.00    -0.206 F 
ATOM     44  C   UNL A   1      45.068  34.666  28.082  1.00  0.00     0.059 A 
ATOM     45  C   UNL A   1      47.400  34.034  28.092  1.00  0.00     0.059 A 
ATOM     46  F   UNL A   1      48.053  31.974  28.921  1.00  0.00    -0.206 F 
ATOM     47  C   UNL A   1      46.394  34.922  27.737  1.00  0.00     0.060 A 
BRANCH  47  48
ATOM     48  S   UNL A   1      46.790  36.390  26.767  1.00  0.00     0.124 S 
ATOM     49  O   UNL A   1      45.459  36.898  26.453  1.00  0.00    -0.237 OA
ATOM     50  O   UNL A   1      47.568  37.183  27.715  1.00  0.00    -0.237 OA
ATOM     51  O   UNL A   1      47.545  35.855  25.640  1.00  0.00    -0.744 OA
ENDBRANCH  47  48
ENDBRANCH  26  40
BRANCH  27  52
ATOM     52  C   UNL A   1      37.456  30.645  29.947  1.00  0.00     0.058 A 
ATOM     53  C   UNL A   1      36.497  31.185  30.817  1.00  0.00     0.135 A 
ATOM     54  C   UNL A   1      37.276  30.918  28.573  1.00  0.00     0.135 A 
ATOM     55  F   UNL A   1      36.613  31.007  32.142  1.00  0.00    -0.206 F 
ATOM     56  C   UNL A   1      35.437  31.973  30.357  1.00  0.00     0.059 A 
ATOM     57  C   UNL A   1      36.218  31.682  28.090  1.00  0.00     0.059 A 
ATOM     58  F   UNL A   1      38.178  30.526  27.661  1.00  0.00    -0.206 F 
ATOM     59  C   UNL A   1      35.316  32.228  28.991  1.00  0.00     0.060 A 
BRANCH  59  60
ATOM     60  S   UNL A   1      34.045  33.372  28.409  1.00  0.00     0.124 S 
ATOM     61  O   UNL A   1      34.812  34.259  27.541  1.00  0.00    -0.237 OA
ATOM     62  O   UNL A   1      33.110  32.474  27.739  1.00  0.00    -0.237 OA
ATOM     63  O   UNL A   1      33.547  33.983  29.639  1.00  0.00    -0.744 OA
ENDBRANCH  59  60
ENDBRANCH  27  52
BRANCH  39  64
ATOM     64  C   UNL A   1      42.212  29.239  34.015  1.00  0.00     0.058 A 
ATOM     65  C   UNL A   1      42.127  27.884  33.649  1.00  0.00     0.135 A 
ATOM     66  C   UNL A   1      42.141  29.537  35.384  1.00  0.00     0.135 A 
ATOM     67  F   UNL A   1      42.297  27.506  32.374  1.00  0.00    -0.206 F 
ATOM     68  C   UNL A   1      41.944  26.875  34.595  1.00  0.00     0.059 A 
ATOM     69  C   UNL A   1      41.987  28.542  36.349  1.00  0.00     0.059 A 
ATOM     70  F   UNL A   1      42.284  30.804  35.805  1.00  0.00    -0.206 F 
ATOM     71  C   UNL A   1      41.881  27.212  35.946  1.00  0.00     0.060 A 
BRANCH  71  72
ATOM     72  S   UNL A   1      41.753  25.892  37.173  1.00  0.00     0.124 S 
ATOM     73  O   UNL A   1      42.013  24.701  36.373  1.00  0.00    -0.237 OA
ATOM     74  O   UNL A   1      42.791  26.249  38.135  1.00  0.00    -0.237 OA
ATOM     75  O   UNL A   1      40.387  26.022  37.674  1.00  0.00    -0.744 OA
ENDBRANCH  71  72
ENDBRANCH  39  64
ENDBRANCH  13  14
ENDBRANCH   6   8
ENDBRANCH   3   4
ENDBRANCH   2   3
ENDBRANCH   1   2
BRANCH   1  76
ATOM     76  C   UNL A   1      38.105  24.116  26.381  1.00  0.00     0.002 C 
BRANCH  76  77
ATOM     77  C   UNL A   1      37.616  23.640  25.006  1.00  0.00     0.021 C 
BRANCH  77  78
ATOM     78  C   UNL A   1      36.320  22.844  25.015  1.00  0.00     0.116 C 
BRANCH  78  79
ATOM     79  N   UNL A   1      35.782  22.652  26.346  1.00  0.00    -0.351 N 
ATOM     80  C   UNL A   1      34.626  23.133  26.895  1.00  0.00     0.269 C 
ATOM     81  H   UNL A   1      36.330  22.094  26.944  1.00  0.00     0.163 HD
ATOM     82  O   UNL A   1      34.370  22.846  28.062  1.00  0.00    -0.268 OA
BRANCH  80  83
ATOM     83  C   UNL A   1      33.827  24.074  26.153  1.00  0.00     0.124 A 
ATOM     84  C   UNL A   1      34.177  25.391  25.881  1.00  0.00     0.047 A 
ATOM     85  N   UNL A   1      32.520  23.917  25.719  1.00  0.00    -0.211 N 
ATOM     86  C   UNL A   1      33.071  26.039  25.272  1.00  0.00     0.040 A 
ATOM     87  C   UNL A   1      32.043  25.101  25.207  1.00  0.00     0.156 A 
ATOM     88  C   UNL A   1      32.778  27.326  24.782  1.00  0.00     0.065 A 
ATOM     89  N   UNL A   1      30.816  25.336  24.709  1.00  0.00    -0.237 NA
ATOM     90  Cl  UNL A   1      34.047  28.467  24.917  1.00  0.00    -0.083 Cl
ATOM     91  C   UNL A   1      31.534  27.609  24.234  1.00  0.00     0.093 A 
ATOM     92  C   UNL A   1      30.609  26.579  24.231  1.00  0.00     0.128 A 
BRANCH  85  93
ATOM     93  S   UNL A   1      31.554  22.576  26.127  1.00  0.00     0.270 S 
ATOM     94  O   UNL A   1      31.760  22.392  27.540  1.00  0.00    -0.201 OA
ATOM     95  O   UNL A   1      30.250  22.932  25.578  1.00  0.00    -0.201 OA
BRANCH  93  96
ATOM     96  C   UNL A   1      32.144  21.109  25.339  1.00  0.00     0.088 A 
ATOM     97  C   UNL A   1      32.755  20.122  26.116  1.00  0.00     0.022 A 
ATOM     98  C   UNL A   1      32.099  20.988  23.943  1.00  0.00     0.022 A 
ATOM     99  C   UNL A   1      33.283  18.990  25.501  1.00  0.00     0.001 A 
ATOM    100  C   UNL A   1      32.608  19.838  23.338  1.00  0.00     0.001 A 
ATOM    101  C   UNL A   1      33.198  18.842  24.116  1.00  0.00     0.000 A 
ENDBRANCH  93  96
ENDBRANCH  85  93
BRANCH  91 102
ATOM    102  C   UNL A   1      31.178  28.943  23.676  1.00  0.00     0.419 C 
ATOM    103  F   UNL A   1      32.102  29.417  22.797  1.00  0.00    -0.166 F 
ATOM    104  F   UNL A   1      29.987  28.946  23.016  1.00  0.00    -0.166 F 
ATOM    105  F   UNL A   1      31.058  29.911  24.630  1.00  0.00    -0.166 F 
ENDBRANCH  91 102
ENDBRANCH  80  83
ENDBRANCH  78  79
ENDBRANCH  77  78
ENDBRANCH  76  77
ENDBRANCH   1  76
TORSDOF 19
ENDMDL
