MODEL 1
REMARK VINA RESULT:     -10.9      0.000      0.000
REMARK SMILES CN(C)c1oc(/C=N/c2ccc(O)c(C(=O)NCCCCCCNC(=O)c3ccc(-c4c5nc(c(-c6c(F)cc(S(=O)(=O)[O-])cc6F)c6ccc([nH]6)c(-c6c(F)cc(S(=O)(=O)[O-])cc6F)c6nc(c(-c7c(F)cc(S(=O)(=O)[O-])cc7F)c7ccc4[nH]7)C=C6)C=C5)cc3)c2)cc1Br
REMARK SMILES IDX 20 1 19 2 18 3 17 4 15 5 16 6 14 8 9 9 10 10 93 11 11 12
REMARK SMILES IDX 12 13 8 14 7 15 6 16 4 17 5 18 95 19 94 20 96 21 2 22 1 23
REMARK SMILES IDX 3 24 13 25 21 27 22 28 23 29 24 30 25 31 26 33 27 34 28 35
REMARK SMILES IDX 92 36 29 37 91 38 30 39 31 40 32 41 85 42 33 43 90 44 84 45
REMARK SMILES IDX 86 46 34 47 89 48 83 49 82 50 35 52 69 53 48 54 68 55 49 56
REMARK SMILES IDX 52 57 67 58 87 59 50 60 51 61 66 63 88 64 53 65 36 66 37 67
REMARK SMILES IDX 46 68 38 69 39 70 45 71 47 72 40 73 41 74 42 75 43 76 44 77
REMARK SMILES IDX 70 78 71 79 80 80 72 81 73 82 79 83 81 84 74 85 75 86 76 87
REMARK SMILES IDX 77 88 78 89 54 90 55 91 64 92 56 93 57 94 63 95 65 96 58 97
REMARK SMILES IDX 59 98 60 99 61 100 62 101
REMARK H PARENT 17 7 13 26 24 32 86 51 52 62
REMARK Flexibility Score: inf
ROOT
ATOM      1  C   UNL A   1      33.340  32.035  27.571  1.00  0.00     0.002 C 
ENDROOT
BRANCH   1   2
ATOM      2  C   UNL A   1      33.836  30.604  27.331  1.00  0.00     0.021 C 
BRANCH   2   3
ATOM      3  C   UNL A   1      32.948  29.794  26.380  1.00  0.00     0.116 C 
BRANCH   3   4
ATOM      4  N   UNL A   1      33.612  29.627  25.104  1.00  0.00    -0.352 N 
ATOM      5  C   UNL A   1      33.332  28.867  24.001  1.00  0.00     0.255 C 
ATOM      6  O   UNL A   1      34.166  28.913  23.090  1.00  0.00    -0.269 OA
ATOM      7  H   UNL A   1      34.428  30.168  25.012  1.00  0.00     0.163 HD
BRANCH   5   8
ATOM      8  C   UNL A   1      32.084  28.072  23.780  1.00  0.00     0.083 A 
ATOM      9  C   UNL A   1      31.232  25.769  23.643  1.00  0.00     0.064 A 
ATOM     10  C   UNL A   1      29.935  26.259  23.502  1.00  0.00     0.032 A 
ATOM     11  C   UNL A   1      32.288  26.676  23.753  1.00  0.00     0.046 A 
ATOM     12  C   UNL A   1      29.701  27.633  23.530  1.00  0.00     0.049 A 
ATOM     13  C   UNL A   1      30.763  28.531  23.717  1.00  0.00     0.128 A 
BRANCH   9  14
ATOM     14  N   UNL A   1      31.486  24.416  23.884  1.00  0.00    -0.253 NA
ATOM     15  C   UNL A   1      32.059  23.692  22.983  1.00  0.00     0.158 C 
BRANCH  15  16
ATOM     16  C   UNL A   1      32.194  22.283  23.226  1.00  0.00     0.149 A 
ATOM     17  C   UNL A   1      32.659  20.489  24.430  1.00  0.00     0.210 A 
ATOM     18  O   UNL A   1      32.464  21.847  24.489  1.00  0.00    -0.438 OA
ATOM     19  C   UNL A   1      32.459  20.076  23.127  1.00  0.00     0.082 A 
ATOM     20  C   UNL A   1      32.149  21.211  22.358  1.00  0.00     0.070 A 
ATOM     21  Br  UNL A   1      32.528  18.357  22.379  1.00  0.00    -0.045 Br
BRANCH  17  22
ATOM     22  N   UNL A   1      33.016  19.879  25.589  1.00  0.00    -0.348 N 
ATOM     23  C   UNL A   1      32.902  18.442  25.747  1.00  0.00     0.146 C 
ATOM     24  C   UNL A   1      33.637  20.650  26.651  1.00  0.00     0.146 C 
ENDBRANCH  17  22
ENDBRANCH  15  16
ENDBRANCH   9  14
BRANCH  13  25
ATOM     25  O   UNL A   1      30.436  29.838  23.924  1.00  0.00    -0.507 OA
ATOM     26  H   UNL A   1      30.527  30.460  23.230  1.00  0.00     0.293 HD
ENDBRANCH  13  25
ENDBRANCH   5   8
ENDBRANCH   3   4
ENDBRANCH   2   3
ENDBRANCH   1   2
BRANCH   1  27
ATOM     27  C   UNL A   1      34.018  32.763  28.737  1.00  0.00     0.002 C 
BRANCH  27  28
ATOM     28  C   UNL A   1      35.390  33.372  28.425  1.00  0.00     0.021 C 
BRANCH  28  29
ATOM     29  C   UNL A   1      36.548  32.819  29.255  1.00  0.00     0.116 C 
BRANCH  29  30
ATOM     30  N   UNL A   1      36.109  31.790  30.179  1.00  0.00    -0.352 N 
ATOM     31  C   UNL A   1      36.656  30.563  30.460  1.00  0.00     0.251 C 
ATOM     32  H   UNL A   1      35.291  32.005  30.684  1.00  0.00     0.163 HD
ATOM     33  O   UNL A   1      36.010  29.748  31.111  1.00  0.00    -0.269 OA
BRANCH  31  34
ATOM     34  C   UNL A   1      38.013  30.210  29.977  1.00  0.00     0.039 A 
ATOM     35  C   UNL A   1      39.052  30.126  30.908  1.00  0.00     0.014 A 
ATOM     36  C   UNL A   1      38.280  30.023  28.617  1.00  0.00     0.014 A 
ATOM     37  C   UNL A   1      40.345  29.809  30.484  1.00  0.00     0.010 A 
ATOM     38  C   UNL A   1      39.561  29.654  28.200  1.00  0.00     0.010 A 
ATOM     39  C   UNL A   1      40.606  29.549  29.130  1.00  0.00    -0.014 A 
BRANCH  39  40
ATOM     40  C   UNL A   1      41.970  29.158  28.685  1.00  0.00     0.031 A 
ATOM     41  C   UNL A   1      42.264  27.743  28.268  1.00  0.00     0.074 A 
ATOM     42  C   UNL A   1      42.952  30.081  28.681  1.00  0.00     0.049 A 
ATOM     43  N   UNL A   1      43.392  27.221  27.856  1.00  0.00    -0.248 NA
ATOM     44  C   UNL A   1      41.152  26.781  28.340  1.00  0.00     0.031 C 
ATOM     45  C   UNL A   1      42.805  31.474  29.111  1.00  0.00     0.029 A 
ATOM     46  N   UNL A   1      44.267  29.989  28.303  1.00  0.00    -0.354 N 
ATOM     47  C   UNL A   1      43.130  25.877  27.623  1.00  0.00     0.074 A 
ATOM     48  C   UNL A   1      41.746  25.650  27.983  1.00  0.00     0.031 C 
ATOM     49  C   UNL A   1      43.977  32.110  28.950  1.00  0.00     0.029 A 
ATOM     50  C   UNL A   1      44.962  31.169  28.428  1.00  0.00     0.049 A 
ATOM     51  H   UNL A   1      44.676  29.156  27.973  1.00  0.00     0.167 HD
ATOM     52  C   UNL A   1      43.958  24.924  27.130  1.00  0.00     0.037 A 
ATOM     53  C   UNL A   1      46.247  31.460  28.147  1.00  0.00     0.037 A 
ATOM     54  C   UNL A   1      45.327  25.156  26.749  1.00  0.00     0.049 A 
ATOM     55  C   UNL A   1      47.137  30.390  27.579  1.00  0.00     0.074 A 
ATOM     56  C   UNL A   1      46.234  24.264  26.202  1.00  0.00     0.029 A 
ATOM     57  N   UNL A   1      45.987  26.370  26.866  1.00  0.00    -0.354 N 
ATOM     58  N   UNL A   1      46.854  29.136  27.321  1.00  0.00    -0.248 NA
ATOM     59  C   UNL A   1      48.517  30.778  27.256  1.00  0.00     0.031 C 
ATOM     60  C   UNL A   1      47.449  24.933  26.012  1.00  0.00     0.029 A 
ATOM     61  C   UNL A   1      47.290  26.249  26.410  1.00  0.00     0.049 A 
ATOM     62  H   UNL A   1      45.588  27.198  27.222  1.00  0.00     0.167 HD
ATOM     63  C   UNL A   1      48.016  28.590  26.787  1.00  0.00     0.074 A 
ATOM     64  C   UNL A   1      48.997  29.655  26.741  1.00  0.00     0.031 C 
ATOM     65  C   UNL A   1      48.253  27.320  26.374  1.00  0.00     0.037 A 
BRANCH  52  66
ATOM     66  C   UNL A   1      43.400  23.539  26.953  1.00  0.00     0.058 A 
ATOM     67  C   UNL A   1      43.007  23.066  25.690  1.00  0.00     0.135 A 
ATOM     68  C   UNL A   1      43.307  22.657  28.040  1.00  0.00     0.135 A 
ATOM     69  F   UNL A   1      43.061  23.875  24.620  1.00  0.00    -0.206 F 
ATOM     70  C   UNL A   1      42.527  21.773  25.515  1.00  0.00     0.059 A 
ATOM     71  C   UNL A   1      42.849  21.351  27.885  1.00  0.00     0.059 A 
ATOM     72  F   UNL A   1      43.669  23.059  29.269  1.00  0.00    -0.206 F 
ATOM     73  C   UNL A   1      42.452  20.922  26.618  1.00  0.00     0.060 A 
BRANCH  73  74
ATOM     74  S   UNL A   1      41.847  19.239  26.371  1.00  0.00     0.124 S 
ATOM     75  O   UNL A   1      40.442  19.479  26.055  1.00  0.00    -0.237 OA
ATOM     76  O   UNL A   1      42.675  18.768  25.265  1.00  0.00    -0.237 OA
ATOM     77  O   UNL A   1      42.100  18.595  27.657  1.00  0.00    -0.744 OA
ENDBRANCH  73  74
ENDBRANCH  52  66
BRANCH  53  78
ATOM     78  C   UNL A   1      46.767  32.833  28.375  1.00  0.00     0.058 A 
ATOM     79  C   UNL A   1      46.663  33.817  27.381  1.00  0.00     0.135 A 
ATOM     80  C   UNL A   1      47.388  33.184  29.583  1.00  0.00     0.135 A 
ATOM     81  F   UNL A   1      46.080  33.526  26.208  1.00  0.00    -0.206 F 
ATOM     82  C   UNL A   1      47.182  35.095  27.564  1.00  0.00     0.059 A 
ATOM     83  C   UNL A   1      47.896  34.462  29.798  1.00  0.00     0.059 A 
ATOM     84  F   UNL A   1      47.494  32.283  30.572  1.00  0.00    -0.206 F 
ATOM     85  C   UNL A   1      47.801  35.406  28.776  1.00  0.00     0.060 A 
BRANCH  85  86
ATOM     86  S   UNL A   1      48.449  37.073  29.022  1.00  0.00     0.124 S 
ATOM     87  O   UNL A   1      49.409  37.178  27.929  1.00  0.00    -0.237 OA
ATOM     88  O   UNL A   1      47.249  37.896  28.900  1.00  0.00    -0.237 OA
ATOM     89  O   UNL A   1      49.022  37.011  30.364  1.00  0.00    -0.744 OA
ENDBRANCH  85  86
ENDBRANCH  53  78
BRANCH  65  90
ATOM     90  C   UNL A   1      49.618  27.027  25.823  1.00  0.00     0.058 A 
ATOM     91  C   UNL A   1      49.871  27.048  24.443  1.00  0.00     0.135 A 
ATOM     92  C   UNL A   1      50.686  26.728  26.684  1.00  0.00     0.135 A 
ATOM     93  F   UNL A   1      48.881  27.323  23.579  1.00  0.00    -0.206 F 
ATOM     94  C   UNL A   1      51.128  26.746  23.931  1.00  0.00     0.059 A 
ATOM     95  C   UNL A   1      51.958  26.445  26.194  1.00  0.00     0.059 A 
ATOM     96  F   UNL A   1      50.498  26.705  28.013  1.00  0.00    -0.206 F 
ATOM     97  C   UNL A   1      52.164  26.438  24.815  1.00  0.00     0.060 A 
BRANCH  97  98
ATOM     98  S   UNL A   1      53.793  26.046  24.145  1.00  0.00     0.124 S 
ATOM     99  O   UNL A   1      53.551  26.148  22.709  1.00  0.00    -0.237 OA
ATOM    100  O   UNL A   1      54.634  27.091  24.721  1.00  0.00    -0.237 OA
ATOM    101  O   UNL A   1      54.049  24.699  24.647  1.00  0.00    -0.744 OA
ENDBRANCH  97  98
ENDBRANCH  65  90
ENDBRANCH  39  40
ENDBRANCH  31  34
ENDBRANCH  29  30
ENDBRANCH  28  29
ENDBRANCH  27  28
ENDBRANCH   1  27
TORSDOF 20
ENDMDL
MODEL 2
REMARK VINA RESULT:     -10.9      6.097     10.843
REMARK SMILES CN(C)c1oc(/C=N/c2ccc(O)c(C(=O)NCCCCCCNC(=O)c3ccc(-c4c5nc(c(-c6c(F)cc(S(=O)(=O)[O-])cc6F)c6ccc([nH]6)c(-c6c(F)cc(S(=O)(=O)[O-])cc6F)c6nc(c(-c7c(F)cc(S(=O)(=O)[O-])cc7F)c7ccc4[nH]7)C=C6)C=C5)cc3)c2)cc1Br
REMARK SMILES IDX 20 1 19 2 18 3 17 4 15 5 16 6 14 8 9 9 10 10 93 11 11 12
REMARK SMILES IDX 12 13 8 14 7 15 6 16 4 17 5 18 95 19 94 20 96 21 2 22 1 23
REMARK SMILES IDX 3 24 13 25 21 27 22 28 23 29 24 30 25 31 26 33 27 34 28 35
REMARK SMILES IDX 92 36 29 37 91 38 30 39 31 40 32 41 85 42 33 43 90 44 84 45
REMARK SMILES IDX 86 46 34 47 89 48 83 49 82 50 35 52 69 53 48 54 68 55 49 56
REMARK SMILES IDX 52 57 67 58 87 59 50 60 51 61 66 63 88 64 53 65 36 66 37 67
REMARK SMILES IDX 46 68 38 69 39 70 45 71 47 72 40 73 41 74 42 75 43 76 44 77
REMARK SMILES IDX 70 78 71 79 80 80 72 81 73 82 79 83 81 84 74 85 75 86 76 87
REMARK SMILES IDX 77 88 78 89 54 90 55 91 64 92 56 93 57 94 63 95 65 96 58 97
REMARK SMILES IDX 59 98 60 99 61 100 62 101
REMARK H PARENT 17 7 13 26 24 32 86 51 52 62
REMARK Flexibility Score: inf
ROOT
ATOM      1  C   UNL A   1      33.522  28.691  27.264  1.00  0.00     0.002 C 
ENDROOT
BRANCH   1   2
ATOM      2  C   UNL A   1      34.057  27.860  26.091  1.00  0.00     0.021 C 
BRANCH   2   3
ATOM      3  C   UNL A   1      33.154  26.683  25.705  1.00  0.00     0.116 C 
BRANCH   3   4
ATOM      4  N   UNL A   1      33.440  26.264  24.349  1.00  0.00    -0.352 N 
ATOM      5  C   UNL A   1      34.023  25.143  23.824  1.00  0.00     0.255 C 
ATOM      6  O   UNL A   1      34.176  25.139  22.598  1.00  0.00    -0.269 OA
ATOM      7  H   UNL A   1      33.158  26.916  23.668  1.00  0.00     0.163 HD
BRANCH   5   8
ATOM      8  C   UNL A   1      34.403  23.915  24.589  1.00  0.00     0.083 A 
ATOM      9  C   UNL A   1      36.331  22.731  25.553  1.00  0.00     0.064 A 
ATOM     10  C   UNL A   1      35.473  21.775  26.093  1.00  0.00     0.032 A 
ATOM     11  C   UNL A   1      35.793  23.769  24.789  1.00  0.00     0.046 A 
ATOM     12  C   UNL A   1      34.095  21.895  25.916  1.00  0.00     0.049 A 
ATOM     13  C   UNL A   1      33.561  22.984  25.210  1.00  0.00     0.128 A 
BRANCH   9  14
ATOM     14  N   UNL A   1      37.678  22.802  25.920  1.00  0.00    -0.253 NA
ATOM     15  C   UNL A   1      38.449  21.780  25.761  1.00  0.00     0.158 C 
BRANCH  15  16
ATOM     16  C   UNL A   1      39.794  21.857  26.259  1.00  0.00     0.149 A 
ATOM     17  C   UNL A   1      41.943  21.346  26.322  1.00  0.00     0.210 A 
ATOM     18  O   UNL A   1      40.792  21.218  25.585  1.00  0.00    -0.438 OA
ATOM     19  C   UNL A   1      41.665  22.114  27.436  1.00  0.00     0.082 A 
ATOM     20  C   UNL A   1      40.301  22.454  27.394  1.00  0.00     0.070 A 
ATOM     21  Br  UNL A   1      42.793  22.697  28.817  1.00  0.00    -0.045 Br
BRANCH  17  22
ATOM     22  N   UNL A   1      43.041  20.705  25.845  1.00  0.00    -0.348 N 
ATOM     23  C   UNL A   1      43.038  19.271  25.629  1.00  0.00     0.146 C 
ATOM     24  C   UNL A   1      44.202  21.470  25.428  1.00  0.00     0.146 C 
ENDBRANCH  17  22
ENDBRANCH  15  16
ENDBRANCH   9  14
BRANCH  13  25
ATOM     25  O   UNL A   1      32.207  23.137  25.242  1.00  0.00    -0.507 OA
ATOM     26  H   UNL A   1      31.824  23.821  25.754  1.00  0.00     0.293 HD
ENDBRANCH  13  25
ENDBRANCH   5   8
ENDBRANCH   3   4
ENDBRANCH   2   3
ENDBRANCH   1   2
BRANCH   1  27
ATOM     27  C   UNL A   1      32.145  29.322  27.028  1.00  0.00     0.002 C 
BRANCH  27  28
ATOM     28  C   UNL A   1      32.148  30.835  26.781  1.00  0.00     0.021 C 
BRANCH  28  29
ATOM     29  C   UNL A   1      33.326  31.590  27.395  1.00  0.00     0.116 C 
BRANCH  29  30
ATOM     30  N   UNL A   1      32.970  32.952  27.751  1.00  0.00    -0.352 N 
ATOM     31  C   UNL A   1      33.504  33.784  28.703  1.00  0.00     0.251 C 
ATOM     32  H   UNL A   1      32.231  33.339  27.228  1.00  0.00     0.163 HD
ATOM     33  O   UNL A   1      32.916  34.820  28.997  1.00  0.00    -0.269 OA
BRANCH  31  34
ATOM     34  C   UNL A   1      34.775  33.440  29.384  1.00  0.00     0.039 A 
ATOM     35  C   UNL A   1      34.749  32.486  30.405  1.00  0.00     0.014 A 
ATOM     36  C   UNL A   1      35.974  34.089  29.068  1.00  0.00     0.014 A 
ATOM     37  C   UNL A   1      35.928  32.149  31.075  1.00  0.00     0.010 A 
ATOM     38  C   UNL A   1      37.160  33.714  29.702  1.00  0.00     0.010 A 
ATOM     39  C   UNL A   1      37.147  32.744  30.715  1.00  0.00    -0.014 A 
BRANCH  39  40
ATOM     40  C   UNL A   1      38.410  32.347  31.390  1.00  0.00     0.031 A 
ATOM     41  C   UNL A   1      38.785  32.937  32.723  1.00  0.00     0.074 A 
ATOM     42  C   UNL A   1      39.233  31.467  30.786  1.00  0.00     0.049 A 
ATOM     43  N   UNL A   1      39.847  32.711  33.455  1.00  0.00    -0.248 NA
ATOM     44  C   UNL A   1      37.859  33.924  33.301  1.00  0.00     0.031 C 
ATOM     45  C   UNL A   1      39.006  30.863  29.470  1.00  0.00     0.029 A 
ATOM     46  N   UNL A   1      40.425  30.927  31.196  1.00  0.00    -0.354 N 
ATOM     47  C   UNL A   1      39.719  33.524  34.575  1.00  0.00     0.074 A 
ATOM     48  C   UNL A   1      38.499  34.285  34.404  1.00  0.00     0.031 C 
ATOM     49  C   UNL A   1      40.013  30.019  29.193  1.00  0.00     0.029 A 
ATOM     50  C   UNL A   1      40.966  30.038  30.298  1.00  0.00     0.049 A 
ATOM     51  H   UNL A   1      40.853  31.155  32.053  1.00  0.00     0.167 HD
ATOM     52  C   UNL A   1      40.530  33.611  35.658  1.00  0.00     0.037 A 
ATOM     53  C   UNL A   1      42.101  29.314  30.360  1.00  0.00     0.037 A 
ATOM     54  C   UNL A   1      41.730  32.836  35.837  1.00  0.00     0.049 A 
ATOM     55  C   UNL A   1      42.970  29.412  31.583  1.00  0.00     0.074 A 
ATOM     56  C   UNL A   1      42.596  32.825  36.918  1.00  0.00     0.029 A 
ATOM     57  N   UNL A   1      42.231  31.928  34.918  1.00  0.00    -0.354 N 
ATOM     58  N   UNL A   1      42.804  30.152  32.653  1.00  0.00    -0.248 NA
ATOM     59  C   UNL A   1      44.173  28.570  31.611  1.00  0.00     0.031 C 
ATOM     60  C   UNL A   1      43.634  31.927  36.640  1.00  0.00     0.029 A 
ATOM     61  C   UNL A   1      43.397  31.356  35.401  1.00  0.00     0.049 A 
ATOM     62  H   UNL A   1      41.819  31.719  34.047  1.00  0.00     0.167 HD
ATOM     63  C   UNL A   1      43.873  29.850  33.490  1.00  0.00     0.074 A 
ATOM     64  C   UNL A   1      44.666  28.846  32.810  1.00  0.00     0.031 C 
ATOM     65  C   UNL A   1      44.174  30.360  34.710  1.00  0.00     0.037 A 
BRANCH  52  66
ATOM     66  C   UNL A   1      40.135  34.567  36.749  1.00  0.00     0.058 A 
ATOM     67  C   UNL A   1      39.262  34.180  37.779  1.00  0.00     0.135 A 
ATOM     68  C   UNL A   1      40.674  35.862  36.800  1.00  0.00     0.135 A 
ATOM     69  F   UNL A   1      38.707  32.957  37.769  1.00  0.00    -0.206 F 
ATOM     70  C   UNL A   1      38.925  35.048  38.812  1.00  0.00     0.059 A 
ATOM     71  C   UNL A   1      40.367  36.741  37.836  1.00  0.00     0.059 A 
ATOM     72  F   UNL A   1      41.512  36.283  35.840  1.00  0.00    -0.206 F 
ATOM     73  C   UNL A   1      39.483  36.327  38.832  1.00  0.00     0.060 A 
BRANCH  73  74
ATOM     74  S   UNL A   1      39.053  37.435  40.191  1.00  0.00     0.124 S 
ATOM     75  O   UNL A   1      38.438  36.509  41.137  1.00  0.00    -0.237 OA
ATOM     76  O   UNL A   1      40.353  37.970  40.583  1.00  0.00    -0.237 OA
ATOM     77  O   UNL A   1      38.145  38.395  39.571  1.00  0.00    -0.744 OA
ENDBRANCH  73  74
ENDBRANCH  52  66
BRANCH  53  78
ATOM     78  C   UNL A   1      42.473  28.410  29.241  1.00  0.00     0.058 A 
ATOM     79  C   UNL A   1      41.897  27.137  29.121  1.00  0.00     0.135 A 
ATOM     80  C   UNL A   1      43.417  28.797  28.278  1.00  0.00     0.135 A 
ATOM     81  F   UNL A   1      40.992  26.723  30.021  1.00  0.00    -0.206 F 
ATOM     82  C   UNL A   1      42.265  26.265  28.102  1.00  0.00     0.059 A 
ATOM     83  C   UNL A   1      43.785  27.951  27.237  1.00  0.00     0.059 A 
ATOM     84  F   UNL A   1      43.981  30.013  28.338  1.00  0.00    -0.206 F 
ATOM     85  C   UNL A   1      43.215  26.680  27.166  1.00  0.00     0.060 A 
BRANCH  85  86
ATOM     86  S   UNL A   1      43.670  25.557  25.828  1.00  0.00     0.124 S 
ATOM     87  O   UNL A   1      44.578  24.643  26.510  1.00  0.00    -0.237 OA
ATOM     88  O   UNL A   1      42.379  25.000  25.434  1.00  0.00    -0.237 OA
ATOM     89  O   UNL A   1      44.286  26.445  24.845  1.00  0.00    -0.744 OA
ENDBRANCH  85  86
ENDBRANCH  53  78
BRANCH  65  90
ATOM     90  C   UNL A   1      45.402  29.822  35.387  1.00  0.00     0.058 A 
ATOM     91  C   UNL A   1      46.659  30.420  35.206  1.00  0.00     0.135 A 
ATOM     92  C   UNL A   1      45.320  28.703  36.229  1.00  0.00     0.135 A 
ATOM     93  F   UNL A   1      46.789  31.490  34.405  1.00  0.00    -0.206 F 
ATOM     94  C   UNL A   1      47.801  29.904  35.808  1.00  0.00     0.059 A 
ATOM     95  C   UNL A   1      46.447  28.183  36.860  1.00  0.00     0.059 A 
ATOM     96  F   UNL A   1      44.139  28.101  36.442  1.00  0.00    -0.206 F 
ATOM     97  C   UNL A   1      47.686  28.779  36.628  1.00  0.00     0.060 A 
BRANCH  97  98
ATOM     98  S   UNL A   1      49.172  28.112  37.406  1.00  0.00     0.124 S 
ATOM     99  O   UNL A   1      50.222  28.845  36.705  1.00  0.00    -0.237 OA
ATOM    100  O   UNL A   1      48.982  28.466  38.810  1.00  0.00    -0.237 OA
ATOM    101  O   UNL A   1      49.095  26.685  37.111  1.00  0.00    -0.744 OA
ENDBRANCH  97  98
ENDBRANCH  65  90
ENDBRANCH  39  40
ENDBRANCH  31  34
ENDBRANCH  29  30
ENDBRANCH  28  29
ENDBRANCH  27  28
ENDBRANCH   1  27
TORSDOF 20
ENDMDL
MODEL 3
REMARK VINA RESULT:     -10.8      5.970      9.024
REMARK SMILES CN(C)c1oc(/C=N/c2ccc(O)c(C(=O)NCCCCCCNC(=O)c3ccc(-c4c5nc(c(-c6c(F)cc(S(=O)(=O)[O-])cc6F)c6ccc([nH]6)c(-c6c(F)cc(S(=O)(=O)[O-])cc6F)c6nc(c(-c7c(F)cc(S(=O)(=O)[O-])cc7F)c7ccc4[nH]7)C=C6)C=C5)cc3)c2)cc1Br
REMARK SMILES IDX 20 1 19 2 18 3 17 4 15 5 16 6 14 8 9 9 10 10 93 11 11 12
REMARK SMILES IDX 12 13 8 14 7 15 6 16 4 17 5 18 95 19 94 20 96 21 2 22 1 23
REMARK SMILES IDX 3 24 13 25 21 27 22 28 23 29 24 30 25 31 26 33 27 34 28 35
REMARK SMILES IDX 92 36 29 37 91 38 30 39 31 40 32 41 85 42 33 43 90 44 84 45
REMARK SMILES IDX 86 46 34 47 89 48 83 49 82 50 35 52 69 53 48 54 68 55 49 56
REMARK SMILES IDX 52 57 67 58 87 59 50 60 51 61 66 63 88 64 53 65 36 66 37 67
REMARK SMILES IDX 46 68 38 69 39 70 45 71 47 72 40 73 41 74 42 75 43 76 44 77
REMARK SMILES IDX 70 78 71 79 80 80 72 81 73 82 79 83 81 84 74 85 75 86 76 87
REMARK SMILES IDX 77 88 78 89 54 90 55 91 64 92 56 93 57 94 63 95 65 96 58 97
REMARK SMILES IDX 59 98 60 99 61 100 62 101
REMARK H PARENT 17 7 13 26 24 32 86 51 52 62
REMARK Flexibility Score: inf
ROOT
ATOM      1  C   UNL A   1      33.567  28.772  27.181  1.00  0.00     0.002 C 
ENDROOT
BRANCH   1   2
ATOM      2  C   UNL A   1      34.007  27.909  25.992  1.00  0.00     0.021 C 
BRANCH   2   3
ATOM      3  C   UNL A   1      32.952  26.893  25.542  1.00  0.00     0.116 C 
BRANCH   3   4
ATOM      4  N   UNL A   1      33.253  26.427  24.204  1.00  0.00    -0.352 N 
ATOM      5  C   UNL A   1      33.840  25.288  23.725  1.00  0.00     0.255 C 
ATOM      6  O   UNL A   1      34.007  25.242  22.502  1.00  0.00    -0.269 OA
ATOM      7  H   UNL A   1      32.979  27.056  23.498  1.00  0.00     0.163 HD
BRANCH   5   8
ATOM      8  C   UNL A   1      34.210  24.087  24.537  1.00  0.00     0.083 A 
ATOM      9  C   UNL A   1      36.131  22.911  25.525  1.00  0.00     0.064 A 
ATOM     10  C   UNL A   1      35.264  21.994  26.116  1.00  0.00     0.032 A 
ATOM     11  C   UNL A   1      35.599  23.925  24.724  1.00  0.00     0.046 A 
ATOM     12  C   UNL A   1      33.886  22.131  25.953  1.00  0.00     0.049 A 
ATOM     13  C   UNL A   1      33.361  23.199  25.209  1.00  0.00     0.128 A 
BRANCH   9  14
ATOM     14  N   UNL A   1      37.484  22.973  25.870  1.00  0.00    -0.253 NA
ATOM     15  C   UNL A   1      38.216  21.912  25.820  1.00  0.00     0.158 C 
BRANCH  15  16
ATOM     16  C   UNL A   1      39.569  21.995  26.295  1.00  0.00     0.149 A 
ATOM     17  C   UNL A   1      41.693  21.398  26.417  1.00  0.00     0.210 A 
ATOM     18  O   UNL A   1      40.529  21.221  25.712  1.00  0.00    -0.438 OA
ATOM     19  C   UNL A   1      41.464  22.328  27.413  1.00  0.00     0.082 A 
ATOM     20  C   UNL A   1      40.117  22.723  27.331  1.00  0.00     0.070 A 
ATOM     21  Br  UNL A   1      42.634  23.047  28.692  1.00  0.00    -0.045 Br
BRANCH  17  22
ATOM     22  N   UNL A   1      42.755  20.644  26.031  1.00  0.00    -0.348 N 
ATOM     23  C   UNL A   1      43.982  21.260  25.563  1.00  0.00     0.146 C 
ATOM     24  C   UNL A   1      42.717  19.203  26.197  1.00  0.00     0.146 C 
ENDBRANCH  17  22
ENDBRANCH  15  16
ENDBRANCH   9  14
BRANCH  13  25
ATOM     25  O   UNL A   1      32.010  23.377  25.252  1.00  0.00    -0.507 OA
ATOM     26  H   UNL A   1      31.451  22.664  25.490  1.00  0.00     0.293 HD
ENDBRANCH  13  25
ENDBRANCH   5   8
ENDBRANCH   3   4
ENDBRANCH   2   3
ENDBRANCH   1   2
BRANCH   1  27
ATOM     27  C   UNL A   1      32.182  29.413  27.033  1.00  0.00     0.002 C 
BRANCH  27  28
ATOM     28  C   UNL A   1      32.181  30.927  26.787  1.00  0.00     0.021 C 
BRANCH  28  29
ATOM     29  C   UNL A   1      33.318  31.693  27.461  1.00  0.00     0.116 C 
BRANCH  29  30
ATOM     30  N   UNL A   1      32.926  33.047  27.810  1.00  0.00    -0.352 N 
ATOM     31  C   UNL A   1      33.437  33.897  28.759  1.00  0.00     0.251 C 
ATOM     32  H   UNL A   1      32.177  33.412  27.286  1.00  0.00     0.163 HD
ATOM     33  O   UNL A   1      32.822  34.918  29.049  1.00  0.00    -0.269 OA
BRANCH  31  34
ATOM     34  C   UNL A   1      34.716  33.590  29.442  1.00  0.00     0.039 A 
ATOM     35  C   UNL A   1      34.701  32.702  30.521  1.00  0.00     0.014 A 
ATOM     36  C   UNL A   1      35.913  34.210  29.068  1.00  0.00     0.014 A 
ATOM     37  C   UNL A   1      35.888  32.402  31.194  1.00  0.00     0.010 A 
ATOM     38  C   UNL A   1      37.107  33.870  29.707  1.00  0.00     0.010 A 
ATOM     39  C   UNL A   1      37.105  32.967  30.779  1.00  0.00    -0.014 A 
BRANCH  39  40
ATOM     40  C   UNL A   1      38.376  32.606  31.460  1.00  0.00     0.031 A 
ATOM     41  C   UNL A   1      39.355  31.667  30.808  1.00  0.00     0.074 A 
ATOM     42  C   UNL A   1      38.636  33.111  32.682  1.00  0.00     0.049 A 
ATOM     43  N   UNL A   1      40.509  31.238  31.255  1.00  0.00    -0.248 NA
ATOM     44  C   UNL A   1      38.982  31.121  29.493  1.00  0.00     0.031 C 
ATOM     45  C   UNL A   1      37.744  33.992  33.441  1.00  0.00     0.029 A 
ATOM     46  N   UNL A   1      39.725  32.958  33.502  1.00  0.00    -0.354 N 
ATOM     47  C   UNL A   1      40.999  30.375  30.282  1.00  0.00     0.074 A 
ATOM     48  C   UNL A   1      39.995  30.304  29.240  1.00  0.00     0.031 C 
ATOM     49  C   UNL A   1      38.331  34.318  34.603  1.00  0.00     0.029 A 
ATOM     50  C   UNL A   1      39.629  33.655  34.683  1.00  0.00     0.049 A 
ATOM     51  H   UNL A   1      40.502  32.400  33.268  1.00  0.00     0.167 HD
ATOM     52  C   UNL A   1      42.185  29.722  30.247  1.00  0.00     0.037 A 
ATOM     53  C   UNL A   1      40.493  33.755  35.712  1.00  0.00     0.037 A 
ATOM     54  C   UNL A   1      43.193  29.813  31.272  1.00  0.00     0.049 A 
ATOM     55  C   UNL A   1      41.813  33.039  35.637  1.00  0.00     0.074 A 
ATOM     56  C   UNL A   1      44.444  29.220  31.307  1.00  0.00     0.029 A 
ATOM     57  N   UNL A   1      43.070  30.550  32.440  1.00  0.00    -0.354 N 
ATOM     58  N   UNL A   1      42.276  32.266  34.684  1.00  0.00    -0.248 NA
ATOM     59  C   UNL A   1      42.729  33.216  36.771  1.00  0.00     0.031 C 
ATOM     60  C   UNL A   1      45.067  29.580  32.508  1.00  0.00     0.029 A 
ATOM     61  C   UNL A   1      44.217  30.422  33.206  1.00  0.00     0.049 A 
ATOM     62  H   UNL A   1      42.282  31.087  32.689  1.00  0.00     0.167 HD
ATOM     63  C   UNL A   1      43.547  31.880  35.096  1.00  0.00     0.074 A 
ATOM     64  C   UNL A   1      43.786  32.520  36.373  1.00  0.00     0.031 C 
ATOM     65  C   UNL A   1      44.436  31.065  34.475  1.00  0.00     0.037 A 
BRANCH  52  66
ATOM     66  C   UNL A   1      42.473  28.862  29.047  1.00  0.00     0.058 A 
ATOM     67  C   UNL A   1      41.969  27.555  28.949  1.00  0.00     0.135 A 
ATOM     68  C   UNL A   1      43.209  29.364  27.963  1.00  0.00     0.135 A 
ATOM     69  F   UNL A   1      41.271  27.022  29.964  1.00  0.00    -0.206 F 
ATOM     70  C   UNL A   1      42.199  26.770  27.824  1.00  0.00     0.059 A 
ATOM     71  C   UNL A   1      43.434  28.603  26.818  1.00  0.00     0.059 A 
ATOM     72  F   UNL A   1      43.715  30.607  28.007  1.00  0.00    -0.206 F 
ATOM     73  C   UNL A   1      42.933  27.303  26.763  1.00  0.00     0.060 A 
BRANCH  73  74
ATOM     74  S   UNL A   1      43.205  26.279  25.301  1.00  0.00     0.124 S 
ATOM     75  O   UNL A   1      42.765  27.174  24.235  1.00  0.00    -0.237 OA
ATOM     76  O   UNL A   1      44.640  26.022  25.361  1.00  0.00    -0.237 OA
ATOM     77  O   UNL A   1      42.353  25.117  25.537  1.00  0.00    -0.744 OA
ENDBRANCH  73  74
ENDBRANCH  52  66
BRANCH  53  78
ATOM     78  C   UNL A   1      40.151  34.585  36.896  1.00  0.00     0.058 A 
ATOM     79  C   UNL A   1      39.424  34.047  37.968  1.00  0.00     0.135 A 
ATOM     80  C   UNL A   1      40.535  35.932  36.973  1.00  0.00     0.135 A 
ATOM     81  F   UNL A   1      39.033  32.764  37.936  1.00  0.00    -0.206 F 
ATOM     82  C   UNL A   1      39.063  34.823  39.065  1.00  0.00     0.059 A 
ATOM     83  C   UNL A   1      40.204  36.723  38.070  1.00  0.00     0.059 A 
ATOM     84  F   UNL A   1      41.249  36.487  35.982  1.00  0.00    -0.206 F 
ATOM     85  C   UNL A   1      39.454  36.163  39.104  1.00  0.00     0.060 A 
BRANCH  85  86
ATOM     86  S   UNL A   1      39.008  37.160  40.541  1.00  0.00     0.124 S 
ATOM     87  O   UNL A   1      38.294  36.189  41.361  1.00  0.00    -0.237 OA
ATOM     88  O   UNL A   1      40.311  37.586  41.043  1.00  0.00    -0.237 OA
ATOM     89  O   UNL A   1      38.191  38.225  39.964  1.00  0.00    -0.744 OA
ENDBRANCH  85  86
ENDBRANCH  53  78
BRANCH  65  90
ATOM     90  C   UNL A   1      45.751  30.842  35.166  1.00  0.00     0.058 A 
ATOM     91  C   UNL A   1      45.968  29.721  35.981  1.00  0.00     0.135 A 
ATOM     92  C   UNL A   1      46.804  31.755  35.008  1.00  0.00     0.135 A 
ATOM     93  F   UNL A   1      44.989  28.821  36.169  1.00  0.00    -0.206 F 
ATOM     94  C   UNL A   1      47.174  29.530  36.647  1.00  0.00     0.059 A 
ATOM     95  C   UNL A   1      48.028  31.573  35.645  1.00  0.00     0.059 A 
ATOM     96  F   UNL A   1      46.650  32.839  34.230  1.00  0.00    -0.206 F 
ATOM     97  C   UNL A   1      48.197  30.466  36.477  1.00  0.00     0.060 A 
BRANCH  97  98
ATOM     98  S   UNL A   1      49.760  30.215  37.345  1.00  0.00     0.124 S 
ATOM     99  O   UNL A   1      49.571  31.039  38.534  1.00  0.00    -0.237 OA
ATOM    100  O   UNL A   1      49.769  28.771  37.569  1.00  0.00    -0.237 OA
ATOM    101  O   UNL A   1      50.755  30.699  36.393  1.00  0.00    -0.744 OA
ENDBRANCH  97  98
ENDBRANCH  65  90
ENDBRANCH  39  40
ENDBRANCH  31  34
ENDBRANCH  29  30
ENDBRANCH  28  29
ENDBRANCH  27  28
ENDBRANCH   1  27
TORSDOF 20
ENDMDL
