MODEL 1
REMARK VINA RESULT:     -11.1      0.000      0.000
REMARK SMILES C[C@@H](C(=O)NCCCCCCNC(=O)c1ccc(-c2c3nc(c(-c4c(F)cc(S(=O)(=O)[O-])cc4F)c4ccc([nH]4)c(-c4c(F)cc(S(=O)(=O)[O-])cc4F)c4nc(c(-c5c(F)cc(S(=O)(=O)[O-])cc5F)c5ccc2[nH]5)C=C4)C=C3)cc1)[C@H](C)[S@@](=O)c1ccc(F)cc1
REMARK SMILES IDX 8 1 7 2 6 3 5 4 3 5 4 6 2 8 1 9 81 10 82 11 83 12 84 13
REMARK SMILES IDX 85 14 86 15 91 16 87 17 90 18 88 19 89 20 9 21 10 22 11 23
REMARK SMILES IDX 12 24 13 25 14 27 15 28 16 29 80 30 17 31 79 32 18 33 19 34
REMARK SMILES IDX 20 35 73 36 21 37 78 38 72 39 74 40 22 41 77 42 71 43 70 44
REMARK SMILES IDX 23 46 57 47 36 48 56 49 37 50 40 51 55 52 75 53 38 54 39 55
REMARK SMILES IDX 54 57 76 58 41 59 24 60 25 61 34 62 26 63 27 64 33 65 35 66
REMARK SMILES IDX 28 67 29 68 30 69 31 70 32 71 58 72 59 73 68 74 60 75 61 76
REMARK SMILES IDX 67 77 69 78 62 79 63 80 64 81 65 82 66 83 42 84 43 85 52 86
REMARK SMILES IDX 44 87 45 88 51 89 53 90 46 91 47 92 48 93 49 94 50 95
REMARK H PARENT 5 7 12 26 74 45 40 56
REMARK Flexibility Score: inf
ROOT
ATOM      1  C   UNL A   1      36.083  21.640  25.433  1.00  0.00     0.002 C 
ENDROOT
BRANCH   1   2
ATOM      2  C   UNL A   1      35.129  22.438  26.330  1.00  0.00     0.021 C 
BRANCH   2   3
ATOM      3  C   UNL A   1      34.309  21.623  27.329  1.00  0.00     0.116 C 
BRANCH   3   4
ATOM      4  N   UNL A   1      33.334  20.754  26.703  1.00  0.00    -0.356 N 
ATOM      5  C   UNL A   1      32.474  20.991  25.677  1.00  0.00     0.224 C 
ATOM      6  O   UNL A   1      32.234  20.017  24.964  1.00  0.00    -0.275 OA
ATOM      7  H   UNL A   1      33.287  19.846  27.081  1.00  0.00     0.163 HD
BRANCH   5   8
ATOM      8  C   UNL A   1      31.916  22.387  25.365  1.00  0.00     0.091 C 
ATOM      9  C   UNL A   1      30.598  22.740  26.062  1.00  0.00     0.019 C 
BRANCH   8  10
ATOM     10  C   UNL A   1      31.925  22.744  23.844  1.00  0.00     0.093 C 
ATOM     11  C   UNL A   1      33.267  22.425  23.163  1.00  0.00     0.023 C 
BRANCH  10  12
ATOM     12  S   UNL A   1      31.437  24.409  23.241  1.00  0.00     0.057 S 
ATOM     13  O   UNL A   1      29.947  24.550  23.255  1.00  0.00    -0.254 OA
BRANCH  12  14
ATOM     14  C   UNL A   1      32.100  25.561  24.435  1.00  0.00     0.039 A 
ATOM     15  C   UNL A   1      31.218  26.318  25.219  1.00  0.00     0.021 A 
ATOM     16  C   UNL A   1      33.476  25.626  24.696  1.00  0.00     0.021 A 
ATOM     17  C   UNL A   1      31.711  27.156  26.222  1.00  0.00     0.040 A 
ATOM     18  C   UNL A   1      33.970  26.472  25.690  1.00  0.00     0.040 A 
ATOM     19  C   UNL A   1      33.082  27.229  26.444  1.00  0.00     0.123 A 
ATOM     20  F   UNL A   1      33.550  28.026  27.413  1.00  0.00    -0.207 F 
ENDBRANCH  12  14
ENDBRANCH  10  12
ENDBRANCH   8  10
ENDBRANCH   5   8
ENDBRANCH   3   4
ENDBRANCH   2   3
ENDBRANCH   1   2
BRANCH   1  21
ATOM     21  C   UNL A   1      37.421  22.304  25.101  1.00  0.00     0.002 C 
BRANCH  21  22
ATOM     22  C   UNL A   1      37.604  23.738  25.603  1.00  0.00     0.021 C 
BRANCH  22  23
ATOM     23  C   UNL A   1      38.674  23.931  26.673  1.00  0.00     0.116 C 
BRANCH  23  24
ATOM     24  N   UNL A   1      40.005  24.079  26.113  1.00  0.00    -0.352 N 
ATOM     25  C   UNL A   1      40.961  25.022  26.393  1.00  0.00     0.251 C 
ATOM     26  H   UNL A   1      40.257  23.409  25.438  1.00  0.00     0.163 HD
ATOM     27  O   UNL A   1      41.979  25.077  25.697  1.00  0.00    -0.269 OA
BRANCH  25  28
ATOM     28  C   UNL A   1      40.778  25.984  27.503  1.00  0.00     0.039 A 
ATOM     29  C   UNL A   1      41.635  27.085  27.589  1.00  0.00     0.014 A 
ATOM     30  C   UNL A   1      39.800  25.788  28.484  1.00  0.00     0.014 A 
ATOM     31  C   UNL A   1      41.493  28.004  28.633  1.00  0.00     0.010 A 
ATOM     32  C   UNL A   1      39.618  26.738  29.490  1.00  0.00     0.010 A 
ATOM     33  C   UNL A   1      40.476  27.845  29.586  1.00  0.00    -0.014 A 
BRANCH  33  34
ATOM     34  C   UNL A   1      40.328  28.801  30.715  1.00  0.00     0.031 A 
ATOM     35  C   UNL A   1      41.206  28.669  31.932  1.00  0.00     0.074 A 
ATOM     36  C   UNL A   1      39.382  29.759  30.667  1.00  0.00     0.049 A 
ATOM     37  N   UNL A   1      41.210  29.380  33.030  1.00  0.00    -0.248 NA
ATOM     38  C   UNL A   1      42.193  27.577  31.923  1.00  0.00     0.031 C 
ATOM     39  C   UNL A   1      38.437  29.961  29.566  1.00  0.00     0.029 A 
ATOM     40  N   UNL A   1      39.057  30.742  31.568  1.00  0.00    -0.354 N 
ATOM     41  C   UNL A   1      42.177  28.808  33.850  1.00  0.00     0.074 A 
ATOM     42  C   UNL A   1      42.709  27.666  33.140  1.00  0.00     0.031 C 
ATOM     43  C   UNL A   1      37.657  31.019  29.846  1.00  0.00     0.029 A 
ATOM     44  C   UNL A   1      38.028  31.554  31.153  1.00  0.00     0.049 A 
ATOM     45  H   UNL A   1      39.517  30.854  32.431  1.00  0.00     0.167 HD
ATOM     46  C   UNL A   1      42.599  29.211  35.072  1.00  0.00     0.037 A 
ATOM     47  C   UNL A   1      37.456  32.614  31.754  1.00  0.00     0.037 A 
ATOM     48  C   UNL A   1      42.102  30.375  35.756  1.00  0.00     0.049 A 
ATOM     49  C   UNL A   1      37.973  33.071  33.091  1.00  0.00     0.074 A 
ATOM     50  C   UNL A   1      42.511  30.905  36.967  1.00  0.00     0.029 A 
ATOM     51  N   UNL A   1      41.089  31.196  35.282  1.00  0.00    -0.354 N 
ATOM     52  N   UNL A   1      38.930  32.553  33.825  1.00  0.00    -0.248 NA
ATOM     53  C   UNL A   1      37.345  34.264  33.675  1.00  0.00     0.031 C 
ATOM     54  C   UNL A   1      41.728  32.033  37.239  1.00  0.00     0.029 A 
ATOM     55  C   UNL A   1      40.854  32.225  36.179  1.00  0.00     0.049 A 
ATOM     56  H   UNL A   1      40.608  31.068  34.433  1.00  0.00     0.167 HD
ATOM     57  C   UNL A   1      39.040  33.375  34.941  1.00  0.00     0.074 A 
ATOM     58  C   UNL A   1      38.055  34.427  34.783  1.00  0.00     0.031 C 
ATOM     59  C   UNL A   1      39.882  33.273  35.998  1.00  0.00     0.037 A 
BRANCH  46  60
ATOM     60  C   UNL A   1      43.658  28.383  35.747  1.00  0.00     0.058 A 
ATOM     61  C   UNL A   1      45.025  28.592  35.502  1.00  0.00     0.135 A 
ATOM     62  C   UNL A   1      43.304  27.378  36.661  1.00  0.00     0.135 A 
ATOM     63  F   UNL A   1      45.419  29.529  34.625  1.00  0.00    -0.206 F 
ATOM     64  C   UNL A   1      46.001  27.809  36.110  1.00  0.00     0.059 A 
ATOM     65  C   UNL A   1      44.265  26.601  37.301  1.00  0.00     0.059 A 
ATOM     66  F   UNL A   1      42.011  27.137  36.933  1.00  0.00    -0.206 F 
ATOM     67  C   UNL A   1      45.610  26.812  37.005  1.00  0.00     0.060 A 
BRANCH  67  68
ATOM     68  S   UNL A   1      46.885  25.795  37.780  1.00  0.00     0.124 S 
ATOM     69  O   UNL A   1      48.089  26.290  37.121  1.00  0.00    -0.237 OA
ATOM     70  O   UNL A   1      46.749  26.140  39.191  1.00  0.00    -0.237 OA
ATOM     71  O   UNL A   1      46.492  24.434  37.431  1.00  0.00    -0.744 OA
ENDBRANCH  67  68
ENDBRANCH  46  60
BRANCH  47  72
ATOM     72  C   UNL A   1      36.361  33.352  31.073  1.00  0.00     0.058 A 
ATOM     73  C   UNL A   1      36.623  34.145  29.945  1.00  0.00     0.135 A 
ATOM     74  C   UNL A   1      35.035  33.273  31.522  1.00  0.00     0.135 A 
ATOM     75  F   UNL A   1      37.877  34.255  29.481  1.00  0.00    -0.206 F 
ATOM     76  C   UNL A   1      35.613  34.846  29.295  1.00  0.00     0.059 A 
ATOM     77  C   UNL A   1      34.003  33.949  30.878  1.00  0.00     0.059 A 
ATOM     78  F   UNL A   1      34.730  32.514  32.586  1.00  0.00    -0.206 F 
ATOM     79  C   UNL A   1      34.304  34.742  29.770  1.00  0.00     0.060 A 
BRANCH  79  80
ATOM     80  S   UNL A   1      32.991  35.615  28.892  1.00  0.00     0.124 S 
ATOM     81  O   UNL A   1      32.188  36.124  29.998  1.00  0.00    -0.237 OA
ATOM     82  O   UNL A   1      33.737  36.613  28.132  1.00  0.00    -0.237 OA
ATOM     83  O   UNL A   1      32.370  34.565  28.091  1.00  0.00    -0.744 OA
ENDBRANCH  79  80
ENDBRANCH  47  72
BRANCH  59  84
ATOM     84  C   UNL A   1      39.808  34.348  37.045  1.00  0.00     0.058 A 
ATOM     85  C   UNL A   1      39.040  34.193  38.209  1.00  0.00     0.135 A 
ATOM     86  C   UNL A   1      40.546  35.532  36.895  1.00  0.00     0.135 A 
ATOM     87  F   UNL A   1      38.313  33.080  38.396  1.00  0.00    -0.206 F 
ATOM     88  C   UNL A   1      38.986  35.189  39.179  1.00  0.00     0.059 A 
ATOM     89  C   UNL A   1      40.525  36.531  37.862  1.00  0.00     0.059 A 
ATOM     90  F   UNL A   1      41.305  35.724  35.804  1.00  0.00    -0.206 F 
ATOM     91  C   UNL A   1      39.730  36.356  38.995  1.00  0.00     0.060 A 
BRANCH  91  92
ATOM     92  S   UNL A   1      39.672  37.635  40.269  1.00  0.00     0.124 S 
ATOM     93  O   UNL A   1      38.816  38.635  39.641  1.00  0.00    -0.237 OA
ATOM     94  O   UNL A   1      39.090  36.924  41.403  1.00  0.00    -0.237 OA
ATOM     95  O   UNL A   1      41.072  38.015  40.430  1.00  0.00    -0.744 OA
ENDBRANCH  91  92
ENDBRANCH  59  84
ENDBRANCH  33  34
ENDBRANCH  25  28
ENDBRANCH  23  24
ENDBRANCH  22  23
ENDBRANCH  21  22
ENDBRANCH   1  21
TORSDOF 19
ENDMDL
MODEL 2
REMARK VINA RESULT:     -10.9      5.188     12.296
REMARK SMILES C[C@@H](C(=O)NCCCCCCNC(=O)c1ccc(-c2c3nc(c(-c4c(F)cc(S(=O)(=O)[O-])cc4F)c4ccc([nH]4)c(-c4c(F)cc(S(=O)(=O)[O-])cc4F)c4nc(c(-c5c(F)cc(S(=O)(=O)[O-])cc5F)c5ccc2[nH]5)C=C4)C=C3)cc1)[C@H](C)[S@@](=O)c1ccc(F)cc1
REMARK SMILES IDX 8 1 7 2 6 3 5 4 3 5 4 6 2 8 1 9 81 10 82 11 83 12 84 13
REMARK SMILES IDX 85 14 86 15 91 16 87 17 90 18 88 19 89 20 9 21 10 22 11 23
REMARK SMILES IDX 12 24 13 25 14 27 15 28 16 29 80 30 17 31 79 32 18 33 19 34
REMARK SMILES IDX 20 35 73 36 21 37 78 38 72 39 74 40 22 41 77 42 71 43 70 44
REMARK SMILES IDX 23 46 57 47 36 48 56 49 37 50 40 51 55 52 75 53 38 54 39 55
REMARK SMILES IDX 54 57 76 58 41 59 24 60 25 61 34 62 26 63 27 64 33 65 35 66
REMARK SMILES IDX 28 67 29 68 30 69 31 70 32 71 58 72 59 73 68 74 60 75 61 76
REMARK SMILES IDX 67 77 69 78 62 79 63 80 64 81 65 82 66 83 42 84 43 85 52 86
REMARK SMILES IDX 44 87 45 88 51 89 53 90 46 91 47 92 48 93 49 94 50 95
REMARK H PARENT 5 7 12 26 74 45 40 56
REMARK Flexibility Score: inf
ROOT
ATOM      1  C   UNL A   1      37.192  33.825  29.502  1.00  0.00     0.002 C 
ENDROOT
BRANCH   1   2
ATOM      2  C   UNL A   1      38.583  34.468  29.507  1.00  0.00     0.021 C 
BRANCH   2   3
ATOM      3  C   UNL A   1      39.211  34.697  30.882  1.00  0.00     0.116 C 
BRANCH   3   4
ATOM      4  N   UNL A   1      38.238  34.838  31.945  1.00  0.00    -0.356 N 
ATOM      5  C   UNL A   1      38.183  34.254  33.172  1.00  0.00     0.224 C 
ATOM      6  O   UNL A   1      37.680  34.948  34.056  1.00  0.00    -0.275 OA
ATOM      7  H   UNL A   1      37.497  35.455  31.747  1.00  0.00     0.163 HD
BRANCH   5   8
ATOM      8  C   UNL A   1      38.790  32.875  33.465  1.00  0.00     0.091 C 
ATOM      9  C   UNL A   1      38.050  31.685  32.844  1.00  0.00     0.019 C 
BRANCH   8  10
ATOM     10  C   UNL A   1      39.161  32.655  34.967  1.00  0.00     0.093 C 
ATOM     11  C   UNL A   1      40.424  33.427  35.389  1.00  0.00     0.023 C 
BRANCH  10  12
ATOM     12  S   UNL A   1      39.337  30.972  35.681  1.00  0.00     0.057 S 
ATOM     13  O   UNL A   1      38.195  30.105  35.253  1.00  0.00    -0.254 OA
BRANCH  12  14
ATOM     14  C   UNL A   1      40.826  30.301  34.956  1.00  0.00     0.039 A 
ATOM     15  C   UNL A   1      42.004  30.271  35.715  1.00  0.00     0.021 A 
ATOM     16  C   UNL A   1      40.808  29.686  33.697  1.00  0.00     0.021 A 
ATOM     17  C   UNL A   1      43.155  29.668  35.204  1.00  0.00     0.040 A 
ATOM     18  C   UNL A   1      41.961  29.093  33.180  1.00  0.00     0.040 A 
ATOM     19  C   UNL A   1      43.124  29.089  33.940  1.00  0.00     0.123 A 
ATOM     20  F   UNL A   1      44.227  28.503  33.457  1.00  0.00    -0.207 F 
ENDBRANCH  12  14
ENDBRANCH  10  12
ENDBRANCH   8  10
ENDBRANCH   5   8
ENDBRANCH   3   4
ENDBRANCH   2   3
ENDBRANCH   1   2
BRANCH   1  21
ATOM     21  C   UNL A   1      36.640  33.406  28.138  1.00  0.00     0.002 C 
BRANCH  21  22
ATOM     22  C   UNL A   1      35.116  33.332  28.023  1.00  0.00     0.021 C 
BRANCH  22  23
ATOM     23  C   UNL A   1      34.423  32.405  29.016  1.00  0.00     0.116 C 
BRANCH  23  24
ATOM     24  N   UNL A   1      33.797  31.263  28.374  1.00  0.00    -0.352 N 
ATOM     25  C   UNL A   1      34.371  30.102  27.922  1.00  0.00     0.251 C 
ATOM     26  H   UNL A   1      32.824  31.331  28.244  1.00  0.00     0.163 HD
ATOM     27  O   UNL A   1      33.695  29.310  27.259  1.00  0.00    -0.269 OA
BRANCH  25  28
ATOM     28  C   UNL A   1      35.793  29.797  28.203  1.00  0.00     0.039 A 
ATOM     29  C   UNL A   1      36.729  29.945  27.175  1.00  0.00     0.014 A 
ATOM     30  C   UNL A   1      36.205  29.326  29.454  1.00  0.00     0.014 A 
ATOM     31  C   UNL A   1      38.076  29.655  27.408  1.00  0.00     0.010 A 
ATOM     32  C   UNL A   1      37.558  29.096  29.704  1.00  0.00     0.010 A 
ATOM     33  C   UNL A   1      38.505  29.239  28.678  1.00  0.00    -0.014 A 
BRANCH  33  34
ATOM     34  C   UNL A   1      39.931  28.904  28.934  1.00  0.00     0.031 A 
ATOM     35  C   UNL A   1      40.846  29.932  29.544  1.00  0.00     0.074 A 
ATOM     36  C   UNL A   1      40.412  27.696  28.581  1.00  0.00     0.049 A 
ATOM     37  N   UNL A   1      42.124  29.845  29.814  1.00  0.00    -0.248 NA
ATOM     38  C   UNL A   1      40.254  31.239  29.872  1.00  0.00     0.031 C 
ATOM     39  C   UNL A   1      39.639  26.631  27.937  1.00  0.00     0.029 A 
ATOM     40  N   UNL A   1      41.669  27.161  28.711  1.00  0.00    -0.354 N 
ATOM     41  C   UNL A   1      42.491  31.088  30.317  1.00  0.00     0.074 A 
ATOM     42  C   UNL A   1      41.313  31.925  30.275  1.00  0.00     0.031 C 
ATOM     43  C   UNL A   1      40.433  25.563  27.753  1.00  0.00     0.029 A 
ATOM     44  C   UNL A   1      41.773  25.873  28.242  1.00  0.00     0.049 A 
ATOM     45  H   UNL A   1      42.426  27.654  29.104  1.00  0.00     0.167 HD
ATOM     46  C   UNL A   1      43.695  31.490  30.792  1.00  0.00     0.037 A 
ATOM     47  C   UNL A   1      42.827  25.035  28.217  1.00  0.00     0.037 A 
ATOM     48  C   UNL A   1      44.854  30.641  30.877  1.00  0.00     0.049 A 
ATOM     49  C   UNL A   1      44.142  25.488  28.793  1.00  0.00     0.074 A 
ATOM     50  C   UNL A   1      46.100  30.933  31.403  1.00  0.00     0.029 A 
ATOM     51  N   UNL A   1      44.906  29.329  30.431  1.00  0.00    -0.354 N 
ATOM     52  N   UNL A   1      44.455  26.649  29.319  1.00  0.00    -0.248 NA
ATOM     53  C   UNL A   1      45.242  24.514  28.785  1.00  0.00     0.031 C 
ATOM     54  C   UNL A   1      46.915  29.805  31.252  1.00  0.00     0.029 A 
ATOM     55  C   UNL A   1      46.164  28.799  30.662  1.00  0.00     0.049 A 
ATOM     56  H   UNL A   1      44.159  28.845  30.011  1.00  0.00     0.167 HD
ATOM     57  C   UNL A   1      45.777  26.532  29.734  1.00  0.00     0.074 A 
ATOM     58  C   UNL A   1      46.203  25.188  29.401  1.00  0.00     0.031 C 
ATOM     59  C   UNL A   1      46.566  27.454  30.340  1.00  0.00     0.037 A 
BRANCH  46  60
ATOM     60  C   UNL A   1      43.814  32.914  31.260  1.00  0.00     0.058 A 
ATOM     61  C   UNL A   1      43.432  33.299  32.556  1.00  0.00     0.135 A 
ATOM     62  C   UNL A   1      44.332  33.904  30.411  1.00  0.00     0.135 A 
ATOM     63  F   UNL A   1      42.916  32.395  33.404  1.00  0.00    -0.206 F 
ATOM     64  C   UNL A   1      43.523  34.621  32.979  1.00  0.00     0.059 A 
ATOM     65  C   UNL A   1      44.457  35.228  30.822  1.00  0.00     0.059 A 
ATOM     66  F   UNL A   1      44.715  33.591  29.162  1.00  0.00    -0.206 F 
ATOM     67  C   UNL A   1      44.032  35.580  32.102  1.00  0.00     0.060 A 
BRANCH  67  68
ATOM     68  S   UNL A   1      44.135  37.295  32.658  1.00  0.00     0.124 S 
ATOM     69  O   UNL A   1      43.903  38.016  31.410  1.00  0.00    -0.237 OA
ATOM     70  O   UNL A   1      43.062  37.372  33.643  1.00  0.00    -0.237 OA
ATOM     71  O   UNL A   1      45.486  37.395  33.199  1.00  0.00    -0.744 OA
ENDBRANCH  67  68
ENDBRANCH  46  60
BRANCH  47  72
ATOM     72  C   UNL A   1      42.670  23.661  27.673  1.00  0.00     0.058 A 
ATOM     73  C   UNL A   1      42.808  23.413  26.299  1.00  0.00     0.135 A 
ATOM     74  C   UNL A   1      42.392  22.571  28.510  1.00  0.00     0.135 A 
ATOM     75  F   UNL A   1      43.070  24.426  25.459  1.00  0.00    -0.206 F 
ATOM     76  C   UNL A   1      42.661  22.136  25.770  1.00  0.00     0.059 A 
ATOM     77  C   UNL A   1      42.260  21.280  28.008  1.00  0.00     0.059 A 
ATOM     78  F   UNL A   1      42.267  22.754  29.833  1.00  0.00    -0.206 F 
ATOM     79  C   UNL A   1      42.387  21.074  26.634  1.00  0.00     0.060 A 
BRANCH  79  80
ATOM     80  S   UNL A   1      42.246  19.410  25.946  1.00  0.00     0.124 S 
ATOM     81  O   UNL A   1      43.078  19.515  24.753  1.00  0.00    -0.237 OA
ATOM     82  O   UNL A   1      42.777  18.584  27.026  1.00  0.00    -0.237 OA
ATOM     83  O   UNL A   1      40.813  19.268  25.707  1.00  0.00    -0.744 OA
ENDBRANCH  79  80
ENDBRANCH  47  72
BRANCH  59  84
ATOM     84  C   UNL A   1      47.954  27.027  30.724  1.00  0.00     0.058 A 
ATOM     85  C   UNL A   1      48.220  26.398  31.950  1.00  0.00     0.135 A 
ATOM     86  C   UNL A   1      49.023  27.218  29.835  1.00  0.00     0.135 A 
ATOM     87  F   UNL A   1      47.231  26.197  32.835  1.00  0.00    -0.206 F 
ATOM     88  C   UNL A   1      49.507  25.996  32.293  1.00  0.00     0.059 A 
ATOM     89  C   UNL A   1      50.314  26.804  30.148  1.00  0.00     0.059 A 
ATOM     90  F   UNL A   1      48.819  27.805  28.645  1.00  0.00    -0.206 F 
ATOM     91  C   UNL A   1      50.548  26.205  31.387  1.00  0.00     0.060 A 
BRANCH  91  92
ATOM     92  S   UNL A   1      52.212  25.660  31.830  1.00  0.00     0.124 S 
ATOM     93  O   UNL A   1      51.986  24.251  32.134  1.00  0.00    -0.237 OA
ATOM     94  O   UNL A   1      52.968  25.932  30.611  1.00  0.00    -0.237 OA
ATOM     95  O   UNL A   1      52.552  26.505  32.970  1.00  0.00    -0.744 OA
ENDBRANCH  91  92
ENDBRANCH  59  84
ENDBRANCH  33  34
ENDBRANCH  25  28
ENDBRANCH  23  24
ENDBRANCH  22  23
ENDBRANCH  21  22
ENDBRANCH   1  21
TORSDOF 19
ENDMDL
MODEL 3
REMARK VINA RESULT:     -10.6      1.994      3.285
REMARK SMILES C[C@@H](C(=O)NCCCCCCNC(=O)c1ccc(-c2c3nc(c(-c4c(F)cc(S(=O)(=O)[O-])cc4F)c4ccc([nH]4)c(-c4c(F)cc(S(=O)(=O)[O-])cc4F)c4nc(c(-c5c(F)cc(S(=O)(=O)[O-])cc5F)c5ccc2[nH]5)C=C4)C=C3)cc1)[C@H](C)[S@@](=O)c1ccc(F)cc1
REMARK SMILES IDX 8 1 7 2 6 3 5 4 3 5 4 6 2 8 1 9 81 10 82 11 83 12 84 13
REMARK SMILES IDX 85 14 86 15 91 16 87 17 90 18 88 19 89 20 9 21 10 22 11 23
REMARK SMILES IDX 12 24 13 25 14 27 15 28 16 29 80 30 17 31 79 32 18 33 19 34
REMARK SMILES IDX 20 35 73 36 21 37 78 38 72 39 74 40 22 41 77 42 71 43 70 44
REMARK SMILES IDX 23 46 57 47 36 48 56 49 37 50 40 51 55 52 75 53 38 54 39 55
REMARK SMILES IDX 54 57 76 58 41 59 24 60 25 61 34 62 26 63 27 64 33 65 35 66
REMARK SMILES IDX 28 67 29 68 30 69 31 70 32 71 58 72 59 73 68 74 60 75 61 76
REMARK SMILES IDX 67 77 69 78 62 79 63 80 64 81 65 82 66 83 42 84 43 85 52 86
REMARK SMILES IDX 44 87 45 88 51 89 53 90 46 91 47 92 48 93 49 94 50 95
REMARK H PARENT 5 7 12 26 74 45 40 56
REMARK Flexibility Score: inf
ROOT
ATOM      1  C   UNL A   1      37.200  23.529  25.055  1.00  0.00     0.002 C 
ENDROOT
BRANCH   1   2
ATOM      2  C   UNL A   1      36.043  23.990  25.948  1.00  0.00     0.021 C 
BRANCH   2   3
ATOM      3  C   UNL A   1      34.938  24.789  25.255  1.00  0.00     0.116 C 
BRANCH   3   4
ATOM      4  N   UNL A   1      33.650  24.680  25.908  1.00  0.00    -0.356 N 
ATOM      5  C   UNL A   1      32.663  23.757  25.758  1.00  0.00     0.224 C 
ATOM      6  O   UNL A   1      32.014  23.519  26.777  1.00  0.00    -0.275 OA
ATOM      7  H   UNL A   1      33.460  25.387  26.566  1.00  0.00     0.163 HD
BRANCH   5   8
ATOM      8  C   UNL A   1      32.432  22.992  24.447  1.00  0.00     0.091 C 
ATOM      9  C   UNL A   1      31.082  23.245  23.767  1.00  0.00     0.019 C 
BRANCH   8  10
ATOM     10  C   UNL A   1      32.809  21.477  24.527  1.00  0.00     0.093 C 
ATOM     11  C   UNL A   1      34.314  21.225  24.331  1.00  0.00     0.023 C 
BRANCH  10  12
ATOM     12  S   UNL A   1      31.950  20.215  23.506  1.00  0.00     0.057 S 
ATOM     13  O   UNL A   1      32.305  20.386  22.062  1.00  0.00    -0.254 OA
BRANCH  12  14
ATOM     14  C   UNL A   1      32.607  18.642  24.041  1.00  0.00     0.039 A 
ATOM     15  C   UNL A   1      33.236  17.808  23.106  1.00  0.00     0.021 A 
ATOM     16  C   UNL A   1      32.623  18.284  25.397  1.00  0.00     0.021 A 
ATOM     17  C   UNL A   1      33.838  16.618  23.519  1.00  0.00     0.040 A 
ATOM     18  C   UNL A   1      33.214  17.089  25.808  1.00  0.00     0.040 A 
ATOM     19  C   UNL A   1      33.817  16.267  24.864  1.00  0.00     0.123 A 
ATOM     20  F   UNL A   1      34.404  15.129  25.257  1.00  0.00    -0.207 F 
ENDBRANCH  12  14
ENDBRANCH  10  12
ENDBRANCH   8  10
ENDBRANCH   5   8
ENDBRANCH   3   4
ENDBRANCH   2   3
ENDBRANCH   1   2
BRANCH   1  21
ATOM     21  C   UNL A   1      37.841  22.186  25.410  1.00  0.00     0.002 C 
BRANCH  21  22
ATOM     22  C   UNL A   1      39.084  22.248  26.301  1.00  0.00     0.021 C 
BRANCH  22  23
ATOM     23  C   UNL A   1      39.561  23.648  26.671  1.00  0.00     0.116 C 
BRANCH  23  24
ATOM     24  N   UNL A   1      40.789  24.019  25.991  1.00  0.00    -0.352 N 
ATOM     25  C   UNL A   1      41.589  25.116  26.186  1.00  0.00     0.251 C 
ATOM     26  H   UNL A   1      41.090  23.396  25.292  1.00  0.00     0.163 HD
ATOM     27  O   UNL A   1      42.513  25.339  25.399  1.00  0.00    -0.269 OA
BRANCH  25  28
ATOM     28  C   UNL A   1      41.345  26.044  27.315  1.00  0.00     0.039 A 
ATOM     29  C   UNL A   1      42.071  27.237  27.375  1.00  0.00     0.014 A 
ATOM     30  C   UNL A   1      40.442  25.729  28.336  1.00  0.00     0.014 A 
ATOM     31  C   UNL A   1      41.871  28.126  28.434  1.00  0.00     0.010 A 
ATOM     32  C   UNL A   1      40.196  26.644  29.359  1.00  0.00     0.010 A 
ATOM     33  C   UNL A   1      40.922  27.843  29.430  1.00  0.00    -0.014 A 
BRANCH  33  34
ATOM     34  C   UNL A   1      40.715  28.769  30.575  1.00  0.00     0.031 A 
ATOM     35  C   UNL A   1      41.571  28.642  31.808  1.00  0.00     0.074 A 
ATOM     36  C   UNL A   1      39.736  29.693  30.526  1.00  0.00     0.049 A 
ATOM     37  N   UNL A   1      41.525  29.329  32.921  1.00  0.00    -0.248 NA
ATOM     38  C   UNL A   1      42.597  27.587  31.799  1.00  0.00     0.031 C 
ATOM     39  C   UNL A   1      38.808  29.884  29.408  1.00  0.00     0.029 A 
ATOM     40  N   UNL A   1      39.356  30.643  31.439  1.00  0.00    -0.354 N 
ATOM     41  C   UNL A   1      42.494  28.774  33.750  1.00  0.00     0.074 A 
ATOM     42  C   UNL A   1      43.083  27.668  33.029  1.00  0.00     0.031 C 
ATOM     43  C   UNL A   1      37.984  30.907  29.693  1.00  0.00     0.029 A 
ATOM     44  C   UNL A   1      38.307  31.426  31.018  1.00  0.00     0.049 A 
ATOM     45  H   UNL A   1      39.792  30.753  32.314  1.00  0.00     0.167 HD
ATOM     46  C   UNL A   1      42.875  29.165  34.990  1.00  0.00     0.037 A 
ATOM     47  C   UNL A   1      37.683  32.452  31.629  1.00  0.00     0.037 A 
ATOM     48  C   UNL A   1      42.320  30.296  35.686  1.00  0.00     0.049 A 
ATOM     49  C   UNL A   1      38.155  32.898  32.987  1.00  0.00     0.074 A 
ATOM     50  C   UNL A   1      42.683  30.814  36.917  1.00  0.00     0.029 A 
ATOM     51  N   UNL A   1      41.289  31.090  35.207  1.00  0.00    -0.354 N 
ATOM     52  N   UNL A   1      39.113  32.399  33.731  1.00  0.00    -0.248 NA
ATOM     53  C   UNL A   1      37.470  34.054  33.581  1.00  0.00     0.031 C 
ATOM     54  C   UNL A   1      41.854  31.907  37.195  1.00  0.00     0.029 A 
ATOM     55  C   UNL A   1      40.997  32.090  36.120  1.00  0.00     0.049 A 
ATOM     56  H   UNL A   1      40.831  30.963  34.345  1.00  0.00     0.167 HD
ATOM     57  C   UNL A   1      39.169  33.200  34.865  1.00  0.00     0.074 A 
ATOM     58  C   UNL A   1      38.150  34.219  34.708  1.00  0.00     0.031 C 
ATOM     59  C   UNL A   1      39.991  33.105  35.939  1.00  0.00     0.037 A 
BRANCH  46  60
ATOM     60  C   UNL A   1      43.948  28.362  35.670  1.00  0.00     0.058 A 
ATOM     61  C   UNL A   1      43.639  27.289  36.522  1.00  0.00     0.135 A 
ATOM     62  C   UNL A   1      45.304  28.657  35.457  1.00  0.00     0.135 A 
ATOM     63  F   UNL A   1      42.358  26.974  36.773  1.00  0.00    -0.206 F 
ATOM     64  C   UNL A   1      44.633  26.561  37.167  1.00  0.00     0.059 A 
ATOM     65  C   UNL A   1      46.317  27.925  36.072  1.00  0.00     0.059 A 
ATOM     66  F   UNL A   1      45.656  29.671  34.651  1.00  0.00    -0.206 F 
ATOM     67  C   UNL A   1      45.970  26.891  36.940  1.00  0.00     0.060 A 
BRANCH  67  68
ATOM     68  S   UNL A   1      47.253  25.948  37.791  1.00  0.00     0.124 S 
ATOM     69  O   UNL A   1      48.248  25.795  36.734  1.00  0.00    -0.237 OA
ATOM     70  O   UNL A   1      47.625  26.837  38.886  1.00  0.00    -0.237 OA
ATOM     71  O   UNL A   1      46.565  24.724  38.189  1.00  0.00    -0.744 OA
ENDBRANCH  67  68
ENDBRANCH  46  60
BRANCH  47  72
ATOM     72  C   UNL A   1      36.577  33.164  30.939  1.00  0.00     0.058 A 
ATOM     73  C   UNL A   1      36.842  34.052  29.886  1.00  0.00     0.135 A 
ATOM     74  C   UNL A   1      35.238  32.966  31.305  1.00  0.00     0.135 A 
ATOM     75  F   UNL A   1      38.109  34.278  29.502  1.00  0.00    -0.206 F 
ATOM     76  C   UNL A   1      35.822  34.732  29.229  1.00  0.00     0.059 A 
ATOM     77  C   UNL A   1      34.197  33.618  30.652  1.00  0.00     0.059 A 
ATOM     78  F   UNL A   1      34.931  32.113  32.295  1.00  0.00    -0.206 F 
ATOM     79  C   UNL A   1      34.500  34.508  29.620  1.00  0.00     0.060 A 
BRANCH  79  80
ATOM     80  S   UNL A   1      33.177  35.355  28.731  1.00  0.00     0.124 S 
ATOM     81  O   UNL A   1      32.415  35.939  29.828  1.00  0.00    -0.237 OA
ATOM     82  O   UNL A   1      33.918  36.294  27.895  1.00  0.00    -0.237 OA
ATOM     83  O   UNL A   1      32.515  34.274  28.008  1.00  0.00    -0.744 OA
ENDBRANCH  79  80
ENDBRANCH  47  72
BRANCH  59  84
ATOM     84  C   UNL A   1      39.855  34.154  37.006  1.00  0.00     0.058 A 
ATOM     85  C   UNL A   1      40.449  35.419  36.878  1.00  0.00     0.135 A 
ATOM     86  C   UNL A   1      39.091  33.899  38.155  1.00  0.00     0.135 A 
ATOM     87  F   UNL A   1      41.195  35.709  35.799  1.00  0.00    -0.206 F 
ATOM     88  C   UNL A   1      40.310  36.389  37.866  1.00  0.00     0.059 A 
ATOM     89  C   UNL A   1      38.919  34.861  39.145  1.00  0.00     0.059 A 
ATOM     90  F   UNL A   1      38.493  32.708  38.320  1.00  0.00    -0.206 F 
ATOM     91  C   UNL A   1      39.545  36.099  38.997  1.00  0.00     0.060 A 
BRANCH  91  92
ATOM     92  S   UNL A   1      39.350  37.370  40.265  1.00  0.00     0.124 S 
ATOM     93  O   UNL A   1      38.625  36.642  41.300  1.00  0.00    -0.237 OA
ATOM     94  O   UNL A   1      40.733  37.714  40.582  1.00  0.00    -0.237 OA
ATOM     95  O   UNL A   1      38.594  38.416  39.582  1.00  0.00    -0.744 OA
ENDBRANCH  91  92
ENDBRANCH  59  84
ENDBRANCH  33  34
ENDBRANCH  25  28
ENDBRANCH  23  24
ENDBRANCH  22  23
ENDBRANCH  21  22
ENDBRANCH   1  21
TORSDOF 19
ENDMDL
