MODEL 1
REMARK VINA RESULT:     -11.7      0.000      0.000
REMARK SMILES [NH3+][C@@H](CC(=O)NCCCCCCNC(=O)c1ccc(-c2c3nc(c(-c4c(F)cc(S(=O)(=O)[O-])cc4F)c4ccc([nH]4)c(-c4c(F)cc(S(=O)(=O)[O-])cc4F)c4nc(c(-c5c(F)cc(S(=O)(=O)[O-])cc5F)c5ccc2[nH]5)C=C4)C=C3)cc1)c1cccc2ccccc12
REMARK SMILES IDX 10 1 9 2 8 3 7 4 6 5 4 6 5 7 3 9 2 10 1 11 82 15 83 16 91 17
REMARK SMILES IDX 84 18 86 19 90 20 85 21 87 22 89 23 88 24 11 25 12 26 13 27
REMARK SMILES IDX 14 28 15 30 16 31 17 32 81 33 18 34 80 35 19 36 20 37 21 38
REMARK SMILES IDX 74 39 22 40 79 41 73 42 75 43 23 44 78 45 72 46 71 47 24 49
REMARK SMILES IDX 58 50 37 51 57 52 38 53 41 54 56 55 76 56 39 57 40 58 55 60
REMARK SMILES IDX 77 61 42 62 25 63 26 64 35 65 27 66 28 67 34 68 36 69 29 70
REMARK SMILES IDX 30 71 31 72 32 73 33 74 59 75 60 76 69 77 61 78 62 79 68 80
REMARK SMILES IDX 70 81 63 82 64 83 65 84 66 85 67 86 43 87 44 88 53 89 45 90
REMARK SMILES IDX 46 91 52 92 54 93 47 94 48 95 49 96 50 97 51 98
REMARK H PARENT 6 8 1 12 1 13 1 14 13 29 75 48 41 59
REMARK Flexibility Score: inf
ROOT
ATOM      1  C   UNL A   1      36.214  22.819  25.743  1.00  0.00     0.002 C 
ENDROOT
BRANCH   1   2
ATOM      2  C   UNL A   1      36.299  21.380  25.232  1.00  0.00     0.002 C 
BRANCH   2   3
ATOM      3  C   UNL A   1      34.959  20.660  25.070  1.00  0.00     0.021 C 
BRANCH   3   4
ATOM      4  C   UNL A   1      33.783  21.322  25.787  1.00  0.00     0.116 C 
BRANCH   4   5
ATOM      5  N   UNL A   1      32.752  21.713  24.856  1.00  0.00    -0.356 N 
ATOM      6  C   UNL A   1      32.069  22.878  24.757  1.00  0.00     0.226 C 
ATOM      7  O   UNL A   1      31.368  23.030  23.751  1.00  0.00    -0.275 OA
ATOM      8  H   UNL A   1      32.509  21.028  24.193  1.00  0.00     0.163 HD
BRANCH   6   9
ATOM      9  C   UNL A   1      32.193  23.990  25.786  1.00  0.00     0.170 C 
BRANCH   9  10
ATOM     10  C   UNL A   1      30.963  24.827  26.241  1.00  0.00     0.222 C 
BRANCH  10  11
ATOM     11  N   UNL A   1      29.817  23.990  26.601  1.00  0.00    -0.351 N 
ATOM     12  H   UNL A   1      29.495  24.240  27.535  1.00  0.00     0.345 HD
ATOM     13  H   UNL A   1      30.095  23.009  26.588  1.00  0.00     0.345 HD
ATOM     14  H   UNL A   1      29.064  24.139  25.930  1.00  0.00     0.345 HD
ENDBRANCH  10  11
BRANCH  10  15
ATOM     15  C   UNL A   1      30.574  26.124  25.508  1.00  0.00     0.017 A 
ATOM     16  C   UNL A   1      29.782  26.075  24.346  1.00  0.00     0.010 A 
ATOM     17  C   UNL A   1      31.141  27.399  25.872  1.00  0.00    -0.009 A 
ATOM     18  C   UNL A   1      29.655  27.164  23.490  1.00  0.00     0.001 A 
ATOM     19  C   UNL A   1      31.062  28.476  24.945  1.00  0.00    -0.018 A 
ATOM     20  C   UNL A   1      31.782  27.694  27.103  1.00  0.00     0.009 A 
ATOM     21  C   UNL A   1      30.341  28.336  23.758  1.00  0.00     0.009 A 
ATOM     22  C   UNL A   1      31.693  29.703  25.208  1.00  0.00     0.009 A 
ATOM     23  C   UNL A   1      32.322  28.951  27.393  1.00  0.00     0.001 A 
ATOM     24  C   UNL A   1      32.309  29.946  26.430  1.00  0.00     0.001 A 
ENDBRANCH  10  15
ENDBRANCH   9  10
ENDBRANCH   6   9
ENDBRANCH   4   5
ENDBRANCH   3   4
ENDBRANCH   2   3
ENDBRANCH   1   2
BRANCH   1  25
ATOM     25  C   UNL A   1      37.405  23.710  25.383  1.00  0.00     0.021 C 
BRANCH  25  26
ATOM     26  C   UNL A   1      38.301  24.088  26.559  1.00  0.00     0.116 C 
BRANCH  26  27
ATOM     27  N   UNL A   1      39.708  23.894  26.255  1.00  0.00    -0.352 N 
ATOM     28  C   UNL A   1      40.789  24.668  26.598  1.00  0.00     0.251 C 
ATOM     29  H   UNL A   1      39.917  23.090  25.725  1.00  0.00     0.163 HD
ATOM     30  O   UNL A   1      41.876  24.470  26.067  1.00  0.00    -0.269 OA
BRANCH  28  31
ATOM     31  C   UNL A   1      40.633  25.751  27.594  1.00  0.00     0.039 A 
ATOM     32  C   UNL A   1      39.655  25.624  28.582  1.00  0.00     0.014 A 
ATOM     33  C   UNL A   1      41.442  26.891  27.546  1.00  0.00     0.014 A 
ATOM     34  C   UNL A   1      39.530  26.612  29.562  1.00  0.00     0.010 A 
ATOM     35  C   UNL A   1      41.363  27.838  28.564  1.00  0.00     0.010 A 
ATOM     36  C   UNL A   1      40.407  27.710  29.582  1.00  0.00    -0.014 A 
BRANCH  36  37
ATOM     37  C   UNL A   1      40.346  28.720  30.672  1.00  0.00     0.031 A 
ATOM     38  C   UNL A   1      41.224  28.583  31.886  1.00  0.00     0.074 A 
ATOM     39  C   UNL A   1      39.450  29.724  30.594  1.00  0.00     0.049 A 
ATOM     40  N   UNL A   1      41.269  29.329  32.959  1.00  0.00    -0.248 NA
ATOM     41  C   UNL A   1      42.159  27.445  31.910  1.00  0.00     0.031 C 
ATOM     42  C   UNL A   1      38.506  29.930  29.493  1.00  0.00     0.029 A 
ATOM     43  N   UNL A   1      39.175  30.752  31.460  1.00  0.00    -0.354 N 
ATOM     44  C   UNL A   1      42.221  28.748  33.789  1.00  0.00     0.074 A 
ATOM     45  C   UNL A   1      42.696  27.559  33.116  1.00  0.00     0.031 C 
ATOM     46  C   UNL A   1      37.770  31.025  29.741  1.00  0.00     0.029 A 
ATOM     47  C   UNL A   1      38.158  31.576  31.036  1.00  0.00     0.049 A 
ATOM     48  H   UNL A   1      39.660  30.888  32.306  1.00  0.00     0.167 HD
ATOM     49  C   UNL A   1      42.670  29.178  34.992  1.00  0.00     0.037 A 
ATOM     50  C   UNL A   1      37.592  32.646  31.626  1.00  0.00     0.037 A 
ATOM     51  C   UNL A   1      42.210  30.378  35.642  1.00  0.00     0.049 A 
ATOM     52  C   UNL A   1      38.112  33.104  32.962  1.00  0.00     0.074 A 
ATOM     53  C   UNL A   1      42.654  30.937  36.828  1.00  0.00     0.029 A 
ATOM     54  N   UNL A   1      41.195  31.199  35.171  1.00  0.00    -0.354 N 
ATOM     55  N   UNL A   1      39.070  32.587  33.696  1.00  0.00    -0.248 NA
ATOM     56  C   UNL A   1      37.483  34.296  33.549  1.00  0.00     0.031 C 
ATOM     57  C   UNL A   1      41.874  32.064  37.100  1.00  0.00     0.029 A 
ATOM     58  C   UNL A   1      40.981  32.242  36.056  1.00  0.00     0.049 A 
ATOM     59  H   UNL A   1      40.701  31.059  34.331  1.00  0.00     0.167 HD
ATOM     60  C   UNL A   1      39.173  33.403  34.817  1.00  0.00     0.074 A 
ATOM     61  C   UNL A   1      38.194  34.457  34.657  1.00  0.00     0.031 C 
ATOM     62  C   UNL A   1      40.004  33.289  35.882  1.00  0.00     0.037 A 
BRANCH  49  63
ATOM     63  C   UNL A   1      43.717  28.352  35.690  1.00  0.00     0.058 A 
ATOM     64  C   UNL A   1      43.376  27.348  36.610  1.00  0.00     0.135 A 
ATOM     65  C   UNL A   1      45.079  28.525  35.388  1.00  0.00     0.135 A 
ATOM     66  F   UNL A   1      42.092  27.147  36.946  1.00  0.00    -0.206 F 
ATOM     67  C   UNL A   1      44.346  26.560  37.222  1.00  0.00     0.059 A 
ATOM     68  C   UNL A   1      46.064  27.730  35.967  1.00  0.00     0.059 A 
ATOM     69  F   UNL A   1      45.463  29.472  34.517  1.00  0.00    -0.206 F 
ATOM     70  C   UNL A   1      45.688  26.756  36.890  1.00  0.00     0.060 A 
BRANCH  70  71
ATOM     71  S   UNL A   1      46.930  25.709  37.676  1.00  0.00     0.124 S 
ATOM     72  O   UNL A   1      46.246  24.419  37.708  1.00  0.00    -0.237 OA
ATOM     73  O   UNL A   1      48.052  25.807  36.748  1.00  0.00    -0.237 OA
ATOM     74  O   UNL A   1      47.137  26.341  38.975  1.00  0.00    -0.744 OA
ENDBRANCH  70  71
ENDBRANCH  49  63
BRANCH  50  75
ATOM     75  C   UNL A   1      36.471  33.360  30.957  1.00  0.00     0.058 A 
ATOM     76  C   UNL A   1      36.688  34.138  29.810  1.00  0.00     0.135 A 
ATOM     77  C   UNL A   1      35.159  33.275  31.449  1.00  0.00     0.135 A 
ATOM     78  F   UNL A   1      37.926  34.257  29.305  1.00  0.00    -0.206 F 
ATOM     79  C   UNL A   1      35.650  34.824  29.187  1.00  0.00     0.059 A 
ATOM     80  C   UNL A   1      34.099  33.927  30.825  1.00  0.00     0.059 A 
ATOM     81  F   UNL A   1      34.894  32.529  32.533  1.00  0.00    -0.206 F 
ATOM     82  C   UNL A   1      34.358  34.710  29.702  1.00  0.00     0.060 A 
BRANCH  82  83
ATOM     83  S   UNL A   1      33.010  35.571  28.862  1.00  0.00     0.124 S 
ATOM     84  O   UNL A   1      32.212  36.037  29.989  1.00  0.00    -0.237 OA
ATOM     85  O   UNL A   1      33.724  36.601  28.115  1.00  0.00    -0.237 OA
ATOM     86  O   UNL A   1      32.402  34.524  28.046  1.00  0.00    -0.744 OA
ENDBRANCH  82  83
ENDBRANCH  50  75
BRANCH  62  87
ATOM     87  C   UNL A   1      39.914  34.347  36.949  1.00  0.00     0.058 A 
ATOM     88  C   UNL A   1      40.652  35.538  36.874  1.00  0.00     0.135 A 
ATOM     89  C   UNL A   1      39.038  34.186  38.035  1.00  0.00     0.135 A 
ATOM     90  F   UNL A   1      41.509  35.740  35.859  1.00  0.00    -0.206 F 
ATOM     91  C   UNL A   1      40.543  36.523  37.849  1.00  0.00     0.059 A 
ATOM     92  C   UNL A   1      38.890  35.172  39.006  1.00  0.00     0.059 A 
ATOM     93  F   UNL A   1      38.301  33.070  38.150  1.00  0.00    -0.206 F 
ATOM     94  C   UNL A   1      39.657  36.331  38.912  1.00  0.00     0.060 A 
BRANCH  94  95
ATOM     95  S   UNL A   1      39.502  37.632  40.154  1.00  0.00     0.124 S 
ATOM     96  O   UNL A   1      40.838  38.220  40.131  1.00  0.00    -0.237 OA
ATOM     97  O   UNL A   1      38.434  38.463  39.605  1.00  0.00    -0.237 OA
ATOM     98  O   UNL A   1      39.158  36.901  41.370  1.00  0.00    -0.744 OA
ENDBRANCH  94  95
ENDBRANCH  62  87
ENDBRANCH  36  37
ENDBRANCH  28  31
ENDBRANCH  26  27
ENDBRANCH  25  26
ENDBRANCH   1  25
TORSDOF 19
ENDMDL
MODEL 2
REMARK VINA RESULT:     -11.4      6.526     12.097
REMARK SMILES [NH3+][C@@H](CC(=O)NCCCCCCNC(=O)c1ccc(-c2c3nc(c(-c4c(F)cc(S(=O)(=O)[O-])cc4F)c4ccc([nH]4)c(-c4c(F)cc(S(=O)(=O)[O-])cc4F)c4nc(c(-c5c(F)cc(S(=O)(=O)[O-])cc5F)c5ccc2[nH]5)C=C4)C=C3)cc1)c1cccc2ccccc12
REMARK SMILES IDX 10 1 9 2 8 3 7 4 6 5 4 6 5 7 3 9 2 10 1 11 82 15 83 16 91 17
REMARK SMILES IDX 84 18 86 19 90 20 85 21 87 22 89 23 88 24 11 25 12 26 13 27
REMARK SMILES IDX 14 28 15 30 16 31 17 32 81 33 18 34 80 35 19 36 20 37 21 38
REMARK SMILES IDX 74 39 22 40 79 41 73 42 75 43 23 44 78 45 72 46 71 47 24 49
REMARK SMILES IDX 58 50 37 51 57 52 38 53 41 54 56 55 76 56 39 57 40 58 55 60
REMARK SMILES IDX 77 61 42 62 25 63 26 64 35 65 27 66 28 67 34 68 36 69 29 70
REMARK SMILES IDX 30 71 31 72 32 73 33 74 59 75 60 76 69 77 61 78 62 79 68 80
REMARK SMILES IDX 70 81 63 82 64 83 65 84 66 85 67 86 43 87 44 88 53 89 45 90
REMARK SMILES IDX 46 91 52 92 54 93 47 94 48 95 49 96 50 97 51 98
REMARK H PARENT 6 8 1 12 1 13 1 14 13 29 75 48 41 59
REMARK Flexibility Score: inf
ROOT
ATOM      1  C   UNL A   1      34.684  29.050  27.066  1.00  0.00     0.002 C 
ENDROOT
BRANCH   1   2
ATOM      2  C   UNL A   1      33.460  28.134  27.023  1.00  0.00     0.002 C 
BRANCH   2   3
ATOM      3  C   UNL A   1      32.946  27.792  25.622  1.00  0.00     0.021 C 
BRANCH   3   4
ATOM      4  C   UNL A   1      31.564  27.142  25.586  1.00  0.00     0.116 C 
BRANCH   4   5
ATOM      5  N   UNL A   1      31.468  26.056  26.531  1.00  0.00    -0.356 N 
ATOM      6  C   UNL A   1      31.297  24.729  26.314  1.00  0.00     0.226 C 
ATOM      7  O   UNL A   1      31.436  23.983  27.288  1.00  0.00    -0.275 OA
ATOM      8  H   UNL A   1      31.537  26.319  27.476  1.00  0.00     0.163 HD
BRANCH   6   9
ATOM      9  C   UNL A   1      31.013  24.154  24.936  1.00  0.00     0.170 C 
BRANCH   9  10
ATOM     10  C   UNL A   1      32.158  23.791  23.948  1.00  0.00     0.222 C 
BRANCH  10  11
ATOM     11  N   UNL A   1      31.868  24.209  22.575  1.00  0.00    -0.351 N 
ATOM     12  H   UNL A   1      30.943  23.876  22.307  1.00  0.00     0.345 HD
ATOM     13  H   UNL A   1      32.568  23.816  21.945  1.00  0.00     0.345 HD
ATOM     14  H   UNL A   1      31.893  25.227  22.518  1.00  0.00     0.345 HD
ENDBRANCH  10  11
BRANCH  10  15
ATOM     15  C   UNL A   1      32.882  22.435  24.040  1.00  0.00     0.017 A 
ATOM     16  C   UNL A   1      32.146  21.243  24.174  1.00  0.00     0.010 A 
ATOM     17  C   UNL A   1      34.316  22.349  24.169  1.00  0.00    -0.009 A 
ATOM     18  C   UNL A   1      32.741  20.046  24.558  1.00  0.00     0.001 A 
ATOM     19  C   UNL A   1      34.892  21.134  24.636  1.00  0.00    -0.018 A 
ATOM     20  C   UNL A   1      35.234  23.386  23.860  1.00  0.00     0.009 A 
ATOM     21  C   UNL A   1      34.094  20.008  24.847  1.00  0.00     0.009 A 
ATOM     22  C   UNL A   1      36.271  21.037  24.881  1.00  0.00     0.009 A 
ATOM     23  C   UNL A   1      36.616  23.244  24.017  1.00  0.00     0.001 A 
ATOM     24  C   UNL A   1      37.132  22.080  24.563  1.00  0.00     0.001 A 
ENDBRANCH  10  15
ENDBRANCH   9  10
ENDBRANCH   6   9
ENDBRANCH   4   5
ENDBRANCH   3   4
ENDBRANCH   2   3
ENDBRANCH   1   2
BRANCH   1  25
ATOM     25  C   UNL A   1      34.394  30.508  27.429  1.00  0.00     0.021 C 
BRANCH  25  26
ATOM     26  C   UNL A   1      35.552  31.245  28.096  1.00  0.00     0.116 C 
BRANCH  26  27
ATOM     27  N   UNL A   1      35.437  31.239  29.545  1.00  0.00    -0.352 N 
ATOM     28  C   UNL A   1      36.263  30.671  30.483  1.00  0.00     0.251 C 
ATOM     29  H   UNL A   1      34.653  31.714  29.906  1.00  0.00     0.163 HD
ATOM     30  O   UNL A   1      35.892  30.577  31.648  1.00  0.00    -0.269 OA
BRANCH  28  31
ATOM     31  C   UNL A   1      37.589  30.155  30.081  1.00  0.00     0.039 A 
ATOM     32  C   UNL A   1      37.929  30.151  28.727  1.00  0.00     0.014 A 
ATOM     33  C   UNL A   1      38.490  29.670  31.034  1.00  0.00     0.014 A 
ATOM     34  C   UNL A   1      39.199  29.717  28.335  1.00  0.00     0.010 A 
ATOM     35  C   UNL A   1      39.778  29.306  30.649  1.00  0.00     0.010 A 
ATOM     36  C   UNL A   1      40.147  29.325  29.296  1.00  0.00    -0.014 A 
BRANCH  36  37
ATOM     37  C   UNL A   1      41.530  28.951  28.900  1.00  0.00     0.031 A 
ATOM     38  C   UNL A   1      42.613  29.994  28.840  1.00  0.00     0.074 A 
ATOM     39  C   UNL A   1      41.792  27.681  28.531  1.00  0.00     0.049 A 
ATOM     40  N   UNL A   1      43.858  29.868  28.463  1.00  0.00    -0.248 NA
ATOM     41  C   UNL A   1      42.243  31.365  29.233  1.00  0.00     0.031 C 
ATOM     42  C   UNL A   1      40.812  26.593  28.494  1.00  0.00     0.029 A 
ATOM     43  N   UNL A   1      42.955  27.091  28.105  1.00  0.00    -0.354 N 
ATOM     44  C   UNL A   1      44.416  31.138  28.559  1.00  0.00     0.074 A 
ATOM     45  C   UNL A   1      43.361  32.031  28.984  1.00  0.00     0.031 C 
ATOM     46  C   UNL A   1      41.418  25.467  28.087  1.00  0.00     0.029 A 
ATOM     47  C   UNL A   1      42.818  25.758  27.793  1.00  0.00     0.049 A 
ATOM     48  H   UNL A   1      43.809  27.576  28.029  1.00  0.00     0.167 HD
ATOM     49  C   UNL A   1      45.696  31.519  28.332  1.00  0.00     0.037 A 
ATOM     50  C   UNL A   1      43.712  24.873  27.312  1.00  0.00     0.037 A 
ATOM     51  C   UNL A   1      46.747  30.618  27.933  1.00  0.00     0.049 A 
ATOM     52  C   UNL A   1      45.128  25.323  27.070  1.00  0.00     0.074 A 
ATOM     53  C   UNL A   1      48.090  30.894  27.748  1.00  0.00     0.029 A 
ATOM     54  N   UNL A   1      46.574  29.271  27.649  1.00  0.00    -0.354 N 
ATOM     55  N   UNL A   1      45.657  26.511  27.243  1.00  0.00    -0.248 NA
ATOM     56  C   UNL A   1      46.073  24.311  26.576  1.00  0.00     0.031 C 
ATOM     57  C   UNL A   1      48.719  29.728  27.301  1.00  0.00     0.029 A 
ATOM     58  C   UNL A   1      47.780  28.710  27.262  1.00  0.00     0.049 A 
ATOM     59  H   UNL A   1      45.720  28.786  27.713  1.00  0.00     0.167 HD
ATOM     60  C   UNL A   1      46.999  26.383  26.903  1.00  0.00     0.074 A 
ATOM     61  C   UNL A   1      47.205  25.000  26.531  1.00  0.00     0.031 C 
ATOM     62  C   UNL A   1      47.972  27.328  26.899  1.00  0.00     0.037 A 
BRANCH  49  63
ATOM     63  C   UNL A   1      46.041  32.974  28.509  1.00  0.00     0.058 A 
ATOM     64  C   UNL A   1      46.494  33.484  29.736  1.00  0.00     0.135 A 
ATOM     65  C   UNL A   1      45.974  33.859  27.419  1.00  0.00     0.135 A 
ATOM     66  F   UNL A   1      46.565  32.686  30.814  1.00  0.00    -0.206 F 
ATOM     67  C   UNL A   1      46.850  34.820  29.882  1.00  0.00     0.059 A 
ATOM     68  C   UNL A   1      46.352  35.193  27.536  1.00  0.00     0.059 A 
ATOM     69  F   UNL A   1      45.545  33.427  26.223  1.00  0.00    -0.206 F 
ATOM     70  C   UNL A   1      46.780  35.667  28.775  1.00  0.00     0.060 A 
BRANCH  70  71
ATOM     71  S   UNL A   1      47.268  37.392  28.979  1.00  0.00     0.124 S 
ATOM     72  O   UNL A   1      47.105  37.904  27.621  1.00  0.00    -0.237 OA
ATOM     73  O   UNL A   1      46.301  37.877  29.958  1.00  0.00    -0.237 OA
ATOM     74  O   UNL A   1      48.646  37.303  29.453  1.00  0.00    -0.744 OA
ENDBRANCH  70  71
ENDBRANCH  49  63
BRANCH  50  75
ATOM     75  C   UNL A   1      43.296  23.472  27.030  1.00  0.00     0.058 A 
ATOM     76  C   UNL A   1      43.104  23.023  25.716  1.00  0.00     0.135 A 
ATOM     77  C   UNL A   1      43.086  22.554  28.071  1.00  0.00     0.135 A 
ATOM     78  F   UNL A   1      43.285  23.864  24.686  1.00  0.00    -0.206 F 
ATOM     79  C   UNL A   1      42.698  21.720  25.442  1.00  0.00     0.059 A 
ATOM     80  C   UNL A   1      42.710  21.238  27.821  1.00  0.00     0.059 A 
ATOM     81  F   UNL A   1      43.275  22.927  29.347  1.00  0.00    -0.206 F 
ATOM     82  C   UNL A   1      42.505  20.835  26.503  1.00  0.00     0.060 A 
BRANCH  82  83
ATOM     83  S   UNL A   1      42.018  19.135  26.136  1.00  0.00     0.124 S 
ATOM     84  O   UNL A   1      42.900  18.810  25.023  1.00  0.00    -0.237 OA
ATOM     85  O   UNL A   1      42.302  18.456  27.396  1.00  0.00    -0.237 OA
ATOM     86  O   UNL A   1      40.601  19.257  25.806  1.00  0.00    -0.744 OA
ENDBRANCH  82  83
ENDBRANCH  50  75
BRANCH  62  87
ATOM     87  C   UNL A   1      49.359  26.893  26.508  1.00  0.00     0.058 A 
ATOM     88  C   UNL A   1      50.288  26.442  27.457  1.00  0.00     0.135 A 
ATOM     89  C   UNL A   1      49.744  26.881  25.157  1.00  0.00     0.135 A 
ATOM     90  F   UNL A   1      49.974  26.440  28.763  1.00  0.00    -0.206 F 
ATOM     91  C   UNL A   1      51.559  26.016  27.085  1.00  0.00     0.059 A 
ATOM     92  C   UNL A   1      50.998  26.429  24.758  1.00  0.00     0.059 A 
ATOM     93  F   UNL A   1      48.889  27.291  24.206  1.00  0.00    -0.206 F 
ATOM     94  C   UNL A   1      51.904  26.012  25.731  1.00  0.00     0.060 A 
BRANCH  94  95
ATOM     95  S   UNL A   1      53.545  25.426  25.260  1.00  0.00     0.124 S 
ATOM     96  O   UNL A   1      53.393  23.982  25.403  1.00  0.00    -0.237 OA
ATOM     97  O   UNL A   1      53.671  25.918  23.891  1.00  0.00    -0.237 OA
ATOM     98  O   UNL A   1      54.426  26.065  26.233  1.00  0.00    -0.744 OA
ENDBRANCH  94  95
ENDBRANCH  62  87
ENDBRANCH  36  37
ENDBRANCH  28  31
ENDBRANCH  26  27
ENDBRANCH  25  26
ENDBRANCH   1  25
TORSDOF 19
ENDMDL
MODEL 3
REMARK VINA RESULT:     -11.4      0.941      1.737
REMARK SMILES [NH3+][C@@H](CC(=O)NCCCCCCNC(=O)c1ccc(-c2c3nc(c(-c4c(F)cc(S(=O)(=O)[O-])cc4F)c4ccc([nH]4)c(-c4c(F)cc(S(=O)(=O)[O-])cc4F)c4nc(c(-c5c(F)cc(S(=O)(=O)[O-])cc5F)c5ccc2[nH]5)C=C4)C=C3)cc1)c1cccc2ccccc12
REMARK SMILES IDX 10 1 9 2 8 3 7 4 6 5 4 6 5 7 3 9 2 10 1 11 82 15 83 16 91 17
REMARK SMILES IDX 84 18 86 19 90 20 85 21 87 22 89 23 88 24 11 25 12 26 13 27
REMARK SMILES IDX 14 28 15 30 16 31 17 32 81 33 18 34 80 35 19 36 20 37 21 38
REMARK SMILES IDX 74 39 22 40 79 41 73 42 75 43 23 44 78 45 72 46 71 47 24 49
REMARK SMILES IDX 58 50 37 51 57 52 38 53 41 54 56 55 76 56 39 57 40 58 55 60
REMARK SMILES IDX 77 61 42 62 25 63 26 64 35 65 27 66 28 67 34 68 36 69 29 70
REMARK SMILES IDX 30 71 31 72 32 73 33 74 59 75 60 76 69 77 61 78 62 79 68 80
REMARK SMILES IDX 70 81 63 82 64 83 65 84 66 85 67 86 43 87 44 88 53 89 45 90
REMARK SMILES IDX 46 91 52 92 54 93 47 94 48 95 49 96 50 97 51 98
REMARK H PARENT 6 8 1 12 1 13 1 14 13 29 75 48 41 59
REMARK Flexibility Score: inf
ROOT
ATOM      1  C   UNL A   1      37.478  22.802  25.385  1.00  0.00     0.002 C 
ENDROOT
BRANCH   1   2
ATOM      2  C   UNL A   1      36.447  23.216  24.334  1.00  0.00     0.002 C 
BRANCH   2   3
ATOM      3  C   UNL A   1      35.280  22.245  24.141  1.00  0.00     0.021 C 
BRANCH   3   4
ATOM      4  C   UNL A   1      34.864  21.482  25.396  1.00  0.00     0.116 C 
BRANCH   4   5
ATOM      5  N   UNL A   1      33.455  21.170  25.381  1.00  0.00    -0.356 N 
ATOM      6  C   UNL A   1      32.413  21.835  25.933  1.00  0.00     0.226 C 
ATOM      7  O   UNL A   1      31.279  21.460  25.614  1.00  0.00    -0.275 OA
ATOM      8  H   UNL A   1      33.216  20.349  24.894  1.00  0.00     0.163 HD
BRANCH   6   9
ATOM      9  C   UNL A   1      32.599  23.032  26.851  1.00  0.00     0.170 C 
BRANCH   9  10
ATOM     10  C   UNL A   1      31.815  24.358  26.639  1.00  0.00     0.222 C 
BRANCH  10  11
ATOM     11  N   UNL A   1      30.367  24.150  26.569  1.00  0.00    -0.351 N 
ATOM     12  H   UNL A   1      30.168  23.359  25.957  1.00  0.00     0.345 HD
ATOM     13  H   UNL A   1      29.920  24.989  26.199  1.00  0.00     0.345 HD
ATOM     14  H   UNL A   1      30.007  23.956  27.503  1.00  0.00     0.345 HD
ENDBRANCH  10  11
BRANCH  10  15
ATOM     15  C   UNL A   1      32.331  25.435  25.667  1.00  0.00     0.017 A 
ATOM     16  C   UNL A   1      32.913  25.067  24.440  1.00  0.00     0.010 A 
ATOM     17  C   UNL A   1      32.399  26.826  26.043  1.00  0.00    -0.009 A 
ATOM     18  C   UNL A   1      33.654  25.961  23.674  1.00  0.00     0.001 A 
ATOM     19  C   UNL A   1      33.225  27.703  25.286  1.00  0.00    -0.018 A 
ATOM     20  C   UNL A   1      31.696  27.422  27.123  1.00  0.00     0.009 A 
ATOM     21  C   UNL A   1      33.859  27.253  24.127  1.00  0.00     0.009 A 
ATOM     22  C   UNL A   1      33.408  29.039  25.677  1.00  0.00     0.009 A 
ATOM     23  C   UNL A   1      31.812  28.778  27.444  1.00  0.00     0.001 A 
ATOM     24  C   UNL A   1      32.698  29.580  26.743  1.00  0.00     0.001 A 
ENDBRANCH  10  15
ENDBRANCH   9  10
ENDBRANCH   6   9
ENDBRANCH   4   5
ENDBRANCH   3   4
ENDBRANCH   2   3
ENDBRANCH   1   2
BRANCH   1  25
ATOM     25  C   UNL A   1      37.870  23.897  26.379  1.00  0.00     0.021 C 
BRANCH  25  26
ATOM     26  C   UNL A   1      39.274  23.760  26.962  1.00  0.00     0.116 C 
BRANCH  26  27
ATOM     27  N   UNL A   1      40.292  24.250  26.048  1.00  0.00    -0.352 N 
ATOM     28  C   UNL A   1      41.002  25.424  26.083  1.00  0.00     0.251 C 
ATOM     29  H   UNL A   1      40.504  23.651  25.295  1.00  0.00     0.163 HD
ATOM     30  O   UNL A   1      41.661  25.770  25.108  1.00  0.00    -0.269 OA
BRANCH  28  31
ATOM     31  C   UNL A   1      40.955  26.279  27.289  1.00  0.00     0.039 A 
ATOM     32  C   UNL A   1      41.854  27.341  27.400  1.00  0.00     0.014 A 
ATOM     33  C   UNL A   1      40.033  26.027  28.311  1.00  0.00     0.014 A 
ATOM     34  C   UNL A   1      41.787  28.190  28.509  1.00  0.00     0.010 A 
ATOM     35  C   UNL A   1      39.922  26.915  29.378  1.00  0.00     0.010 A 
ATOM     36  C   UNL A   1      40.797  28.005  29.489  1.00  0.00    -0.014 A 
BRANCH  36  37
ATOM     37  C   UNL A   1      40.656  28.955  30.624  1.00  0.00     0.031 A 
ATOM     38  C   UNL A   1      41.503  28.799  31.858  1.00  0.00     0.074 A 
ATOM     39  C   UNL A   1      39.716  29.920  30.566  1.00  0.00     0.049 A 
ATOM     40  N   UNL A   1      41.480  29.492  32.966  1.00  0.00    -0.248 NA
ATOM     41  C   UNL A   1      42.489  27.705  31.856  1.00  0.00     0.031 C 
ATOM     42  C   UNL A   1      38.797  30.138  29.446  1.00  0.00     0.029 A 
ATOM     43  N   UNL A   1      39.367  30.891  31.471  1.00  0.00    -0.354 N 
ATOM     44  C   UNL A   1      42.433  28.914  33.797  1.00  0.00     0.074 A 
ATOM     45  C   UNL A   1      42.983  27.782  33.083  1.00  0.00     0.031 C 
ATOM     46  C   UNL A   1      38.004  31.184  29.723  1.00  0.00     0.029 A 
ATOM     47  C   UNL A   1      38.326  31.688  31.055  1.00  0.00     0.049 A 
ATOM     48  H   UNL A   1      39.820  31.006  32.338  1.00  0.00     0.167 HD
ATOM     49  C   UNL A   1      42.826  29.303  35.033  1.00  0.00     0.037 A 
ATOM     50  C   UNL A   1      37.693  32.700  31.678  1.00  0.00     0.037 A 
ATOM     51  C   UNL A   1      42.290  30.447  35.726  1.00  0.00     0.049 A 
ATOM     52  C   UNL A   1      38.151  33.114  33.050  1.00  0.00     0.074 A 
ATOM     53  C   UNL A   1      42.672  30.966  36.950  1.00  0.00     0.029 A 
ATOM     54  N   UNL A   1      41.252  31.243  35.263  1.00  0.00    -0.354 N 
ATOM     55  N   UNL A   1      39.109  32.605  33.788  1.00  0.00    -0.248 NA
ATOM     56  C   UNL A   1      37.449  34.245  33.674  1.00  0.00     0.031 C 
ATOM     57  C   UNL A   1      41.832  32.041  37.252  1.00  0.00     0.029 A 
ATOM     58  C   UNL A   1      40.963  32.231  36.190  1.00  0.00     0.049 A 
ATOM     59  H   UNL A   1      40.791  31.123  34.401  1.00  0.00     0.167 HD
ATOM     60  C   UNL A   1      39.140  33.368  34.950  1.00  0.00     0.074 A 
ATOM     61  C   UNL A   1      38.118  34.384  34.811  1.00  0.00     0.031 C 
ATOM     62  C   UNL A   1      39.944  33.239  36.035  1.00  0.00     0.037 A 
BRANCH  49  63
ATOM     63  C   UNL A   1      43.889  28.492  35.724  1.00  0.00     0.058 A 
ATOM     64  C   UNL A   1      43.570  27.405  36.554  1.00  0.00     0.135 A 
ATOM     65  C   UNL A   1      45.249  28.767  35.504  1.00  0.00     0.135 A 
ATOM     66  F   UNL A   1      42.286  27.105  36.810  1.00  0.00    -0.206 F 
ATOM     67  C   UNL A   1      44.558  26.634  37.157  1.00  0.00     0.059 A 
ATOM     68  C   UNL A   1      46.254  27.991  36.074  1.00  0.00     0.059 A 
ATOM     69  F   UNL A   1      45.614  29.795  34.722  1.00  0.00    -0.206 F 
ATOM     70  C   UNL A   1      45.898  26.932  36.908  1.00  0.00     0.060 A 
BRANCH  70  71
ATOM     71  S   UNL A   1      47.166  25.906  37.680  1.00  0.00     0.124 S 
ATOM     72  O   UNL A   1      46.361  24.831  38.254  1.00  0.00    -0.237 OA
ATOM     73  O   UNL A   1      48.001  25.533  36.543  1.00  0.00    -0.237 OA
ATOM     74  O   UNL A   1      47.791  26.805  38.646  1.00  0.00    -0.744 OA
ENDBRANCH  70  71
ENDBRANCH  49  63
BRANCH  50  75
ATOM     75  C   UNL A   1      36.560  33.395  31.008  1.00  0.00     0.058 A 
ATOM     76  C   UNL A   1      35.238  33.203  31.433  1.00  0.00     0.135 A 
ATOM     77  C   UNL A   1      36.778  34.268  29.931  1.00  0.00     0.135 A 
ATOM     78  F   UNL A   1      34.976  32.372  32.455  1.00  0.00    -0.206 F 
ATOM     79  C   UNL A   1      34.170  33.834  30.803  1.00  0.00     0.059 A 
ATOM     80  C   UNL A   1      35.730  34.934  29.304  1.00  0.00     0.059 A 
ATOM     81  F   UNL A   1      38.027  34.502  29.496  1.00  0.00    -0.206 F 
ATOM     82  C   UNL A   1      34.427  34.700  29.739  1.00  0.00     0.060 A 
BRANCH  82  83
ATOM     83  S   UNL A   1      33.038  35.545  28.953  1.00  0.00     0.124 S 
ATOM     84  O   UNL A   1      32.439  34.467  28.176  1.00  0.00    -0.237 OA
ATOM     85  O   UNL A   1      32.269  36.007  30.105  1.00  0.00    -0.237 OA
ATOM     86  O   UNL A   1      33.684  36.600  28.178  1.00  0.00    -0.744 OA
ENDBRANCH  82  83
ENDBRANCH  50  75
BRANCH  62  87
ATOM     87  C   UNL A   1      39.772  34.238  37.149  1.00  0.00     0.058 A 
ATOM     88  C   UNL A   1      38.925  33.991  38.239  1.00  0.00     0.135 A 
ATOM     89  C   UNL A   1      40.507  35.435  37.146  1.00  0.00     0.135 A 
ATOM     90  F   UNL A   1      38.195  32.865  38.287  1.00  0.00    -0.206 F 
ATOM     91  C   UNL A   1      38.792  34.907  39.277  1.00  0.00     0.059 A 
ATOM     92  C   UNL A   1      40.413  36.351  38.190  1.00  0.00     0.059 A 
ATOM     93  F   UNL A   1      41.340  35.716  36.132  1.00  0.00    -0.206 F 
ATOM     94  C   UNL A   1      39.543  36.084  39.244  1.00  0.00     0.060 A 
BRANCH  94  95
ATOM     95  S   UNL A   1      39.384  37.249  40.615  1.00  0.00     0.124 S 
ATOM     96  O   UNL A   1      40.704  37.871  40.625  1.00  0.00    -0.237 OA
ATOM     97  O   UNL A   1      38.285  38.102  40.174  1.00  0.00    -0.237 OA
ATOM     98  O   UNL A   1      39.085  36.390  41.757  1.00  0.00    -0.744 OA
ENDBRANCH  94  95
ENDBRANCH  62  87
ENDBRANCH  36  37
ENDBRANCH  28  31
ENDBRANCH  26  27
ENDBRANCH  25  26
ENDBRANCH   1  25
TORSDOF 19
ENDMDL
