MODEL 1
REMARK VINA RESULT:      -9.9      0.000      0.000
REMARK SMILES CCCCCCNC(=O)Oc1cccc(-c2ccc([C@@H](C)C(=O)NCCCCCCNC(=O)c3ccc(-c4c5nc(c(-c6c(F)cc(S(=O)(=O)[O-])cc6F)c6ccc([nH]6)c(-c6c(F)cc(S(=O)(=O)[O-])cc6F)c6nc(c(-c7c(F)cc(S(=O)(=O)[O-])cc7F)c7ccc4[nH]7)C=C6)C=C5)cc3)cc2N)c1
REMARK SMILES IDX 22 1 23 2 24 3 20 5 21 6 19 7 16 8 17 9 101 10 18 11 100 12
REMARK SMILES IDX 15 13 11 14 12 15 103 16 13 17 14 18 10 19 8 20 7 21 9 23
REMARK SMILES IDX 6 24 5 25 4 26 3 27 2 28 1 29 102 30 25 33 26 34 27 35 28 36
REMARK SMILES IDX 29 37 30 38 31 39 32 40 33 42 34 43 35 44 99 45 36 46 98 47
REMARK SMILES IDX 37 48 38 49 39 50 92 51 40 52 97 53 91 54 93 55 41 56 96 57
REMARK SMILES IDX 90 58 89 59 42 61 76 62 55 63 75 64 56 65 59 66 74 67 94 68
REMARK SMILES IDX 57 69 58 70 73 72 95 73 60 74 43 75 44 76 53 77 45 78 46 79
REMARK SMILES IDX 52 80 54 81 47 82 48 83 49 84 50 85 51 86 77 87 78 88 87 89
REMARK SMILES IDX 79 90 80 91 86 92 88 93 81 94 82 95 83 96 84 97 85 98 61 99
REMARK SMILES IDX 62 100 71 101 63 102 64 103 70 104 72 105 65 106 66 107
REMARK SMILES IDX 67 108 68 109 69 110
REMARK H PARENT 24 4 7 22 102 31 102 32 31 41 93 60 59 71
REMARK Flexibility Score: inf
ROOT
ATOM      1  C   UNL A   1      30.897  24.136  25.234  1.00  0.00     0.227 C 
ATOM      2  O   UNL A   1      30.401  23.262  25.958  1.00  0.00    -0.274 OA
ATOM      3  N   UNL A   1      30.480  25.411  25.459  1.00  0.00    -0.356 N 
ATOM      4  H   UNL A   1      29.872  25.508  26.227  1.00  0.00     0.163 HD
ENDROOT
BRANCH   1   5
ATOM      5  C   UNL A   1      31.947  23.749  24.182  1.00  0.00     0.105 C 
ATOM      6  C   UNL A   1      31.553  22.549  23.321  1.00  0.00     0.023 C 
BRANCH   5   7
ATOM      7  C   UNL A   1      33.377  23.742  24.700  1.00  0.00    -0.034 A 
ATOM      8  C   UNL A   1      36.056  23.534  25.677  1.00  0.00     0.005 A 
ATOM      9  C   UNL A   1      35.751  24.174  24.460  1.00  0.00     0.011 A 
ATOM     10  C   UNL A   1      34.969  23.087  26.463  1.00  0.00     0.040 A 
ATOM     11  C   UNL A   1      34.438  24.324  24.011  1.00  0.00     0.005 A 
ATOM     12  C   UNL A   1      33.667  23.123  25.927  1.00  0.00     0.030 A 
BRANCH   8  13
ATOM     13  C   UNL A   1      37.481  23.387  26.065  1.00  0.00    -0.013 A 
ATOM     14  C   UNL A   1      39.529  22.086  26.217  1.00  0.00     0.133 A 
ATOM     15  C   UNL A   1      40.201  23.149  26.810  1.00  0.00     0.047 A 
ATOM     16  C   UNL A   1      38.192  22.198  25.830  1.00  0.00     0.056 A 
ATOM     17  C   UNL A   1      39.528  24.346  27.019  1.00  0.00     0.004 A 
ATOM     18  C   UNL A   1      38.180  24.456  26.665  1.00  0.00     0.009 A 
BRANCH  14  19
ATOM     19  O   UNL A   1      40.212  20.857  26.188  1.00  0.00    -0.410 OA
BRANCH  19  20
ATOM     20  C   UNL A   1      40.976  20.445  27.269  1.00  0.00     0.412 C 
ATOM     21  N   UNL A   1      42.084  19.738  26.889  1.00  0.00    -0.321 N 
ATOM     22  H   UNL A   1      42.651  19.382  27.609  1.00  0.00     0.167 HD
ATOM     23  O   UNL A   1      40.734  20.654  28.449  1.00  0.00    -0.224 OA
BRANCH  21  24
ATOM     24  C   UNL A   1      42.506  19.459  25.529  1.00  0.00     0.119 C 
BRANCH  24  25
ATOM     25  C   UNL A   1      43.728  18.542  25.490  1.00  0.00     0.021 C 
BRANCH  25  26
ATOM     26  C   UNL A   1      45.024  19.218  25.030  1.00  0.00     0.002 C 
BRANCH  26  27
ATOM     27  C   UNL A   1      44.883  20.681  24.591  1.00  0.00    -0.000 C 
BRANCH  27  28
ATOM     28  C   UNL A   1      46.171  21.506  24.644  1.00  0.00    -0.003 C 
ATOM     29  C   UNL A   1      45.964  22.968  24.281  1.00  0.00     0.004 C 
ENDBRANCH  27  28
ENDBRANCH  26  27
ENDBRANCH  25  26
ENDBRANCH  24  25
ENDBRANCH  21  24
ENDBRANCH  19  20
ENDBRANCH  14  19
ENDBRANCH   8  13
BRANCH  10  30
ATOM     30  N   UNL A   1      35.142  22.503  27.721  1.00  0.00    -0.398 N 
ATOM     31  H   UNL A   1      34.693  21.654  27.937  1.00  0.00     0.156 HD
ATOM     32  H   UNL A   1      35.712  22.943  28.393  1.00  0.00     0.156 HD
ENDBRANCH  10  30
ENDBRANCH   5   7
ENDBRANCH   1   5
BRANCH   3  33
ATOM     33  C   UNL A   1      30.768  26.652  24.770  1.00  0.00     0.116 C 
BRANCH  33  34
ATOM     34  C   UNL A   1      31.963  27.378  25.394  1.00  0.00     0.021 C 
BRANCH  34  35
ATOM     35  C   UNL A   1      31.704  27.882  26.816  1.00  0.00     0.002 C 
BRANCH  35  36
ATOM     36  C   UNL A   1      32.753  28.864  27.355  1.00  0.00     0.002 C 
BRANCH  36  37
ATOM     37  C   UNL A   1      32.478  30.342  27.062  1.00  0.00     0.021 C 
BRANCH  37  38
ATOM     38  C   UNL A   1      33.615  31.288  27.441  1.00  0.00     0.116 C 
BRANCH  38  39
ATOM     39  N   UNL A   1      33.122  32.623  27.744  1.00  0.00    -0.352 N 
ATOM     40  C   UNL A   1      33.534  33.510  28.706  1.00  0.00     0.251 C 
ATOM     41  H   UNL A   1      32.383  32.936  27.172  1.00  0.00     0.163 HD
ATOM     42  O   UNL A   1      32.835  34.481  28.980  1.00  0.00    -0.269 OA
BRANCH  40  43
ATOM     43  C   UNL A   1      34.813  33.291  29.415  1.00  0.00     0.039 A 
ATOM     44  C   UNL A   1      34.842  32.429  30.514  1.00  0.00     0.014 A 
ATOM     45  C   UNL A   1      35.973  33.961  29.018  1.00  0.00     0.014 A 
ATOM     46  C   UNL A   1      36.047  32.201  31.185  1.00  0.00     0.010 A 
ATOM     47  C   UNL A   1      37.186  33.680  29.642  1.00  0.00     0.010 A 
ATOM     48  C   UNL A   1      37.233  32.805  30.737  1.00  0.00    -0.014 A 
BRANCH  48  49
ATOM     49  C   UNL A   1      38.532  32.540  31.408  1.00  0.00     0.031 A 
ATOM     50  C   UNL A   1      39.513  31.577  30.796  1.00  0.00     0.074 A 
ATOM     51  C   UNL A   1      38.799  33.117  32.596  1.00  0.00     0.049 A 
ATOM     52  N   UNL A   1      40.662  31.160  31.264  1.00  0.00    -0.248 NA
ATOM     53  C   UNL A   1      39.143  30.982  29.502  1.00  0.00     0.031 C 
ATOM     54  C   UNL A   1      37.906  34.032  33.311  1.00  0.00     0.029 A 
ATOM     55  N   UNL A   1      39.892  33.012  33.419  1.00  0.00    -0.354 N 
ATOM     56  C   UNL A   1      41.142  30.246  30.332  1.00  0.00     0.074 A 
ATOM     57  C   UNL A   1      40.137  30.130  29.299  1.00  0.00     0.031 C 
ATOM     58  C   UNL A   1      38.494  34.417  34.455  1.00  0.00     0.029 A 
ATOM     59  C   UNL A   1      39.787  33.750  34.575  1.00  0.00     0.049 A 
ATOM     60  H   UNL A   1      40.677  32.459  33.202  1.00  0.00     0.167 HD
ATOM     61  C   UNL A   1      42.323  29.582  30.329  1.00  0.00     0.037 A 
ATOM     62  C   UNL A   1      40.632  33.869  35.616  1.00  0.00     0.037 A 
ATOM     63  C   UNL A   1      43.329  29.723  31.349  1.00  0.00     0.049 A 
ATOM     64  C   UNL A   1      41.940  33.127  35.586  1.00  0.00     0.074 A 
ATOM     65  C   UNL A   1      44.584  29.141  31.407  1.00  0.00     0.029 A 
ATOM     66  N   UNL A   1      43.199  30.504  32.489  1.00  0.00    -0.354 N 
ATOM     67  N   UNL A   1      42.406  32.314  34.667  1.00  0.00    -0.248 NA
ATOM     68  C   UNL A   1      42.844  33.323  36.728  1.00  0.00     0.031 C 
ATOM     69  C   UNL A   1      45.193  29.533  32.604  1.00  0.00     0.029 A 
ATOM     70  C   UNL A   1      44.340  30.402  33.267  1.00  0.00     0.049 A 
ATOM     71  H   UNL A   1      42.409  31.048  32.712  1.00  0.00     0.167 HD
ATOM     72  C   UNL A   1      43.666  31.925  35.106  1.00  0.00     0.074 A 
ATOM     73  C   UNL A   1      43.895  32.599  36.368  1.00  0.00     0.031 C 
ATOM     74  C   UNL A   1      44.555  31.087  34.518  1.00  0.00     0.037 A 
BRANCH  61  75
ATOM     75  C   UNL A   1      42.592  28.642  29.185  1.00  0.00     0.058 A 
ATOM     76  C   UNL A   1      42.099  27.327  29.178  1.00  0.00     0.135 A 
ATOM     77  C   UNL A   1      43.321  29.071  28.063  1.00  0.00     0.135 A 
ATOM     78  F   UNL A   1      41.408  26.858  30.229  1.00  0.00    -0.206 F 
ATOM     79  C   UNL A   1      42.345  26.462  28.116  1.00  0.00     0.059 A 
ATOM     80  C   UNL A   1      43.554  28.233  26.976  1.00  0.00     0.059 A 
ATOM     81  F   UNL A   1      43.817  30.318  28.015  1.00  0.00    -0.206 F 
ATOM     82  C   UNL A   1      43.073  26.924  27.019  1.00  0.00     0.060 A 
BRANCH  82  83
ATOM     83  S   UNL A   1      43.377  25.792  25.646  1.00  0.00     0.124 S 
ATOM     84  O   UNL A   1      44.681  26.249  25.176  1.00  0.00    -0.237 OA
ATOM     85  O   UNL A   1      43.363  24.491  26.306  1.00  0.00    -0.237 OA
ATOM     86  O   UNL A   1      42.260  26.046  24.742  1.00  0.00    -0.744 OA
ENDBRANCH  82  83
ENDBRANCH  61  75
BRANCH  62  87
ATOM     87  C   UNL A   1      40.275  34.745  36.765  1.00  0.00     0.058 A 
ATOM     88  C   UNL A   1      40.799  36.041  36.875  1.00  0.00     0.135 A 
ATOM     89  C   UNL A   1      39.391  34.311  37.764  1.00  0.00     0.135 A 
ATOM     90  F   UNL A   1      41.654  36.499  35.947  1.00  0.00    -0.206 F 
ATOM     91  C   UNL A   1      40.474  36.871  37.942  1.00  0.00     0.059 A 
ATOM     92  C   UNL A   1      39.030  35.131  38.828  1.00  0.00     0.059 A 
ATOM     93  F   UNL A   1      38.847  33.086  37.696  1.00  0.00    -0.206 F 
ATOM     94  C   UNL A   1      39.586  36.407  38.914  1.00  0.00     0.060 A 
BRANCH  94  95
ATOM     95  S   UNL A   1      39.131  37.511  40.270  1.00  0.00     0.124 S 
ATOM     96  O   UNL A   1      38.532  36.577  41.218  1.00  0.00    -0.237 OA
ATOM     97  O   UNL A   1      40.422  38.073  40.654  1.00  0.00    -0.237 OA
ATOM     98  O   UNL A   1      38.208  38.451  39.641  1.00  0.00    -0.744 OA
ENDBRANCH  94  95
ENDBRANCH  62  87
BRANCH  74  99
ATOM     99  C   UNL A   1      45.875  30.879  35.208  1.00  0.00     0.058 A 
ATOM    100  C   UNL A   1      46.933  31.790  35.069  1.00  0.00     0.135 A 
ATOM    101  C   UNL A   1      46.062  29.780  36.062  1.00  0.00     0.135 A 
ATOM    102  F   UNL A   1      46.807  32.854  34.259  1.00  0.00    -0.206 F 
ATOM    103  C   UNL A   1      48.140  31.607  35.736  1.00  0.00     0.059 A 
ATOM    104  C   UNL A   1      47.251  29.592  36.760  1.00  0.00     0.059 A 
ATOM    105  F   UNL A   1      45.077  28.884  36.238  1.00  0.00    -0.206 F 
ATOM    106  C   UNL A   1      48.289  30.505  36.581  1.00  0.00     0.060 A 
BRANCH 106 107
ATOM    107  S   UNL A   1      49.848  30.298  37.468  1.00  0.00     0.124 S 
ATOM    108  O   UNL A   1      49.912  31.534  38.240  1.00  0.00    -0.237 OA
ATOM    109  O   UNL A   1      49.610  29.081  38.238  1.00  0.00    -0.237 OA
ATOM    110  O   UNL A   1      50.833  30.173  36.399  1.00  0.00    -0.744 OA
ENDBRANCH 106 107
ENDBRANCH  74  99
ENDBRANCH  48  49
ENDBRANCH  40  43
ENDBRANCH  38  39
ENDBRANCH  37  38
ENDBRANCH  36  37
ENDBRANCH  35  36
ENDBRANCH  34  35
ENDBRANCH  33  34
ENDBRANCH   3  33
TORSDOF 26
ENDMDL
MODEL 2
REMARK VINA RESULT:      -9.8      4.584     10.358
REMARK SMILES CCCCCCNC(=O)Oc1cccc(-c2ccc([C@@H](C)C(=O)NCCCCCCNC(=O)c3ccc(-c4c5nc(c(-c6c(F)cc(S(=O)(=O)[O-])cc6F)c6ccc([nH]6)c(-c6c(F)cc(S(=O)(=O)[O-])cc6F)c6nc(c(-c7c(F)cc(S(=O)(=O)[O-])cc7F)c7ccc4[nH]7)C=C6)C=C5)cc3)cc2N)c1
REMARK SMILES IDX 22 1 23 2 24 3 20 5 21 6 19 7 16 8 17 9 101 10 18 11 100 12
REMARK SMILES IDX 15 13 11 14 12 15 103 16 13 17 14 18 10 19 8 20 7 21 9 23
REMARK SMILES IDX 6 24 5 25 4 26 3 27 2 28 1 29 102 30 25 33 26 34 27 35 28 36
REMARK SMILES IDX 29 37 30 38 31 39 32 40 33 42 34 43 35 44 99 45 36 46 98 47
REMARK SMILES IDX 37 48 38 49 39 50 92 51 40 52 97 53 91 54 93 55 41 56 96 57
REMARK SMILES IDX 90 58 89 59 42 61 76 62 55 63 75 64 56 65 59 66 74 67 94 68
REMARK SMILES IDX 57 69 58 70 73 72 95 73 60 74 43 75 44 76 53 77 45 78 46 79
REMARK SMILES IDX 52 80 54 81 47 82 48 83 49 84 50 85 51 86 77 87 78 88 87 89
REMARK SMILES IDX 79 90 80 91 86 92 88 93 81 94 82 95 83 96 84 97 85 98 61 99
REMARK SMILES IDX 62 100 71 101 63 102 64 103 70 104 72 105 65 106 66 107
REMARK SMILES IDX 67 108 68 109 69 110
REMARK H PARENT 24 4 7 22 102 31 102 32 31 41 93 60 59 71
REMARK Flexibility Score: inf
ROOT
ATOM      1  C   UNL A   1      41.783  23.838  27.033  1.00  0.00     0.227 C 
ATOM      2  O   UNL A   1      40.690  23.779  27.614  1.00  0.00    -0.274 OA
ATOM      3  N   UNL A   1      41.913  23.074  25.916  1.00  0.00    -0.356 N 
ATOM      4  H   UNL A   1      41.090  22.603  25.651  1.00  0.00     0.163 HD
ENDROOT
BRANCH   1   5
ATOM      5  C   UNL A   1      42.881  24.769  27.569  1.00  0.00     0.105 C 
ATOM      6  C   UNL A   1      43.873  24.084  28.509  1.00  0.00     0.023 C 
BRANCH   5   7
ATOM      7  C   UNL A   1      42.378  26.131  28.026  1.00  0.00    -0.034 A 
ATOM      8  C   UNL A   1      41.254  28.629  28.838  1.00  0.00     0.005 A 
ATOM      9  C   UNL A   1      41.992  27.819  29.722  1.00  0.00     0.011 A 
ATOM     10  C   UNL A   1      41.177  28.213  27.489  1.00  0.00     0.040 A 
ATOM     11  C   UNL A   1      42.588  26.626  29.309  1.00  0.00     0.005 A 
ATOM     12  C   UNL A   1      41.664  26.942  27.129  1.00  0.00     0.030 A 
BRANCH   8  13
ATOM     13  C   UNL A   1      40.625  29.866  29.366  1.00  0.00    -0.013 A 
ATOM     14  C   UNL A   1      38.667  31.179  29.962  1.00  0.00     0.133 A 
ATOM     15  C   UNL A   1      39.463  32.237  30.386  1.00  0.00     0.047 A 
ATOM     16  C   UNL A   1      39.229  29.998  29.473  1.00  0.00     0.056 A 
ATOM     17  C   UNL A   1      40.845  32.115  30.322  1.00  0.00     0.004 A 
ATOM     18  C   UNL A   1      41.416  30.949  29.803  1.00  0.00     0.009 A 
BRANCH  14  19
ATOM     19  O   UNL A   1      37.285  31.428  29.894  1.00  0.00    -0.410 OA
BRANCH  19  20
ATOM     20  C   UNL A   1      36.791  32.719  30.002  1.00  0.00     0.412 C 
ATOM     21  N   UNL A   1      36.042  32.902  31.133  1.00  0.00    -0.321 N 
ATOM     22  H   UNL A   1      35.630  33.787  31.253  1.00  0.00     0.167 HD
ATOM     23  O   UNL A   1      36.967  33.630  29.206  1.00  0.00    -0.224 OA
BRANCH  21  24
ATOM     24  C   UNL A   1      35.796  31.921  32.173  1.00  0.00     0.119 C 
BRANCH  24  25
ATOM     25  C   UNL A   1      36.385  32.356  33.515  1.00  0.00     0.021 C 
BRANCH  25  26
ATOM     26  C   UNL A   1      37.915  32.302  33.592  1.00  0.00     0.002 C 
BRANCH  26  27
ATOM     27  C   UNL A   1      38.522  30.895  33.646  1.00  0.00    -0.000 C 
BRANCH  27  28
ATOM     28  C   UNL A   1      40.052  30.844  33.685  1.00  0.00    -0.003 C 
ATOM     29  C   UNL A   1      40.606  29.429  33.719  1.00  0.00     0.004 C 
ENDBRANCH  27  28
ENDBRANCH  26  27
ENDBRANCH  25  26
ENDBRANCH  24  25
ENDBRANCH  21  24
ENDBRANCH  19  20
ENDBRANCH  14  19
ENDBRANCH   8  13
BRANCH  10  30
ATOM     30  N   UNL A   1      40.535  28.970  26.504  1.00  0.00    -0.398 N 
ATOM     31  H   UNL A   1      39.828  28.563  25.953  1.00  0.00     0.156 HD
ATOM     32  H   UNL A   1      40.791  29.910  26.362  1.00  0.00     0.156 HD
ENDBRANCH  10  30
ENDBRANCH   5   7
ENDBRANCH   1   5
BRANCH   3  33
ATOM     33  C   UNL A   1      43.044  22.826  25.046  1.00  0.00     0.116 C 
BRANCH  33  34
ATOM     34  C   UNL A   1      43.825  21.583  25.479  1.00  0.00     0.021 C 
BRANCH  34  35
ATOM     35  C   UNL A   1      45.314  21.637  25.124  1.00  0.00     0.002 C 
BRANCH  35  36
ATOM     36  C   UNL A   1      46.083  22.816  25.735  1.00  0.00     0.002 C 
BRANCH  36  37
ATOM     37  C   UNL A   1      46.648  23.822  24.728  1.00  0.00     0.021 C 
BRANCH  37  38
ATOM     38  C   UNL A   1      47.069  25.159  25.332  1.00  0.00     0.116 C 
BRANCH  38  39
ATOM     39  N   UNL A   1      47.349  26.147  24.303  1.00  0.00    -0.352 N 
ATOM     40  C   UNL A   1      47.038  27.483  24.264  1.00  0.00     0.251 C 
ATOM     41  H   UNL A   1      47.834  25.807  23.515  1.00  0.00     0.163 HD
ATOM     42  O   UNL A   1      47.126  28.101  23.207  1.00  0.00    -0.269 OA
BRANCH  40  43
ATOM     43  C   UNL A   1      46.592  28.174  25.493  1.00  0.00     0.039 A 
ATOM     44  C   UNL A   1      47.527  28.886  26.249  1.00  0.00     0.014 A 
ATOM     45  C   UNL A   1      45.263  28.091  25.917  1.00  0.00     0.014 A 
ATOM     46  C   UNL A   1      47.117  29.556  27.406  1.00  0.00     0.010 A 
ATOM     47  C   UNL A   1      44.842  28.815  27.029  1.00  0.00     0.010 A 
ATOM     48  C   UNL A   1      45.766  29.547  27.790  1.00  0.00    -0.014 A 
BRANCH  48  49
ATOM     49  C   UNL A   1      45.302  30.290  28.989  1.00  0.00     0.031 A 
ATOM     50  C   UNL A   1      45.215  29.593  30.321  1.00  0.00     0.074 A 
ATOM     51  C   UNL A   1      44.898  31.570  28.867  1.00  0.00     0.049 A 
ATOM     52  N   UNL A   1      44.767  30.047  31.463  1.00  0.00    -0.248 NA
ATOM     53  C   UNL A   1      45.665  28.192  30.368  1.00  0.00     0.031 C 
ATOM     54  C   UNL A   1      44.891  32.338  27.619  1.00  0.00     0.029 A 
ATOM     55  N   UNL A   1      44.405  32.448  29.798  1.00  0.00    -0.354 N 
ATOM     56  C   UNL A   1      44.867  28.987  32.358  1.00  0.00     0.074 A 
ATOM     57  C   UNL A   1      45.369  27.853  31.615  1.00  0.00     0.031 C 
ATOM     58  C   UNL A   1      44.434  33.575  27.867  1.00  0.00     0.029 A 
ATOM     59  C   UNL A   1      44.080  33.679  29.280  1.00  0.00     0.049 A 
ATOM     60  H   UNL A   1      44.294  32.218  30.749  1.00  0.00     0.167 HD
ATOM     61  C   UNL A   1      44.586  28.970  33.684  1.00  0.00     0.037 A 
ATOM     62  C   UNL A   1      43.551  34.767  29.873  1.00  0.00     0.037 A 
ATOM     63  C   UNL A   1      44.111  30.112  34.421  1.00  0.00     0.049 A 
ATOM     64  C   UNL A   1      43.254  34.725  31.347  1.00  0.00     0.074 A 
ATOM     65  C   UNL A   1      43.854  30.214  35.777  1.00  0.00     0.029 A 
ATOM     66  N   UNL A   1      43.823  31.350  33.866  1.00  0.00    -0.354 N 
ATOM     67  N   UNL A   1      43.413  33.733  32.192  1.00  0.00    -0.248 NA
ATOM     68  C   UNL A   1      42.715  35.950  31.953  1.00  0.00     0.031 C 
ATOM     69  C   UNL A   1      43.368  31.500  36.035  1.00  0.00     0.029 A 
ATOM     70  C   UNL A   1      43.372  32.216  34.848  1.00  0.00     0.049 A 
ATOM     71  H   UNL A   1      43.924  31.579  32.914  1.00  0.00     0.167 HD
ATOM     72  C   UNL A   1      43.021  34.224  33.432  1.00  0.00     0.074 A 
ATOM     73  C   UNL A   1      42.626  35.603  33.230  1.00  0.00     0.031 C 
ATOM     74  C   UNL A   1      42.991  33.590  34.631  1.00  0.00     0.037 A 
BRANCH  61  75
ATOM     75  C   UNL A   1      44.788  27.675  34.422  1.00  0.00     0.058 A 
ATOM     76  C   UNL A   1      45.934  27.439  35.201  1.00  0.00     0.135 A 
ATOM     77  C   UNL A   1      43.808  26.669  34.384  1.00  0.00     0.135 A 
ATOM     78  F   UNL A   1      46.909  28.359  35.264  1.00  0.00    -0.206 F 
ATOM     79  C   UNL A   1      46.114  26.242  35.887  1.00  0.00     0.059 A 
ATOM     80  C   UNL A   1      43.954  25.476  35.087  1.00  0.00     0.059 A 
ATOM     81  F   UNL A   1      42.692  26.839  33.656  1.00  0.00    -0.206 F 
ATOM     82  C   UNL A   1      45.119  25.266  35.825  1.00  0.00     0.060 A 
BRANCH  82  83
ATOM     83  S   UNL A   1      45.365  23.723  36.727  1.00  0.00     0.124 S 
ATOM     84  O   UNL A   1      44.417  22.839  36.055  1.00  0.00    -0.237 OA
ATOM     85  O   UNL A   1      46.775  23.440  36.483  1.00  0.00    -0.237 OA
ATOM     86  O   UNL A   1      45.027  24.075  38.102  1.00  0.00    -0.744 OA
ENDBRANCH  82  83
ENDBRANCH  61  75
BRANCH  62  87
ATOM     87  C   UNL A   1      43.289  35.994  29.074  1.00  0.00     0.058 A 
ATOM     88  C   UNL A   1      42.047  36.200  28.454  1.00  0.00     0.135 A 
ATOM     89  C   UNL A   1      44.264  36.992  28.930  1.00  0.00     0.135 A 
ATOM     90  F   UNL A   1      41.084  35.272  28.559  1.00  0.00    -0.206 F 
ATOM     91  C   UNL A   1      41.786  37.342  27.705  1.00  0.00     0.059 A 
ATOM     92  C   UNL A   1      44.019  38.156  28.207  1.00  0.00     0.059 A 
ATOM     93  F   UNL A   1      45.462  36.853  29.518  1.00  0.00    -0.206 F 
ATOM     94  C   UNL A   1      42.779  38.316  27.589  1.00  0.00     0.060 A 
BRANCH  94  95
ATOM     95  S   UNL A   1      42.414  39.819  26.656  1.00  0.00     0.124 S 
ATOM     96  O   UNL A   1      42.281  40.802  27.725  1.00  0.00    -0.237 OA
ATOM     97  O   UNL A   1      43.596  39.950  25.810  1.00  0.00    -0.237 OA
ATOM     98  O   UNL A   1      41.181  39.483  25.949  1.00  0.00    -0.744 OA
ENDBRANCH  94  95
ENDBRANCH  62  87
BRANCH  74  99
ATOM     99  C   UNL A   1      42.554  34.390  35.828  1.00  0.00     0.058 A 
ATOM    100  C   UNL A   1      43.472  35.103  36.614  1.00  0.00     0.135 A 
ATOM    101  C   UNL A   1      41.193  34.485  36.158  1.00  0.00     0.135 A 
ATOM    102  F   UNL A   1      44.786  35.040  36.345  1.00  0.00    -0.206 F 
ATOM    103  C   UNL A   1      43.057  35.865  37.701  1.00  0.00     0.059 A 
ATOM    104  C   UNL A   1      40.753  35.264  37.223  1.00  0.00     0.059 A 
ATOM    105  F   UNL A   1      40.273  33.831  35.431  1.00  0.00    -0.206 F 
ATOM    106  C   UNL A   1      41.694  35.942  37.996  1.00  0.00     0.060 A 
BRANCH 106 107
ATOM    107  S   UNL A   1      41.165  36.963  39.388  1.00  0.00     0.124 S 
ATOM    108  O   UNL A   1      39.880  37.464  38.912  1.00  0.00    -0.237 OA
ATOM    109  O   UNL A   1      41.103  35.996  40.480  1.00  0.00    -0.237 OA
ATOM    110  O   UNL A   1      42.225  37.960  39.501  1.00  0.00    -0.744 OA
ENDBRANCH 106 107
ENDBRANCH  74  99
ENDBRANCH  48  49
ENDBRANCH  40  43
ENDBRANCH  38  39
ENDBRANCH  37  38
ENDBRANCH  36  37
ENDBRANCH  35  36
ENDBRANCH  34  35
ENDBRANCH  33  34
ENDBRANCH   3  33
TORSDOF 26
ENDMDL
MODEL 3
REMARK VINA RESULT:      -9.6      4.793      9.568
REMARK SMILES CCCCCCNC(=O)Oc1cccc(-c2ccc([C@@H](C)C(=O)NCCCCCCNC(=O)c3ccc(-c4c5nc(c(-c6c(F)cc(S(=O)(=O)[O-])cc6F)c6ccc([nH]6)c(-c6c(F)cc(S(=O)(=O)[O-])cc6F)c6nc(c(-c7c(F)cc(S(=O)(=O)[O-])cc7F)c7ccc4[nH]7)C=C6)C=C5)cc3)cc2N)c1
REMARK SMILES IDX 22 1 23 2 24 3 20 5 21 6 19 7 16 8 17 9 101 10 18 11 100 12
REMARK SMILES IDX 15 13 11 14 12 15 103 16 13 17 14 18 10 19 8 20 7 21 9 23
REMARK SMILES IDX 6 24 5 25 4 26 3 27 2 28 1 29 102 30 25 33 26 34 27 35 28 36
REMARK SMILES IDX 29 37 30 38 31 39 32 40 33 42 34 43 35 44 99 45 36 46 98 47
REMARK SMILES IDX 37 48 38 49 39 50 92 51 40 52 97 53 91 54 93 55 41 56 96 57
REMARK SMILES IDX 90 58 89 59 42 61 76 62 55 63 75 64 56 65 59 66 74 67 94 68
REMARK SMILES IDX 57 69 58 70 73 72 95 73 60 74 43 75 44 76 53 77 45 78 46 79
REMARK SMILES IDX 52 80 54 81 47 82 48 83 49 84 50 85 51 86 77 87 78 88 87 89
REMARK SMILES IDX 79 90 80 91 86 92 88 93 81 94 82 95 83 96 84 97 85 98 61 99
REMARK SMILES IDX 62 100 71 101 63 102 64 103 70 104 72 105 65 106 66 107
REMARK SMILES IDX 67 108 68 109 69 110
REMARK H PARENT 24 4 7 22 102 31 102 32 31 41 93 60 59 71
REMARK Flexibility Score: inf
ROOT
ATOM      1  C   UNL A   1      34.935  31.500  28.757  1.00  0.00     0.227 C 
ATOM      2  O   UNL A   1      34.430  32.079  29.728  1.00  0.00    -0.274 OA
ATOM      3  N   UNL A   1      36.166  30.957  28.953  1.00  0.00    -0.356 N 
ATOM      4  H   UNL A   1      36.496  31.028  29.878  1.00  0.00     0.163 HD
ENDROOT
BRANCH   1   5
ATOM      5  C   UNL A   1      34.152  31.398  27.439  1.00  0.00     0.105 C 
ATOM      6  C   UNL A   1      33.116  32.505  27.243  1.00  0.00     0.023 C 
BRANCH   5   7
ATOM      7  C   UNL A   1      33.680  29.992  27.099  1.00  0.00    -0.034 A 
ATOM      8  C   UNL A   1      32.630  27.429  26.391  1.00  0.00     0.005 A 
ATOM      9  C   UNL A   1      33.850  27.907  25.873  1.00  0.00     0.011 A 
ATOM     10  C   UNL A   1      31.986  28.223  27.368  1.00  0.00     0.040 A 
ATOM     11  C   UNL A   1      34.389  29.134  26.263  1.00  0.00     0.005 A 
ATOM     12  C   UNL A   1      32.474  29.516  27.640  1.00  0.00     0.030 A 
BRANCH   8  13
ATOM     13  C   UNL A   1      32.111  26.129  25.899  1.00  0.00    -0.013 A 
ATOM     14  C   UNL A   1      32.099  23.698  25.896  1.00  0.00     0.133 A 
ATOM     15  C   UNL A   1      31.087  23.669  24.942  1.00  0.00     0.047 A 
ATOM     16  C   UNL A   1      32.599  24.905  26.388  1.00  0.00     0.056 A 
ATOM     17  C   UNL A   1      30.564  24.867  24.471  1.00  0.00     0.004 A 
ATOM     18  C   UNL A   1      31.083  26.081  24.934  1.00  0.00     0.009 A 
BRANCH  14  19
ATOM     19  O   UNL A   1      32.697  22.463  26.204  1.00  0.00    -0.410 OA
BRANCH  19  20
ATOM     20  C   UNL A   1      33.295  22.253  27.437  1.00  0.00     0.412 C 
ATOM     21  N   UNL A   1      34.614  21.907  27.329  1.00  0.00    -0.321 N 
ATOM     22  H   UNL A   1      35.090  21.706  28.167  1.00  0.00     0.167 HD
ATOM     23  O   UNL A   1      32.753  22.347  28.530  1.00  0.00    -0.224 OA
BRANCH  21  24
ATOM     24  C   UNL A   1      35.382  21.805  26.103  1.00  0.00     0.119 C 
BRANCH  24  25
ATOM     25  C   UNL A   1      36.319  22.999  25.918  1.00  0.00     0.021 C 
BRANCH  25  26
ATOM     26  C   UNL A   1      35.984  23.900  24.724  1.00  0.00     0.002 C 
BRANCH  26  27
ATOM     27  C   UNL A   1      34.854  23.398  23.818  1.00  0.00    -0.000 C 
BRANCH  27  28
ATOM     28  C   UNL A   1      34.126  24.482  23.019  1.00  0.00    -0.003 C 
ATOM     29  C   UNL A   1      33.211  23.922  21.942  1.00  0.00     0.004 C 
ENDBRANCH  27  28
ENDBRANCH  26  27
ENDBRANCH  25  26
ENDBRANCH  24  25
ENDBRANCH  21  24
ENDBRANCH  19  20
ENDBRANCH  14  19
ENDBRANCH   8  13
BRANCH  10  30
ATOM     30  N   UNL A   1      30.810  27.821  28.006  1.00  0.00    -0.398 N 
ATOM     31  H   UNL A   1      30.855  27.300  28.840  1.00  0.00     0.156 HD
ATOM     32  H   UNL A   1      29.935  28.059  27.621  1.00  0.00     0.156 HD
ENDBRANCH  10  30
ENDBRANCH   5   7
ENDBRANCH   1   5
BRANCH   3  33
ATOM     33  C   UNL A   1      37.081  30.295  28.046  1.00  0.00     0.116 C 
BRANCH  33  34
ATOM     34  C   UNL A   1      37.557  28.953  28.608  1.00  0.00     0.021 C 
BRANCH  34  35
ATOM     35  C   UNL A   1      38.568  29.087  29.751  1.00  0.00     0.002 C 
BRANCH  35  36
ATOM     36  C   UNL A   1      38.435  28.033  30.857  1.00  0.00     0.002 C 
BRANCH  36  37
ATOM     37  C   UNL A   1      37.499  28.407  32.010  1.00  0.00     0.021 C 
BRANCH  37  38
ATOM     38  C   UNL A   1      37.395  29.905  32.285  1.00  0.00     0.116 C 
BRANCH  38  39
ATOM     39  N   UNL A   1      37.922  30.246  33.597  1.00  0.00    -0.352 N 
ATOM     40  C   UNL A   1      39.203  30.143  34.079  1.00  0.00     0.251 C 
ATOM     41  H   UNL A   1      37.262  30.605  34.234  1.00  0.00     0.163 HD
ATOM     42  O   UNL A   1      39.411  30.236  35.285  1.00  0.00    -0.269 OA
BRANCH  40  43
ATOM     43  C   UNL A   1      40.328  29.915  33.147  1.00  0.00     0.039 A 
ATOM     44  C   UNL A   1      41.146  28.798  33.331  1.00  0.00     0.014 A 
ATOM     45  C   UNL A   1      40.595  30.819  32.115  1.00  0.00     0.014 A 
ATOM     46  C   UNL A   1      42.204  28.562  32.448  1.00  0.00     0.010 A 
ATOM     47  C   UNL A   1      41.604  30.546  31.196  1.00  0.00     0.010 A 
ATOM     48  C   UNL A   1      42.426  29.420  31.359  1.00  0.00    -0.014 A 
BRANCH  48  49
ATOM     49  C   UNL A   1      43.516  29.162  30.384  1.00  0.00     0.031 A 
ATOM     50  C   UNL A   1      43.526  27.885  29.586  1.00  0.00     0.074 A 
ATOM     51  C   UNL A   1      44.527  30.044  30.265  1.00  0.00     0.049 A 
ATOM     52  N   UNL A   1      44.426  27.446  28.743  1.00  0.00    -0.248 NA
ATOM     53  C   UNL A   1      42.391  26.970  29.781  1.00  0.00     0.031 C 
ATOM     54  C   UNL A   1      44.652  31.294  31.019  1.00  0.00     0.029 A 
ATOM     55  N   UNL A   1      45.649  30.022  29.475  1.00  0.00    -0.354 N 
ATOM     56  C   UNL A   1      43.974  26.200  28.321  1.00  0.00     0.074 A 
ATOM     57  C   UNL A   1      42.748  25.931  29.038  1.00  0.00     0.031 C 
ATOM     58  C   UNL A   1      45.775  31.924  30.643  1.00  0.00     0.029 A 
ATOM     59  C   UNL A   1      46.470  31.111  29.651  1.00  0.00     0.049 A 
ATOM     60  H   UNL A   1      45.847  29.294  28.842  1.00  0.00     0.167 HD
ATOM     61  C   UNL A   1      44.521  25.368  27.402  1.00  0.00     0.037 A 
ATOM     62  C   UNL A   1      47.653  31.415  29.082  1.00  0.00     0.037 A 
ATOM     63  C   UNL A   1      45.729  25.657  26.673  1.00  0.00     0.049 A 
ATOM     64  C   UNL A   1      48.236  30.479  28.060  1.00  0.00     0.074 A 
ATOM     65  C   UNL A   1      46.333  24.908  25.678  1.00  0.00     0.029 A 
ATOM     66  N   UNL A   1      46.516  26.784  26.857  1.00  0.00    -0.354 N 
ATOM     67  N   UNL A   1      47.764  29.333  27.627  1.00  0.00    -0.248 NA
ATOM     68  C   UNL A   1      49.509  30.876  27.442  1.00  0.00     0.031 C 
ATOM     69  C   UNL A   1      47.509  25.559  25.293  1.00  0.00     0.029 A 
ATOM     70  C   UNL A   1      47.611  26.741  26.010  1.00  0.00     0.049 A 
ATOM     71  H   UNL A   1      46.325  27.507  27.497  1.00  0.00     0.167 HD
ATOM     72  C   UNL A   1      48.665  28.889  26.665  1.00  0.00     0.074 A 
ATOM     73  C   UNL A   1      49.706  29.893  26.574  1.00  0.00     0.031 C 
ATOM     74  C   UNL A   1      48.634  27.754  25.925  1.00  0.00     0.037 A 
BRANCH  61  75
ATOM     75  C   UNL A   1      43.816  24.067  27.131  1.00  0.00     0.058 A 
ATOM     76  C   UNL A   1      43.087  23.853  25.949  1.00  0.00     0.135 A 
ATOM     77  C   UNL A   1      43.897  23.005  28.047  1.00  0.00     0.135 A 
ATOM     78  F   UNL A   1      42.964  24.837  25.044  1.00  0.00    -0.206 F 
ATOM     79  C   UNL A   1      42.441  22.646  25.699  1.00  0.00     0.059 A 
ATOM     80  C   UNL A   1      43.284  21.779  27.805  1.00  0.00     0.059 A 
ATOM     81  F   UNL A   1      44.580  23.153  29.194  1.00  0.00    -0.206 F 
ATOM     82  C   UNL A   1      42.545  21.615  26.633  1.00  0.00     0.060 A 
BRANCH  82  83
ATOM     83  S   UNL A   1      41.707  20.053  26.291  1.00  0.00     0.124 S 
ATOM     84  O   UNL A   1      42.424  19.594  25.105  1.00  0.00    -0.237 OA
ATOM     85  O   UNL A   1      41.952  19.294  27.512  1.00  0.00    -0.237 OA
ATOM     86  O   UNL A   1      40.321  20.452  26.070  1.00  0.00    -0.744 OA
ENDBRANCH  82  83
ENDBRANCH  61  75
BRANCH  62  87
ATOM     87  C   UNL A   1      48.352  32.675  29.454  1.00  0.00     0.058 A 
ATOM     88  C   UNL A   1      49.305  32.695  30.483  1.00  0.00     0.135 A 
ATOM     89  C   UNL A   1      48.097  33.877  28.776  1.00  0.00     0.135 A 
ATOM     90  F   UNL A   1      49.579  31.572  31.164  1.00  0.00    -0.206 F 
ATOM     91  C   UNL A   1      49.967  33.864  30.841  1.00  0.00     0.059 A 
ATOM     92  C   UNL A   1      48.765  35.054  29.098  1.00  0.00     0.059 A 
ATOM     93  F   UNL A   1      47.208  33.908  27.771  1.00  0.00    -0.206 F 
ATOM     94  C   UNL A   1      49.691  35.040  30.140  1.00  0.00     0.060 A 
BRANCH  94  95
ATOM     95  S   UNL A   1      50.593  36.542  30.579  1.00  0.00     0.124 S 
ATOM     96  O   UNL A   1      51.838  36.362  29.842  1.00  0.00    -0.237 OA
ATOM     97  O   UNL A   1      49.704  37.589  30.086  1.00  0.00    -0.237 OA
ATOM     98  O   UNL A   1      50.701  36.455  32.033  1.00  0.00    -0.744 OA
ENDBRANCH  94  95
ENDBRANCH  62  87
BRANCH  74  99
ATOM     99  C   UNL A   1      49.735  27.551  24.920  1.00  0.00     0.058 A 
ATOM    100  C   UNL A   1      51.028  27.167  25.307  1.00  0.00     0.135 A 
ATOM    101  C   UNL A   1      49.474  27.690  23.547  1.00  0.00     0.135 A 
ATOM    102  F   UNL A   1      51.330  27.027  26.608  1.00  0.00    -0.206 F 
ATOM    103  C   UNL A   1      52.032  26.951  24.370  1.00  0.00     0.059 A 
ATOM    104  C   UNL A   1      50.456  27.451  22.590  1.00  0.00     0.059 A 
ATOM    105  F   UNL A   1      48.251  28.044  23.122  1.00  0.00    -0.206 F 
ATOM    106  C   UNL A   1      51.736  27.094  23.013  1.00  0.00     0.060 A 
BRANCH 106 107
ATOM    107  S   UNL A   1      53.038  26.776  21.803  1.00  0.00     0.124 S 
ATOM    108  O   UNL A   1      52.330  25.970  20.815  1.00  0.00    -0.237 OA
ATOM    109  O   UNL A   1      53.405  28.123  21.378  1.00  0.00    -0.237 OA
ATOM    110  O   UNL A   1      54.056  26.071  22.577  1.00  0.00    -0.744 OA
ENDBRANCH 106 107
ENDBRANCH  74  99
ENDBRANCH  48  49
ENDBRANCH  40  43
ENDBRANCH  38  39
ENDBRANCH  37  38
ENDBRANCH  36  37
ENDBRANCH  35  36
ENDBRANCH  34  35
ENDBRANCH  33  34
ENDBRANCH   3  33
TORSDOF 26
ENDMDL
