MODEL 1
REMARK VINA RESULT:     -10.5      0.000      0.000
REMARK SMILES O=C(CCC(=O)Nc1cc(Cl)cc(Cl)c1)NCCCCCCNC(=O)c1ccc(-c2c3nc(c(-c4c(F)cc(S(=O)(=O)[O-])cc4F)c4ccc([nH]4)c(-c4c(F)cc(S(=O)(=O)[O-])cc4F)c4nc(c(-c5c(F)cc(S(=O)(=O)[O-])cc5F)c5ccc2[nH]5)C=C4)C=C3)cc1
REMARK SMILES IDX 19 1 18 2 17 3 16 4 1 5 2 6 3 8 4 9 5 10 6 11 7 12 8 14 9 15
REMARK SMILES IDX 15 16 10 17 13 18 11 19 12 20 14 21 20 22 21 23 22 24 23 25
REMARK SMILES IDX 24 26 25 28 26 29 27 30 91 31 28 32 90 33 29 34 30 35 31 36
REMARK SMILES IDX 84 37 32 38 89 39 83 40 85 41 33 42 88 43 82 44 81 45 34 47
REMARK SMILES IDX 68 48 47 49 67 50 48 51 51 52 66 53 86 54 49 55 50 56 65 58
REMARK SMILES IDX 87 59 52 60 35 61 36 62 45 63 37 64 38 65 44 66 46 67 39 68
REMARK SMILES IDX 40 69 41 70 42 71 43 72 69 73 70 74 79 75 71 76 72 77 78 78
REMARK SMILES IDX 80 79 73 80 74 81 75 82 76 83 77 84 53 85 54 86 63 87 55 88
REMARK SMILES IDX 56 89 62 90 64 91 57 92 58 93 59 94 60 95 61 96
REMARK H PARENT 16 7 7 13 23 27 85 46 51 57
REMARK Flexibility Score: inf
ROOT
ATOM      1  C   UNL A   1      31.989  28.340  23.812  1.00  0.00     0.002 C 
ENDROOT
BRANCH   1   2
ATOM      2  C   UNL A   1      30.951  27.505  24.570  1.00  0.00     0.021 C 
BRANCH   2   3
ATOM      3  C   UNL A   1      30.882  26.035  24.175  1.00  0.00     0.116 C 
BRANCH   3   4
ATOM      4  N   UNL A   1      31.825  25.204  24.897  1.00  0.00    -0.356 N 
ATOM      5  O   UNL A   1      33.230  24.777  23.125  1.00  0.00    -0.275 OA
ATOM      6  C   UNL A   1      32.972  24.711  24.321  1.00  0.00     0.220 C 
ATOM      7  H   UNL A   1      31.635  24.982  25.837  1.00  0.00     0.163 HD
BRANCH   6   8
ATOM      8  C   UNL A   1      33.966  24.159  25.317  1.00  0.00     0.110 C 
BRANCH   8   9
ATOM      9  C   UNL A   1      33.970  22.632  25.329  1.00  0.00     0.110 C 
BRANCH   9  10
ATOM     10  C   UNL A   1      32.752  22.069  26.013  1.00  0.00     0.224 C 
ATOM     11  O   UNL A   1      32.211  22.733  26.906  1.00  0.00    -0.275 OA
ATOM     12  N   UNL A   1      32.210  20.849  25.751  1.00  0.00    -0.326 N 
ATOM     13  H   UNL A   1      31.326  20.745  26.170  1.00  0.00     0.169 HD
BRANCH  12  14
ATOM     14  C   UNL A   1      32.593  19.698  25.034  1.00  0.00     0.044 A 
ATOM     15  C   UNL A   1      33.104  18.519  25.573  1.00  0.00     0.046 A 
ATOM     16  C   UNL A   1      32.328  19.729  23.655  1.00  0.00     0.046 A 
ATOM     17  C   UNL A   1      33.287  17.387  24.769  1.00  0.00     0.044 A 
ATOM     18  C   UNL A   1      32.521  18.596  22.859  1.00  0.00     0.044 A 
ATOM     19  Cl  UNL A   1      33.852  15.923  25.481  1.00  0.00    -0.084 Cl
ATOM     20  C   UNL A   1      32.989  17.414  23.413  1.00  0.00     0.041 A 
ATOM     21  Cl  UNL A   1      32.138  18.660  21.184  1.00  0.00    -0.084 Cl
ENDBRANCH  12  14
ENDBRANCH   9  10
ENDBRANCH   8   9
ENDBRANCH   6   8
ENDBRANCH   3   4
ENDBRANCH   2   3
ENDBRANCH   1   2
BRANCH   1  22
ATOM     22  C   UNL A   1      33.070  29.008  24.667  1.00  0.00     0.002 C 
BRANCH  22  23
ATOM     23  C   UNL A   1      33.833  28.087  25.623  1.00  0.00     0.021 C 
BRANCH  23  24
ATOM     24  C   UNL A   1      33.584  28.321  27.111  1.00  0.00     0.116 C 
BRANCH  24  25
ATOM     25  N   UNL A   1      33.433  29.724  27.457  1.00  0.00    -0.352 N 
ATOM     26  C   UNL A   1      34.338  30.585  28.026  1.00  0.00     0.251 C 
ATOM     27  H   UNL A   1      32.552  30.115  27.253  1.00  0.00     0.163 HD
ATOM     28  O   UNL A   1      33.983  31.725  28.326  1.00  0.00    -0.269 OA
BRANCH  26  29
ATOM     29  C   UNL A   1      35.724  30.145  28.310  1.00  0.00     0.039 A 
ATOM     30  C   UNL A   1      36.671  30.214  27.284  1.00  0.00     0.014 A 
ATOM     31  C   UNL A   1      36.091  29.648  29.563  1.00  0.00     0.014 A 
ATOM     32  C   UNL A   1      37.993  29.834  27.528  1.00  0.00     0.010 A 
ATOM     33  C   UNL A   1      37.425  29.338  29.826  1.00  0.00     0.010 A 
ATOM     34  C   UNL A   1      38.388  29.418  28.810  1.00  0.00    -0.014 A 
BRANCH  34  35
ATOM     35  C   UNL A   1      39.797  29.034  29.093  1.00  0.00     0.031 A 
ATOM     36  C   UNL A   1      40.745  30.039  29.694  1.00  0.00     0.074 A 
ATOM     37  C   UNL A   1      40.235  27.799  28.772  1.00  0.00     0.049 A 
ATOM     38  N   UNL A   1      42.023  29.922  29.946  1.00  0.00    -0.248 NA
ATOM     39  C   UNL A   1      40.187  31.358  30.032  1.00  0.00     0.031 C 
ATOM     40  C   UNL A   1      39.428  26.751  28.143  1.00  0.00     0.029 A 
ATOM     41  N   UNL A   1      41.470  27.220  28.920  1.00  0.00    -0.354 N 
ATOM     42  C   UNL A   1      42.421  31.147  30.471  1.00  0.00     0.074 A 
ATOM     43  C   UNL A   1      41.264  32.014  30.439  1.00  0.00     0.031 C 
ATOM     44  C   UNL A   1      40.185  25.655  27.972  1.00  0.00     0.029 A 
ATOM     45  C   UNL A   1      41.537  25.930  28.447  1.00  0.00     0.049 A 
ATOM     46  H   UNL A   1      42.237  27.684  29.326  1.00  0.00     0.167 HD
ATOM     47  C   UNL A   1      43.630  31.506  30.966  1.00  0.00     0.037 A 
ATOM     48  C   UNL A   1      42.573  25.069  28.395  1.00  0.00     0.037 A 
ATOM     49  C   UNL A   1      44.775  30.635  31.013  1.00  0.00     0.049 A 
ATOM     50  C   UNL A   1      43.906  25.494  28.956  1.00  0.00     0.074 A 
ATOM     51  C   UNL A   1      46.042  30.902  31.501  1.00  0.00     0.029 A 
ATOM     52  N   UNL A   1      44.787  29.321  30.570  1.00  0.00    -0.354 N 
ATOM     53  N   UNL A   1      44.254  26.646  29.477  1.00  0.00    -0.248 NA
ATOM     54  C   UNL A   1      44.983  24.495  28.937  1.00  0.00     0.031 C 
ATOM     55  C   UNL A   1      46.828  29.757  31.331  1.00  0.00     0.029 A 
ATOM     56  C   UNL A   1      46.037  28.763  30.779  1.00  0.00     0.049 A 
ATOM     57  H   UNL A   1      44.020  28.853  30.166  1.00  0.00     0.167 HD
ATOM     58  C   UNL A   1      45.575  26.497  29.884  1.00  0.00     0.074 A 
ATOM     59  C   UNL A   1      45.962  25.141  29.557  1.00  0.00     0.031 C 
ATOM     60  C   UNL A   1      46.396  27.401  30.475  1.00  0.00     0.037 A 
BRANCH  47  61
ATOM     61  C   UNL A   1      43.769  32.898  31.522  1.00  0.00     0.058 A 
ATOM     62  C   UNL A   1      44.145  33.975  30.703  1.00  0.00     0.135 A 
ATOM     63  C   UNL A   1      43.481  33.170  32.869  1.00  0.00     0.135 A 
ATOM     64  F   UNL A   1      44.448  33.769  29.412  1.00  0.00    -0.206 F 
ATOM     65  C   UNL A   1      44.250  35.268  31.203  1.00  0.00     0.059 A 
ATOM     66  C   UNL A   1      43.553  34.461  33.385  1.00  0.00     0.059 A 
ATOM     67  F   UNL A   1      43.120  32.178  33.697  1.00  0.00    -0.206 F 
ATOM     68  C   UNL A   1      43.949  35.502  32.545  1.00  0.00     0.060 A 
BRANCH  68  69
ATOM     69  S   UNL A   1      44.069  37.191  33.171  1.00  0.00     0.124 S 
ATOM     70  O   UNL A   1      43.993  37.965  31.936  1.00  0.00    -0.237 OA
ATOM     71  O   UNL A   1      42.906  37.282  34.047  1.00  0.00    -0.237 OA
ATOM     72  O   UNL A   1      45.362  37.213  33.846  1.00  0.00    -0.744 OA
ENDBRANCH  68  69
ENDBRANCH  47  61
BRANCH  48  73
ATOM     73  C   UNL A   1      42.397  23.714  27.806  1.00  0.00     0.058 A 
ATOM     74  C   UNL A   1      42.315  22.573  28.619  1.00  0.00     0.135 A 
ATOM     75  C   UNL A   1      42.336  23.530  26.416  1.00  0.00     0.135 A 
ATOM     76  F   UNL A   1      42.372  22.695  29.955  1.00  0.00    -0.206 F 
ATOM     77  C   UNL A   1      42.222  21.295  28.076  1.00  0.00     0.059 A 
ATOM     78  C   UNL A   1      42.212  22.265  25.850  1.00  0.00     0.059 A 
ATOM     79  F   UNL A   1      42.386  24.590  25.594  1.00  0.00    -0.206 F 
ATOM     80  C   UNL A   1      42.176  21.151  26.689  1.00  0.00     0.060 A 
BRANCH  80  81
ATOM     81  S   UNL A   1      42.048  19.490  25.991  1.00  0.00     0.124 S 
ATOM     82  O   UNL A   1      42.581  18.676  27.077  1.00  0.00    -0.237 OA
ATOM     83  O   UNL A   1      40.615  19.369  25.744  1.00  0.00    -0.237 OA
ATOM     84  O   UNL A   1      42.878  19.567  24.792  1.00  0.00    -0.744 OA
ENDBRANCH  80  81
ENDBRANCH  48  73
BRANCH  60  85
ATOM     85  C   UNL A   1      47.769  26.934  30.869  1.00  0.00     0.058 A 
ATOM     86  C   UNL A   1      48.048  26.442  32.154  1.00  0.00     0.135 A 
ATOM     87  C   UNL A   1      48.816  26.950  29.933  1.00  0.00     0.135 A 
ATOM     88  F   UNL A   1      47.084  26.408  33.088  1.00  0.00    -0.206 F 
ATOM     89  C   UNL A   1      49.325  26.015  32.507  1.00  0.00     0.059 A 
ATOM     90  C   UNL A   1      50.092  26.501  30.254  1.00  0.00     0.059 A 
ATOM     91  F   UNL A   1      48.599  27.399  28.686  1.00  0.00    -0.206 F 
ATOM     92  C   UNL A   1      50.341  26.051  31.550  1.00  0.00     0.060 A 
BRANCH  92  93
ATOM     93  S   UNL A   1      51.990  25.482  32.014  1.00  0.00     0.124 S 
ATOM     94  O   UNL A   1      51.777  24.044  32.149  1.00  0.00    -0.237 OA
ATOM     95  O   UNL A   1      52.799  25.898  30.873  1.00  0.00    -0.237 OA
ATOM     96  O   UNL A   1      52.258  26.196  33.259  1.00  0.00    -0.744 OA
ENDBRANCH  92  93
ENDBRANCH  60  85
ENDBRANCH  34  35
ENDBRANCH  26  29
ENDBRANCH  24  25
ENDBRANCH  23  24
ENDBRANCH  22  23
ENDBRANCH   1  22
TORSDOF 19
ENDMDL
MODEL 2
REMARK VINA RESULT:     -10.5      4.820     10.563
REMARK SMILES O=C(CCC(=O)Nc1cc(Cl)cc(Cl)c1)NCCCCCCNC(=O)c1ccc(-c2c3nc(c(-c4c(F)cc(S(=O)(=O)[O-])cc4F)c4ccc([nH]4)c(-c4c(F)cc(S(=O)(=O)[O-])cc4F)c4nc(c(-c5c(F)cc(S(=O)(=O)[O-])cc5F)c5ccc2[nH]5)C=C4)C=C3)cc1
REMARK SMILES IDX 19 1 18 2 17 3 16 4 1 5 2 6 3 8 4 9 5 10 6 11 7 12 8 14 9 15
REMARK SMILES IDX 15 16 10 17 13 18 11 19 12 20 14 21 20 22 21 23 22 24 23 25
REMARK SMILES IDX 24 26 25 28 26 29 27 30 91 31 28 32 90 33 29 34 30 35 31 36
REMARK SMILES IDX 84 37 32 38 89 39 83 40 85 41 33 42 88 43 82 44 81 45 34 47
REMARK SMILES IDX 68 48 47 49 67 50 48 51 51 52 66 53 86 54 49 55 50 56 65 58
REMARK SMILES IDX 87 59 52 60 35 61 36 62 45 63 37 64 38 65 44 66 46 67 39 68
REMARK SMILES IDX 40 69 41 70 42 71 43 72 69 73 70 74 79 75 71 76 72 77 78 78
REMARK SMILES IDX 80 79 73 80 74 81 75 82 76 83 77 84 53 85 54 86 63 87 55 88
REMARK SMILES IDX 56 89 62 90 64 91 57 92 58 93 59 94 60 95 61 96
REMARK H PARENT 16 7 7 13 23 27 85 46 51 57
REMARK Flexibility Score: inf
ROOT
ATOM      1  C   UNL A   1      38.503  21.760  25.794  1.00  0.00     0.002 C 
ENDROOT
BRANCH   1   2
ATOM      2  C   UNL A   1      37.822  20.604  25.054  1.00  0.00     0.021 C 
BRANCH   2   3
ATOM      3  C   UNL A   1      36.298  20.654  25.027  1.00  0.00     0.116 C 
BRANCH   3   4
ATOM      4  N   UNL A   1      35.744  21.660  25.912  1.00  0.00    -0.356 N 
ATOM      5  O   UNL A   1      33.845  22.090  24.685  1.00  0.00    -0.275 OA
ATOM      6  C   UNL A   1      34.513  22.236  25.702  1.00  0.00     0.220 C 
ATOM      7  H   UNL A   1      36.271  21.944  26.693  1.00  0.00     0.163 HD
BRANCH   6   8
ATOM      8  C   UNL A   1      33.985  22.998  26.896  1.00  0.00     0.110 C 
BRANCH   8   9
ATOM      9  C   UNL A   1      33.374  24.337  26.488  1.00  0.00     0.110 C 
BRANCH   9  10
ATOM     10  C   UNL A   1      31.871  24.325  26.583  1.00  0.00     0.224 C 
ATOM     11  O   UNL A   1      31.335  23.612  27.442  1.00  0.00    -0.275 OA
ATOM     12  N   UNL A   1      31.036  25.015  25.762  1.00  0.00    -0.326 N 
ATOM     13  H   UNL A   1      30.111  25.016  26.097  1.00  0.00     0.169 HD
BRANCH  12  14
ATOM     14  C   UNL A   1      31.159  25.730  24.553  1.00  0.00     0.044 A 
ATOM     15  C   UNL A   1      31.907  25.351  23.440  1.00  0.00     0.046 A 
ATOM     16  C   UNL A   1      30.361  26.881  24.447  1.00  0.00     0.046 A 
ATOM     17  C   UNL A   1      31.811  26.064  22.238  1.00  0.00     0.044 A 
ATOM     18  C   UNL A   1      30.277  27.591  23.245  1.00  0.00     0.044 A 
ATOM     19  Cl  UNL A   1      32.693  25.526  20.859  1.00  0.00    -0.084 Cl
ATOM     20  C   UNL A   1      30.991  27.179  22.130  1.00  0.00     0.041 A 
ATOM     21  Cl  UNL A   1      29.250  28.965  23.141  1.00  0.00    -0.084 Cl
ENDBRANCH  12  14
ENDBRANCH   9  10
ENDBRANCH   8   9
ENDBRANCH   6   8
ENDBRANCH   3   4
ENDBRANCH   2   3
ENDBRANCH   1   2
BRANCH   1  22
ATOM     22  C   UNL A   1      39.966  21.538  26.189  1.00  0.00     0.002 C 
BRANCH  22  23
ATOM     23  C   UNL A   1      40.408  22.172  27.512  1.00  0.00     0.021 C 
BRANCH  23  24
ATOM     24  C   UNL A   1      41.710  22.966  27.466  1.00  0.00     0.116 C 
BRANCH  24  25
ATOM     25  N   UNL A   1      41.862  23.756  26.256  1.00  0.00    -0.352 N 
ATOM     26  C   UNL A   1      41.778  25.115  26.084  1.00  0.00     0.251 C 
ATOM     27  H   UNL A   1      42.053  23.240  25.438  1.00  0.00     0.163 HD
ATOM     28  O   UNL A   1      41.848  25.587  24.948  1.00  0.00    -0.269 OA
BRANCH  26  29
ATOM     29  C   UNL A   1      41.573  26.011  27.245  1.00  0.00     0.039 A 
ATOM     30  C   UNL A   1      42.532  26.994  27.508  1.00  0.00     0.014 A 
ATOM     31  C   UNL A   1      40.463  25.881  28.083  1.00  0.00     0.014 A 
ATOM     32  C   UNL A   1      42.352  27.874  28.578  1.00  0.00     0.010 A 
ATOM     33  C   UNL A   1      40.248  26.804  29.105  1.00  0.00     0.010 A 
ATOM     34  C   UNL A   1      41.195  27.805  29.371  1.00  0.00    -0.014 A 
BRANCH  34  35
ATOM     35  C   UNL A   1      40.977  28.750  30.498  1.00  0.00     0.031 A 
ATOM     36  C   UNL A   1      41.814  28.638  31.746  1.00  0.00     0.074 A 
ATOM     37  C   UNL A   1      40.003  29.680  30.419  1.00  0.00     0.049 A 
ATOM     38  N   UNL A   1      41.730  29.317  32.862  1.00  0.00    -0.248 NA
ATOM     39  C   UNL A   1      42.868  27.611  31.748  1.00  0.00     0.031 C 
ATOM     40  C   UNL A   1      39.095  29.860  29.284  1.00  0.00     0.029 A 
ATOM     41  N   UNL A   1      39.607  30.641  31.314  1.00  0.00    -0.354 N 
ATOM     42  C   UNL A   1      42.716  28.800  33.696  1.00  0.00     0.074 A 
ATOM     43  C   UNL A   1      43.341  27.708  32.983  1.00  0.00     0.031 C 
ATOM     44  C   UNL A   1      38.258  30.877  29.547  1.00  0.00     0.029 A 
ATOM     45  C   UNL A   1      38.545  31.400  30.878  1.00  0.00     0.049 A 
ATOM     46  H   UNL A   1      40.040  30.775  32.187  1.00  0.00     0.167 HD
ATOM     47  C   UNL A   1      43.090  29.218  34.929  1.00  0.00     0.037 A 
ATOM     48  C   UNL A   1      37.875  32.399  31.486  1.00  0.00     0.037 A 
ATOM     49  C   UNL A   1      42.478  30.318  35.629  1.00  0.00     0.049 A 
ATOM     50  C   UNL A   1      38.314  32.847  32.856  1.00  0.00     0.074 A 
ATOM     51  C   UNL A   1      42.788  30.824  36.878  1.00  0.00     0.029 A 
ATOM     52  N   UNL A   1      41.439  31.091  35.131  1.00  0.00    -0.354 N 
ATOM     53  N   UNL A   1      39.269  32.366  33.616  1.00  0.00    -0.248 NA
ATOM     54  C   UNL A   1      37.595  33.984  33.446  1.00  0.00     0.031 C 
ATOM     55  C   UNL A   1      41.921  31.889  37.149  1.00  0.00     0.029 A 
ATOM     56  C   UNL A   1      41.102  32.074  36.047  1.00  0.00     0.049 A 
ATOM     57  H   UNL A   1      41.006  30.961  34.257  1.00  0.00     0.167 HD
ATOM     58  C   UNL A   1      39.291  33.167  34.753  1.00  0.00     0.074 A 
ATOM     59  C   UNL A   1      38.260  34.168  34.577  1.00  0.00     0.031 C 
ATOM     60  C   UNL A   1      40.092  33.082  35.844  1.00  0.00     0.037 A 
BRANCH  47  61
ATOM     61  C   UNL A   1      44.234  28.500  35.591  1.00  0.00     0.058 A 
ATOM     62  C   UNL A   1      44.011  27.401  36.437  1.00  0.00     0.135 A 
ATOM     63  C   UNL A   1      45.564  28.877  35.346  1.00  0.00     0.135 A 
ATOM     64  F   UNL A   1      42.759  27.008  36.720  1.00  0.00    -0.206 F 
ATOM     65  C   UNL A   1      45.065  26.715  37.032  1.00  0.00     0.059 A 
ATOM     66  C   UNL A   1      46.634  28.188  35.909  1.00  0.00     0.059 A 
ATOM     67  F   UNL A   1      45.834  29.921  34.548  1.00  0.00    -0.206 F 
ATOM     68  C   UNL A   1      46.373  27.114  36.760  1.00  0.00     0.060 A 
BRANCH  68  69
ATOM     69  S   UNL A   1      47.728  26.197  37.523  1.00  0.00     0.124 S 
ATOM     70  O   UNL A   1      47.917  25.110  36.568  1.00  0.00    -0.237 OA
ATOM     71  O   UNL A   1      48.793  27.193  37.567  1.00  0.00    -0.237 OA
ATOM     72  O   UNL A   1      47.187  25.805  38.820  1.00  0.00    -0.744 OA
ENDBRANCH  68  69
ENDBRANCH  47  61
BRANCH  48  73
ATOM     73  C   UNL A   1      36.728  33.059  30.805  1.00  0.00     0.058 A 
ATOM     74  C   UNL A   1      36.932  33.979  29.765  1.00  0.00     0.135 A 
ATOM     75  C   UNL A   1      35.406  32.805  31.201  1.00  0.00     0.135 A 
ATOM     76  F   UNL A   1      38.178  34.258  29.351  1.00  0.00    -0.206 F 
ATOM     77  C   UNL A   1      35.872  34.654  29.169  1.00  0.00     0.059 A 
ATOM     78  C   UNL A   1      34.327  33.446  30.601  1.00  0.00     0.059 A 
ATOM     79  F   UNL A   1      35.154  31.918  32.176  1.00  0.00    -0.206 F 
ATOM     80  C   UNL A   1      34.571  34.385  29.599  1.00  0.00     0.060 A 
BRANCH  80  81
ATOM     81  S   UNL A   1      33.198  35.261  28.818  1.00  0.00     0.124 S 
ATOM     82  O   UNL A   1      32.441  35.711  29.981  1.00  0.00    -0.237 OA
ATOM     83  O   UNL A   1      33.886  36.301  28.061  1.00  0.00    -0.237 OA
ATOM     84  O   UNL A   1      32.559  34.227  28.009  1.00  0.00    -0.744 OA
ENDBRANCH  80  81
ENDBRANCH  48  73
BRANCH  60  85
ATOM     85  C   UNL A   1      39.934  34.139  36.901  1.00  0.00     0.058 A 
ATOM     86  C   UNL A   1      40.681  35.327  36.885  1.00  0.00     0.135 A 
ATOM     87  C   UNL A   1      38.994  33.970  37.931  1.00  0.00     0.135 A 
ATOM     88  F   UNL A   1      41.596  35.536  35.925  1.00  0.00    -0.206 F 
ATOM     89  C   UNL A   1      40.527  36.295  37.872  1.00  0.00     0.059 A 
ATOM     90  C   UNL A   1      38.802  34.937  38.912  1.00  0.00     0.059 A 
ATOM     91  F   UNL A   1      38.245  32.857  37.986  1.00  0.00    -0.206 F 
ATOM     92  C   UNL A   1      39.586  36.089  38.883  1.00  0.00     0.060 A 
BRANCH  92  93
ATOM     93  S   UNL A   1      39.384  37.359  40.151  1.00  0.00     0.124 S 
ATOM     94  O   UNL A   1      40.732  37.913  40.228  1.00  0.00    -0.237 OA
ATOM     95  O   UNL A   1      38.373  38.232  39.563  1.00  0.00    -0.237 OA
ATOM     96  O   UNL A   1      38.948  36.604  41.322  1.00  0.00    -0.744 OA
ENDBRANCH  92  93
ENDBRANCH  60  85
ENDBRANCH  34  35
ENDBRANCH  26  29
ENDBRANCH  24  25
ENDBRANCH  23  24
ENDBRANCH  22  23
ENDBRANCH   1  22
TORSDOF 19
ENDMDL
MODEL 3
REMARK VINA RESULT:     -10.4      3.606      9.570
REMARK SMILES O=C(CCC(=O)Nc1cc(Cl)cc(Cl)c1)NCCCCCCNC(=O)c1ccc(-c2c3nc(c(-c4c(F)cc(S(=O)(=O)[O-])cc4F)c4ccc([nH]4)c(-c4c(F)cc(S(=O)(=O)[O-])cc4F)c4nc(c(-c5c(F)cc(S(=O)(=O)[O-])cc5F)c5ccc2[nH]5)C=C4)C=C3)cc1
REMARK SMILES IDX 19 1 18 2 17 3 16 4 1 5 2 6 3 8 4 9 5 10 6 11 7 12 8 14 9 15
REMARK SMILES IDX 15 16 10 17 13 18 11 19 12 20 14 21 20 22 21 23 22 24 23 25
REMARK SMILES IDX 24 26 25 28 26 29 27 30 91 31 28 32 90 33 29 34 30 35 31 36
REMARK SMILES IDX 84 37 32 38 89 39 83 40 85 41 33 42 88 43 82 44 81 45 34 47
REMARK SMILES IDX 68 48 47 49 67 50 48 51 51 52 66 53 86 54 49 55 50 56 65 58
REMARK SMILES IDX 87 59 52 60 35 61 36 62 45 63 37 64 38 65 44 66 46 67 39 68
REMARK SMILES IDX 40 69 41 70 42 71 43 72 69 73 70 74 79 75 71 76 72 77 78 78
REMARK SMILES IDX 80 79 73 80 74 81 75 82 76 83 77 84 53 85 54 86 63 87 55 88
REMARK SMILES IDX 56 89 62 90 64 91 57 92 58 93 59 94 60 95 61 96
REMARK H PARENT 16 7 7 13 23 27 85 46 51 57
REMARK Flexibility Score: inf
ROOT
ATOM      1  C   UNL A   1      33.965  21.770  24.372  1.00  0.00     0.002 C 
ENDROOT
BRANCH   1   2
ATOM      2  C   UNL A   1      32.473  21.442  24.240  1.00  0.00     0.021 C 
BRANCH   2   3
ATOM      3  C   UNL A   1      31.617  21.798  25.449  1.00  0.00     0.116 C 
BRANCH   3   4
ATOM      4  N   UNL A   1      31.129  23.163  25.421  1.00  0.00    -0.356 N 
ATOM      5  O   UNL A   1      31.678  23.697  27.591  1.00  0.00    -0.275 OA
ATOM      6  C   UNL A   1      31.279  24.026  26.481  1.00  0.00     0.220 C 
ATOM      7  H   UNL A   1      30.670  23.483  24.612  1.00  0.00     0.163 HD
BRANCH   6   8
ATOM      8  C   UNL A   1      31.007  25.472  26.133  1.00  0.00     0.110 C 
BRANCH   8   9
ATOM      9  C   UNL A   1      30.983  25.697  24.623  1.00  0.00     0.110 C 
BRANCH   9  10
ATOM     10  C   UNL A   1      32.369  25.860  24.054  1.00  0.00     0.224 C 
ATOM     11  O   UNL A   1      32.882  24.907  23.454  1.00  0.00    -0.275 OA
ATOM     12  N   UNL A   1      33.133  26.978  24.183  1.00  0.00    -0.326 N 
ATOM     13  H   UNL A   1      33.922  26.951  23.595  1.00  0.00     0.169 HD
BRANCH  12  14
ATOM     14  C   UNL A   1      33.082  28.164  24.943  1.00  0.00     0.044 A 
ATOM     15  C   UNL A   1      32.112  29.160  24.857  1.00  0.00     0.046 A 
ATOM     16  C   UNL A   1      34.057  28.280  25.948  1.00  0.00     0.046 A 
ATOM     17  C   UNL A   1      32.080  30.208  25.787  1.00  0.00     0.044 A 
ATOM     18  C   UNL A   1      34.021  29.334  26.866  1.00  0.00     0.044 A 
ATOM     19  Cl  UNL A   1      30.824  31.384  25.697  1.00  0.00    -0.084 Cl
ATOM     20  C   UNL A   1      33.025  30.297  26.800  1.00  0.00     0.041 A 
ATOM     21  Cl  UNL A   1      35.203  29.414  28.113  1.00  0.00    -0.084 Cl
ENDBRANCH  12  14
ENDBRANCH   9  10
ENDBRANCH   8   9
ENDBRANCH   6   8
ENDBRANCH   3   4
ENDBRANCH   2   3
ENDBRANCH   1   2
BRANCH   1  22
ATOM     22  C   UNL A   1      34.468  22.053  25.792  1.00  0.00     0.002 C 
BRANCH  22  23
ATOM     23  C   UNL A   1      34.912  23.492  26.071  1.00  0.00     0.021 C 
BRANCH  23  24
ATOM     24  C   UNL A   1      36.341  23.837  25.660  1.00  0.00     0.116 C 
BRANCH  24  25
ATOM     25  N   UNL A   1      37.276  22.740  25.848  1.00  0.00    -0.352 N 
ATOM     26  C   UNL A   1      38.573  22.764  26.296  1.00  0.00     0.251 C 
ATOM     27  H   UNL A   1      36.926  21.847  25.622  1.00  0.00     0.163 HD
ATOM     28  O   UNL A   1      39.232  21.724  26.298  1.00  0.00    -0.269 OA
BRANCH  26  29
ATOM     29  C   UNL A   1      39.193  24.033  26.744  1.00  0.00     0.039 A 
ATOM     30  C   UNL A   1      39.103  24.380  28.096  1.00  0.00     0.014 A 
ATOM     31  C   UNL A   1      39.840  24.888  25.849  1.00  0.00     0.014 A 
ATOM     32  C   UNL A   1      39.702  25.555  28.555  1.00  0.00     0.010 A 
ATOM     33  C   UNL A   1      40.499  26.022  26.320  1.00  0.00     0.010 A 
ATOM     34  C   UNL A   1      40.430  26.374  27.677  1.00  0.00    -0.014 A 
BRANCH  34  35
ATOM     35  C   UNL A   1      41.095  27.614  28.155  1.00  0.00     0.031 A 
ATOM     36  C   UNL A   1      42.597  27.732  28.104  1.00  0.00     0.074 A 
ATOM     37  C   UNL A   1      40.356  28.617  28.674  1.00  0.00     0.049 A 
ATOM     38  N   UNL A   1      43.366  28.697  28.538  1.00  0.00    -0.248 NA
ATOM     39  C   UNL A   1      43.330  26.604  27.508  1.00  0.00     0.031 C 
ATOM     40  C   UNL A   1      38.899  28.606  28.821  1.00  0.00     0.029 A 
ATOM     41  N   UNL A   1      40.730  29.835  29.183  1.00  0.00    -0.354 N 
ATOM     42  C   UNL A   1      44.669  28.294  28.269  1.00  0.00     0.074 A 
ATOM     43  C   UNL A   1      44.591  26.968  27.695  1.00  0.00     0.031 C 
ATOM     44  C   UNL A   1      38.503  29.766  29.371  1.00  0.00     0.029 A 
ATOM     45  C   UNL A   1      39.676  30.589  29.645  1.00  0.00     0.049 A 
ATOM     46  H   UNL A   1      41.665  30.140  29.216  1.00  0.00     0.167 HD
ATOM     47  C   UNL A   1      45.825  28.977  28.452  1.00  0.00     0.037 A 
ATOM     48  C   UNL A   1      39.659  31.804  30.230  1.00  0.00     0.037 A 
ATOM     49  C   UNL A   1      45.899  30.304  29.007  1.00  0.00     0.049 A 
ATOM     50  C   UNL A   1      40.958  32.544  30.417  1.00  0.00     0.074 A 
ATOM     51  C   UNL A   1      47.019  31.085  29.226  1.00  0.00     0.029 A 
ATOM     52  N   UNL A   1      44.804  31.052  29.415  1.00  0.00    -0.354 N 
ATOM     53  N   UNL A   1      42.178  32.158  30.128  1.00  0.00    -0.248 NA
ATOM     54  C   UNL A   1      40.877  33.892  30.997  1.00  0.00     0.031 C 
ATOM     55  C   UNL A   1      46.606  32.297  29.791  1.00  0.00     0.029 A 
ATOM     56  C   UNL A   1      45.224  32.288  29.880  1.00  0.00     0.049 A 
ATOM     57  H   UNL A   1      43.868  30.749  29.381  1.00  0.00     0.167 HD
ATOM     58  C   UNL A   1      43.003  33.230  30.451  1.00  0.00     0.074 A 
ATOM     59  C   UNL A   1      42.143  34.283  30.950  1.00  0.00     0.031 C 
ATOM     60  C   UNL A   1      44.351  33.335  30.346  1.00  0.00     0.037 A 
BRANCH  47  61
ATOM     61  C   UNL A   1      47.104  28.312  28.022  1.00  0.00     0.058 A 
ATOM     62  C   UNL A   1      47.846  27.517  28.911  1.00  0.00     0.135 A 
ATOM     63  C   UNL A   1      47.571  28.426  26.703  1.00  0.00     0.135 A 
ATOM     64  F   UNL A   1      47.455  27.387  30.189  1.00  0.00    -0.206 F 
ATOM     65  C   UNL A   1      49.015  26.877  28.514  1.00  0.00     0.059 A 
ATOM     66  C   UNL A   1      48.723  27.773  26.276  1.00  0.00     0.059 A 
ATOM     67  F   UNL A   1      46.903  29.175  25.812  1.00  0.00    -0.206 F 
ATOM     68  C   UNL A   1      49.444  27.009  27.194  1.00  0.00     0.060 A 
BRANCH  68  69
ATOM     69  S   UNL A   1      50.952  26.152  26.691  1.00  0.00     0.124 S 
ATOM     70  O   UNL A   1      51.974  26.932  27.381  1.00  0.00    -0.237 OA
ATOM     71  O   UNL A   1      50.730  24.804  27.204  1.00  0.00    -0.237 OA
ATOM     72  O   UNL A   1      50.944  26.274  25.237  1.00  0.00    -0.744 OA
ENDBRANCH  68  69
ENDBRANCH  47  61
BRANCH  48  73
ATOM     73  C   UNL A   1      38.372  32.409  30.668  1.00  0.00     0.058 A 
ATOM     74  C   UNL A   1      37.908  32.257  31.984  1.00  0.00     0.135 A 
ATOM     75  C   UNL A   1      37.566  33.128  29.772  1.00  0.00     0.135 A 
ATOM     76  F   UNL A   1      38.641  31.575  32.879  1.00  0.00    -0.206 F 
ATOM     77  C   UNL A   1      36.674  32.757  32.386  1.00  0.00     0.059 A 
ATOM     78  C   UNL A   1      36.342  33.665  30.158  1.00  0.00     0.059 A 
ATOM     79  F   UNL A   1      37.974  33.323  28.508  1.00  0.00    -0.206 F 
ATOM     80  C   UNL A   1      35.895  33.456  31.462  1.00  0.00     0.060 A 
BRANCH  80  81
ATOM     81  S   UNL A   1      34.297  34.110  31.992  1.00  0.00     0.124 S 
ATOM     82  O   UNL A   1      33.695  34.477  30.715  1.00  0.00    -0.237 OA
ATOM     83  O   UNL A   1      33.704  32.963  32.671  1.00  0.00    -0.237 OA
ATOM     84  O   UNL A   1      34.662  35.223  32.862  1.00  0.00    -0.744 OA
ENDBRANCH  80  81
ENDBRANCH  48  73
BRANCH  60  85
ATOM     85  C   UNL A   1      44.973  34.654  30.711  1.00  0.00     0.058 A 
ATOM     86  C   UNL A   1      45.436  34.926  32.007  1.00  0.00     0.135 A 
ATOM     87  C   UNL A   1      45.136  35.651  29.735  1.00  0.00     0.135 A 
ATOM     88  F   UNL A   1      45.302  34.008  32.979  1.00  0.00    -0.206 F 
ATOM     89  C   UNL A   1      46.007  36.152  32.332  1.00  0.00     0.059 A 
ATOM     90  C   UNL A   1      45.731  36.873  30.030  1.00  0.00     0.059 A 
ATOM     91  F   UNL A   1      44.722  35.438  28.476  1.00  0.00    -0.206 F 
ATOM     92  C   UNL A   1      46.148  37.120  31.337  1.00  0.00     0.060 A 
BRANCH  92  93
ATOM     93  S   UNL A   1      46.904  38.703  31.766  1.00  0.00     0.124 S 
ATOM     94  O   UNL A   1      47.292  39.208  30.453  1.00  0.00    -0.237 OA
ATOM     95  O   UNL A   1      45.805  39.409  32.417  1.00  0.00    -0.237 OA
ATOM     96  O   UNL A   1      48.007  38.325  32.644  1.00  0.00    -0.744 OA
ENDBRANCH  92  93
ENDBRANCH  60  85
ENDBRANCH  34  35
ENDBRANCH  26  29
ENDBRANCH  24  25
ENDBRANCH  23  24
ENDBRANCH  22  23
ENDBRANCH   1  22
TORSDOF 19
ENDMDL
