MODEL 1
REMARK VINA RESULT:     -10.5      0.000      0.000
REMARK SMILES CC[C@](C)(Nc1ncnc(OC)c1[N+](=O)[O-])C(=O)NCCCCCCNC(=O)c1ccc(-c2c3nc(c(-c4c(F)cc(S(=O)(=O)[O-])cc4F)c4ccc([nH]4)c(-c4c(F)cc(S(=O)(=O)[O-])cc4F)c4nc(c(-c5c(F)cc(S(=O)(=O)[O-])cc5F)c5ccc2[nH]5)C=C4)C=C3)cc1
REMARK SMILES IDX 22 1 21 2 20 3 19 4 17 5 18 6 3 8 4 9 2 10 1 11 5 12 6 14
REMARK SMILES IDX 7 15 13 16 8 17 10 18 9 19 14 20 15 21 16 22 11 23 12 24
REMARK SMILES IDX 23 25 24 26 25 27 26 28 27 29 28 31 29 32 30 33 94 34 31 35
REMARK SMILES IDX 93 36 32 37 33 38 34 39 87 40 35 41 92 42 86 43 88 44 36 45
REMARK SMILES IDX 91 46 85 47 84 48 37 50 71 51 50 52 70 53 51 54 54 55 69 56
REMARK SMILES IDX 89 57 52 58 53 59 68 61 90 62 55 63 38 64 39 65 48 66 40 67
REMARK SMILES IDX 41 68 47 69 49 70 42 71 43 72 44 73 45 74 46 75 72 76 73 77
REMARK SMILES IDX 82 78 74 79 75 80 81 81 83 82 76 83 77 84 78 85 79 86 80 87
REMARK SMILES IDX 56 88 57 89 66 90 58 91 59 92 65 93 67 94 60 95 61 96 62 97
REMARK SMILES IDX 63 98 64 99
REMARK H PARENT 19 7 5 13 26 30 88 49 54 60
REMARK Flexibility Score: inf
ROOT
ATOM      1  C   UNL A   1      38.921  22.015  26.113  1.00  0.00     0.002 C 
ENDROOT
BRANCH   1   2
ATOM      2  C   UNL A   1      37.710  22.792  25.591  1.00  0.00     0.021 C 
BRANCH   2   3
ATOM      3  C   UNL A   1      36.425  21.986  25.421  1.00  0.00     0.116 C 
BRANCH   3   4
ATOM      4  N   UNL A   1      35.700  22.150  24.168  1.00  0.00    -0.354 N 
ATOM      5  C   UNL A   1      34.696  22.967  23.738  1.00  0.00     0.245 C 
ATOM      6  O   UNL A   1      34.599  23.089  22.510  1.00  0.00    -0.272 OA
ATOM      7  H   UNL A   1      36.006  21.527  23.471  1.00  0.00     0.163 HD
BRANCH   5   8
ATOM      8  C   UNL A   1      33.688  23.692  24.678  1.00  0.00     0.115 C 
ATOM      9  C   UNL A   1      34.423  24.584  25.703  1.00  0.00     0.045 C 
BRANCH   8  10
ATOM     10  C   UNL A   1      32.849  22.648  25.476  1.00  0.00     0.035 C 
ATOM     11  C   UNL A   1      31.337  22.746  25.292  1.00  0.00     0.007 C 
ENDBRANCH   8  10
BRANCH   8  12
ATOM     12  N   UNL A   1      32.755  24.556  23.938  1.00  0.00    -0.350 N 
ATOM     13  H   UNL A   1      32.149  24.025  23.371  1.00  0.00     0.163 HD
BRANCH  12  14
ATOM     14  C   UNL A   1      32.500  25.883  23.820  1.00  0.00     0.213 A 
ATOM     15  N   UNL A   1      33.172  26.357  22.743  1.00  0.00    -0.212 NA
ATOM     16  C   UNL A   1      31.776  26.772  24.583  1.00  0.00     0.372 A 
ATOM     17  C   UNL A   1      33.142  27.674  22.475  1.00  0.00     0.228 A 
ATOM     18  C   UNL A   1      31.853  28.118  24.269  1.00  0.00     0.299 A 
ATOM     19  N   UNL A   1      32.526  28.598  23.210  1.00  0.00    -0.196 NA
BRANCH  16  20
ATOM     20  N   UNL A   1      30.945  26.427  25.686  1.00  0.00     0.072 N 
ATOM     21  O   UNL A   1      29.752  26.207  25.444  1.00  0.00    -0.258 OA
ATOM     22  O   UNL A   1      31.453  26.484  26.816  1.00  0.00    -0.258 OA
ENDBRANCH  16  20
BRANCH  18  23
ATOM     23  O   UNL A   1      31.175  29.070  24.989  1.00  0.00    -0.476 OA
ATOM     24  C   UNL A   1      32.079  29.895  25.727  1.00  0.00     0.280 C 
ENDBRANCH  18  23
ENDBRANCH  12  14
ENDBRANCH   8  12
ENDBRANCH   5   8
ENDBRANCH   3   4
ENDBRANCH   2   3
ENDBRANCH   1   2
BRANCH   1  25
ATOM     25  C   UNL A   1      39.771  22.709  27.179  1.00  0.00     0.002 C 
BRANCH  25  26
ATOM     26  C   UNL A   1      41.183  22.150  27.351  1.00  0.00     0.021 C 
BRANCH  26  27
ATOM     27  C   UNL A   1      42.302  23.176  27.195  1.00  0.00     0.116 C 
BRANCH  27  28
ATOM     28  N   UNL A   1      42.115  24.056  26.049  1.00  0.00    -0.352 N 
ATOM     29  C   UNL A   1      41.779  25.392  26.047  1.00  0.00     0.251 C 
ATOM     30  H   UNL A   1      42.245  23.644  25.165  1.00  0.00     0.163 HD
ATOM     31  O   UNL A   1      41.545  25.977  24.998  1.00  0.00    -0.269 OA
BRANCH  29  32
ATOM     32  C   UNL A   1      41.663  26.097  27.343  1.00  0.00     0.039 A 
ATOM     33  C   UNL A   1      42.675  26.979  27.727  1.00  0.00     0.014 A 
ATOM     34  C   UNL A   1      40.520  25.937  28.132  1.00  0.00     0.014 A 
ATOM     35  C   UNL A   1      42.501  27.764  28.869  1.00  0.00     0.010 A 
ATOM     36  C   UNL A   1      40.322  26.769  29.231  1.00  0.00     0.010 A 
ATOM     37  C   UNL A   1      41.306  27.696  29.606  1.00  0.00    -0.014 A 
BRANCH  37  38
ATOM     38  C   UNL A   1      41.065  28.609  30.752  1.00  0.00     0.031 A 
ATOM     39  C   UNL A   1      41.920  28.525  31.987  1.00  0.00     0.074 A 
ATOM     40  C   UNL A   1      40.034  29.477  30.702  1.00  0.00     0.049 A 
ATOM     41  N   UNL A   1      41.863  29.243  33.079  1.00  0.00    -0.248 NA
ATOM     42  C   UNL A   1      42.951  27.477  32.010  1.00  0.00     0.031 C 
ATOM     43  C   UNL A   1      39.085  29.601  29.593  1.00  0.00     0.029 A 
ATOM     44  N   UNL A   1      39.613  30.421  31.605  1.00  0.00    -0.354 N 
ATOM     45  C   UNL A   1      42.836  28.723  33.924  1.00  0.00     0.074 A 
ATOM     46  C   UNL A   1      43.432  27.597  33.239  1.00  0.00     0.031 C 
ATOM     47  C   UNL A   1      38.221  30.592  29.862  1.00  0.00     0.029 A 
ATOM     48  C   UNL A   1      38.538  31.160  31.169  1.00  0.00     0.049 A 
ATOM     49  H   UNL A   1      40.039  30.556  32.481  1.00  0.00     0.167 HD
ATOM     50  C   UNL A   1      43.218  29.161  35.149  1.00  0.00     0.037 A 
ATOM     51  C   UNL A   1      37.893  32.190  31.748  1.00  0.00     0.037 A 
ATOM     52  C   UNL A   1      42.647  30.305  35.810  1.00  0.00     0.049 A 
ATOM     53  C   UNL A   1      38.365  32.688  33.087  1.00  0.00     0.074 A 
ATOM     54  C   UNL A   1      43.024  30.886  37.009  1.00  0.00     0.029 A 
ATOM     55  N   UNL A   1      41.576  31.043  35.328  1.00  0.00    -0.354 N 
ATOM     56  N   UNL A   1      39.348  32.244  33.832  1.00  0.00    -0.248 NA
ATOM     57  C   UNL A   1      37.646  33.837  33.656  1.00  0.00     0.031 C 
ATOM     58  C   UNL A   1      42.157  31.955  37.268  1.00  0.00     0.029 A 
ATOM     59  C   UNL A   1      41.264  32.062  36.214  1.00  0.00     0.049 A 
ATOM     60  H   UNL A   1      41.107  30.869  34.480  1.00  0.00     0.167 HD
ATOM     61  C   UNL A   1      39.380  33.069  34.951  1.00  0.00     0.074 A 
ATOM     62  C   UNL A   1      38.327  34.050  34.774  1.00  0.00     0.031 C 
ATOM     63  C   UNL A   1      40.206  33.022  36.025  1.00  0.00     0.037 A 
BRANCH  50  64
ATOM     64  C   UNL A   1      44.309  28.394  35.845  1.00  0.00     0.058 A 
ATOM     65  C   UNL A   1      45.666  28.695  35.641  1.00  0.00     0.135 A 
ATOM     66  C   UNL A   1      43.997  27.345  36.723  1.00  0.00     0.135 A 
ATOM     67  F   UNL A   1      46.021  29.680  34.800  1.00  0.00    -0.206 F 
ATOM     68  C   UNL A   1      46.674  27.955  36.248  1.00  0.00     0.059 A 
ATOM     69  C   UNL A   1      44.990  26.608  37.363  1.00  0.00     0.059 A 
ATOM     70  F   UNL A   1      42.716  27.015  36.955  1.00  0.00    -0.206 F 
ATOM     71  C   UNL A   1      46.326  26.907  37.101  1.00  0.00     0.060 A 
BRANCH  71  72
ATOM     72  S   UNL A   1      47.643  25.936  37.863  1.00  0.00     0.124 S 
ATOM     73  O   UNL A   1      48.672  25.982  36.829  1.00  0.00    -0.237 OA
ATOM     74  O   UNL A   1      47.933  26.695  39.077  1.00  0.00    -0.237 OA
ATOM     75  O   UNL A   1      47.024  24.633  38.076  1.00  0.00    -0.744 OA
ENDBRANCH  71  72
ENDBRANCH  50  64
BRANCH  51  76
ATOM     76  C   UNL A   1      36.774  32.860  31.037  1.00  0.00     0.058 A 
ATOM     77  C   UNL A   1      37.029  33.706  29.945  1.00  0.00     0.135 A 
ATOM     78  C   UNL A   1      35.439  32.655  31.409  1.00  0.00     0.135 A 
ATOM     79  F   UNL A   1      38.292  33.936  29.557  1.00  0.00    -0.206 F 
ATOM     80  C   UNL A   1      35.997  34.332  29.254  1.00  0.00     0.059 A 
ATOM     81  C   UNL A   1      34.389  33.255  30.721  1.00  0.00     0.059 A 
ATOM     82  F   UNL A   1      35.144  31.842  32.436  1.00  0.00    -0.206 F 
ATOM     83  C   UNL A   1      34.679  34.098  29.648  1.00  0.00     0.060 A 
BRANCH  83  84
ATOM     84  S   UNL A   1      33.344  34.865  28.703  1.00  0.00     0.124 S 
ATOM     85  O   UNL A   1      32.400  35.213  29.757  1.00  0.00    -0.237 OA
ATOM     86  O   UNL A   1      34.025  35.984  28.059  1.00  0.00    -0.237 OA
ATOM     87  O   UNL A   1      32.920  33.797  27.801  1.00  0.00    -0.744 OA
ENDBRANCH  83  84
ENDBRANCH  51  76
BRANCH  63  88
ATOM     88  C   UNL A   1      40.006  34.071  37.083  1.00  0.00     0.058 A 
ATOM     89  C   UNL A   1      39.206  33.833  38.211  1.00  0.00     0.135 A 
ATOM     90  C   UNL A   1      40.632  35.323  36.973  1.00  0.00     0.135 A 
ATOM     91  F   UNL A   1      38.582  32.654  38.359  1.00  0.00    -0.206 F 
ATOM     92  C   UNL A   1      39.003  34.812  39.177  1.00  0.00     0.059 A 
ATOM     93  C   UNL A   1      40.463  36.309  37.940  1.00  0.00     0.059 A 
ATOM     94  F   UNL A   1      41.417  35.597  35.919  1.00  0.00    -0.206 F 
ATOM     95  C   UNL A   1      39.631  36.051  39.029  1.00  0.00     0.060 A 
BRANCH  95  96
ATOM     96  S   UNL A   1      39.365  37.317  40.288  1.00  0.00     0.124 S 
ATOM     97  O   UNL A   1      38.526  38.271  39.570  1.00  0.00    -0.237 OA
ATOM     98  O   UNL A   1      38.704  36.569  41.353  1.00  0.00    -0.237 OA
ATOM     99  O   UNL A   1      40.716  37.774  40.598  1.00  0.00    -0.744 OA
ENDBRANCH  95  96
ENDBRANCH  63  88
ENDBRANCH  37  38
ENDBRANCH  29  32
ENDBRANCH  27  28
ENDBRANCH  26  27
ENDBRANCH  25  26
ENDBRANCH   1  25
TORSDOF 21
ENDMDL
MODEL 2
REMARK VINA RESULT:     -10.5      6.514     11.964
REMARK SMILES CC[C@](C)(Nc1ncnc(OC)c1[N+](=O)[O-])C(=O)NCCCCCCNC(=O)c1ccc(-c2c3nc(c(-c4c(F)cc(S(=O)(=O)[O-])cc4F)c4ccc([nH]4)c(-c4c(F)cc(S(=O)(=O)[O-])cc4F)c4nc(c(-c5c(F)cc(S(=O)(=O)[O-])cc5F)c5ccc2[nH]5)C=C4)C=C3)cc1
REMARK SMILES IDX 22 1 21 2 20 3 19 4 17 5 18 6 3 8 4 9 2 10 1 11 5 12 6 14
REMARK SMILES IDX 7 15 13 16 8 17 10 18 9 19 14 20 15 21 16 22 11 23 12 24
REMARK SMILES IDX 23 25 24 26 25 27 26 28 27 29 28 31 29 32 30 33 94 34 31 35
REMARK SMILES IDX 93 36 32 37 33 38 34 39 87 40 35 41 92 42 86 43 88 44 36 45
REMARK SMILES IDX 91 46 85 47 84 48 37 50 71 51 50 52 70 53 51 54 54 55 69 56
REMARK SMILES IDX 89 57 52 58 53 59 68 61 90 62 55 63 38 64 39 65 48 66 40 67
REMARK SMILES IDX 41 68 47 69 49 70 42 71 43 72 44 73 45 74 46 75 72 76 73 77
REMARK SMILES IDX 82 78 74 79 75 80 81 81 83 82 76 83 77 84 78 85 79 86 80 87
REMARK SMILES IDX 56 88 57 89 66 90 58 91 59 92 65 93 67 94 60 95 61 96 62 97
REMARK SMILES IDX 63 98 64 99
REMARK H PARENT 19 7 5 13 26 30 88 49 54 60
REMARK Flexibility Score: inf
ROOT
ATOM      1  C   UNL A   1      32.058  29.563  26.692  1.00  0.00     0.002 C 
ENDROOT
BRANCH   1   2
ATOM      2  C   UNL A   1      31.919  28.225  27.421  1.00  0.00     0.021 C 
BRANCH   2   3
ATOM      3  C   UNL A   1      31.906  26.982  26.534  1.00  0.00     0.116 C 
BRANCH   3   4
ATOM      4  N   UNL A   1      32.811  26.975  25.392  1.00  0.00    -0.354 N 
ATOM      5  C   UNL A   1      32.650  26.928  24.038  1.00  0.00     0.245 C 
ATOM      6  O   UNL A   1      33.615  27.326  23.374  1.00  0.00    -0.272 OA
ATOM      7  H   UNL A   1      33.757  27.012  25.659  1.00  0.00     0.163 HD
BRANCH   5   8
ATOM      8  C   UNL A   1      31.378  26.386  23.322  1.00  0.00     0.115 C 
ATOM      9  C   UNL A   1      31.566  26.369  21.788  1.00  0.00     0.045 C 
BRANCH   8  10
ATOM     10  C   UNL A   1      30.152  27.295  23.638  1.00  0.00     0.035 C 
ATOM     11  C   UNL A   1      30.322  28.769  23.280  1.00  0.00     0.007 C 
ENDBRANCH   8  10
BRANCH   8  12
ATOM     12  N   UNL A   1      31.046  25.014  23.735  1.00  0.00    -0.350 N 
ATOM     13  H   UNL A   1      30.074  24.857  23.708  1.00  0.00     0.163 HD
BRANCH  12  14
ATOM     14  C   UNL A   1      31.711  23.904  24.145  1.00  0.00     0.213 A 
ATOM     15  N   UNL A   1      31.009  23.330  25.152  1.00  0.00    -0.212 NA
ATOM     16  C   UNL A   1      32.912  23.339  23.778  1.00  0.00     0.372 A 
ATOM     17  C   UNL A   1      31.520  22.257  25.781  1.00  0.00     0.228 A 
ATOM     18  C   UNL A   1      33.388  22.273  24.522  1.00  0.00     0.299 A 
ATOM     19  N   UNL A   1      32.705  21.704  25.529  1.00  0.00    -0.196 NA
BRANCH  16  20
ATOM     20  N   UNL A   1      33.723  23.760  22.687  1.00  0.00     0.072 N 
ATOM     21  O   UNL A   1      34.786  24.330  22.963  1.00  0.00    -0.258 OA
ATOM     22  O   UNL A   1      33.253  23.625  21.547  1.00  0.00    -0.258 OA
ENDBRANCH  16  20
BRANCH  18  23
ATOM     23  O   UNL A   1      34.583  21.663  24.231  1.00  0.00    -0.476 OA
ATOM     24  C   UNL A   1      35.516  21.826  25.303  1.00  0.00     0.280 C 
ENDBRANCH  18  23
ENDBRANCH  12  14
ENDBRANCH   8  12
ENDBRANCH   5   8
ENDBRANCH   3   4
ENDBRANCH   2   3
ENDBRANCH   1   2
BRANCH   1  25
ATOM     25  C   UNL A   1      33.401  30.282  26.834  1.00  0.00     0.002 C 
BRANCH  25  26
ATOM     26  C   UNL A   1      34.543  29.427  27.383  1.00  0.00     0.021 C 
BRANCH  26  27
ATOM     27  C   UNL A   1      35.653  30.211  28.079  1.00  0.00     0.116 C 
BRANCH  27  28
ATOM     28  N   UNL A   1      35.524  30.218  29.530  1.00  0.00    -0.352 N 
ATOM     29  C   UNL A   1      36.515  30.050  30.473  1.00  0.00     0.251 C 
ATOM     30  H   UNL A   1      34.616  30.361  29.881  1.00  0.00     0.163 HD
ATOM     31  O   UNL A   1      36.239  29.967  31.662  1.00  0.00    -0.269 OA
BRANCH  29  32
ATOM     32  C   UNL A   1      37.917  29.927  30.016  1.00  0.00     0.039 A 
ATOM     33  C   UNL A   1      38.912  29.638  30.952  1.00  0.00     0.014 A 
ATOM     34  C   UNL A   1      38.227  30.027  28.656  1.00  0.00     0.014 A 
ATOM     35  C   UNL A   1      40.209  29.366  30.511  1.00  0.00     0.010 A 
ATOM     36  C   UNL A   1      39.503  29.690  28.216  1.00  0.00     0.010 A 
ATOM     37  C   UNL A   1      40.505  29.349  29.137  1.00  0.00    -0.014 A 
BRANCH  37  38
ATOM     38  C   UNL A   1      41.851  28.949  28.654  1.00  0.00     0.031 A 
ATOM     39  C   UNL A   1      42.970  29.951  28.594  1.00  0.00     0.074 A 
ATOM     40  C   UNL A   1      42.048  27.690  28.211  1.00  0.00     0.049 A 
ATOM     41  N   UNL A   1      44.209  29.782  28.210  1.00  0.00    -0.248 NA
ATOM     42  C   UNL A   1      42.646  31.331  28.987  1.00  0.00     0.031 C 
ATOM     43  C   UNL A   1      41.022  26.645  28.144  1.00  0.00     0.029 A 
ATOM     44  N   UNL A   1      43.178  27.073  27.736  1.00  0.00    -0.354 N 
ATOM     45  C   UNL A   1      44.806  31.034  28.298  1.00  0.00     0.074 A 
ATOM     46  C   UNL A   1      43.780  31.962  28.721  1.00  0.00     0.031 C 
ATOM     47  C   UNL A   1      41.580  25.509  27.698  1.00  0.00     0.029 A 
ATOM     48  C   UNL A   1      42.993  25.746  27.425  1.00  0.00     0.049 A 
ATOM     49  H   UNL A   1      44.039  27.538  27.626  1.00  0.00     0.167 HD
ATOM     50  C   UNL A   1      46.098  31.375  28.072  1.00  0.00     0.037 A 
ATOM     51  C   UNL A   1      43.869  24.822  26.988  1.00  0.00     0.037 A 
ATOM     52  C   UNL A   1      47.123  30.441  27.687  1.00  0.00     0.049 A 
ATOM     53  C   UNL A   1      45.308  25.213  26.790  1.00  0.00     0.074 A 
ATOM     54  C   UNL A   1      48.479  30.666  27.523  1.00  0.00     0.029 A 
ATOM     55  N   UNL A   1      46.905  29.100  27.405  1.00  0.00    -0.354 N 
ATOM     56  N   UNL A   1      45.877  26.381  26.967  1.00  0.00    -0.248 NA
ATOM     57  C   UNL A   1      46.226  24.155  26.345  1.00  0.00     0.031 C 
ATOM     58  C   UNL A   1      49.075  29.468  27.108  1.00  0.00     0.029 A 
ATOM     59  C   UNL A   1      48.096  28.489  27.048  1.00  0.00     0.049 A 
ATOM     60  H   UNL A   1      46.031  28.649  27.452  1.00  0.00     0.167 HD
ATOM     61  C   UNL A   1      47.224  26.196  26.674  1.00  0.00     0.074 A 
ATOM     62  C   UNL A   1      47.385  24.798  26.324  1.00  0.00     0.031 C 
ATOM     63  C   UNL A   1      48.235  27.099  26.694  1.00  0.00     0.037 A 
BRANCH  50  64
ATOM     64  C   UNL A   1      46.468  32.823  28.243  1.00  0.00     0.058 A 
ATOM     65  C   UNL A   1      47.033  33.304  29.435  1.00  0.00     0.135 A 
ATOM     66  C   UNL A   1      46.253  33.743  27.204  1.00  0.00     0.135 A 
ATOM     67  F   UNL A   1      47.247  32.470  30.466  1.00  0.00    -0.206 F 
ATOM     68  C   UNL A   1      47.330  34.651  29.609  1.00  0.00     0.059 A 
ATOM     69  C   UNL A   1      46.569  35.091  27.346  1.00  0.00     0.059 A 
ATOM     70  F   UNL A   1      45.717  33.337  26.042  1.00  0.00    -0.206 F 
ATOM     71  C   UNL A   1      47.086  35.539  28.560  1.00  0.00     0.060 A 
BRANCH  71  72
ATOM     72  S   UNL A   1      47.452  37.290  28.806  1.00  0.00     0.124 S 
ATOM     73  O   UNL A   1      46.176  37.904  28.454  1.00  0.00    -0.237 OA
ATOM     74  O   UNL A   1      47.811  37.343  30.220  1.00  0.00    -0.237 OA
ATOM     75  O   UNL A   1      48.548  37.540  27.875  1.00  0.00    -0.744 OA
ENDBRANCH  71  72
ENDBRANCH  50  64
BRANCH  51  76
ATOM     76  C   UNL A   1      43.423  23.421  26.771  1.00  0.00     0.058 A 
ATOM     77  C   UNL A   1      43.379  22.880  25.476  1.00  0.00     0.135 A 
ATOM     78  C   UNL A   1      43.058  22.592  27.840  1.00  0.00     0.135 A 
ATOM     79  F   UNL A   1      43.714  23.638  24.422  1.00  0.00    -0.206 F 
ATOM     80  C   UNL A   1      42.980  21.567  25.250  1.00  0.00     0.059 A 
ATOM     81  C   UNL A   1      42.673  21.270  27.641  1.00  0.00     0.059 A 
ATOM     82  F   UNL A   1      43.099  23.060  29.098  1.00  0.00    -0.206 F 
ATOM     83  C   UNL A   1      42.631  20.768  26.340  1.00  0.00     0.060 A 
BRANCH  83  84
ATOM     84  S   UNL A   1      42.176  19.046  26.041  1.00  0.00     0.124 S 
ATOM     85  O   UNL A   1      40.733  19.149  25.865  1.00  0.00    -0.237 OA
ATOM     86  O   UNL A   1      42.946  18.728  24.842  1.00  0.00    -0.237 OA
ATOM     87  O   UNL A   1      42.619  18.369  27.258  1.00  0.00    -0.744 OA
ENDBRANCH  83  84
ENDBRANCH  51  76
BRANCH  63  88
ATOM     88  C   UNL A   1      49.605  26.594  26.338  1.00  0.00     0.058 A 
ATOM     89  C   UNL A   1      50.447  26.017  27.301  1.00  0.00     0.135 A 
ATOM     90  C   UNL A   1      50.076  26.677  25.018  1.00  0.00     0.135 A 
ATOM     91  F   UNL A   1      50.046  25.920  28.579  1.00  0.00    -0.206 F 
ATOM     92  C   UNL A   1      51.724  25.572  26.976  1.00  0.00     0.059 A 
ATOM     93  C   UNL A   1      51.340  26.215  24.665  1.00  0.00     0.059 A 
ATOM     94  F   UNL A   1      49.305  27.210  24.057  1.00  0.00    -0.206 F 
ATOM     95  C   UNL A   1      52.164  25.682  25.655  1.00  0.00     0.060 A 
BRANCH  95  96
ATOM     96  S   UNL A   1      53.822  25.100  25.240  1.00  0.00     0.124 S 
ATOM     97  O   UNL A   1      54.080  25.818  23.996  1.00  0.00    -0.237 OA
ATOM     98  O   UNL A   1      54.606  25.529  26.394  1.00  0.00    -0.237 OA
ATOM     99  O   UNL A   1      53.650  23.656  25.109  1.00  0.00    -0.744 OA
ENDBRANCH  95  96
ENDBRANCH  63  88
ENDBRANCH  37  38
ENDBRANCH  29  32
ENDBRANCH  27  28
ENDBRANCH  26  27
ENDBRANCH  25  26
ENDBRANCH   1  25
TORSDOF 21
ENDMDL
MODEL 3
REMARK VINA RESULT:     -10.4      6.391      8.605
REMARK SMILES CC[C@](C)(Nc1ncnc(OC)c1[N+](=O)[O-])C(=O)NCCCCCCNC(=O)c1ccc(-c2c3nc(c(-c4c(F)cc(S(=O)(=O)[O-])cc4F)c4ccc([nH]4)c(-c4c(F)cc(S(=O)(=O)[O-])cc4F)c4nc(c(-c5c(F)cc(S(=O)(=O)[O-])cc5F)c5ccc2[nH]5)C=C4)C=C3)cc1
REMARK SMILES IDX 22 1 21 2 20 3 19 4 17 5 18 6 3 8 4 9 2 10 1 11 5 12 6 14
REMARK SMILES IDX 7 15 13 16 8 17 10 18 9 19 14 20 15 21 16 22 11 23 12 24
REMARK SMILES IDX 23 25 24 26 25 27 26 28 27 29 28 31 29 32 30 33 94 34 31 35
REMARK SMILES IDX 93 36 32 37 33 38 34 39 87 40 35 41 92 42 86 43 88 44 36 45
REMARK SMILES IDX 91 46 85 47 84 48 37 50 71 51 50 52 70 53 51 54 54 55 69 56
REMARK SMILES IDX 89 57 52 58 53 59 68 61 90 62 55 63 38 64 39 65 48 66 40 67
REMARK SMILES IDX 41 68 47 69 49 70 42 71 43 72 44 73 45 74 46 75 72 76 73 77
REMARK SMILES IDX 82 78 74 79 75 80 81 81 83 82 76 83 77 84 78 85 79 86 80 87
REMARK SMILES IDX 56 88 57 89 66 90 58 91 59 92 65 93 67 94 60 95 61 96 62 97
REMARK SMILES IDX 63 98 64 99
REMARK H PARENT 19 7 5 13 26 30 88 49 54 60
REMARK Flexibility Score: inf
ROOT
ATOM      1  C   UNL A   1      39.840  22.950  27.080  1.00  0.00     0.002 C 
ENDROOT
BRANCH   1   2
ATOM      2  C   UNL A   1      38.670  23.329  26.169  1.00  0.00     0.021 C 
BRANCH   2   3
ATOM      3  C   UNL A   1      37.848  22.164  25.623  1.00  0.00     0.116 C 
BRANCH   3   4
ATOM      4  N   UNL A   1      37.329  22.298  24.268  1.00  0.00    -0.354 N 
ATOM      5  C   UNL A   1      36.241  22.905  23.710  1.00  0.00     0.245 C 
ATOM      6  O   UNL A   1      36.327  23.140  22.499  1.00  0.00    -0.272 OA
ATOM      7  H   UNL A   1      37.893  21.846  23.601  1.00  0.00     0.163 HD
BRANCH   5   8
ATOM      8  C   UNL A   1      34.941  23.265  24.487  1.00  0.00     0.115 C 
ATOM      9  C   UNL A   1      35.123  24.561  25.310  1.00  0.00     0.045 C 
BRANCH   8  10
ATOM     10  C   UNL A   1      34.572  22.122  25.481  1.00  0.00     0.035 C 
ATOM     11  C   UNL A   1      34.021  20.851  24.840  1.00  0.00     0.007 C 
ENDBRANCH   8  10
BRANCH   8  12
ATOM     12  N   UNL A   1      33.794  23.476  23.589  1.00  0.00    -0.350 N 
ATOM     13  H   UNL A   1      33.787  22.817  22.857  1.00  0.00     0.163 HD
BRANCH  12  14
ATOM     14  C   UNL A   1      32.744  24.329  23.491  1.00  0.00     0.213 A 
ATOM     15  N   UNL A   1      31.854  24.030  24.468  1.00  0.00    -0.212 NA
ATOM     16  C   UNL A   1      32.428  25.332  22.601  1.00  0.00     0.372 A 
ATOM     17  C   UNL A   1      30.684  24.691  24.516  1.00  0.00     0.228 A 
ATOM     18  C   UNL A   1      31.175  25.915  22.690  1.00  0.00     0.299 A 
ATOM     19  N   UNL A   1      30.282  25.617  23.648  1.00  0.00    -0.196 NA
BRANCH  16  20
ATOM     20  N   UNL A   1      33.285  25.829  21.580  1.00  0.00     0.072 N 
ATOM     21  O   UNL A   1      33.256  25.248  20.488  1.00  0.00    -0.258 OA
ATOM     22  O   UNL A   1      34.074  26.733  21.894  1.00  0.00    -0.258 OA
ENDBRANCH  16  20
BRANCH  18  23
ATOM     23  O   UNL A   1      30.777  26.909  21.832  1.00  0.00    -0.476 OA
ATOM     24  C   UNL A   1      30.695  28.167  22.508  1.00  0.00     0.280 C 
ENDBRANCH  18  23
ENDBRANCH  12  14
ENDBRANCH   8  12
ENDBRANCH   5   8
ENDBRANCH   3   4
ENDBRANCH   2   3
ENDBRANCH   1   2
BRANCH   1  25
ATOM     25  C   UNL A   1      41.011  22.219  26.420  1.00  0.00     0.002 C 
BRANCH  25  26
ATOM     26  C   UNL A   1      40.919  20.694  26.438  1.00  0.00     0.021 C 
BRANCH  26  27
ATOM     27  C   UNL A   1      42.213  19.979  26.819  1.00  0.00     0.116 C 
BRANCH  27  28
ATOM     28  N   UNL A   1      42.880  19.359  25.682  1.00  0.00    -0.352 N 
ATOM     29  C   UNL A   1      43.822  19.913  24.842  1.00  0.00     0.251 C 
ATOM     30  H   UNL A   1      42.626  18.429  25.488  1.00  0.00     0.163 HD
ATOM     31  O   UNL A   1      44.214  19.307  23.855  1.00  0.00    -0.269 OA
BRANCH  29  32
ATOM     32  C   UNL A   1      44.321  21.275  25.134  1.00  0.00     0.039 A 
ATOM     33  C   UNL A   1      43.905  22.337  24.328  1.00  0.00     0.014 A 
ATOM     34  C   UNL A   1      45.136  21.504  26.246  1.00  0.00     0.014 A 
ATOM     35  C   UNL A   1      44.242  23.643  24.687  1.00  0.00     0.010 A 
ATOM     36  C   UNL A   1      45.414  22.811  26.638  1.00  0.00     0.010 A 
ATOM     37  C   UNL A   1      44.964  23.893  25.868  1.00  0.00    -0.014 A 
BRANCH  37  38
ATOM     38  C   UNL A   1      45.227  25.284  26.318  1.00  0.00     0.031 A 
ATOM     39  C   UNL A   1      46.611  25.864  26.233  1.00  0.00     0.074 A 
ATOM     40  C   UNL A   1      44.225  26.004  26.862  1.00  0.00     0.049 A 
ATOM     41  N   UNL A   1      47.027  27.058  26.570  1.00  0.00    -0.248 NA
ATOM     42  C   UNL A   1      47.674  24.978  25.735  1.00  0.00     0.031 C 
ATOM     43  C   UNL A   1      42.855  25.527  27.072  1.00  0.00     0.029 A 
ATOM     44  N   UNL A   1      44.201  27.293  27.334  1.00  0.00    -0.354 N 
ATOM     45  C   UNL A   1      48.398  27.060  26.341  1.00  0.00     0.074 A 
ATOM     46  C   UNL A   1      48.751  25.732  25.887  1.00  0.00     0.031 C 
ATOM     47  C   UNL A   1      42.117  26.521  27.590  1.00  0.00     0.029 A 
ATOM     48  C   UNL A   1      42.961  27.698  27.771  1.00  0.00     0.049 A 
ATOM     49  H   UNL A   1      44.997  27.871  27.359  1.00  0.00     0.167 HD
ATOM     50  C   UNL A   1      49.278  28.082  26.471  1.00  0.00     0.037 A 
ATOM     51  C   UNL A   1      42.549  28.888  28.245  1.00  0.00     0.037 A 
ATOM     52  C   UNL A   1      48.915  29.411  26.888  1.00  0.00     0.049 A 
ATOM     53  C   UNL A   1      43.533  30.021  28.337  1.00  0.00     0.074 A 
ATOM     54  C   UNL A   1      49.712  30.540  26.964  1.00  0.00     0.029 A 
ATOM     55  N   UNL A   1      47.645  29.791  27.299  1.00  0.00    -0.354 N 
ATOM     56  N   UNL A   1      44.808  30.032  28.028  1.00  0.00    -0.248 NA
ATOM     57  C   UNL A   1      43.019  31.307  28.830  1.00  0.00     0.031 C 
ATOM     58  C   UNL A   1      48.932  31.594  27.455  1.00  0.00     0.029 A 
ATOM     59  C   UNL A   1      47.641  31.131  27.650  1.00  0.00     0.049 A 
ATOM     60  H   UNL A   1      46.863  29.194  27.336  1.00  0.00     0.167 HD
ATOM     61  C   UNL A   1      45.246  31.330  28.270  1.00  0.00     0.074 A 
ATOM     62  C   UNL A   1      44.093  32.078  28.735  1.00  0.00     0.031 C 
ATOM     63  C   UNL A   1      46.486  31.856  28.121  1.00  0.00     0.037 A 
BRANCH  50  64
ATOM     64  C   UNL A   1      50.720  27.793  26.154  1.00  0.00     0.058 A 
ATOM     65  C   UNL A   1      51.207  27.836  24.837  1.00  0.00     0.135 A 
ATOM     66  C   UNL A   1      51.626  27.468  27.176  1.00  0.00     0.135 A 
ATOM     67  F   UNL A   1      50.381  28.128  23.819  1.00  0.00    -0.206 F 
ATOM     68  C   UNL A   1      52.529  27.523  24.540  1.00  0.00     0.059 A 
ATOM     69  C   UNL A   1      52.959  27.177  26.904  1.00  0.00     0.059 A 
ATOM     70  F   UNL A   1      51.214  27.414  28.453  1.00  0.00    -0.206 F 
ATOM     71  C   UNL A   1      53.396  27.185  25.580  1.00  0.00     0.060 A 
BRANCH  71  72
ATOM     72  S   UNL A   1      55.103  26.756  25.180  1.00  0.00     0.124 S 
ATOM     73  O   UNL A   1      55.800  27.991  25.524  1.00  0.00    -0.237 OA
ATOM     74  O   UNL A   1      55.358  25.620  26.060  1.00  0.00    -0.237 OA
ATOM     75  O   UNL A   1      55.048  26.441  23.756  1.00  0.00    -0.744 OA
ENDBRANCH  71  72
ENDBRANCH  50  64
BRANCH  51  76
ATOM     76  C   UNL A   1      41.121  29.087  28.609  1.00  0.00     0.058 A 
ATOM     77  C   UNL A   1      40.722  29.089  29.955  1.00  0.00     0.135 A 
ATOM     78  C   UNL A   1      40.138  29.303  27.634  1.00  0.00     0.135 A 
ATOM     79  F   UNL A   1      41.627  28.880  30.922  1.00  0.00    -0.206 F 
ATOM     80  C   UNL A   1      39.395  29.289  30.320  1.00  0.00     0.059 A 
ATOM     81  C   UNL A   1      38.807  29.525  27.975  1.00  0.00     0.059 A 
ATOM     82  F   UNL A   1      40.474  29.326  26.334  1.00  0.00    -0.206 F 
ATOM     83  C   UNL A   1      38.444  29.508  29.322  1.00  0.00     0.060 A 
BRANCH  83  84
ATOM     84  S   UNL A   1      36.735  29.831  29.810  1.00  0.00     0.124 S 
ATOM     85  O   UNL A   1      36.001  29.334  28.653  1.00  0.00    -0.237 OA
ATOM     86  O   UNL A   1      36.611  29.046  31.034  1.00  0.00    -0.237 OA
ATOM     87  O   UNL A   1      36.712  31.280  29.999  1.00  0.00    -0.744 OA
ENDBRANCH  83  84
ENDBRANCH  51  76
BRANCH  63  88
ATOM     88  C   UNL A   1      46.653  33.312  28.452  1.00  0.00     0.058 A 
ATOM     89  C   UNL A   1      46.465  34.311  27.485  1.00  0.00     0.135 A 
ATOM     90  C   UNL A   1      46.993  33.713  29.754  1.00  0.00     0.135 A 
ATOM     91  F   UNL A   1      46.145  33.979  26.224  1.00  0.00    -0.206 F 
ATOM     92  C   UNL A   1      46.643  35.656  27.786  1.00  0.00     0.059 A 
ATOM     93  C   UNL A   1      47.151  35.055  30.085  1.00  0.00     0.059 A 
ATOM     94  F   UNL A   1      47.173  32.797  30.719  1.00  0.00    -0.206 F 
ATOM     95  C   UNL A   1      46.993  36.018  29.089  1.00  0.00     0.060 A 
BRANCH  95  96
ATOM     96  S   UNL A   1      47.220  37.767  29.475  1.00  0.00     0.124 S 
ATOM     97  O   UNL A   1      47.840  38.258  28.249  1.00  0.00    -0.237 OA
ATOM     98  O   UNL A   1      45.853  38.218  29.718  1.00  0.00    -0.237 OA
ATOM     99  O   UNL A   1      48.084  37.744  30.652  1.00  0.00    -0.744 OA
ENDBRANCH  95  96
ENDBRANCH  63  88
ENDBRANCH  37  38
ENDBRANCH  29  32
ENDBRANCH  27  28
ENDBRANCH  26  27
ENDBRANCH  25  26
ENDBRANCH   1  25
TORSDOF 21
ENDMDL
