MODEL 1
REMARK VINA RESULT:      -9.8      0.000      0.000
REMARK SMILES CC(C)Cc1ccc([C@H](CF)C(=O)NCCCCCCNC(=O)c2ccc(-c3c4nc(c(-c5c(F)cc(S(=O)(=O)[O-])cc5F)c5ccc([nH]5)c(-c5c(F)cc(S(=O)(=O)[O-])cc5F)c5nc(c(-c6c(F)cc(S(=O)(=O)[O-])cc6F)c6ccc3[nH]6)C=C5)C=C4)cc2)cc1
REMARK SMILES IDX 17 1 16 2 15 3 14 4 12 5 13 6 9 8 8 9 5 10 6 11 91 12 7 13
REMARK SMILES IDX 90 14 4 15 2 16 1 17 3 18 10 19 11 20 18 21 19 22 20 23
REMARK SMILES IDX 21 24 22 25 23 27 24 28 25 29 89 30 26 31 88 32 27 33 28 34
REMARK SMILES IDX 29 35 82 36 30 37 87 38 81 39 83 40 31 41 86 42 80 43 79 44
REMARK SMILES IDX 32 46 66 47 45 48 65 49 46 50 49 51 64 52 84 53 47 54 48 55
REMARK SMILES IDX 63 57 85 58 50 59 33 60 34 61 43 62 35 63 36 64 42 65 44 66
REMARK SMILES IDX 37 67 38 68 39 69 40 70 41 71 67 72 68 73 77 74 69 75 70 76
REMARK SMILES IDX 76 77 78 78 71 79 72 80 73 81 74 82 75 83 51 84 52 85 61 86
REMARK SMILES IDX 53 87 54 88 60 89 62 90 55 91 56 92 57 93 58 94 59 95
REMARK H PARENT 14 7 21 26 83 45 49 56
REMARK Flexibility Score: inf
ROOT
ATOM      1  C   UNL A   1      34.283  24.767  23.584  1.00  0.00     0.002 C 
ENDROOT
BRANCH   1   2
ATOM      2  C   UNL A   1      34.125  25.884  24.622  1.00  0.00     0.021 C 
BRANCH   2   3
ATOM      3  C   UNL A   1      32.970  26.836  24.340  1.00  0.00     0.116 C 
BRANCH   3   4
ATOM      4  N   UNL A   1      32.162  27.066  25.524  1.00  0.00    -0.355 N 
ATOM      5  C   UNL A   1      30.982  26.504  25.907  1.00  0.00     0.230 C 
ATOM      6  O   UNL A   1      30.570  26.781  27.038  1.00  0.00    -0.274 OA
ATOM      7  H   UNL A   1      32.524  27.734  26.149  1.00  0.00     0.163 HD
BRANCH   5   8
ATOM      8  C   UNL A   1      30.181  25.589  24.989  1.00  0.00     0.139 C 
BRANCH   8   9
ATOM      9  C   UNL A   1      30.818  24.243  24.657  1.00  0.00    -0.033 A 
ATOM     10  C   UNL A   1      31.987  21.718  24.150  1.00  0.00    -0.048 A 
ATOM     11  C   UNL A   1      31.519  22.507  23.099  1.00  0.00     0.004 A 
ATOM     12  C   UNL A   1      31.881  22.200  25.458  1.00  0.00     0.004 A 
ATOM     13  C   UNL A   1      30.974  23.766  23.348  1.00  0.00     0.005 A 
ATOM     14  C   UNL A   1      31.305  23.447  25.708  1.00  0.00     0.005 A 
BRANCH  10  15
ATOM     15  C   UNL A   1      32.686  20.415  23.856  1.00  0.00     0.038 C 
BRANCH  15  16
ATOM     16  C   UNL A   1      33.391  19.851  25.106  1.00  0.00    -0.013 C 
ATOM     17  C   UNL A   1      32.848  18.472  25.495  1.00  0.00     0.008 C 
ATOM     18  C   UNL A   1      34.898  19.772  24.868  1.00  0.00     0.008 C 
ENDBRANCH  15  16
ENDBRANCH  10  15
ENDBRANCH   8   9
BRANCH   8  19
ATOM     19  C   UNL A   1      29.710  26.365  23.757  1.00  0.00     0.232 C 
ATOM     20  F   UNL A   1      28.534  26.996  24.046  1.00  0.00    -0.250 F 
ENDBRANCH   8  19
ENDBRANCH   5   8
ENDBRANCH   3   4
ENDBRANCH   2   3
ENDBRANCH   1   2
BRANCH   1  21
ATOM     21  C   UNL A   1      35.244  23.637  23.974  1.00  0.00     0.002 C 
BRANCH  21  22
ATOM     22  C   UNL A   1      35.357  23.366  25.475  1.00  0.00     0.021 C 
BRANCH  22  23
ATOM     23  C   UNL A   1      36.693  23.756  26.094  1.00  0.00     0.116 C 
BRANCH  23  24
ATOM     24  N   UNL A   1      37.637  22.653  26.104  1.00  0.00    -0.352 N 
ATOM     25  C   UNL A   1      38.989  22.680  26.328  1.00  0.00     0.251 C 
ATOM     26  H   UNL A   1      37.254  21.763  25.927  1.00  0.00     0.163 HD
ATOM     27  O   UNL A   1      39.664  21.673  26.122  1.00  0.00    -0.269 OA
BRANCH  25  28
ATOM     28  C   UNL A   1      39.633  23.926  26.797  1.00  0.00     0.039 A 
ATOM     29  C   UNL A   1      39.934  24.922  25.868  1.00  0.00     0.014 A 
ATOM     30  C   UNL A   1      39.948  24.105  28.148  1.00  0.00     0.014 A 
ATOM     31  C   UNL A   1      40.521  26.113  26.297  1.00  0.00     0.010 A 
ATOM     32  C   UNL A   1      40.455  25.325  28.586  1.00  0.00     0.010 A 
ATOM     33  C   UNL A   1      40.767  26.334  27.663  1.00  0.00    -0.014 A 
BRANCH  33  34
ATOM     34  C   UNL A   1      41.401  27.591  28.137  1.00  0.00     0.031 A 
ATOM     35  C   UNL A   1      42.899  27.737  28.085  1.00  0.00     0.074 A 
ATOM     36  C   UNL A   1      40.638  28.582  28.639  1.00  0.00     0.049 A 
ATOM     37  N   UNL A   1      43.650  28.720  28.512  1.00  0.00    -0.248 NA
ATOM     38  C   UNL A   1      43.658  26.619  27.497  1.00  0.00     0.031 C 
ATOM     39  C   UNL A   1      39.180  28.544  28.778  1.00  0.00     0.029 A 
ATOM     40  N   UNL A   1      40.982  29.815  29.136  1.00  0.00    -0.354 N 
ATOM     41  C   UNL A   1      44.960  28.340  28.244  1.00  0.00     0.074 A 
ATOM     42  C   UNL A   1      44.910  27.007  27.687  1.00  0.00     0.031 C 
ATOM     43  C   UNL A   1      38.756  29.704  29.305  1.00  0.00     0.029 A 
ATOM     44  C   UNL A   1      39.910  30.554  29.577  1.00  0.00     0.049 A 
ATOM     45  H   UNL A   1      41.911  30.139  29.172  1.00  0.00     0.167 HD
ATOM     46  C   UNL A   1      46.100  29.052  28.410  1.00  0.00     0.037 A 
ATOM     47  C   UNL A   1      39.866  31.775  30.147  1.00  0.00     0.037 A 
ATOM     48  C   UNL A   1      46.143  30.387  28.945  1.00  0.00     0.049 A 
ATOM     49  C   UNL A   1      41.153  32.536  30.340  1.00  0.00     0.074 A 
ATOM     50  C   UNL A   1      47.246  31.199  29.146  1.00  0.00     0.029 A 
ATOM     51  N   UNL A   1      45.033  31.113  29.351  1.00  0.00    -0.354 N 
ATOM     52  N   UNL A   1      42.380  32.173  30.048  1.00  0.00    -0.248 NA
ATOM     53  C   UNL A   1      41.049  33.880  30.925  1.00  0.00     0.031 C 
ATOM     54  C   UNL A   1      46.806  32.402  29.707  1.00  0.00     0.029 A 
ATOM     55  C   UNL A   1      45.425  32.363  29.801  1.00  0.00     0.049 A 
ATOM     56  H   UNL A   1      44.104  30.787  29.325  1.00  0.00     0.167 HD
ATOM     57  C   UNL A   1      43.185  33.262  30.370  1.00  0.00     0.074 A 
ATOM     58  C   UNL A   1      42.306  34.297  30.869  1.00  0.00     0.031 C 
ATOM     59  C   UNL A   1      44.530  33.393  30.261  1.00  0.00     0.037 A 
BRANCH  46  60
ATOM     60  C   UNL A   1      47.393  28.416  27.978  1.00  0.00     0.058 A 
ATOM     61  C   UNL A   1      48.204  27.720  28.891  1.00  0.00     0.135 A 
ATOM     62  C   UNL A   1      47.797  28.441  26.633  1.00  0.00     0.135 A 
ATOM     63  F   UNL A   1      47.877  27.682  30.193  1.00  0.00    -0.206 F 
ATOM     64  C   UNL A   1      49.372  27.084  28.488  1.00  0.00     0.059 A 
ATOM     65  C   UNL A   1      48.947  27.786  26.203  1.00  0.00     0.059 A 
ATOM     66  F   UNL A   1      47.063  29.097  25.720  1.00  0.00    -0.206 F 
ATOM     67  C   UNL A   1      49.732  27.115  27.140  1.00  0.00     0.060 A 
BRANCH  67  68
ATOM     68  S   UNL A   1      51.230  26.247  26.632  1.00  0.00     0.124 S 
ATOM     69  O   UNL A   1      52.265  27.053  27.271  1.00  0.00    -0.237 OA
ATOM     70  O   UNL A   1      51.024  24.916  27.197  1.00  0.00    -0.237 OA
ATOM     71  O   UNL A   1      51.189  26.321  25.175  1.00  0.00    -0.744 OA
ENDBRANCH  67  68
ENDBRANCH  46  60
BRANCH  47  72
ATOM     72  C   UNL A   1      38.567  32.366  30.574  1.00  0.00     0.058 A 
ATOM     73  C   UNL A   1      37.983  32.027  31.805  1.00  0.00     0.135 A 
ATOM     74  C   UNL A   1      37.859  33.243  29.739  1.00  0.00     0.135 A 
ATOM     75  F   UNL A   1      38.619  31.192  32.641  1.00  0.00    -0.206 F 
ATOM     76  C   UNL A   1      36.723  32.491  32.169  1.00  0.00     0.059 A 
ATOM     77  C   UNL A   1      36.612  33.749  30.096  1.00  0.00     0.059 A 
ATOM     78  F   UNL A   1      38.381  33.621  28.561  1.00  0.00    -0.206 F 
ATOM     79  C   UNL A   1      36.042  33.347  31.301  1.00  0.00     0.060 A 
BRANCH  79  80
ATOM     80  S   UNL A   1      34.401  33.933  31.772  1.00  0.00     0.124 S 
ATOM     81  O   UNL A   1      34.724  35.159  32.492  1.00  0.00    -0.237 OA
ATOM     82  O   UNL A   1      33.751  34.105  30.477  1.00  0.00    -0.237 OA
ATOM     83  O   UNL A   1      33.876  32.841  32.588  1.00  0.00    -0.744 OA
ENDBRANCH  79  80
ENDBRANCH  47  72
BRANCH  59  84
ATOM     84  C   UNL A   1      45.127  34.730  30.610  1.00  0.00     0.058 A 
ATOM     85  C   UNL A   1      45.278  35.752  29.662  1.00  0.00     0.135 A 
ATOM     86  C   UNL A   1      45.519  35.001  31.932  1.00  0.00     0.135 A 
ATOM     87  F   UNL A   1      44.922  35.547  28.383  1.00  0.00    -0.206 F 
ATOM     88  C   UNL A   1      45.831  36.983  30.001  1.00  0.00     0.059 A 
ATOM     89  C   UNL A   1      46.042  36.235  32.302  1.00  0.00     0.059 A 
ATOM     90  F   UNL A   1      45.383  34.063  32.885  1.00  0.00    -0.206 F 
ATOM     91  C   UNL A   1      46.210  37.215  31.325  1.00  0.00     0.060 A 
BRANCH  91  92
ATOM     92  S   UNL A   1      46.910  38.821  31.757  1.00  0.00     0.124 S 
ATOM     93  O   UNL A   1      47.500  38.543  33.062  1.00  0.00    -0.237 OA
ATOM     94  O   UNL A   1      47.856  39.050  30.669  1.00  0.00    -0.237 OA
ATOM     95  O   UNL A   1      45.750  39.707  31.768  1.00  0.00    -0.744 OA
ENDBRANCH  91  92
ENDBRANCH  59  84
ENDBRANCH  33  34
ENDBRANCH  25  28
ENDBRANCH  23  24
ENDBRANCH  22  23
ENDBRANCH  21  22
ENDBRANCH   1  21
TORSDOF 20
ENDMDL
MODEL 2
REMARK VINA RESULT:      -9.8      1.623      3.589
REMARK SMILES CC(C)Cc1ccc([C@H](CF)C(=O)NCCCCCCNC(=O)c2ccc(-c3c4nc(c(-c5c(F)cc(S(=O)(=O)[O-])cc5F)c5ccc([nH]5)c(-c5c(F)cc(S(=O)(=O)[O-])cc5F)c5nc(c(-c6c(F)cc(S(=O)(=O)[O-])cc6F)c6ccc3[nH]6)C=C5)C=C4)cc2)cc1
REMARK SMILES IDX 17 1 16 2 15 3 14 4 12 5 13 6 9 8 8 9 5 10 6 11 91 12 7 13
REMARK SMILES IDX 90 14 4 15 2 16 1 17 3 18 10 19 11 20 18 21 19 22 20 23
REMARK SMILES IDX 21 24 22 25 23 27 24 28 25 29 89 30 26 31 88 32 27 33 28 34
REMARK SMILES IDX 29 35 82 36 30 37 87 38 81 39 83 40 31 41 86 42 80 43 79 44
REMARK SMILES IDX 32 46 66 47 45 48 65 49 46 50 49 51 64 52 84 53 47 54 48 55
REMARK SMILES IDX 63 57 85 58 50 59 33 60 34 61 43 62 35 63 36 64 42 65 44 66
REMARK SMILES IDX 37 67 38 68 39 69 40 70 41 71 67 72 68 73 77 74 69 75 70 76
REMARK SMILES IDX 76 77 78 78 71 79 72 80 73 81 74 82 75 83 51 84 52 85 61 86
REMARK SMILES IDX 53 87 54 88 60 89 62 90 55 91 56 92 57 93 58 94 59 95
REMARK H PARENT 14 7 21 26 83 45 49 56
REMARK Flexibility Score: inf
ROOT
ATOM      1  C   UNL A   1      34.930  21.521  24.224  1.00  0.00     0.002 C 
ENDROOT
BRANCH   1   2
ATOM      2  C   UNL A   1      33.757  22.304  24.826  1.00  0.00     0.021 C 
BRANCH   2   3
ATOM      3  C   UNL A   1      32.632  22.594  23.843  1.00  0.00     0.116 C 
BRANCH   3   4
ATOM      4  N   UNL A   1      33.046  23.529  22.813  1.00  0.00    -0.355 N 
ATOM      5  C   UNL A   1      33.132  24.888  22.841  1.00  0.00     0.230 C 
ATOM      6  O   UNL A   1      33.648  25.438  21.862  1.00  0.00    -0.274 OA
ATOM      7  H   UNL A   1      33.305  23.116  21.959  1.00  0.00     0.163 HD
BRANCH   5   8
ATOM      8  C   UNL A   1      32.603  25.713  24.008  1.00  0.00     0.139 C 
BRANCH   8   9
ATOM      9  C   UNL A   1      31.410  26.616  23.709  1.00  0.00    -0.033 A 
ATOM     10  C   UNL A   1      29.133  28.216  23.208  1.00  0.00    -0.048 A 
ATOM     11  C   UNL A   1      30.417  28.742  23.055  1.00  0.00     0.004 A 
ATOM     12  C   UNL A   1      28.989  26.883  23.600  1.00  0.00     0.004 A 
ATOM     13  C   UNL A   1      31.538  27.941  23.270  1.00  0.00     0.005 A 
ATOM     14  C   UNL A   1      30.114  26.092  23.846  1.00  0.00     0.005 A 
BRANCH  10  15
ATOM     15  C   UNL A   1      27.932  29.056  22.853  1.00  0.00     0.038 C 
BRANCH  15  16
ATOM     16  C   UNL A   1      28.325  30.516  22.553  1.00  0.00    -0.013 C 
ATOM     17  C   UNL A   1      27.970  30.921  21.119  1.00  0.00     0.008 C 
ATOM     18  C   UNL A   1      27.644  31.457  23.546  1.00  0.00     0.008 C 
ENDBRANCH  15  16
ENDBRANCH  10  15
ENDBRANCH   8   9
BRANCH   8  19
ATOM     19  C   UNL A   1      33.758  26.434  24.706  1.00  0.00     0.232 C 
ATOM     20  F   UNL A   1      33.791  26.064  26.020  1.00  0.00    -0.250 F 
ENDBRANCH   8  19
ENDBRANCH   5   8
ENDBRANCH   3   4
ENDBRANCH   2   3
ENDBRANCH   1   2
BRANCH   1  21
ATOM     21  C   UNL A   1      36.208  22.331  23.982  1.00  0.00     0.002 C 
BRANCH  21  22
ATOM     22  C   UNL A   1      36.263  23.689  24.686  1.00  0.00     0.021 C 
BRANCH  22  23
ATOM     23  C   UNL A   1      36.931  23.669  26.054  1.00  0.00     0.116 C 
BRANCH  23  24
ATOM     24  N   UNL A   1      37.942  22.633  26.159  1.00  0.00    -0.352 N 
ATOM     25  C   UNL A   1      39.273  22.756  26.462  1.00  0.00     0.251 C 
ATOM     26  H   UNL A   1      37.629  21.714  25.991  1.00  0.00     0.163 HD
ATOM     27  O   UNL A   1      40.023  21.790  26.332  1.00  0.00    -0.269 OA
BRANCH  25  28
ATOM     28  C   UNL A   1      39.805  24.056  26.925  1.00  0.00     0.039 A 
ATOM     29  C   UNL A   1      40.064  24.235  28.284  1.00  0.00     0.014 A 
ATOM     30  C   UNL A   1      40.037  25.098  26.022  1.00  0.00     0.014 A 
ATOM     31  C   UNL A   1      40.588  25.447  28.735  1.00  0.00     0.010 A 
ATOM     32  C   UNL A   1      40.637  26.275  26.460  1.00  0.00     0.010 A 
ATOM     33  C   UNL A   1      40.899  26.471  27.824  1.00  0.00    -0.014 A 
BRANCH  33  34
ATOM     34  C   UNL A   1      41.447  27.772  28.286  1.00  0.00     0.031 A 
ATOM     35  C   UNL A   1      42.933  28.012  28.244  1.00  0.00     0.074 A 
ATOM     36  C   UNL A   1      40.618  28.719  28.768  1.00  0.00     0.049 A 
ATOM     37  N   UNL A   1      43.616  29.046  28.665  1.00  0.00    -0.248 NA
ATOM     38  C   UNL A   1      43.767  26.936  27.679  1.00  0.00     0.031 C 
ATOM     39  C   UNL A   1      39.164  28.590  28.895  1.00  0.00     0.029 A 
ATOM     40  N   UNL A   1      40.879  29.978  29.251  1.00  0.00    -0.354 N 
ATOM     41  C   UNL A   1      44.951  28.747  28.413  1.00  0.00     0.074 A 
ATOM     42  C   UNL A   1      44.990  27.406  27.874  1.00  0.00     0.031 C 
ATOM     43  C   UNL A   1      38.663  29.728  29.402  1.00  0.00     0.029 A 
ATOM     44  C   UNL A   1      39.759  30.653  29.672  1.00  0.00     0.049 A 
ATOM     45  H   UNL A   1      41.785  30.361  29.290  1.00  0.00     0.167 HD
ATOM     46  C   UNL A   1      46.042  29.531  28.579  1.00  0.00     0.037 A 
ATOM     47  C   UNL A   1      39.632  31.876  30.225  1.00  0.00     0.037 A 
ATOM     48  C   UNL A   1      45.995  30.873  29.096  1.00  0.00     0.049 A 
ATOM     49  C   UNL A   1      40.866  32.719  30.419  1.00  0.00     0.074 A 
ATOM     50  C   UNL A   1      47.042  31.756  29.295  1.00  0.00     0.029 A 
ATOM     51  N   UNL A   1      44.838  31.532  29.483  1.00  0.00    -0.354 N 
ATOM     52  N   UNL A   1      42.116  32.432  30.143  1.00  0.00    -0.248 NA
ATOM     53  C   UNL A   1      40.672  34.062  30.985  1.00  0.00     0.031 C 
ATOM     54  C   UNL A   1      46.522  32.936  29.836  1.00  0.00     0.029 A 
ATOM     55  C   UNL A   1      45.145  32.810  29.919  1.00  0.00     0.049 A 
ATOM     56  H   UNL A   1      43.931  31.148  29.453  1.00  0.00     0.167 HD
ATOM     57  C   UNL A   1      42.848  33.573  30.457  1.00  0.00     0.074 A 
ATOM     58  C   UNL A   1      41.901  34.557  30.934  1.00  0.00     0.031 C 
ATOM     59  C   UNL A   1      44.183  33.788  30.358  1.00  0.00     0.037 A 
BRANCH  46  60
ATOM     60  C   UNL A   1      47.376  28.973  28.167  1.00  0.00     0.058 A 
ATOM     61  C   UNL A   1      48.199  28.297  29.084  1.00  0.00     0.135 A 
ATOM     62  C   UNL A   1      47.812  29.052  26.834  1.00  0.00     0.135 A 
ATOM     63  F   UNL A   1      47.842  28.211  30.376  1.00  0.00    -0.206 F 
ATOM     64  C   UNL A   1      49.408  27.732  28.698  1.00  0.00     0.059 A 
ATOM     65  C   UNL A   1      49.005  28.466  26.419  1.00  0.00     0.059 A 
ATOM     66  F   UNL A   1      47.068  29.691  25.917  1.00  0.00    -0.206 F 
ATOM     67  C   UNL A   1      49.800  27.814  27.361  1.00  0.00     0.060 A 
BRANCH  67  68
ATOM     68  S   UNL A   1      51.353  27.036  26.873  1.00  0.00     0.124 S 
ATOM     69  O   UNL A   1      52.255  27.504  27.920  1.00  0.00    -0.237 OA
ATOM     70  O   UNL A   1      51.015  25.617  26.915  1.00  0.00    -0.237 OA
ATOM     71  O   UNL A   1      51.603  27.580  25.542  1.00  0.00    -0.744 OA
ENDBRANCH  67  68
ENDBRANCH  46  60
BRANCH  47  72
ATOM     72  C   UNL A   1      38.294  32.389  30.634  1.00  0.00     0.058 A 
ATOM     73  C   UNL A   1      37.510  33.156  29.758  1.00  0.00     0.135 A 
ATOM     74  C   UNL A   1      37.794  32.163  31.926  1.00  0.00     0.135 A 
ATOM     75  F   UNL A   1      37.942  33.401  28.512  1.00  0.00    -0.206 F 
ATOM     76  C   UNL A   1      36.307  33.726  30.164  1.00  0.00     0.059 A 
ATOM     77  C   UNL A   1      36.577  32.693  32.344  1.00  0.00     0.059 A 
ATOM     78  F   UNL A   1      38.490  31.416  32.797  1.00  0.00    -0.206 F 
ATOM     79  C   UNL A   1      35.853  33.495  31.463  1.00  0.00     0.060 A 
BRANCH  79  80
ATOM     80  S   UNL A   1      34.299  34.250  31.987  1.00  0.00     0.124 S 
ATOM     81  O   UNL A   1      33.621  34.438  30.710  1.00  0.00    -0.237 OA
ATOM     82  O   UNL A   1      33.740  33.226  32.864  1.00  0.00    -0.237 OA
ATOM     83  O   UNL A   1      34.732  35.472  32.659  1.00  0.00    -0.744 OA
ENDBRANCH  79  80
ENDBRANCH  47  72
BRANCH  59  84
ATOM     84  C   UNL A   1      44.691  35.165  30.693  1.00  0.00     0.058 A 
ATOM     85  C   UNL A   1      45.136  35.504  31.979  1.00  0.00     0.135 A 
ATOM     86  C   UNL A   1      44.768  36.148  29.693  1.00  0.00     0.135 A 
ATOM     87  F   UNL A   1      45.082  34.603  32.974  1.00  0.00    -0.206 F 
ATOM     88  C   UNL A   1      45.603  36.781  32.273  1.00  0.00     0.059 A 
ATOM     89  C   UNL A   1      45.264  37.420  29.955  1.00  0.00     0.059 A 
ATOM     90  F   UNL A   1      44.370  35.872  28.440  1.00  0.00    -0.206 F 
ATOM     91  C   UNL A   1      45.665  37.733  31.253  1.00  0.00     0.060 A 
BRANCH  91  92
ATOM     92  S   UNL A   1      46.289  39.381  31.641  1.00  0.00     0.124 S 
ATOM     93  O   UNL A   1      46.978  39.144  32.906  1.00  0.00    -0.237 OA
ATOM     94  O   UNL A   1      47.147  39.666  30.495  1.00  0.00    -0.237 OA
ATOM     95  O   UNL A   1      45.079  40.193  31.727  1.00  0.00    -0.744 OA
ENDBRANCH  91  92
ENDBRANCH  59  84
ENDBRANCH  33  34
ENDBRANCH  25  28
ENDBRANCH  23  24
ENDBRANCH  22  23
ENDBRANCH  21  22
ENDBRANCH   1  21
TORSDOF 20
ENDMDL
MODEL 3
REMARK VINA RESULT:      -9.8      1.513      3.524
REMARK SMILES CC(C)Cc1ccc([C@H](CF)C(=O)NCCCCCCNC(=O)c2ccc(-c3c4nc(c(-c5c(F)cc(S(=O)(=O)[O-])cc5F)c5ccc([nH]5)c(-c5c(F)cc(S(=O)(=O)[O-])cc5F)c5nc(c(-c6c(F)cc(S(=O)(=O)[O-])cc6F)c6ccc3[nH]6)C=C5)C=C4)cc2)cc1
REMARK SMILES IDX 17 1 16 2 15 3 14 4 12 5 13 6 9 8 8 9 5 10 6 11 91 12 7 13
REMARK SMILES IDX 90 14 4 15 2 16 1 17 3 18 10 19 11 20 18 21 19 22 20 23
REMARK SMILES IDX 21 24 22 25 23 27 24 28 25 29 89 30 26 31 88 32 27 33 28 34
REMARK SMILES IDX 29 35 82 36 30 37 87 38 81 39 83 40 31 41 86 42 80 43 79 44
REMARK SMILES IDX 32 46 66 47 45 48 65 49 46 50 49 51 64 52 84 53 47 54 48 55
REMARK SMILES IDX 63 57 85 58 50 59 33 60 34 61 43 62 35 63 36 64 42 65 44 66
REMARK SMILES IDX 37 67 38 68 39 69 40 70 41 71 67 72 68 73 77 74 69 75 70 76
REMARK SMILES IDX 76 77 78 78 71 79 72 80 73 81 74 82 75 83 51 84 52 85 61 86
REMARK SMILES IDX 53 87 54 88 60 89 62 90 55 91 56 92 57 93 58 94 59 95
REMARK H PARENT 14 7 21 26 83 45 49 56
REMARK Flexibility Score: inf
ROOT
ATOM      1  C   UNL A   1      34.323  22.402  24.245  1.00  0.00     0.002 C 
ENDROOT
BRANCH   1   2
ATOM      2  C   UNL A   1      33.218  21.594  23.555  1.00  0.00     0.021 C 
BRANCH   2   3
ATOM      3  C   UNL A   1      32.525  22.332  22.417  1.00  0.00     0.116 C 
BRANCH   3   4
ATOM      4  N   UNL A   1      31.446  23.174  22.902  1.00  0.00    -0.355 N 
ATOM      5  C   UNL A   1      31.352  24.531  22.974  1.00  0.00     0.230 C 
ATOM      6  O   UNL A   1      30.259  25.000  23.307  1.00  0.00    -0.274 OA
ATOM      7  H   UNL A   1      30.658  22.686  23.233  1.00  0.00     0.163 HD
BRANCH   5   8
ATOM      8  C   UNL A   1      32.536  25.445  22.682  1.00  0.00     0.139 C 
BRANCH   8   9
ATOM      9  C   UNL A   1      32.993  26.341  23.828  1.00  0.00    -0.033 A 
ATOM     10  C   UNL A   1      33.807  28.093  25.894  1.00  0.00    -0.048 A 
ATOM     11  C   UNL A   1      33.666  26.725  26.138  1.00  0.00     0.004 A 
ATOM     12  C   UNL A   1      33.553  28.582  24.611  1.00  0.00     0.004 A 
ATOM     13  C   UNL A   1      33.297  25.859  25.109  1.00  0.00     0.005 A 
ATOM     14  C   UNL A   1      33.153  27.717  23.590  1.00  0.00     0.005 A 
BRANCH  10  15
ATOM     15  C   UNL A   1      34.326  28.998  26.983  1.00  0.00     0.038 C 
BRANCH  15  16
ATOM     16  C   UNL A   1      33.784  30.434  26.838  1.00  0.00    -0.013 C 
ATOM     17  C   UNL A   1      32.265  30.494  27.028  1.00  0.00     0.008 C 
ATOM     18  C   UNL A   1      34.474  31.359  27.838  1.00  0.00     0.008 C 
ENDBRANCH  15  16
ENDBRANCH  10  15
ENDBRANCH   8   9
BRANCH   8  19
ATOM     19  C   UNL A   1      32.305  26.196  21.369  1.00  0.00     0.232 C 
ATOM     20  F   UNL A   1      32.972  25.558  20.363  1.00  0.00    -0.250 F 
ENDBRANCH   8  19
ENDBRANCH   5   8
ENDBRANCH   3   4
ENDBRANCH   2   3
ENDBRANCH   1   2
BRANCH   1  21
ATOM     21  C   UNL A   1      34.355  22.302  25.774  1.00  0.00     0.002 C 
BRANCH  21  22
ATOM     22  C   UNL A   1      35.137  23.407  26.486  1.00  0.00     0.021 C 
BRANCH  22  23
ATOM     23  C   UNL A   1      36.477  23.750  25.849  1.00  0.00     0.116 C 
BRANCH  23  24
ATOM     24  N   UNL A   1      37.445  22.677  25.990  1.00  0.00    -0.352 N 
ATOM     25  C   UNL A   1      38.771  22.754  26.324  1.00  0.00     0.251 C 
ATOM     26  H   UNL A   1      37.100  21.770  25.825  1.00  0.00     0.163 HD
ATOM     27  O   UNL A   1      39.487  21.758  26.224  1.00  0.00    -0.269 OA
BRANCH  25  28
ATOM     28  C   UNL A   1      39.342  24.038  26.785  1.00  0.00     0.039 A 
ATOM     29  C   UNL A   1      39.277  24.358  28.142  1.00  0.00     0.014 A 
ATOM     30  C   UNL A   1      39.928  24.927  25.879  1.00  0.00     0.014 A 
ATOM     31  C   UNL A   1      39.831  25.555  28.596  1.00  0.00     0.010 A 
ATOM     32  C   UNL A   1      40.553  26.080  26.345  1.00  0.00     0.010 A 
ATOM     33  C   UNL A   1      40.493  26.417  27.705  1.00  0.00    -0.014 A 
BRANCH  33  34
ATOM     34  C   UNL A   1      41.079  27.702  28.170  1.00  0.00     0.031 A 
ATOM     35  C   UNL A   1      42.570  27.905  28.109  1.00  0.00     0.074 A 
ATOM     36  C   UNL A   1      40.280  28.665  28.670  1.00  0.00     0.049 A 
ATOM     37  N   UNL A   1      43.284  28.919  28.528  1.00  0.00    -0.248 NA
ATOM     38  C   UNL A   1      43.369  26.814  27.524  1.00  0.00     0.031 C 
ATOM     39  C   UNL A   1      38.825  28.570  28.816  1.00  0.00     0.029 A 
ATOM     40  N   UNL A   1      40.578  29.913  29.158  1.00  0.00    -0.354 N 
ATOM     41  C   UNL A   1      44.607  28.590  28.255  1.00  0.00     0.074 A 
ATOM     42  C   UNL A   1      44.606  27.253  27.706  1.00  0.00     0.031 C 
ATOM     43  C   UNL A   1      38.359  29.716  29.338  1.00  0.00     0.029 A 
ATOM     44  C   UNL A   1      39.481  30.612  29.600  1.00  0.00     0.049 A 
ATOM     45  H   UNL A   1      41.494  30.274  29.188  1.00  0.00     0.167 HD
ATOM     46  C   UNL A   1      45.719  29.346  28.411  1.00  0.00     0.037 A 
ATOM     47  C   UNL A   1      39.391  31.834  30.163  1.00  0.00     0.037 A 
ATOM     48  C   UNL A   1      45.712  30.684  28.939  1.00  0.00     0.049 A 
ATOM     49  C   UNL A   1      40.648  32.645  30.346  1.00  0.00     0.074 A 
ATOM     50  C   UNL A   1      46.783  31.541  29.130  1.00  0.00     0.029 A 
ATOM     51  N   UNL A   1      44.576  31.369  29.347  1.00  0.00    -0.354 N 
ATOM     52  N   UNL A   1      41.887  32.329  30.051  1.00  0.00    -0.248 NA
ATOM     53  C   UNL A   1      40.495  33.988  30.924  1.00  0.00     0.031 C 
ATOM     54  C   UNL A   1      46.299  32.729  29.686  1.00  0.00     0.029 A 
ATOM     55  C   UNL A   1      44.921  32.636  29.788  1.00  0.00     0.049 A 
ATOM     56  H   UNL A   1      43.661  31.007  29.327  1.00  0.00     0.167 HD
ATOM     57  C   UNL A   1      42.651  33.450  30.362  1.00  0.00     0.074 A 
ATOM     58  C   UNL A   1      41.734  34.453  30.860  1.00  0.00     0.031 C 
ATOM     59  C   UNL A   1      43.989  33.633  30.247  1.00  0.00     0.037 A 
BRANCH  46  60
ATOM     60  C   UNL A   1      47.034  28.759  27.977  1.00  0.00     0.058 A 
ATOM     61  C   UNL A   1      47.494  28.895  26.657  1.00  0.00     0.135 A 
ATOM     62  C   UNL A   1      47.875  28.113  28.898  1.00  0.00     0.135 A 
ATOM     63  F   UNL A   1      46.721  29.484  25.729  1.00  0.00    -0.206 F 
ATOM     64  C   UNL A   1      48.732  28.402  26.262  1.00  0.00     0.059 A 
ATOM     65  C   UNL A   1      49.132  27.639  28.532  1.00  0.00     0.059 A 
ATOM     66  F   UNL A   1      47.484  27.951  30.173  1.00  0.00    -0.206 F 
ATOM     67  C   UNL A   1      49.548  27.782  27.210  1.00  0.00     0.060 A 
BRANCH  67  68
ATOM     68  S   UNL A   1      51.169  27.188  26.686  1.00  0.00     0.124 S 
ATOM     69  O   UNL A   1      50.874  25.802  26.338  1.00  0.00    -0.237 OA
ATOM     70  O   UNL A   1      51.477  28.071  25.566  1.00  0.00    -0.237 OA
ATOM     71  O   UNL A   1      51.999  27.372  27.873  1.00  0.00    -0.744 OA
ENDBRANCH  67  68
ENDBRANCH  46  60
BRANCH  47  72
ATOM     72  C   UNL A   1      38.072  32.376  30.594  1.00  0.00     0.058 A 
ATOM     73  C   UNL A   1      37.297  33.172  29.737  1.00  0.00     0.135 A 
ATOM     74  C   UNL A   1      37.583  32.149  31.889  1.00  0.00     0.135 A 
ATOM     75  F   UNL A   1      37.720  33.420  28.487  1.00  0.00    -0.206 F 
ATOM     76  C   UNL A   1      36.114  33.768  30.163  1.00  0.00     0.059 A 
ATOM     77  C   UNL A   1      36.385  32.705  32.328  1.00  0.00     0.059 A 
ATOM     78  F   UNL A   1      38.270  31.375  32.744  1.00  0.00    -0.206 F 
ATOM     79  C   UNL A   1      35.671  33.534  31.465  1.00  0.00     0.060 A 
BRANCH  79  80
ATOM     80  S   UNL A   1      34.143  34.323  32.017  1.00  0.00     0.124 S 
ATOM     81  O   UNL A   1      34.656  35.493  32.720  1.00  0.00    -0.237 OA
ATOM     82  O   UNL A   1      33.458  34.584  30.755  1.00  0.00    -0.237 OA
ATOM     83  O   UNL A   1      33.525  33.302  32.858  1.00  0.00    -0.744 OA
ENDBRANCH  79  80
ENDBRANCH  47  72
BRANCH  59  84
ATOM     84  C   UNL A   1      44.535  34.994  30.585  1.00  0.00     0.058 A 
ATOM     85  C   UNL A   1      45.004  35.314  31.868  1.00  0.00     0.135 A 
ATOM     86  C   UNL A   1      44.625  35.982  29.590  1.00  0.00     0.135 A 
ATOM     87  F   UNL A   1      44.941  34.407  32.857  1.00  0.00    -0.206 F 
ATOM     88  C   UNL A   1      45.507  36.577  32.164  1.00  0.00     0.059 A 
ATOM     89  C   UNL A   1      45.155  37.240  29.855  1.00  0.00     0.059 A 
ATOM     90  F   UNL A   1      44.204  35.726  28.341  1.00  0.00    -0.206 F 
ATOM     91  C   UNL A   1      45.579  37.534  31.150  1.00  0.00     0.060 A 
BRANCH  91  92
ATOM     92  S   UNL A   1      46.249  39.163  31.542  1.00  0.00     0.124 S 
ATOM     93  O   UNL A   1      45.873  39.928  30.358  1.00  0.00    -0.237 OA
ATOM     94  O   UNL A   1      45.538  39.504  32.770  1.00  0.00    -0.237 OA
ATOM     95  O   UNL A   1      47.679  38.914  31.702  1.00  0.00    -0.744 OA
ENDBRANCH  91  92
ENDBRANCH  59  84
ENDBRANCH  33  34
ENDBRANCH  25  28
ENDBRANCH  23  24
ENDBRANCH  22  23
ENDBRANCH  21  22
ENDBRANCH   1  21
TORSDOF 20
ENDMDL
