MODEL 1
REMARK VINA RESULT:     -10.4      0.000      0.000
REMARK SMILES CC(C)C[C@H](C)NS(=O)(=O)c1cc(C(=O)NCCCCCCNC(=O)c2ccc(-c3c4nc(c(-c5c(F)cc(S(=O)(=O)[O-])cc5F)c5ccc([nH]5)c(-c5c(F)cc(S(=O)(=O)[O-])cc5F)c5nc(c(-c6c(F)cc(S(=O)(=O)[O-])cc6F)c6ccc3[nH]6)C=C5)C=C4)cc2)ccc1Cl
REMARK SMILES IDX 18 1 17 2 16 3 14 4 15 5 13 7 11 8 12 9 94 10 93 11 95 12
REMARK SMILES IDX 92 13 8 14 9 15 10 16 7 17 5 19 6 20 4 21 2 22 1 23 3 24
REMARK SMILES IDX 19 25 20 26 21 27 22 28 23 29 24 30 25 32 26 33 27 34 91 35
REMARK SMILES IDX 28 36 90 37 29 38 30 39 31 40 84 41 32 42 89 43 83 44 85 45
REMARK SMILES IDX 33 46 88 47 82 48 81 49 34 51 68 52 47 53 67 54 48 55 51 56
REMARK SMILES IDX 66 57 86 58 49 59 50 60 65 62 87 63 52 64 35 65 36 66 45 67
REMARK SMILES IDX 37 68 38 69 44 70 46 71 39 72 40 73 41 74 42 75 43 76 69 77
REMARK SMILES IDX 70 78 79 79 71 80 72 81 78 82 80 83 73 84 74 85 75 86 76 87
REMARK SMILES IDX 77 88 53 89 54 90 63 91 55 92 56 93 62 94 64 95 57 96 58 97
REMARK SMILES IDX 59 98 60 99 61 100
REMARK H PARENT 16 6 7 18 23 31 85 50 51 61
REMARK Flexibility Score: inf
ROOT
ATOM      1  C   UNL A   1      31.089  28.378  23.998  1.00  0.00     0.021 C 
ENDROOT
BRANCH   1   2
ATOM      2  C   UNL A   1      31.232  28.164  22.492  1.00  0.00     0.116 C 
BRANCH   2   3
ATOM      3  N   UNL A   1      32.431  27.424  22.137  1.00  0.00    -0.352 N 
ATOM      4  C   UNL A   1      32.932  26.202  22.507  1.00  0.00     0.251 C 
ATOM      5  O   UNL A   1      34.046  25.891  22.079  1.00  0.00    -0.269 OA
ATOM      6  H   UNL A   1      33.006  27.901  21.495  1.00  0.00     0.163 HD
BRANCH   4   7
ATOM      7  C   UNL A   1      32.230  25.223  23.391  1.00  0.00     0.041 A 
ATOM      8  C   UNL A   1      32.409  23.766  25.356  1.00  0.00     0.101 A 
ATOM      9  C   UNL A   1      32.921  24.790  24.539  1.00  0.00     0.037 A 
ATOM     10  C   UNL A   1      31.132  23.265  25.113  1.00  0.00     0.061 A 
ATOM     11  C   UNL A   1      30.441  23.689  23.974  1.00  0.00     0.023 A 
ATOM     12  Cl  UNL A   1      30.312  22.154  26.147  1.00  0.00    -0.083 Cl
ATOM     13  C   UNL A   1      31.015  24.610  23.088  1.00  0.00     0.015 A 
BRANCH   8  14
ATOM     14  S   UNL A   1      33.450  23.018  26.578  1.00  0.00     0.242 S 
ATOM     15  O   UNL A   1      32.797  23.052  27.869  1.00  0.00    -0.207 OA
ATOM     16  O   UNL A   1      34.776  23.558  26.388  1.00  0.00    -0.207 OA
BRANCH  14  17
ATOM     17  N   UNL A   1      33.577  21.403  26.163  1.00  0.00    -0.208 NA
ATOM     18  H   UNL A   1      34.352  21.053  26.725  1.00  0.00     0.141 HD
BRANCH  17  19
ATOM     19  C   UNL A   1      33.794  20.828  24.824  1.00  0.00     0.067 C 
ATOM     20  C   UNL A   1      34.942  19.817  24.970  1.00  0.00     0.025 C 
BRANCH  19  21
ATOM     21  C   UNL A   1      32.572  20.121  24.216  1.00  0.00     0.022 C 
BRANCH  21  22
ATOM     22  C   UNL A   1      32.664  19.796  22.708  1.00  0.00    -0.016 C 
ATOM     23  C   UNL A   1      32.303  18.344  22.386  1.00  0.00     0.007 C 
ATOM     24  C   UNL A   1      31.739  20.733  21.924  1.00  0.00     0.007 C 
ENDBRANCH  21  22
ENDBRANCH  19  21
ENDBRANCH  17  19
ENDBRANCH  14  17
ENDBRANCH   8  14
ENDBRANCH   4   7
ENDBRANCH   2   3
ENDBRANCH   1   2
BRANCH   1  25
ATOM     25  C   UNL A   1      31.828  29.584  24.583  1.00  0.00     0.002 C 
BRANCH  25  26
ATOM     26  C   UNL A   1      33.289  29.359  24.987  1.00  0.00     0.002 C 
BRANCH  26  27
ATOM     27  C   UNL A   1      33.565  28.170  25.912  1.00  0.00     0.021 C 
BRANCH  27  28
ATOM     28  C   UNL A   1      33.468  28.455  27.410  1.00  0.00     0.116 C 
BRANCH  28  29
ATOM     29  N   UNL A   1      33.458  29.879  27.708  1.00  0.00    -0.352 N 
ATOM     30  C   UNL A   1      34.445  30.672  28.244  1.00  0.00     0.251 C 
ATOM     31  H   UNL A   1      32.618  30.344  27.493  1.00  0.00     0.163 HD
ATOM     32  O   UNL A   1      34.182  31.825  28.578  1.00  0.00    -0.269 OA
BRANCH  30  33
ATOM     33  C   UNL A   1      35.811  30.140  28.445  1.00  0.00     0.039 A 
ATOM     34  C   UNL A   1      36.709  30.166  27.373  1.00  0.00     0.014 A 
ATOM     35  C   UNL A   1      36.208  29.610  29.676  1.00  0.00     0.014 A 
ATOM     36  C   UNL A   1      38.026  29.739  27.559  1.00  0.00     0.010 A 
ATOM     37  C   UNL A   1      37.537  29.235  29.875  1.00  0.00     0.010 A 
ATOM     38  C   UNL A   1      38.463  29.311  28.822  1.00  0.00    -0.014 A 
BRANCH  38  39
ATOM     39  C   UNL A   1      39.893  28.999  29.080  1.00  0.00     0.031 A 
ATOM     40  C   UNL A   1      40.829  30.057  29.592  1.00  0.00     0.074 A 
ATOM     41  C   UNL A   1      40.364  27.774  28.770  1.00  0.00     0.049 A 
ATOM     42  N   UNL A   1      42.122  29.992  29.783  1.00  0.00    -0.248 NA
ATOM     43  C   UNL A   1      40.240  31.367  29.910  1.00  0.00     0.031 C 
ATOM     44  C   UNL A   1      39.562  26.674  28.228  1.00  0.00     0.029 A 
ATOM     45  N   UNL A   1      41.631  27.252  28.847  1.00  0.00    -0.354 N 
ATOM     46  C   UNL A   1      42.504  31.249  30.235  1.00  0.00     0.074 A 
ATOM     47  C   UNL A   1      41.312  32.071  30.249  1.00  0.00     0.031 C 
ATOM     48  C   UNL A   1      40.353  25.607  28.032  1.00  0.00     0.029 A 
ATOM     49  C   UNL A   1      41.724  25.957  28.392  1.00  0.00     0.049 A 
ATOM     50  H   UNL A   1      42.401  27.756  29.196  1.00  0.00     0.167 HD
ATOM     51  C   UNL A   1      43.733  31.673  30.619  1.00  0.00     0.037 A 
ATOM     52  C   UNL A   1      42.792  25.148  28.257  1.00  0.00     0.037 A 
ATOM     53  C   UNL A   1      44.911  30.845  30.618  1.00  0.00     0.049 A 
ATOM     54  C   UNL A   1      44.150  25.652  28.658  1.00  0.00     0.074 A 
ATOM     55  C   UNL A   1      46.185  31.160  31.059  1.00  0.00     0.029 A 
ATOM     56  N   UNL A   1      44.966  29.542  30.142  1.00  0.00    -0.354 N 
ATOM     57  N   UNL A   1      44.480  26.821  29.151  1.00  0.00    -0.248 NA
ATOM     58  C   UNL A   1      45.281  24.732  28.478  1.00  0.00     0.031 C 
ATOM     59  C   UNL A   1      47.019  30.066  30.805  1.00  0.00     0.029 A 
ATOM     60  C   UNL A   1      46.257  29.053  30.245  1.00  0.00     0.049 A 
ATOM     61  H   UNL A   1      44.198  29.039  29.784  1.00  0.00     0.167 HD
ATOM     62  C   UNL A   1      45.855  26.776  29.349  1.00  0.00     0.074 A 
ATOM     63  C   UNL A   1      46.293  25.456  28.941  1.00  0.00     0.031 C 
ATOM     64  C   UNL A   1      46.681  27.741  29.822  1.00  0.00     0.037 A 
BRANCH  51  65
ATOM     65  C   UNL A   1      43.868  33.101  31.074  1.00  0.00     0.058 A 
ATOM     66  C   UNL A   1      44.202  34.129  30.178  1.00  0.00     0.135 A 
ATOM     67  C   UNL A   1      43.622  33.452  32.411  1.00  0.00     0.135 A 
ATOM     68  F   UNL A   1      44.459  33.848  28.891  1.00  0.00    -0.206 F 
ATOM     69  C   UNL A   1      44.317  35.451  30.598  1.00  0.00     0.059 A 
ATOM     70  C   UNL A   1      43.707  34.771  32.847  1.00  0.00     0.059 A 
ATOM     71  F   UNL A   1      43.298  32.508  33.309  1.00  0.00    -0.206 F 
ATOM     72  C   UNL A   1      44.069  35.761  31.936  1.00  0.00     0.060 A 
BRANCH  72  73
ATOM     73  S   UNL A   1      44.225  37.481  32.464  1.00  0.00     0.124 S 
ATOM     74  O   UNL A   1      43.852  38.193  31.247  1.00  0.00    -0.237 OA
ATOM     75  O   UNL A   1      43.268  37.560  33.563  1.00  0.00    -0.237 OA
ATOM     76  O   UNL A   1      45.629  37.592  32.851  1.00  0.00    -0.744 OA
ENDBRANCH  72  73
ENDBRANCH  51  65
BRANCH  52  77
ATOM     77  C   UNL A   1      42.615  23.776  27.714  1.00  0.00     0.058 A 
ATOM     78  C   UNL A   1      42.537  22.667  28.569  1.00  0.00     0.135 A 
ATOM     79  C   UNL A   1      42.494  23.548  26.334  1.00  0.00     0.135 A 
ATOM     80  F   UNL A   1      42.656  22.834  29.895  1.00  0.00    -0.206 F 
ATOM     81  C   UNL A   1      42.349  21.380  28.077  1.00  0.00     0.059 A 
ATOM     82  C   UNL A   1      42.284  22.273  25.820  1.00  0.00     0.059 A 
ATOM     83  F   UNL A   1      42.548  24.577  25.475  1.00  0.00    -0.206 F 
ATOM     84  C   UNL A   1      42.220  21.193  26.700  1.00  0.00     0.060 A 
BRANCH  84  85
ATOM     85  S   UNL A   1      41.911  19.527  26.074  1.00  0.00     0.124 S 
ATOM     86  O   UNL A   1      40.473  19.567  25.832  1.00  0.00    -0.237 OA
ATOM     87  O   UNL A   1      42.759  19.484  24.888  1.00  0.00    -0.237 OA
ATOM     88  O   UNL A   1      42.344  18.671  27.176  1.00  0.00    -0.744 OA
ENDBRANCH  84  85
ENDBRANCH  52  77
BRANCH  64  89
ATOM     89  C   UNL A   1      48.144  27.413  29.919  1.00  0.00     0.058 A 
ATOM     90  C   UNL A   1      49.043  27.781  28.904  1.00  0.00     0.135 A 
ATOM     91  C   UNL A   1      48.664  26.782  31.059  1.00  0.00     0.135 A 
ATOM     92  F   UNL A   1      48.594  28.377  27.788  1.00  0.00    -0.206 F 
ATOM     93  C   UNL A   1      50.405  27.527  29.014  1.00  0.00     0.059 A 
ATOM     94  C   UNL A   1      50.027  26.538  31.201  1.00  0.00     0.059 A 
ATOM     95  F   UNL A   1      47.848  26.414  32.060  1.00  0.00    -0.206 F 
ATOM     96  C   UNL A   1      50.890  26.909  30.169  1.00  0.00     0.060 A 
BRANCH  96  97
ATOM     97  S   UNL A   1      52.667  26.630  30.320  1.00  0.00     0.124 S 
ATOM     98  O   UNL A   1      53.152  27.977  30.608  1.00  0.00    -0.237 OA
ATOM     99  O   UNL A   1      52.741  25.679  31.424  1.00  0.00    -0.237 OA
ATOM    100  O   UNL A   1      53.039  26.096  29.013  1.00  0.00    -0.744 OA
ENDBRANCH  96  97
ENDBRANCH  64  89
ENDBRANCH  38  39
ENDBRANCH  30  33
ENDBRANCH  28  29
ENDBRANCH  27  28
ENDBRANCH  26  27
ENDBRANCH  25  26
ENDBRANCH   1  25
TORSDOF 21
ENDMDL
MODEL 2
REMARK VINA RESULT:     -10.4      2.486      3.456
REMARK SMILES CC(C)C[C@H](C)NS(=O)(=O)c1cc(C(=O)NCCCCCCNC(=O)c2ccc(-c3c4nc(c(-c5c(F)cc(S(=O)(=O)[O-])cc5F)c5ccc([nH]5)c(-c5c(F)cc(S(=O)(=O)[O-])cc5F)c5nc(c(-c6c(F)cc(S(=O)(=O)[O-])cc6F)c6ccc3[nH]6)C=C5)C=C4)cc2)ccc1Cl
REMARK SMILES IDX 18 1 17 2 16 3 14 4 15 5 13 7 11 8 12 9 94 10 93 11 95 12
REMARK SMILES IDX 92 13 8 14 9 15 10 16 7 17 5 19 6 20 4 21 2 22 1 23 3 24
REMARK SMILES IDX 19 25 20 26 21 27 22 28 23 29 24 30 25 32 26 33 27 34 91 35
REMARK SMILES IDX 28 36 90 37 29 38 30 39 31 40 84 41 32 42 89 43 83 44 85 45
REMARK SMILES IDX 33 46 88 47 82 48 81 49 34 51 68 52 47 53 67 54 48 55 51 56
REMARK SMILES IDX 66 57 86 58 49 59 50 60 65 62 87 63 52 64 35 65 36 66 45 67
REMARK SMILES IDX 37 68 38 69 44 70 46 71 39 72 40 73 41 74 42 75 43 76 69 77
REMARK SMILES IDX 70 78 79 79 71 80 72 81 78 82 80 83 73 84 74 85 75 86 76 87
REMARK SMILES IDX 77 88 53 89 54 90 63 91 55 92 56 93 62 94 64 95 57 96 58 97
REMARK SMILES IDX 59 98 60 99 61 100
REMARK H PARENT 16 6 7 18 23 31 85 50 51 61
REMARK Flexibility Score: inf
ROOT
ATOM      1  C   UNL A   1      31.359  30.116  25.197  1.00  0.00     0.021 C 
ENDROOT
BRANCH   1   2
ATOM      2  C   UNL A   1      31.564  29.292  23.926  1.00  0.00     0.116 C 
BRANCH   2   3
ATOM      3  N   UNL A   1      30.534  28.286  23.732  1.00  0.00    -0.352 N 
ATOM      4  C   UNL A   1      30.498  26.926  23.902  1.00  0.00     0.251 C 
ATOM      5  O   UNL A   1      29.469  26.338  23.560  1.00  0.00    -0.269 OA
ATOM      6  H   UNL A   1      29.681  28.660  23.412  1.00  0.00     0.163 HD
BRANCH   4   7
ATOM      7  C   UNL A   1      31.611  26.104  24.466  1.00  0.00     0.041 A 
ATOM      8  C   UNL A   1      32.215  24.082  25.716  1.00  0.00     0.101 A 
ATOM      9  C   UNL A   1      31.265  24.863  25.033  1.00  0.00     0.037 A 
ATOM     10  C   UNL A   1      33.553  24.468  25.713  1.00  0.00     0.061 A 
ATOM     11  C   UNL A   1      33.904  25.700  25.153  1.00  0.00     0.023 A 
ATOM     12  Cl  UNL A   1      34.841  23.507  26.341  1.00  0.00    -0.083 Cl
ATOM     13  C   UNL A   1      32.931  26.537  24.594  1.00  0.00     0.015 A 
BRANCH   8  14
ATOM     14  S   UNL A   1      31.677  22.712  26.701  1.00  0.00     0.242 S 
ATOM     15  O   UNL A   1      30.277  22.444  26.449  1.00  0.00    -0.207 OA
ATOM     16  O   UNL A   1      32.173  22.936  28.039  1.00  0.00    -0.207 OA
BRANCH  14  17
ATOM     17  N   UNL A   1      32.514  21.375  26.147  1.00  0.00    -0.208 NA
ATOM     18  H   UNL A   1      33.474  21.700  26.035  1.00  0.00     0.141 HD
BRANCH  17  19
ATOM     19  C   UNL A   1      32.245  20.579  24.936  1.00  0.00     0.067 C 
ATOM     20  C   UNL A   1      33.029  21.248  23.796  1.00  0.00     0.025 C 
BRANCH  19  21
ATOM     21  C   UNL A   1      32.653  19.100  25.031  1.00  0.00     0.022 C 
BRANCH  21  22
ATOM     22  C   UNL A   1      33.551  18.575  23.887  1.00  0.00    -0.016 C 
ATOM     23  C   UNL A   1      34.696  17.689  24.383  1.00  0.00     0.007 C 
ATOM     24  C   UNL A   1      32.698  17.787  22.886  1.00  0.00     0.007 C 
ENDBRANCH  21  22
ENDBRANCH  19  21
ENDBRANCH  17  19
ENDBRANCH  14  17
ENDBRANCH   8  14
ENDBRANCH   4   7
ENDBRANCH   2   3
ENDBRANCH   1   2
BRANCH   1  25
ATOM     25  C   UNL A   1      31.743  29.435  26.513  1.00  0.00     0.002 C 
BRANCH  25  26
ATOM     26  C   UNL A   1      33.001  29.961  27.213  1.00  0.00     0.002 C 
BRANCH  26  27
ATOM     27  C   UNL A   1      34.232  29.052  27.177  1.00  0.00     0.021 C 
BRANCH  27  28
ATOM     28  C   UNL A   1      35.510  29.636  27.776  1.00  0.00     0.116 C 
BRANCH  28  29
ATOM     29  N   UNL A   1      35.354  30.002  29.175  1.00  0.00    -0.352 N 
ATOM     30  C   UNL A   1      36.289  30.044  30.182  1.00  0.00     0.251 C 
ATOM     31  H   UNL A   1      34.442  30.258  29.440  1.00  0.00     0.163 HD
ATOM     32  O   UNL A   1      35.924  30.216  31.343  1.00  0.00    -0.269 OA
BRANCH  30  33
ATOM     33  C   UNL A   1      37.727  29.857  29.882  1.00  0.00     0.039 A 
ATOM     34  C   UNL A   1      38.597  29.534  30.927  1.00  0.00     0.014 A 
ATOM     35  C   UNL A   1      38.220  30.007  28.582  1.00  0.00     0.014 A 
ATOM     36  C   UNL A   1      39.944  29.280  30.657  1.00  0.00     0.010 A 
ATOM     37  C   UNL A   1      39.552  29.700  28.306  1.00  0.00     0.010 A 
ATOM     38  C   UNL A   1      40.424  29.317  29.338  1.00  0.00    -0.014 A 
BRANCH  38  39
ATOM     39  C   UNL A   1      41.812  28.902  29.009  1.00  0.00     0.031 A 
ATOM     40  C   UNL A   1      42.931  29.906  29.005  1.00  0.00     0.074 A 
ATOM     41  C   UNL A   1      42.046  27.629  28.630  1.00  0.00     0.049 A 
ATOM     42  N   UNL A   1      44.181  29.744  28.652  1.00  0.00    -0.248 NA
ATOM     43  C   UNL A   1      42.599  31.273  29.432  1.00  0.00     0.031 C 
ATOM     44  C   UNL A   1      41.033  26.573  28.554  1.00  0.00     0.029 A 
ATOM     45  N   UNL A   1      43.200  27.010  28.220  1.00  0.00    -0.354 N 
ATOM     46  C   UNL A   1      44.783  30.988  28.805  1.00  0.00     0.074 A 
ATOM     47  C   UNL A   1      43.751  31.904  29.244  1.00  0.00     0.031 C 
ATOM     48  C   UNL A   1      41.613  25.436  28.135  1.00  0.00     0.029 A 
ATOM     49  C   UNL A   1      43.026  25.691  27.871  1.00  0.00     0.049 A 
ATOM     50  H   UNL A   1      44.071  27.467  28.180  1.00  0.00     0.167 HD
ATOM     51  C   UNL A   1      46.081  31.329  28.615  1.00  0.00     0.037 A 
ATOM     52  C   UNL A   1      43.897  24.792  27.373  1.00  0.00     0.037 A 
ATOM     53  C   UNL A   1      47.106  30.409  28.195  1.00  0.00     0.049 A 
ATOM     54  C   UNL A   1      45.323  25.203  27.138  1.00  0.00     0.074 A 
ATOM     55  C   UNL A   1      48.463  30.640  28.047  1.00  0.00     0.029 A 
ATOM     56  N   UNL A   1      46.888  29.084  27.844  1.00  0.00    -0.354 N 
ATOM     57  N   UNL A   1      45.890  26.366  27.358  1.00  0.00    -0.248 NA
ATOM     58  C   UNL A   1      46.226  24.187  26.582  1.00  0.00     0.031 C 
ATOM     59  C   UNL A   1      49.056  29.471  27.560  1.00  0.00     0.029 A 
ATOM     60  C   UNL A   1      48.077  28.497  27.445  1.00  0.00     0.049 A 
ATOM     61  H   UNL A   1      46.015  28.628  27.875  1.00  0.00     0.167 HD
ATOM     62  C   UNL A   1      47.218  26.218  26.976  1.00  0.00     0.074 A 
ATOM     63  C   UNL A   1      47.376  24.849  26.530  1.00  0.00     0.031 C 
ATOM     64  C   UNL A   1      48.216  27.136  26.990  1.00  0.00     0.037 A 
BRANCH  51  65
ATOM     65  C   UNL A   1      46.469  32.762  28.860  1.00  0.00     0.058 A 
ATOM     66  C   UNL A   1      46.887  33.205  30.125  1.00  0.00     0.135 A 
ATOM     67  C   UNL A   1      46.463  33.694  27.809  1.00  0.00     0.135 A 
ATOM     68  F   UNL A   1      46.901  32.359  31.167  1.00  0.00    -0.206 F 
ATOM     69  C   UNL A   1      47.256  34.528  30.347  1.00  0.00     0.059 A 
ATOM     70  C   UNL A   1      46.852  35.016  28.003  1.00  0.00     0.059 A 
ATOM     71  F   UNL A   1      46.073  33.322  26.579  1.00  0.00    -0.206 F 
ATOM     72  C   UNL A   1      47.233  35.427  29.279  1.00  0.00     0.060 A 
BRANCH  72  73
ATOM     73  S   UNL A   1      47.713  37.140  29.586  1.00  0.00     0.124 S 
ATOM     74  O   UNL A   1      48.983  37.218  28.873  1.00  0.00    -0.237 OA
ATOM     75  O   UNL A   1      46.607  37.886  28.994  1.00  0.00    -0.237 OA
ATOM     76  O   UNL A   1      47.804  37.212  31.041  1.00  0.00    -0.744 OA
ENDBRANCH  72  73
ENDBRANCH  51  65
BRANCH  52  77
ATOM     77  C   UNL A   1      43.437  23.414  27.061  1.00  0.00     0.058 A 
ATOM     78  C   UNL A   1      43.226  23.007  25.736  1.00  0.00     0.135 A 
ATOM     79  C   UNL A   1      43.225  22.468  28.077  1.00  0.00     0.135 A 
ATOM     80  F   UNL A   1      43.406  23.879  24.731  1.00  0.00    -0.206 F 
ATOM     81  C   UNL A   1      42.817  21.714  25.427  1.00  0.00     0.059 A 
ATOM     82  C   UNL A   1      42.838  21.163  27.792  1.00  0.00     0.059 A 
ATOM     83  F   UNL A   1      43.428  22.803  29.361  1.00  0.00    -0.206 F 
ATOM     84  C   UNL A   1      42.630  20.797  26.462  1.00  0.00     0.060 A 
BRANCH  84  85
ATOM     85  S   UNL A   1      42.163  19.103  26.048  1.00  0.00     0.124 S 
ATOM     86  O   UNL A   1      40.737  19.249  25.780  1.00  0.00    -0.237 OA
ATOM     87  O   UNL A   1      43.007  18.827  24.890  1.00  0.00    -0.237 OA
ATOM     88  O   UNL A   1      42.507  18.356  27.255  1.00  0.00    -0.744 OA
ENDBRANCH  84  85
ENDBRANCH  52  77
BRANCH  64  89
ATOM     89  C   UNL A   1      49.568  26.694  26.502  1.00  0.00     0.058 A 
ATOM     90  C   UNL A   1      50.425  25.936  27.315  1.00  0.00     0.135 A 
ATOM     91  C   UNL A   1      49.985  26.977  25.192  1.00  0.00     0.135 A 
ATOM     92  F   UNL A   1      50.076  25.649  28.580  1.00  0.00    -0.206 F 
ATOM     93  C   UNL A   1      51.653  25.481  26.850  1.00  0.00     0.059 A 
ATOM     94  C   UNL A   1      51.199  26.512  24.697  1.00  0.00     0.059 A 
ATOM     95  F   UNL A   1      49.200  27.694  24.372  1.00  0.00    -0.206 F 
ATOM     96  C   UNL A   1      52.030  25.769  25.536  1.00  0.00     0.060 A 
BRANCH  96  97
ATOM     97  S   UNL A   1      53.605  25.128  24.929  1.00  0.00     0.124 S 
ATOM     98  O   UNL A   1      53.489  23.709  25.251  1.00  0.00    -0.237 OA
ATOM     99  O   UNL A   1      53.552  25.464  23.510  1.00  0.00    -0.237 OA
ATOM    100  O   UNL A   1      54.595  25.870  25.705  1.00  0.00    -0.744 OA
ENDBRANCH  96  97
ENDBRANCH  64  89
ENDBRANCH  38  39
ENDBRANCH  30  33
ENDBRANCH  28  29
ENDBRANCH  27  28
ENDBRANCH  26  27
ENDBRANCH  25  26
ENDBRANCH   1  25
TORSDOF 21
ENDMDL
MODEL 3
REMARK VINA RESULT:     -10.2      3.214      9.584
REMARK SMILES CC(C)C[C@H](C)NS(=O)(=O)c1cc(C(=O)NCCCCCCNC(=O)c2ccc(-c3c4nc(c(-c5c(F)cc(S(=O)(=O)[O-])cc5F)c5ccc([nH]5)c(-c5c(F)cc(S(=O)(=O)[O-])cc5F)c5nc(c(-c6c(F)cc(S(=O)(=O)[O-])cc6F)c6ccc3[nH]6)C=C5)C=C4)cc2)ccc1Cl
REMARK SMILES IDX 18 1 17 2 16 3 14 4 15 5 13 7 11 8 12 9 94 10 93 11 95 12
REMARK SMILES IDX 92 13 8 14 9 15 10 16 7 17 5 19 6 20 4 21 2 22 1 23 3 24
REMARK SMILES IDX 19 25 20 26 21 27 22 28 23 29 24 30 25 32 26 33 27 34 91 35
REMARK SMILES IDX 28 36 90 37 29 38 30 39 31 40 84 41 32 42 89 43 83 44 85 45
REMARK SMILES IDX 33 46 88 47 82 48 81 49 34 51 68 52 47 53 67 54 48 55 51 56
REMARK SMILES IDX 66 57 86 58 49 59 50 60 65 62 87 63 52 64 35 65 36 66 45 67
REMARK SMILES IDX 37 68 38 69 44 70 46 71 39 72 40 73 41 74 42 75 43 76 69 77
REMARK SMILES IDX 70 78 79 79 71 80 72 81 78 82 80 83 73 84 74 85 75 86 76 87
REMARK SMILES IDX 77 88 53 89 54 90 63 91 55 92 56 93 62 94 64 95 57 96 58 97
REMARK SMILES IDX 59 98 60 99 61 100
REMARK H PARENT 16 6 7 18 23 31 85 50 51 61
REMARK Flexibility Score: inf
ROOT
ATOM      1  C   UNL A   1      34.811  21.865  26.830  1.00  0.00     0.021 C 
ENDROOT
BRANCH   1   2
ATOM      2  C   UNL A   1      33.618  21.314  27.609  1.00  0.00     0.116 C 
BRANCH   2   3
ATOM      3  N   UNL A   1      32.507  22.247  27.677  1.00  0.00    -0.352 N 
ATOM      4  C   UNL A   1      31.882  23.042  26.751  1.00  0.00     0.251 C 
ATOM      5  O   UNL A   1      31.000  23.803  27.158  1.00  0.00    -0.269 OA
ATOM      6  H   UNL A   1      32.120  22.325  28.580  1.00  0.00     0.163 HD
BRANCH   4   7
ATOM      7  C   UNL A   1      32.192  23.058  25.289  1.00  0.00     0.041 A 
ATOM      8  C   UNL A   1      32.533  24.448  23.298  1.00  0.00     0.101 A 
ATOM      9  C   UNL A   1      32.379  24.318  24.689  1.00  0.00     0.037 A 
ATOM     10  C   UNL A   1      32.644  23.306  22.507  1.00  0.00     0.061 A 
ATOM     11  C   UNL A   1      32.458  22.052  23.096  1.00  0.00     0.023 A 
ATOM     12  Cl  UNL A   1      33.028  23.324  20.826  1.00  0.00    -0.083 Cl
ATOM     13  C   UNL A   1      32.170  21.936  24.462  1.00  0.00     0.015 A 
BRANCH   8  14
ATOM     14  S   UNL A   1      32.422  26.050  22.551  1.00  0.00     0.242 S 
ATOM     15  O   UNL A   1      31.536  25.999  21.407  1.00  0.00    -0.207 OA
ATOM     16  O   UNL A   1      33.769  26.557  22.438  1.00  0.00    -0.207 OA
BRANCH  14  17
ATOM     17  N   UNL A   1      31.678  27.042  23.672  1.00  0.00    -0.208 NA
ATOM     18  H   UNL A   1      30.688  27.011  23.427  1.00  0.00     0.141 HD
BRANCH  17  19
ATOM     19  C   UNL A   1      31.952  28.464  23.943  1.00  0.00     0.067 C 
ATOM     20  C   UNL A   1      31.216  29.262  22.855  1.00  0.00     0.025 C 
BRANCH  19  21
ATOM     21  C   UNL A   1      31.500  28.958  25.327  1.00  0.00     0.022 C 
BRANCH  21  22
ATOM     22  C   UNL A   1      32.574  28.927  26.437  1.00  0.00    -0.016 C 
ATOM     23  C   UNL A   1      33.839  28.170  26.025  1.00  0.00     0.007 C 
ATOM     24  C   UNL A   1      32.947  30.360  26.831  1.00  0.00     0.007 C 
ENDBRANCH  21  22
ENDBRANCH  19  21
ENDBRANCH  17  19
ENDBRANCH  14  17
ENDBRANCH   8  14
ENDBRANCH   4   7
ENDBRANCH   2   3
ENDBRANCH   1   2
BRANCH   1  25
ATOM     25  C   UNL A   1      35.363  20.970  25.717  1.00  0.00     0.002 C 
BRANCH  25  26
ATOM     26  C   UNL A   1      35.952  21.685  24.495  1.00  0.00     0.002 C 
BRANCH  26  27
ATOM     27  C   UNL A   1      35.917  23.216  24.519  1.00  0.00     0.021 C 
BRANCH  27  28
ATOM     28  C   UNL A   1      37.121  23.900  25.162  1.00  0.00     0.116 C 
BRANCH  28  29
ATOM     29  N   UNL A   1      38.206  22.973  25.443  1.00  0.00    -0.352 N 
ATOM     30  C   UNL A   1      39.381  23.174  26.127  1.00  0.00     0.251 C 
ATOM     31  H   UNL A   1      38.079  22.063  25.090  1.00  0.00     0.163 HD
ATOM     32  O   UNL A   1      40.250  22.306  26.110  1.00  0.00    -0.269 OA
BRANCH  30  33
ATOM     33  C   UNL A   1      39.616  24.439  26.860  1.00  0.00     0.039 A 
ATOM     34  C   UNL A   1      39.041  24.602  28.124  1.00  0.00     0.014 A 
ATOM     35  C   UNL A   1      40.390  25.463  26.306  1.00  0.00     0.014 A 
ATOM     36  C   UNL A   1      39.310  25.755  28.867  1.00  0.00     0.010 A 
ATOM     37  C   UNL A   1      40.702  26.588  27.071  1.00  0.00     0.010 A 
ATOM     38  C   UNL A   1      40.178  26.737  28.365  1.00  0.00    -0.014 A 
BRANCH  38  39
ATOM     39  C   UNL A   1      40.598  27.895  29.197  1.00  0.00     0.031 A 
ATOM     40  C   UNL A   1      41.881  27.851  29.979  1.00  0.00     0.074 A 
ATOM     41  C   UNL A   1      39.774  28.955  29.311  1.00  0.00     0.049 A 
ATOM     42  N   UNL A   1      42.359  28.724  30.828  1.00  0.00    -0.248 NA
ATOM     43  C   UNL A   1      42.728  26.662  29.799  1.00  0.00     0.031 C 
ATOM     44  C   UNL A   1      38.482  29.096  28.634  1.00  0.00     0.029 A 
ATOM     45  N   UNL A   1      39.887  30.107  30.050  1.00  0.00    -0.354 N 
ATOM     46  C   UNL A   1      43.555  28.190  31.292  1.00  0.00     0.074 A 
ATOM     47  C   UNL A   1      43.710  26.896  30.660  1.00  0.00     0.031 C 
ATOM     48  C   UNL A   1      37.929  30.270  28.980  1.00  0.00     0.029 A 
ATOM     49  C   UNL A   1      38.803  30.945  29.936  1.00  0.00     0.049 A 
ATOM     50  H   UNL A   1      40.670  30.313  30.609  1.00  0.00     0.167 HD
ATOM     51  C   UNL A   1      44.449  28.736  32.151  1.00  0.00     0.037 A 
ATOM     52  C   UNL A   1      38.529  32.115  30.545  1.00  0.00     0.037 A 
ATOM     53  C   UNL A   1      44.296  30.031  32.762  1.00  0.00     0.049 A 
ATOM     54  C   UNL A   1      39.521  32.685  31.520  1.00  0.00     0.074 A 
ATOM     55  C   UNL A   1      45.182  30.704  33.587  1.00  0.00     0.029 A 
ATOM     56  N   UNL A   1      43.181  30.846  32.628  1.00  0.00    -0.354 N 
ATOM     57  N   UNL A   1      40.681  32.198  31.891  1.00  0.00    -0.248 NA
ATOM     58  C   UNL A   1      39.166  33.956  32.165  1.00  0.00     0.031 C 
ATOM     59  C   UNL A   1      44.582  31.901  33.989  1.00  0.00     0.029 A 
ATOM     60  C   UNL A   1      43.340  31.997  33.382  1.00  0.00     0.049 A 
ATOM     61  H   UNL A   1      42.392  30.637  32.075  1.00  0.00     0.167 HD
ATOM     62  C   UNL A   1      41.199  33.107  32.806  1.00  0.00     0.074 A 
ATOM     63  C   UNL A   1      40.235  34.184  32.918  1.00  0.00     0.031 C 
ATOM     64  C   UNL A   1      42.366  33.054  33.494  1.00  0.00     0.037 A 
BRANCH  51  65
ATOM     65  C   UNL A   1      45.678  27.934  32.483  1.00  0.00     0.058 A 
ATOM     66  C   UNL A   1      45.723  27.090  33.605  1.00  0.00     0.135 A 
ATOM     67  C   UNL A   1      46.808  27.978  31.651  1.00  0.00     0.135 A 
ATOM     68  F   UNL A   1      44.676  27.019  34.441  1.00  0.00    -0.206 F 
ATOM     69  C   UNL A   1      46.856  26.341  33.905  1.00  0.00     0.059 A 
ATOM     70  C   UNL A   1      47.942  27.217  31.919  1.00  0.00     0.059 A 
ATOM     71  F   UNL A   1      46.817  28.767  30.564  1.00  0.00    -0.206 F 
ATOM     72  C   UNL A   1      47.963  26.413  33.056  1.00  0.00     0.060 A 
BRANCH  72  73
ATOM     73  S   UNL A   1      49.425  25.436  33.463  1.00  0.00     0.124 S 
ATOM     74  O   UNL A   1      48.841  24.351  34.243  1.00  0.00    -0.237 OA
ATOM     75  O   UNL A   1      49.933  25.067  32.146  1.00  0.00    -0.237 OA
ATOM     76  O   UNL A   1      50.260  26.370  34.214  1.00  0.00    -0.744 OA
ENDBRANCH  72  73
ENDBRANCH  51  65
BRANCH  52  77
ATOM     77  C   UNL A   1      37.255  32.821  30.249  1.00  0.00     0.058 A 
ATOM     78  C   UNL A   1      37.156  33.704  29.164  1.00  0.00     0.135 A 
ATOM     79  C   UNL A   1      36.106  32.609  31.028  1.00  0.00     0.135 A 
ATOM     80  F   UNL A   1      38.230  33.946  28.397  1.00  0.00    -0.206 F 
ATOM     81  C   UNL A   1      35.965  34.355  28.862  1.00  0.00     0.059 A 
ATOM     82  C   UNL A   1      34.898  33.231  30.732  1.00  0.00     0.059 A 
ATOM     83  F   UNL A   1      36.145  31.762  32.068  1.00  0.00    -0.206 F 
ATOM     84  C   UNL A   1      34.839  34.109  29.649  1.00  0.00     0.060 A 
BRANCH  84  85
ATOM     85  S   UNL A   1      33.280  34.908  29.210  1.00  0.00     0.124 S 
ATOM     86  O   UNL A   1      32.764  34.003  28.190  1.00  0.00    -0.237 OA
ATOM     87  O   UNL A   1      32.567  34.909  30.484  1.00  0.00    -0.237 OA
ATOM     88  O   UNL A   1      33.701  36.223  28.735  1.00  0.00    -0.744 OA
ENDBRANCH  84  85
ENDBRANCH  52  77
BRANCH  64  89
ATOM     89  C   UNL A   1      42.665  34.186  34.436  1.00  0.00     0.058 A 
ATOM     90  C   UNL A   1      42.388  34.084  35.809  1.00  0.00     0.135 A 
ATOM     91  C   UNL A   1      43.291  35.355  33.977  1.00  0.00     0.135 A 
ATOM     92  F   UNL A   1      41.780  32.991  36.296  1.00  0.00    -0.206 F 
ATOM     93  C   UNL A   1      42.712  35.108  36.693  1.00  0.00     0.059 A 
ATOM     94  C   UNL A   1      43.645  36.382  34.847  1.00  0.00     0.059 A 
ATOM     95  F   UNL A   1      43.582  35.499  32.675  1.00  0.00    -0.206 F 
ATOM     96  C   UNL A   1      43.346  36.252  36.203  1.00  0.00     0.060 A 
BRANCH  96  97
ATOM     97  S   UNL A   1      43.807  37.551  37.369  1.00  0.00     0.124 S 
ATOM     98  O   UNL A   1      44.983  36.968  38.008  1.00  0.00    -0.237 OA
ATOM     99  O   UNL A   1      44.060  38.686  36.488  1.00  0.00    -0.237 OA
ATOM    100  O   UNL A   1      42.627  37.677  38.220  1.00  0.00    -0.744 OA
ENDBRANCH  96  97
ENDBRANCH  64  89
ENDBRANCH  38  39
ENDBRANCH  30  33
ENDBRANCH  28  29
ENDBRANCH  27  28
ENDBRANCH  26  27
ENDBRANCH  25  26
ENDBRANCH   1  25
TORSDOF 21
ENDMDL
