MODEL 1
REMARK VINA RESULT:     -11.7      0.000      0.000
REMARK SMILES Cc1[nH]c2ccccc2c1/N=N\c1ccccc1C(=O)NCCCCCCNC(=O)c1ccc(-c2c3nc(c(-c4c(F)cc(S(=O)(=O)[O-])cc4F)c4ccc([nH]4)c(-c4c(F)cc(S(=O)(=O)[O-])cc4F)c4nc(c(-c5c(F)cc(S(=O)(=O)[O-])cc5F)c5ccc2[nH]5)C=C4)C=C3)cc1
REMARK SMILES IDX 25 1 24 2 23 3 22 4 21 5 19 6 20 7 18 9 13 10 14 11 15 12
REMARK SMILES IDX 17 13 16 14 12 15 11 16 10 17 1 18 2 19 3 20 4 21 9 23 5 24
REMARK SMILES IDX 8 25 6 26 7 27 26 28 27 29 28 30 29 31 30 33 31 34 32 35
REMARK SMILES IDX 96 36 33 37 95 38 34 39 35 40 36 41 89 42 37 43 94 44 88 45
REMARK SMILES IDX 90 46 38 47 93 48 87 49 86 50 39 52 73 53 52 54 72 55 53 56
REMARK SMILES IDX 56 57 71 58 91 59 54 60 55 61 70 63 92 64 57 65 40 66 41 67
REMARK SMILES IDX 50 68 42 69 43 70 49 71 51 72 44 73 45 74 46 75 47 76 48 77
REMARK SMILES IDX 74 78 75 79 84 80 76 81 77 82 83 83 85 84 78 85 79 86 80 87
REMARK SMILES IDX 81 88 82 89 58 90 59 91 68 92 60 93 61 94 67 95 69 96 62 97
REMARK SMILES IDX 63 98 64 99 65 100 66 101
REMARK H PARENT 21 8 3 22 28 32 90 51 56 62
REMARK Flexibility Score: inf
ROOT
ATOM      1  C   UNL A   1      32.307  29.305  25.191  1.00  0.00     0.002 C 
ENDROOT
BRANCH   1   2
ATOM      2  C   UNL A   1      31.343  28.952  24.054  1.00  0.00     0.002 C 
BRANCH   2   3
ATOM      3  C   UNL A   1      31.933  28.888  22.642  1.00  0.00     0.021 C 
BRANCH   3   4
ATOM      4  C   UNL A   1      33.296  28.219  22.524  1.00  0.00     0.116 C 
BRANCH   4   5
ATOM      5  N   UNL A   1      33.305  27.047  21.674  1.00  0.00    -0.352 N 
ATOM      6  C   UNL A   1      32.846  25.780  21.941  1.00  0.00     0.253 C 
ATOM      7  O   UNL A   1      32.966  24.907  21.080  1.00  0.00    -0.269 OA
ATOM      8  H   UNL A   1      33.694  27.176  20.778  1.00  0.00     0.163 HD
BRANCH   6   9
ATOM      9  C   UNL A   1      32.288  25.402  23.264  1.00  0.00     0.067 A 
ATOM     10  C   UNL A   1      33.065  25.132  24.407  1.00  0.00     0.098 A 
ATOM     11  C   UNL A   1      32.402  24.754  25.589  1.00  0.00     0.031 A 
ATOM     12  C   UNL A   1      31.005  24.741  25.669  1.00  0.00     0.002 A 
ATOM     13  C   UNL A   1      30.883  25.424  23.364  1.00  0.00     0.016 A 
ATOM     14  C   UNL A   1      30.245  25.102  24.562  1.00  0.00     0.001 A 
BRANCH  10  15
ATOM     15  N   UNL A   1      34.477  25.207  24.416  1.00  0.00    -0.150 NA
ATOM     16  N   UNL A   1      35.062  24.311  23.759  1.00  0.00    -0.148 NA
BRANCH  16  17
ATOM     17  C   UNL A   1      35.047  23.031  24.343  1.00  0.00     0.114 A 
ATOM     18  C   UNL A   1      36.963  23.348  26.084  1.00  0.00     0.067 C 
ATOM     19  C   UNL A   1      35.895  22.630  25.350  1.00  0.00     0.041 A 
ATOM     20  N   UNL A   1      35.608  21.313  25.601  1.00  0.00    -0.357 N 
ATOM     21  C   UNL A   1      34.492  20.918  24.899  1.00  0.00     0.048 A 
ATOM     22  H   UNL A   1      36.128  20.730  26.200  1.00  0.00     0.166 HD
ATOM     23  C   UNL A   1      34.113  21.988  24.084  1.00  0.00     0.027 A 
ATOM     24  C   UNL A   1      33.796  19.704  24.939  1.00  0.00     0.027 A 
ATOM     25  C   UNL A   1      32.973  21.830  23.269  1.00  0.00     0.012 A 
ATOM     26  C   UNL A   1      32.661  19.579  24.136  1.00  0.00     0.002 A 
ATOM     27  C   UNL A   1      32.254  20.624  23.309  1.00  0.00     0.001 A 
ENDBRANCH  16  17
ENDBRANCH  10  15
ENDBRANCH   6   9
ENDBRANCH   4   5
ENDBRANCH   3   4
ENDBRANCH   2   3
ENDBRANCH   1   2
BRANCH   1  28
ATOM     28  C   UNL A   1      32.585  28.216  26.227  1.00  0.00     0.021 C 
BRANCH  28  29
ATOM     29  C   UNL A   1      33.638  28.551  27.275  1.00  0.00     0.116 C 
BRANCH  29  30
ATOM     30  N   UNL A   1      33.573  29.931  27.726  1.00  0.00    -0.352 N 
ATOM     31  C   UNL A   1      34.538  30.697  28.338  1.00  0.00     0.251 C 
ATOM     32  H   UNL A   1      32.711  30.383  27.574  1.00  0.00     0.163 HD
ATOM     33  O   UNL A   1      34.263  31.809  28.759  1.00  0.00    -0.269 OA
BRANCH  31  34
ATOM     34  C   UNL A   1      35.903  30.149  28.512  1.00  0.00     0.039 A 
ATOM     35  C   UNL A   1      36.787  30.196  27.432  1.00  0.00     0.014 A 
ATOM     36  C   UNL A   1      36.313  29.613  29.735  1.00  0.00     0.014 A 
ATOM     37  C   UNL A   1      38.109  29.779  27.602  1.00  0.00     0.010 A 
ATOM     38  C   UNL A   1      37.647  29.262  29.922  1.00  0.00     0.010 A 
ATOM     39  C   UNL A   1      38.561  29.352  28.862  1.00  0.00    -0.014 A 
BRANCH  39  40
ATOM     40  C   UNL A   1      39.989  29.026  29.102  1.00  0.00     0.031 A 
ATOM     41  C   UNL A   1      40.920  30.063  29.664  1.00  0.00     0.074 A 
ATOM     42  C   UNL A   1      40.462  27.818  28.736  1.00  0.00     0.049 A 
ATOM     43  N   UNL A   1      42.211  29.992  29.865  1.00  0.00    -0.248 NA
ATOM     44  C   UNL A   1      40.323  31.357  30.027  1.00  0.00     0.031 C 
ATOM     45  C   UNL A   1      39.662  26.740  28.149  1.00  0.00     0.029 A 
ATOM     46  N   UNL A   1      41.729  27.296  28.794  1.00  0.00    -0.354 N 
ATOM     47  C   UNL A   1      42.583  31.232  30.369  1.00  0.00     0.074 A 
ATOM     48  C   UNL A   1      41.390  32.053  30.389  1.00  0.00     0.031 C 
ATOM     49  C   UNL A   1      40.450  25.677  27.928  1.00  0.00     0.029 A 
ATOM     50  C   UNL A   1      41.819  26.011  28.313  1.00  0.00     0.049 A 
ATOM     51  H   UNL A   1      42.502  27.794  29.145  1.00  0.00     0.167 HD
ATOM     52  C   UNL A   1      43.802  31.642  30.797  1.00  0.00     0.037 A 
ATOM     53  C   UNL A   1      42.884  25.195  28.187  1.00  0.00     0.037 A 
ATOM     54  C   UNL A   1      44.982  30.817  30.773  1.00  0.00     0.049 A 
ATOM     55  C   UNL A   1      44.238  25.688  28.618  1.00  0.00     0.074 A 
ATOM     56  C   UNL A   1      46.255  31.120  31.224  1.00  0.00     0.029 A 
ATOM     57  N   UNL A   1      45.037  29.529  30.259  1.00  0.00    -0.354 N 
ATOM     58  N   UNL A   1      44.564  26.844  29.146  1.00  0.00    -0.248 NA
ATOM     59  C   UNL A   1      45.369  24.770  28.431  1.00  0.00     0.031 C 
ATOM     60  C   UNL A   1      47.089  30.034  30.936  1.00  0.00     0.029 A 
ATOM     61  C   UNL A   1      46.328  29.034  30.351  1.00  0.00     0.049 A 
ATOM     62  H   UNL A   1      44.271  29.038  29.882  1.00  0.00     0.167 HD
ATOM     63  C   UNL A   1      45.934  26.784  29.376  1.00  0.00     0.074 A 
ATOM     64  C   UNL A   1      46.372  25.475  28.937  1.00  0.00     0.031 C 
ATOM     65  C   UNL A   1      46.752  27.728  29.905  1.00  0.00     0.037 A 
BRANCH  52  66
ATOM     66  C   UNL A   1      43.911  33.053  31.312  1.00  0.00     0.058 A 
ATOM     67  C   UNL A   1      44.182  34.132  30.454  1.00  0.00     0.135 A 
ATOM     68  C   UNL A   1      43.759  33.331  32.679  1.00  0.00     0.135 A 
ATOM     69  F   UNL A   1      44.348  33.924  29.137  1.00  0.00    -0.206 F 
ATOM     70  C   UNL A   1      44.355  35.424  30.939  1.00  0.00     0.059 A 
ATOM     71  C   UNL A   1      43.896  34.622  33.183  1.00  0.00     0.059 A 
ATOM     72  F   UNL A   1      43.493  32.341  33.547  1.00  0.00    -0.206 F 
ATOM     73  C   UNL A   1      44.219  35.657  32.308  1.00  0.00     0.060 A 
BRANCH  73  74
ATOM     74  S   UNL A   1      44.493  37.330  32.929  1.00  0.00     0.124 S 
ATOM     75  O   UNL A   1      45.745  37.166  33.661  1.00  0.00    -0.237 OA
ATOM     76  O   UNL A   1      44.576  38.112  31.700  1.00  0.00    -0.237 OA
ATOM     77  O   UNL A   1      43.315  37.584  33.752  1.00  0.00    -0.744 OA
ENDBRANCH  73  74
ENDBRANCH  52  66
BRANCH  53  78
ATOM     78  C   UNL A   1      42.699  23.817  27.661  1.00  0.00     0.058 A 
ATOM     79  C   UNL A   1      42.553  22.734  28.539  1.00  0.00     0.135 A 
ATOM     80  C   UNL A   1      42.616  23.560  26.283  1.00  0.00     0.135 A 
ATOM     81  F   UNL A   1      42.634  22.929  29.863  1.00  0.00    -0.206 F 
ATOM     82  C   UNL A   1      42.332  21.442  28.072  1.00  0.00     0.059 A 
ATOM     83  C   UNL A   1      42.372  22.280  25.793  1.00  0.00     0.059 A 
ATOM     84  F   UNL A   1      42.736  24.565  25.403  1.00  0.00    -0.206 F 
ATOM     85  C   UNL A   1      42.234  21.227  26.696  1.00  0.00     0.060 A 
BRANCH  85  86
ATOM     86  S   UNL A   1      41.871  19.558  26.109  1.00  0.00     0.124 S 
ATOM     87  O   UNL A   1      40.437  19.638  25.861  1.00  0.00    -0.237 OA
ATOM     88  O   UNL A   1      42.720  19.460  24.926  1.00  0.00    -0.237 OA
ATOM     89  O   UNL A   1      42.272  18.713  27.231  1.00  0.00    -0.744 OA
ENDBRANCH  85  86
ENDBRANCH  53  78
BRANCH  65  90
ATOM     90  C   UNL A   1      48.206  27.376  30.057  1.00  0.00     0.058 A 
ATOM     91  C   UNL A   1      49.156  27.743  29.092  1.00  0.00     0.135 A 
ATOM     92  C   UNL A   1      48.663  26.723  31.214  1.00  0.00     0.135 A 
ATOM     93  F   UNL A   1      48.771  28.359  27.963  1.00  0.00    -0.206 F 
ATOM     94  C   UNL A   1      50.508  27.464  29.262  1.00  0.00     0.059 A 
ATOM     95  C   UNL A   1      50.014  26.458  31.416  1.00  0.00     0.059 A 
ATOM     96  F   UNL A   1      47.796  26.357  32.170  1.00  0.00    -0.206 F 
ATOM     97  C   UNL A   1      50.929  26.827  30.431  1.00  0.00     0.060 A 
BRANCH  97  98
ATOM     98  S   UNL A   1      52.693  26.522  30.663  1.00  0.00     0.124 S 
ATOM     99  O   UNL A   1      53.142  27.795  31.218  1.00  0.00    -0.237 OA
ATOM    100  O   UNL A   1      52.695  25.393  31.587  1.00  0.00    -0.237 OA
ATOM    101  O   UNL A   1      53.166  26.222  29.315  1.00  0.00    -0.744 OA
ENDBRANCH  97  98
ENDBRANCH  65  90
ENDBRANCH  39  40
ENDBRANCH  31  34
ENDBRANCH  29  30
ENDBRANCH  28  29
ENDBRANCH   1  28
TORSDOF 18
ENDMDL
MODEL 2
REMARK VINA RESULT:     -11.5      4.891     10.463
REMARK SMILES Cc1[nH]c2ccccc2c1/N=N\c1ccccc1C(=O)NCCCCCCNC(=O)c1ccc(-c2c3nc(c(-c4c(F)cc(S(=O)(=O)[O-])cc4F)c4ccc([nH]4)c(-c4c(F)cc(S(=O)(=O)[O-])cc4F)c4nc(c(-c5c(F)cc(S(=O)(=O)[O-])cc5F)c5ccc2[nH]5)C=C4)C=C3)cc1
REMARK SMILES IDX 25 1 24 2 23 3 22 4 21 5 19 6 20 7 18 9 13 10 14 11 15 12
REMARK SMILES IDX 17 13 16 14 12 15 11 16 10 17 1 18 2 19 3 20 4 21 9 23 5 24
REMARK SMILES IDX 8 25 6 26 7 27 26 28 27 29 28 30 29 31 30 33 31 34 32 35
REMARK SMILES IDX 96 36 33 37 95 38 34 39 35 40 36 41 89 42 37 43 94 44 88 45
REMARK SMILES IDX 90 46 38 47 93 48 87 49 86 50 39 52 73 53 52 54 72 55 53 56
REMARK SMILES IDX 56 57 71 58 91 59 54 60 55 61 70 63 92 64 57 65 40 66 41 67
REMARK SMILES IDX 50 68 42 69 43 70 49 71 51 72 44 73 45 74 46 75 47 76 48 77
REMARK SMILES IDX 74 78 75 79 84 80 76 81 77 82 83 83 85 84 78 85 79 86 80 87
REMARK SMILES IDX 81 88 82 89 58 90 59 91 68 92 60 93 61 94 67 95 69 96 62 97
REMARK SMILES IDX 63 98 64 99 65 100 66 101
REMARK H PARENT 21 8 3 22 28 32 90 51 56 62
REMARK Flexibility Score: inf
ROOT
ATOM      1  C   UNL A   1      36.401  23.816  26.125  1.00  0.00     0.002 C 
ENDROOT
BRANCH   1   2
ATOM      2  C   UNL A   1      35.510  22.571  26.104  1.00  0.00     0.002 C 
BRANCH   2   3
ATOM      3  C   UNL A   1      34.550  22.387  27.283  1.00  0.00     0.021 C 
BRANCH   3   4
ATOM      4  C   UNL A   1      33.252  21.654  26.971  1.00  0.00     0.116 C 
BRANCH   4   5
ATOM      5  N   UNL A   1      32.060  22.446  27.195  1.00  0.00    -0.352 N 
ATOM      6  C   UNL A   1      31.511  23.427  26.405  1.00  0.00     0.253 C 
ATOM      7  O   UNL A   1      30.492  24.003  26.790  1.00  0.00    -0.269 OA
ATOM      8  H   UNL A   1      31.575  22.256  28.031  1.00  0.00     0.163 HD
BRANCH   6   9
ATOM      9  C   UNL A   1      32.150  23.878  25.143  1.00  0.00     0.067 A 
ATOM     10  C   UNL A   1      33.009  24.989  25.040  1.00  0.00     0.098 A 
ATOM     11  C   UNL A   1      33.520  25.321  23.771  1.00  0.00     0.031 A 
ATOM     12  C   UNL A   1      33.271  24.519  22.653  1.00  0.00     0.002 A 
ATOM     13  C   UNL A   1      31.937  23.054  24.021  1.00  0.00     0.016 A 
ATOM     14  C   UNL A   1      32.500  23.369  22.784  1.00  0.00     0.001 A 
BRANCH  10  15
ATOM     15  N   UNL A   1      33.367  25.794  26.147  1.00  0.00    -0.150 NA
ATOM     16  N   UNL A   1      32.448  26.526  26.592  1.00  0.00    -0.148 NA
BRANCH  16  17
ATOM     17  C   UNL A   1      32.120  27.634  25.791  1.00  0.00     0.114 A 
ATOM     18  C   UNL A   1      34.150  29.169  26.358  1.00  0.00     0.067 C 
ATOM     19  C   UNL A   1      32.874  28.783  25.714  1.00  0.00     0.041 A 
ATOM     20  N   UNL A   1      32.198  29.639  24.882  1.00  0.00    -0.357 N 
ATOM     21  C   UNL A   1      31.125  29.002  24.301  1.00  0.00     0.048 A 
ATOM     22  H   UNL A   1      32.446  30.578  24.724  1.00  0.00     0.166 HD
ATOM     23  C   UNL A   1      31.044  27.725  24.862  1.00  0.00     0.027 A 
ATOM     24  C   UNL A   1      30.238  29.464  23.320  1.00  0.00     0.027 A 
ATOM     25  C   UNL A   1      30.021  26.865  24.412  1.00  0.00     0.012 A 
ATOM     26  C   UNL A   1      29.245  28.587  22.880  1.00  0.00     0.002 A 
ATOM     27  C   UNL A   1      29.133  27.307  23.417  1.00  0.00     0.001 A 
ENDBRANCH  16  17
ENDBRANCH  10  15
ENDBRANCH   6   9
ENDBRANCH   4   5
ENDBRANCH   3   4
ENDBRANCH   2   3
ENDBRANCH   1   2
BRANCH   1  28
ATOM     28  C   UNL A   1      37.853  23.637  25.679  1.00  0.00     0.021 C 
BRANCH  28  29
ATOM     29  C   UNL A   1      38.901  23.735  26.780  1.00  0.00     0.116 C 
BRANCH  29  30
ATOM     30  N   UNL A   1      40.257  23.823  26.268  1.00  0.00    -0.352 N 
ATOM     31  C   UNL A   1      41.214  24.787  26.491  1.00  0.00     0.251 C 
ATOM     32  H   UNL A   1      40.531  23.088  25.673  1.00  0.00     0.163 HD
ATOM     33  O   UNL A   1      42.268  24.759  25.875  1.00  0.00    -0.269 OA
BRANCH  31  34
ATOM     34  C   UNL A   1      40.943  25.876  27.457  1.00  0.00     0.039 A 
ATOM     35  C   UNL A   1      39.953  25.682  28.424  1.00  0.00     0.014 A 
ATOM     36  C   UNL A   1      41.670  27.067  27.422  1.00  0.00     0.014 A 
ATOM     37  C   UNL A   1      39.749  26.653  29.407  1.00  0.00     0.010 A 
ATOM     38  C   UNL A   1      41.514  28.002  28.442  1.00  0.00     0.010 A 
ATOM     39  C   UNL A   1      40.559  27.799  29.451  1.00  0.00    -0.014 A 
BRANCH  39  40
ATOM     40  C   UNL A   1      40.451  28.782  30.558  1.00  0.00     0.031 A 
ATOM     41  C   UNL A   1      41.326  28.657  31.773  1.00  0.00     0.074 A 
ATOM     42  C   UNL A   1      39.505  29.740  30.500  1.00  0.00     0.049 A 
ATOM     43  N   UNL A   1      41.319  29.366  32.873  1.00  0.00    -0.248 NA
ATOM     44  C   UNL A   1      42.324  27.577  31.757  1.00  0.00     0.031 C 
ATOM     45  C   UNL A   1      38.574  29.942  29.387  1.00  0.00     0.029 A 
ATOM     46  N   UNL A   1      39.163  30.718  31.399  1.00  0.00    -0.354 N 
ATOM     47  C   UNL A   1      42.303  28.815  33.683  1.00  0.00     0.074 A 
ATOM     48  C   UNL A   1      42.847  27.677  32.970  1.00  0.00     0.031 C 
ATOM     49  C   UNL A   1      37.787  30.996  29.657  1.00  0.00     0.029 A 
ATOM     50  C   UNL A   1      38.124  31.515  30.979  1.00  0.00     0.049 A 
ATOM     51  H   UNL A   1      39.616  30.838  32.265  1.00  0.00     0.167 HD
ATOM     52  C   UNL A   1      42.731  29.231  34.900  1.00  0.00     0.037 A 
ATOM     53  C   UNL A   1      37.505  32.543  31.593  1.00  0.00     0.037 A 
ATOM     54  C   UNL A   1      42.184  30.365  35.600  1.00  0.00     0.049 A 
ATOM     55  C   UNL A   1      37.959  32.956  32.965  1.00  0.00     0.074 A 
ATOM     56  C   UNL A   1      42.575  30.898  36.816  1.00  0.00     0.029 A 
ATOM     57  N   UNL A   1      41.119  31.134  35.151  1.00  0.00    -0.354 N 
ATOM     58  N   UNL A   1      38.930  32.461  33.696  1.00  0.00    -0.248 NA
ATOM     59  C   UNL A   1      37.231  34.063  33.600  1.00  0.00     0.031 C 
ATOM     60  C   UNL A   1      41.713  31.956  37.125  1.00  0.00     0.029 A 
ATOM     61  C   UNL A   1      40.817  32.117  36.080  1.00  0.00     0.049 A 
ATOM     62  H   UNL A   1      40.646  30.999  34.298  1.00  0.00     0.167 HD
ATOM     63  C   UNL A   1      38.945  33.210  34.867  1.00  0.00     0.074 A 
ATOM     64  C   UNL A   1      37.891  34.196  34.743  1.00  0.00     0.031 C 
ATOM     65  C   UNL A   1      39.760  33.091  35.945  1.00  0.00     0.037 A 
BRANCH  52  66
ATOM     66  C   UNL A   1      43.836  28.441  35.548  1.00  0.00     0.058 A 
ATOM     67  C   UNL A   1      43.565  27.399  36.452  1.00  0.00     0.135 A 
ATOM     68  C   UNL A   1      45.182  28.733  35.278  1.00  0.00     0.135 A 
ATOM     69  F   UNL A   1      42.296  27.081  36.757  1.00  0.00    -0.206 F 
ATOM     70  C   UNL A   1      44.586  26.717  37.106  1.00  0.00     0.059 A 
ATOM     71  C   UNL A   1      46.220  28.042  35.896  1.00  0.00     0.059 A 
ATOM     72  F   UNL A   1      45.502  29.714  34.418  1.00  0.00    -0.206 F 
ATOM     73  C   UNL A   1      45.911  27.053  36.828  1.00  0.00     0.060 A 
BRANCH  73  74
ATOM     74  S   UNL A   1      47.224  26.191  37.720  1.00  0.00     0.124 S 
ATOM     75  O   UNL A   1      47.294  24.932  36.986  1.00  0.00    -0.237 OA
ATOM     76  O   UNL A   1      48.361  27.089  37.547  1.00  0.00    -0.237 OA
ATOM     77  O   UNL A   1      46.705  26.096  39.081  1.00  0.00    -0.744 OA
ENDBRANCH  73  74
ENDBRANCH  52  66
BRANCH  53  78
ATOM     78  C   UNL A   1      36.414  33.271  30.892  1.00  0.00     0.058 A 
ATOM     79  C   UNL A   1      35.083  33.134  31.311  1.00  0.00     0.135 A 
ATOM     80  C   UNL A   1      36.680  34.150  29.830  1.00  0.00     0.135 A 
ATOM     81  F   UNL A   1      34.779  32.299  32.316  1.00  0.00    -0.206 F 
ATOM     82  C   UNL A   1      34.051  33.840  30.701  1.00  0.00     0.059 A 
ATOM     83  C   UNL A   1      35.667  34.885  29.220  1.00  0.00     0.059 A 
ATOM     84  F   UNL A   1      37.939  34.326  29.402  1.00  0.00    -0.206 F 
ATOM     85  C   UNL A   1      34.355  34.721  29.662  1.00  0.00     0.060 A 
BRANCH  85  86
ATOM     86  S   UNL A   1      33.015  35.687  28.932  1.00  0.00     0.124 S 
ATOM     87  O   UNL A   1      32.271  36.099  30.115  1.00  0.00    -0.237 OA
ATOM     88  O   UNL A   1      33.744  36.743  28.236  1.00  0.00    -0.237 OA
ATOM     89  O   UNL A   1      32.341  34.724  28.065  1.00  0.00    -0.744 OA
ENDBRANCH  85  86
ENDBRANCH  53  78
BRANCH  65  90
ATOM     90  C   UNL A   1      39.559  34.063  37.074  1.00  0.00     0.058 A 
ATOM     91  C   UNL A   1      38.878  33.699  38.246  1.00  0.00     0.135 A 
ATOM     92  C   UNL A   1      40.111  35.353  37.010  1.00  0.00     0.135 A 
ATOM     93  F   UNL A   1      38.321  32.482  38.354  1.00  0.00    -0.206 F 
ATOM     94  C   UNL A   1      38.742  34.584  39.311  1.00  0.00     0.059 A 
ATOM     95  C   UNL A   1      40.009  36.245  38.073  1.00  0.00     0.059 A 
ATOM     96  F   UNL A   1      40.777  35.749  35.914  1.00  0.00    -0.206 F 
ATOM     97  C   UNL A   1      39.317  35.853  39.218  1.00  0.00     0.060 A 
BRANCH  97  98
ATOM     98  S   UNL A   1      39.180  36.970  40.629  1.00  0.00     0.124 S 
ATOM     99  O   UNL A   1      38.480  36.134  41.600  1.00  0.00    -0.237 OA
ATOM    100  O   UNL A   1      40.577  37.260  40.934  1.00  0.00    -0.237 OA
ATOM    101  O   UNL A   1      38.414  38.094  40.100  1.00  0.00    -0.744 OA
ENDBRANCH  97  98
ENDBRANCH  65  90
ENDBRANCH  39  40
ENDBRANCH  31  34
ENDBRANCH  29  30
ENDBRANCH  28  29
ENDBRANCH   1  28
TORSDOF 18
ENDMDL
MODEL 3
REMARK VINA RESULT:     -11.3      2.236      2.975
REMARK SMILES Cc1[nH]c2ccccc2c1/N=N\c1ccccc1C(=O)NCCCCCCNC(=O)c1ccc(-c2c3nc(c(-c4c(F)cc(S(=O)(=O)[O-])cc4F)c4ccc([nH]4)c(-c4c(F)cc(S(=O)(=O)[O-])cc4F)c4nc(c(-c5c(F)cc(S(=O)(=O)[O-])cc5F)c5ccc2[nH]5)C=C4)C=C3)cc1
REMARK SMILES IDX 25 1 24 2 23 3 22 4 21 5 19 6 20 7 18 9 13 10 14 11 15 12
REMARK SMILES IDX 17 13 16 14 12 15 11 16 10 17 1 18 2 19 3 20 4 21 9 23 5 24
REMARK SMILES IDX 8 25 6 26 7 27 26 28 27 29 28 30 29 31 30 33 31 34 32 35
REMARK SMILES IDX 96 36 33 37 95 38 34 39 35 40 36 41 89 42 37 43 94 44 88 45
REMARK SMILES IDX 90 46 38 47 93 48 87 49 86 50 39 52 73 53 52 54 72 55 53 56
REMARK SMILES IDX 56 57 71 58 91 59 54 60 55 61 70 63 92 64 57 65 40 66 41 67
REMARK SMILES IDX 50 68 42 69 43 70 49 71 51 72 44 73 45 74 46 75 47 76 48 77
REMARK SMILES IDX 74 78 75 79 84 80 76 81 77 82 83 83 85 84 78 85 79 86 80 87
REMARK SMILES IDX 81 88 82 89 58 90 59 91 68 92 60 93 61 94 67 95 69 96 62 97
REMARK SMILES IDX 63 98 64 99 65 100 66 101
REMARK H PARENT 21 8 3 22 28 32 90 51 56 62
REMARK Flexibility Score: inf
ROOT
ATOM      1  C   UNL A   1      33.525  28.566  26.173  1.00  0.00     0.002 C 
ENDROOT
BRANCH   1   2
ATOM      2  C   UNL A   1      32.799  29.085  24.928  1.00  0.00     0.002 C 
BRANCH   2   3
ATOM      3  C   UNL A   1      33.503  28.883  23.583  1.00  0.00     0.021 C 
BRANCH   3   4
ATOM      4  C   UNL A   1      32.590  28.615  22.393  1.00  0.00     0.116 C 
BRANCH   4   5
ATOM      5  N   UNL A   1      32.935  27.424  21.644  1.00  0.00    -0.352 N 
ATOM      6  C   UNL A   1      32.757  26.105  21.984  1.00  0.00     0.253 C 
ATOM      7  O   UNL A   1      33.143  25.230  21.207  1.00  0.00    -0.269 OA
ATOM      8  H   UNL A   1      33.356  27.582  20.768  1.00  0.00     0.163 HD
BRANCH   6   9
ATOM      9  C   UNL A   1      32.194  25.694  23.295  1.00  0.00     0.067 A 
ATOM     10  C   UNL A   1      32.967  25.368  24.426  1.00  0.00     0.098 A 
ATOM     11  C   UNL A   1      32.299  24.964  25.597  1.00  0.00     0.031 A 
ATOM     12  C   UNL A   1      30.903  24.979  25.680  1.00  0.00     0.002 A 
ATOM     13  C   UNL A   1      30.790  25.743  23.400  1.00  0.00     0.016 A 
ATOM     14  C   UNL A   1      30.148  25.395  24.588  1.00  0.00     0.001 A 
BRANCH  10  15
ATOM     15  N   UNL A   1      34.381  25.412  24.433  1.00  0.00    -0.150 NA
ATOM     16  N   UNL A   1      34.945  24.523  23.747  1.00  0.00    -0.148 NA
BRANCH  16  17
ATOM     17  C   UNL A   1      34.903  23.227  24.291  1.00  0.00     0.114 A 
ATOM     18  C   UNL A   1      36.741  23.488  26.123  1.00  0.00     0.067 C 
ATOM     19  C   UNL A   1      35.706  22.795  25.323  1.00  0.00     0.041 A 
ATOM     20  N   UNL A   1      35.407  21.471  25.522  1.00  0.00    -0.357 N 
ATOM     21  C   UNL A   1      34.321  21.100  24.760  1.00  0.00     0.048 A 
ATOM     22  H   UNL A   1      35.900  20.870  26.125  1.00  0.00     0.166 HD
ATOM     23  C   UNL A   1      33.979  22.194  23.961  1.00  0.00     0.027 A 
ATOM     24  C   UNL A   1      33.623  19.886  24.734  1.00  0.00     0.027 A 
ATOM     25  C   UNL A   1      32.876  22.063  23.094  1.00  0.00     0.012 A 
ATOM     26  C   UNL A   1      32.525  19.788  23.879  1.00  0.00     0.002 A 
ATOM     27  C   UNL A   1      32.155  20.858  23.067  1.00  0.00     0.001 A 
ENDBRANCH  16  17
ENDBRANCH  10  15
ENDBRANCH   6   9
ENDBRANCH   4   5
ENDBRANCH   3   4
ENDBRANCH   2   3
ENDBRANCH   1   2
BRANCH   1  28
ATOM     28  C   UNL A   1      33.707  29.549  27.330  1.00  0.00     0.021 C 
BRANCH  28  29
ATOM     29  C   UNL A   1      35.138  29.748  27.811  1.00  0.00     0.116 C 
BRANCH  29  30
ATOM     30  N   UNL A   1      35.223  30.519  29.040  1.00  0.00    -0.352 N 
ATOM     31  C   UNL A   1      36.276  30.654  29.916  1.00  0.00     0.251 C 
ATOM     32  H   UNL A   1      34.408  31.016  29.281  1.00  0.00     0.163 HD
ATOM     33  O   UNL A   1      36.124  31.252  30.969  1.00  0.00    -0.269 OA
BRANCH  31  34
ATOM     34  C   UNL A   1      37.581  30.038  29.588  1.00  0.00     0.039 A 
ATOM     35  C   UNL A   1      38.019  30.061  28.261  1.00  0.00     0.014 A 
ATOM     36  C   UNL A   1      38.376  29.461  30.581  1.00  0.00     0.014 A 
ATOM     37  C   UNL A   1      39.291  29.578  27.945  1.00  0.00     0.010 A 
ATOM     38  C   UNL A   1      39.668  29.044  30.276  1.00  0.00     0.010 A 
ATOM     39  C   UNL A   1      40.143  29.108  28.957  1.00  0.00    -0.014 A 
BRANCH  39  40
ATOM     40  C   UNL A   1      41.543  28.710  28.667  1.00  0.00     0.031 A 
ATOM     41  C   UNL A   1      42.645  29.730  28.700  1.00  0.00     0.074 A 
ATOM     42  C   UNL A   1      41.806  27.441  28.295  1.00  0.00     0.049 A 
ATOM     43  N   UNL A   1      43.910  29.591  28.396  1.00  0.00    -0.248 NA
ATOM     44  C   UNL A   1      42.268  31.093  29.106  1.00  0.00     0.031 C 
ATOM     45  C   UNL A   1      40.814  26.368  28.195  1.00  0.00     0.029 A 
ATOM     46  N   UNL A   1      42.982  26.840  27.925  1.00  0.00    -0.354 N 
ATOM     47  C   UNL A   1      44.480  30.847  28.565  1.00  0.00     0.074 A 
ATOM     48  C   UNL A   1      43.410  31.746  28.943  1.00  0.00     0.031 C 
ATOM     49  C   UNL A   1      41.428  25.235  27.818  1.00  0.00     0.029 A 
ATOM     50  C   UNL A   1      42.846  25.510  27.604  1.00  0.00     0.049 A 
ATOM     51  H   UNL A   1      43.843  27.316  27.889  1.00  0.00     0.167 HD
ATOM     52  C   UNL A   1      45.778  31.213  28.439  1.00  0.00     0.037 A 
ATOM     53  C   UNL A   1      43.757  24.614  27.177  1.00  0.00     0.037 A 
ATOM     54  C   UNL A   1      46.836  30.309  28.063  1.00  0.00     0.049 A 
ATOM     55  C   UNL A   1      45.183  25.053  26.992  1.00  0.00     0.074 A 
ATOM     56  C   UNL A   1      48.190  30.567  27.950  1.00  0.00     0.029 A 
ATOM     57  N   UNL A   1      46.653  28.975  27.726  1.00  0.00    -0.354 N 
ATOM     58  N   UNL A   1      45.718  26.230  27.212  1.00  0.00    -0.248 NA
ATOM     59  C   UNL A   1      46.129  24.044  26.497  1.00  0.00     0.031 C 
ATOM     60  C   UNL A   1      48.819  29.402  27.496  1.00  0.00     0.029 A 
ATOM     61  C   UNL A   1      47.866  28.404  27.374  1.00  0.00     0.049 A 
ATOM     62  H   UNL A   1      45.789  28.503  27.735  1.00  0.00     0.167 HD
ATOM     63  C   UNL A   1      47.067  26.099  26.903  1.00  0.00     0.074 A 
ATOM     64  C   UNL A   1      47.267  24.725  26.490  1.00  0.00     0.031 C 
ATOM     65  C   UNL A   1      48.050  27.033  26.960  1.00  0.00     0.037 A 
BRANCH  52  66
ATOM     66  C   UNL A   1      46.115  32.657  28.699  1.00  0.00     0.058 A 
ATOM     67  C   UNL A   1      46.120  33.610  27.667  1.00  0.00     0.135 A 
ATOM     68  C   UNL A   1      46.450  33.094  29.990  1.00  0.00     0.135 A 
ATOM     69  F   UNL A   1      45.817  33.247  26.409  1.00  0.00    -0.206 F 
ATOM     70  C   UNL A   1      46.501  34.929  27.894  1.00  0.00     0.059 A 
ATOM     71  C   UNL A   1      46.804  34.417  30.246  1.00  0.00     0.059 A 
ATOM     72  F   UNL A   1      46.457  32.230  31.018  1.00  0.00    -0.206 F 
ATOM     73  C   UNL A   1      46.851  35.320  29.186  1.00  0.00     0.060 A 
BRANCH  73  74
ATOM     74  S   UNL A   1      47.389  37.022  29.456  1.00  0.00     0.124 S 
ATOM     75  O   UNL A   1      48.745  36.821  29.956  1.00  0.00    -0.237 OA
ATOM     76  O   UNL A   1      47.285  37.600  28.121  1.00  0.00    -0.237 OA
ATOM     77  O   UNL A   1      46.430  37.530  30.432  1.00  0.00    -0.744 OA
ENDBRANCH  73  74
ENDBRANCH  52  66
BRANCH  53  78
ATOM     78  C   UNL A   1      43.348  23.206  26.932  1.00  0.00     0.058 A 
ATOM     79  C   UNL A   1      43.291  22.698  25.626  1.00  0.00     0.135 A 
ATOM     80  C   UNL A   1      43.054  22.330  27.989  1.00  0.00     0.135 A 
ATOM     81  F   UNL A   1      43.555  23.498  24.584  1.00  0.00    -0.206 F 
ATOM     82  C   UNL A   1      42.956  21.371  25.375  1.00  0.00     0.059 A 
ATOM     83  C   UNL A   1      42.739  20.993  27.764  1.00  0.00     0.059 A 
ATOM     84  F   UNL A   1      43.107  22.765  29.257  1.00  0.00    -0.206 F 
ATOM     85  C   UNL A   1      42.691  20.524  26.452  1.00  0.00     0.060 A 
BRANCH  85  86
ATOM     86  S   UNL A   1      42.332  18.787  26.114  1.00  0.00     0.124 S 
ATOM     87  O   UNL A   1      42.643  18.166  27.396  1.00  0.00    -0.237 OA
ATOM     88  O   UNL A   1      40.919  18.832  25.752  1.00  0.00    -0.237 OA
ATOM     89  O   UNL A   1      43.242  18.464  25.018  1.00  0.00    -0.744 OA
ENDBRANCH  85  86
ENDBRANCH  53  78
BRANCH  65  90
ATOM     90  C   UNL A   1      49.439  26.598  26.582  1.00  0.00     0.058 A 
ATOM     91  C   UNL A   1      50.322  26.053  27.527  1.00  0.00     0.135 A 
ATOM     92  C   UNL A   1      49.868  26.668  25.246  1.00  0.00     0.135 A 
ATOM     93  F   UNL A   1      49.965  25.974  28.819  1.00  0.00    -0.206 F 
ATOM     94  C   UNL A   1      51.586  25.601  27.163  1.00  0.00     0.059 A 
ATOM     95  C   UNL A   1      51.119  26.198  24.857  1.00  0.00     0.059 A 
ATOM     96  F   UNL A   1      49.061  27.175  24.302  1.00  0.00    -0.206 F 
ATOM     97  C   UNL A   1      51.974  25.671  25.823  1.00  0.00     0.060 A 
BRANCH  97  98
ATOM     98  S   UNL A   1      53.595  25.030  25.358  1.00  0.00     0.124 S 
ATOM     99  O   UNL A   1      53.902  25.833  24.178  1.00  0.00    -0.237 OA
ATOM    100  O   UNL A   1      54.396  25.317  26.544  1.00  0.00    -0.237 OA
ATOM    101  O   UNL A   1      53.342  23.615  25.107  1.00  0.00    -0.744 OA
ENDBRANCH  97  98
ENDBRANCH  65  90
ENDBRANCH  39  40
ENDBRANCH  31  34
ENDBRANCH  29  30
ENDBRANCH  28  29
ENDBRANCH   1  28
TORSDOF 18
ENDMDL
