MODEL 1
REMARK VINA RESULT:     -11.3      0.000      0.000
REMARK SMILES O=C(NCCCCCCNC(=O)c1cccc(Oc2ncc([N+](=O)[O-])cc2Br)c1)c1ccc(-c2c3nc(c(-c4c(F)cc(S(=O)(=O)[O-])cc4F)c4ccc([nH]4)c(-c4c(F)cc(S(=O)(=O)[O-])cc4F)c4nc(c(-c5c(F)cc(S(=O)(=O)[O-])cc5F)c5ccc2[nH]5)C=C4)C=C3)cc1
REMARK SMILES IDX 6 1 5 2 4 3 3 4 1 5 2 6 30 8 31 9 95 10 32 11 94 12 33 13
REMARK SMILES IDX 34 14 35 15 88 16 36 17 93 18 87 19 89 20 37 21 92 22 86 23
REMARK SMILES IDX 85 24 38 26 72 27 51 28 71 29 52 30 55 31 70 32 90 33 53 34
REMARK SMILES IDX 54 35 69 37 91 38 56 39 39 40 40 41 49 42 41 43 42 44 48 45
REMARK SMILES IDX 50 46 43 47 44 48 45 49 46 50 47 51 73 52 74 53 83 54 75 55
REMARK SMILES IDX 76 56 82 57 84 58 77 59 78 60 79 61 80 62 81 63 57 64 58 65
REMARK SMILES IDX 67 66 59 67 60 68 66 69 68 70 61 71 62 72 63 73 64 74 65 75
REMARK SMILES IDX 7 76 8 77 9 78 10 79 11 80 12 82 13 83 14 84 29 85 15 86
REMARK SMILES IDX 17 87 16 88 18 89 19 90 20 91 27 92 21 93 26 94 28 95 22 96
REMARK SMILES IDX 23 97 24 98 25 99
REMARK H PARENT 3 7 89 25 55 36 10 81
REMARK Flexibility Score: inf
ROOT
ATOM      1  C   UNL A   1      33.244  26.930  24.827  1.00  0.00     0.002 C 
ENDROOT
BRANCH   1   2
ATOM      2  C   UNL A   1      33.030  27.353  26.280  1.00  0.00     0.021 C 
BRANCH   2   3
ATOM      3  C   UNL A   1      34.210  28.067  26.928  1.00  0.00     0.116 C 
BRANCH   3   4
ATOM      4  N   UNL A   1      33.880  29.407  27.382  1.00  0.00    -0.352 N 
ATOM      5  O   UNL A   1      34.178  31.339  28.508  1.00  0.00    -0.269 OA
ATOM      6  C   UNL A   1      34.663  30.294  28.081  1.00  0.00     0.251 C 
ATOM      7  H   UNL A   1      32.975  29.721  27.159  1.00  0.00     0.163 HD
BRANCH   6   8
ATOM      8  C   UNL A   1      36.085  29.973  28.336  1.00  0.00     0.039 A 
ATOM      9  C   UNL A   1      37.046  30.159  27.339  1.00  0.00     0.014 A 
ATOM     10  C   UNL A   1      36.460  29.481  29.589  1.00  0.00     0.014 A 
ATOM     11  C   UNL A   1      38.352  29.733  27.550  1.00  0.00     0.010 A 
ATOM     12  C   UNL A   1      37.793  29.132  29.829  1.00  0.00     0.010 A 
ATOM     13  C   UNL A   1      38.746  29.235  28.804  1.00  0.00    -0.014 A 
BRANCH  13  14
ATOM     14  C   UNL A   1      40.178  28.915  29.035  1.00  0.00     0.031 A 
ATOM     15  C   UNL A   1      40.759  27.584  28.647  1.00  0.00     0.074 A 
ATOM     16  C   UNL A   1      40.962  29.866  29.581  1.00  0.00     0.049 A 
ATOM     17  N   UNL A   1      41.994  27.164  28.760  1.00  0.00    -0.248 NA
ATOM     18  C   UNL A   1      39.841  26.593  28.063  1.00  0.00     0.031 C 
ATOM     19  C   UNL A   1      40.500  31.189  30.016  1.00  0.00     0.029 A 
ATOM     20  N   UNL A   1      42.306  29.885  29.845  1.00  0.00    -0.354 N 
ATOM     21  C   UNL A   1      42.002  25.860  28.276  1.00  0.00     0.074 A 
ATOM     22  C   UNL A   1      40.642  25.549  27.890  1.00  0.00     0.031 C 
ATOM     23  C   UNL A   1      41.548  31.902  30.450  1.00  0.00     0.029 A 
ATOM     24  C   UNL A   1      42.745  31.073  30.381  1.00  0.00     0.049 A 
ATOM     25  H   UNL A   1      42.902  29.120  29.669  1.00  0.00     0.167 HD
ATOM     26  C   UNL A   1      43.051  25.009  28.160  1.00  0.00     0.037 A 
ATOM     27  C   UNL A   1      43.970  31.451  30.790  1.00  0.00     0.037 A 
ATOM     28  C   UNL A   1      44.404  25.336  28.539  1.00  0.00     0.049 A 
ATOM     29  C   UNL A   1      45.109  30.482  30.659  1.00  0.00     0.074 A 
ATOM     30  C   UNL A   1      45.541  24.552  28.430  1.00  0.00     0.029 A 
ATOM     31  N   UNL A   1      44.805  26.541  29.098  1.00  0.00    -0.354 N 
ATOM     32  N   UNL A   1      45.102  29.265  30.171  1.00  0.00    -0.248 NA
ATOM     33  C   UNL A   1      46.421  30.934  31.139  1.00  0.00     0.031 C 
ATOM     34  C   UNL A   1      46.620  25.268  28.962  1.00  0.00     0.029 A 
ATOM     35  C   UNL A   1      46.166  26.515  29.359  1.00  0.00     0.049 A 
ATOM     36  H   UNL A   1      44.209  27.303  29.284  1.00  0.00     0.167 HD
ATOM     37  C   UNL A   1      46.409  28.808  30.276  1.00  0.00     0.074 A 
ATOM     38  C   UNL A   1      47.184  29.890  30.851  1.00  0.00     0.031 C 
ATOM     39  C   UNL A   1      46.920  27.599  29.936  1.00  0.00     0.037 A 
BRANCH  26  40
ATOM     40  C   UNL A   1      42.786  23.634  27.608  1.00  0.00     0.058 A 
ATOM     41  C   UNL A   1      42.923  23.350  26.241  1.00  0.00     0.135 A 
ATOM     42  C   UNL A   1      42.459  22.571  28.466  1.00  0.00     0.135 A 
ATOM     43  F   UNL A   1      43.223  24.330  25.373  1.00  0.00    -0.206 F 
ATOM     44  C   UNL A   1      42.734  22.065  25.741  1.00  0.00     0.059 A 
ATOM     45  C   UNL A   1      42.285  21.274  27.992  1.00  0.00     0.059 A 
ATOM     46  F   UNL A   1      42.315  22.787  29.784  1.00  0.00    -0.206 F 
ATOM     47  C   UNL A   1      42.416  21.032  26.625  1.00  0.00     0.060 A 
BRANCH  47  48
ATOM     48  S   UNL A   1      42.198  19.366  25.964  1.00  0.00     0.124 S 
ATOM     49  O   UNL A   1      43.051  19.408  24.780  1.00  0.00    -0.237 OA
ATOM     50  O   UNL A   1      42.678  18.530  27.059  1.00  0.00    -0.237 OA
ATOM     51  O   UNL A   1      40.764  19.288  25.701  1.00  0.00    -0.744 OA
ENDBRANCH  47  48
ENDBRANCH  26  40
BRANCH  27  52
ATOM     52  C   UNL A   1      44.171  32.803  31.370  1.00  0.00     0.058 A 
ATOM     53  C   UNL A   1      44.487  33.902  30.558  1.00  0.00     0.135 A 
ATOM     54  C   UNL A   1      44.031  33.027  32.749  1.00  0.00     0.135 A 
ATOM     55  F   UNL A   1      44.634  33.737  29.234  1.00  0.00    -0.206 F 
ATOM     56  C   UNL A   1      44.677  35.171  31.094  1.00  0.00     0.059 A 
ATOM     57  C   UNL A   1      44.186  34.291  33.304  1.00  0.00     0.059 A 
ATOM     58  F   UNL A   1      43.708  32.012  33.566  1.00  0.00    -0.206 F 
ATOM     59  C   UNL A   1      44.524  35.355  32.470  1.00  0.00     0.060 A 
BRANCH  59  60
ATOM     60  S   UNL A   1      44.729  37.014  33.153  1.00  0.00     0.124 S 
ATOM     61  O   UNL A   1      45.448  37.685  32.077  1.00  0.00    -0.237 OA
ATOM     62  O   UNL A   1      43.347  37.437  33.360  1.00  0.00    -0.237 OA
ATOM     63  O   UNL A   1      45.493  36.779  34.374  1.00  0.00    -0.744 OA
ENDBRANCH  59  60
ENDBRANCH  27  52
BRANCH  39  64
ATOM     64  C   UNL A   1      48.391  27.396  30.162  1.00  0.00     0.058 A 
ATOM     65  C   UNL A   1      48.874  26.740  31.305  1.00  0.00     0.135 A 
ATOM     66  C   UNL A   1      49.326  27.847  29.217  1.00  0.00     0.135 A 
ATOM     67  F   UNL A   1      48.021  26.300  32.242  1.00  0.00    -0.206 F 
ATOM     68  C   UNL A   1      50.237  26.565  31.519  1.00  0.00     0.059 A 
ATOM     69  C   UNL A   1      50.693  27.659  29.397  1.00  0.00     0.059 A 
ATOM     70  F   UNL A   1      48.915  28.473  28.103  1.00  0.00    -0.206 F 
ATOM     71  C   UNL A   1      51.139  27.030  30.559  1.00  0.00     0.060 A 
BRANCH  71  72
ATOM     72  S   UNL A   1      52.905  26.785  30.839  1.00  0.00     0.124 S 
ATOM     73  O   UNL A   1      53.337  26.263  29.547  1.00  0.00    -0.237 OA
ATOM     74  O   UNL A   1      53.364  28.133  31.162  1.00  0.00    -0.237 OA
ATOM     75  O   UNL A   1      52.944  25.835  31.946  1.00  0.00    -0.744 OA
ENDBRANCH  71  72
ENDBRANCH  39  64
ENDBRANCH  13  14
ENDBRANCH   6   8
ENDBRANCH   3   4
ENDBRANCH   2   3
ENDBRANCH   1   2
BRANCH   1  76
ATOM     76  C   UNL A   1      33.658  28.047  23.866  1.00  0.00     0.002 C 
BRANCH  76  77
ATOM     77  C   UNL A   1      33.712  27.664  22.382  1.00  0.00     0.021 C 
BRANCH  77  78
ATOM     78  C   UNL A   1      32.500  26.894  21.866  1.00  0.00     0.116 C 
BRANCH  78  79
ATOM     79  N   UNL A   1      32.889  25.713  21.114  1.00  0.00    -0.352 N 
ATOM     80  C   UNL A   1      32.924  24.405  21.523  1.00  0.00     0.251 C 
ATOM     81  H   UNL A   1      33.165  25.875  20.182  1.00  0.00     0.163 HD
ATOM     82  O   UNL A   1      33.469  23.551  20.830  1.00  0.00    -0.269 OA
BRANCH  80  83
ATOM     83  C   UNL A   1      32.286  24.015  22.798  1.00  0.00     0.043 A 
ATOM     84  C   UNL A   1      31.083  24.611  23.177  1.00  0.00     0.014 A 
ATOM     85  C   UNL A   1      32.926  23.108  23.649  1.00  0.00     0.061 A 
ATOM     86  C   UNL A   1      30.496  24.258  24.392  1.00  0.00     0.005 A 
ATOM     87  C   UNL A   1      32.344  22.756  24.868  1.00  0.00     0.130 A 
ATOM     88  C   UNL A   1      31.122  23.331  25.231  1.00  0.00     0.047 A 
BRANCH  87  89
ATOM     89  O   UNL A   1      32.905  21.898  25.794  1.00  0.00    -0.438 OA
BRANCH  89  90
ATOM     90  C   UNL A   1      33.241  20.636  25.351  1.00  0.00     0.234 A 
ATOM     91  N   UNL A   1      32.195  19.813  25.078  1.00  0.00    -0.214 NA
ATOM     92  C   UNL A   1      34.577  20.270  25.173  1.00  0.00     0.087 A 
ATOM     93  C   UNL A   1      32.487  18.588  24.576  1.00  0.00     0.200 A 
ATOM     94  C   UNL A   1      34.853  19.022  24.616  1.00  0.00     0.108 A 
ATOM     95  Br  UNL A   1      36.017  21.427  25.584  1.00  0.00    -0.045 Br
ATOM     96  C   UNL A   1      33.784  18.174  24.308  1.00  0.00     0.288 A 
BRANCH  96  97
ATOM     97  N   UNL A   1      34.017  16.892  23.659  1.00  0.00     0.064 N 
ATOM     98  O   UNL A   1      33.903  16.841  22.429  1.00  0.00    -0.258 OA
ATOM     99  O   UNL A   1      34.354  15.944  24.381  1.00  0.00    -0.258 OA
ENDBRANCH  96  97
ENDBRANCH  89  90
ENDBRANCH  87  89
ENDBRANCH  80  83
ENDBRANCH  78  79
ENDBRANCH  77  78
ENDBRANCH  76  77
ENDBRANCH   1  76
TORSDOF 19
ENDMDL
MODEL 2
REMARK VINA RESULT:     -11.2      1.079      2.005
REMARK SMILES O=C(NCCCCCCNC(=O)c1cccc(Oc2ncc([N+](=O)[O-])cc2Br)c1)c1ccc(-c2c3nc(c(-c4c(F)cc(S(=O)(=O)[O-])cc4F)c4ccc([nH]4)c(-c4c(F)cc(S(=O)(=O)[O-])cc4F)c4nc(c(-c5c(F)cc(S(=O)(=O)[O-])cc5F)c5ccc2[nH]5)C=C4)C=C3)cc1
REMARK SMILES IDX 6 1 5 2 4 3 3 4 1 5 2 6 30 8 31 9 95 10 32 11 94 12 33 13
REMARK SMILES IDX 34 14 35 15 88 16 36 17 93 18 87 19 89 20 37 21 92 22 86 23
REMARK SMILES IDX 85 24 38 26 72 27 51 28 71 29 52 30 55 31 70 32 90 33 53 34
REMARK SMILES IDX 54 35 69 37 91 38 56 39 39 40 40 41 49 42 41 43 42 44 48 45
REMARK SMILES IDX 50 46 43 47 44 48 45 49 46 50 47 51 73 52 74 53 83 54 75 55
REMARK SMILES IDX 76 56 82 57 84 58 77 59 78 60 79 61 80 62 81 63 57 64 58 65
REMARK SMILES IDX 67 66 59 67 60 68 66 69 68 70 61 71 62 72 63 73 64 74 65 75
REMARK SMILES IDX 7 76 8 77 9 78 10 79 11 80 12 82 13 83 14 84 29 85 15 86
REMARK SMILES IDX 17 87 16 88 18 89 19 90 20 91 27 92 21 93 26 94 28 95 22 96
REMARK SMILES IDX 23 97 24 98 25 99
REMARK H PARENT 3 7 89 25 55 36 10 81
REMARK Flexibility Score: inf
ROOT
ATOM      1  C   UNL A   1      31.512  28.171  26.387  1.00  0.00     0.002 C 
ENDROOT
BRANCH   1   2
ATOM      2  C   UNL A   1      32.799  27.376  26.607  1.00  0.00     0.021 C 
BRANCH   2   3
ATOM      3  C   UNL A   1      34.032  28.213  26.922  1.00  0.00     0.116 C 
BRANCH   3   4
ATOM      4  N   UNL A   1      33.704  29.547  27.398  1.00  0.00    -0.352 N 
ATOM      5  O   UNL A   1      34.009  31.462  28.551  1.00  0.00    -0.269 OA
ATOM      6  C   UNL A   1      34.491  30.424  28.104  1.00  0.00     0.251 C 
ATOM      7  H   UNL A   1      32.797  29.863  27.188  1.00  0.00     0.163 HD
BRANCH   6   8
ATOM      8  C   UNL A   1      35.916  30.101  28.343  1.00  0.00     0.039 A 
ATOM      9  C   UNL A   1      36.864  30.275  27.331  1.00  0.00     0.014 A 
ATOM     10  C   UNL A   1      36.307  29.620  29.595  1.00  0.00     0.014 A 
ATOM     11  C   UNL A   1      38.171  29.849  27.528  1.00  0.00     0.010 A 
ATOM     12  C   UNL A   1      37.642  29.269  29.819  1.00  0.00     0.010 A 
ATOM     13  C   UNL A   1      38.581  29.360  28.781  1.00  0.00    -0.014 A 
BRANCH  13  14
ATOM     14  C   UNL A   1      40.016  29.039  28.995  1.00  0.00     0.031 A 
ATOM     15  C   UNL A   1      40.585  27.698  28.623  1.00  0.00     0.074 A 
ATOM     16  C   UNL A   1      40.812  29.997  29.510  1.00  0.00     0.049 A 
ATOM     17  N   UNL A   1      41.819  27.275  28.724  1.00  0.00    -0.248 NA
ATOM     18  C   UNL A   1      39.654  26.701  28.073  1.00  0.00     0.031 C 
ATOM     19  C   UNL A   1      40.362  31.329  29.928  1.00  0.00     0.029 A 
ATOM     20  N   UNL A   1      42.160  30.014  29.753  1.00  0.00    -0.354 N 
ATOM     21  C   UNL A   1      41.815  25.962  28.265  1.00  0.00     0.074 A 
ATOM     22  C   UNL A   1      40.447  25.650  27.907  1.00  0.00     0.031 C 
ATOM     23  C   UNL A   1      41.420  32.046  30.330  1.00  0.00     0.029 A 
ATOM     24  C   UNL A   1      42.612  31.210  30.258  1.00  0.00     0.049 A 
ATOM     25  H   UNL A   1      42.750  29.244  29.582  1.00  0.00     0.167 HD
ATOM     26  C   UNL A   1      42.858  25.105  28.149  1.00  0.00     0.037 A 
ATOM     27  C   UNL A   1      43.845  31.591  30.641  1.00  0.00     0.037 A 
ATOM     28  C   UNL A   1      44.218  25.433  28.499  1.00  0.00     0.049 A 
ATOM     29  C   UNL A   1      44.978  30.615  30.510  1.00  0.00     0.074 A 
ATOM     30  C   UNL A   1      45.350  24.642  28.388  1.00  0.00     0.029 A 
ATOM     31  N   UNL A   1      44.633  26.646  29.030  1.00  0.00    -0.354 N 
ATOM     32  N   UNL A   1      44.958  29.388  30.046  1.00  0.00    -0.248 NA
ATOM     33  C   UNL A   1      46.299  31.070  30.960  1.00  0.00     0.031 C 
ATOM     34  C   UNL A   1      46.441  25.363  28.888  1.00  0.00     0.029 A 
ATOM     35  C   UNL A   1      45.998  26.619  29.269  1.00  0.00     0.049 A 
ATOM     36  H   UNL A   1      44.044  27.415  29.210  1.00  0.00     0.167 HD
ATOM     37  C   UNL A   1      46.265  28.928  30.139  1.00  0.00     0.074 A 
ATOM     38  C   UNL A   1      47.054  30.017  30.680  1.00  0.00     0.031 C 
ATOM     39  C   UNL A   1      46.766  27.711  29.813  1.00  0.00     0.037 A 
BRANCH  26  40
ATOM     40  C   UNL A   1      42.579  23.721  27.627  1.00  0.00     0.058 A 
ATOM     41  C   UNL A   1      42.529  23.448  26.252  1.00  0.00     0.135 A 
ATOM     42  C   UNL A   1      42.428  22.641  28.513  1.00  0.00     0.135 A 
ATOM     43  F   UNL A   1      42.655  24.444  25.360  1.00  0.00    -0.206 F 
ATOM     44  C   UNL A   1      42.328  22.157  25.772  1.00  0.00     0.059 A 
ATOM     45  C   UNL A   1      42.247  21.338  28.056  1.00  0.00     0.059 A 
ATOM     46  F   UNL A   1      42.467  22.845  29.840  1.00  0.00    -0.206 F 
ATOM     47  C   UNL A   1      42.189  21.108  26.682  1.00  0.00     0.060 A 
BRANCH  47  48
ATOM     48  S   UNL A   1      41.953  19.435  26.043  1.00  0.00     0.124 S 
ATOM     49  O   UNL A   1      42.397  18.626  27.174  1.00  0.00    -0.237 OA
ATOM     50  O   UNL A   1      40.520  19.405  25.769  1.00  0.00    -0.237 OA
ATOM     51  O   UNL A   1      42.815  19.394  24.866  1.00  0.00    -0.744 OA
ENDBRANCH  47  48
ENDBRANCH  26  40
BRANCH  27  52
ATOM     52  C   UNL A   1      44.061  32.953  31.191  1.00  0.00     0.058 A 
ATOM     53  C   UNL A   1      43.965  33.204  32.567  1.00  0.00     0.135 A 
ATOM     54  C   UNL A   1      44.387  34.030  30.350  1.00  0.00     0.135 A 
ATOM     55  F   UNL A   1      43.653  32.207  33.410  1.00  0.00    -0.206 F 
ATOM     56  C   UNL A   1      44.166  34.477  33.090  1.00  0.00     0.059 A 
ATOM     57  C   UNL A   1      44.621  35.305  30.852  1.00  0.00     0.059 A 
ATOM     58  F   UNL A   1      44.510  33.837  29.028  1.00  0.00    -0.206 F 
ATOM     59  C   UNL A   1      44.494  35.521  32.223  1.00  0.00     0.060 A 
BRANCH  59  60
ATOM     60  S   UNL A   1      44.796  37.162  32.913  1.00  0.00     0.124 S 
ATOM     61  O   UNL A   1      43.448  37.575  33.284  1.00  0.00    -0.237 OA
ATOM     62  O   UNL A   1      45.703  36.871  34.019  1.00  0.00    -0.237 OA
ATOM     63  O   UNL A   1      45.395  37.887  31.797  1.00  0.00    -0.744 OA
ENDBRANCH  59  60
ENDBRANCH  27  52
BRANCH  39  64
ATOM     64  C   UNL A   1      48.239  27.506  30.019  1.00  0.00     0.058 A 
ATOM     65  C   UNL A   1      49.179  27.932  29.068  1.00  0.00     0.135 A 
ATOM     66  C   UNL A   1      48.717  26.893  31.188  1.00  0.00     0.135 A 
ATOM     67  F   UNL A   1      48.772  28.514  27.929  1.00  0.00    -0.206 F 
ATOM     68  C   UNL A   1      50.543  27.730  29.254  1.00  0.00     0.059 A 
ATOM     69  C   UNL A   1      50.078  26.704  31.408  1.00  0.00     0.059 A 
ATOM     70  F   UNL A   1      47.860  26.475  32.132  1.00  0.00    -0.206 F 
ATOM     71  C   UNL A   1      50.982  27.112  30.427  1.00  0.00     0.060 A 
BRANCH  71  72
ATOM     72  S   UNL A   1      52.754  26.867  30.666  1.00  0.00     0.124 S 
ATOM     73  O   UNL A   1      53.213  28.236  30.883  1.00  0.00    -0.237 OA
ATOM     74  O   UNL A   1      52.797  25.993  31.835  1.00  0.00    -0.237 OA
ATOM     75  O   UNL A   1      53.183  26.251  29.415  1.00  0.00    -0.744 OA
ENDBRANCH  71  72
ENDBRANCH  39  64
ENDBRANCH  13  14
ENDBRANCH   6   8
ENDBRANCH   3   4
ENDBRANCH   2   3
ENDBRANCH   1   2
BRANCH   1  76
ATOM     76  C   UNL A   1      31.249  28.619  24.947  1.00  0.00     0.002 C 
BRANCH  76  77
ATOM     77  C   UNL A   1      30.464  27.633  24.074  1.00  0.00     0.021 C 
BRANCH  77  78
ATOM     78  C   UNL A   1      30.711  27.756  22.573  1.00  0.00     0.116 C 
BRANCH  78  79
ATOM     79  N   UNL A   1      32.003  28.356  22.284  1.00  0.00    -0.352 N 
ATOM     80  C   UNL A   1      33.249  27.786  22.343  1.00  0.00     0.251 C 
ATOM     81  H   UNL A   1      31.980  29.300  22.007  1.00  0.00     0.163 HD
ATOM     82  O   UNL A   1      34.256  28.484  22.264  1.00  0.00    -0.269 OA
BRANCH  80  83
ATOM     83  C   UNL A   1      33.383  26.321  22.486  1.00  0.00     0.043 A 
ATOM     84  C   UNL A   1      33.000  25.488  21.435  1.00  0.00     0.014 A 
ATOM     85  C   UNL A   1      33.822  25.776  23.697  1.00  0.00     0.061 A 
ATOM     86  C   UNL A   1      33.105  24.106  21.581  1.00  0.00     0.005 A 
ATOM     87  C   UNL A   1      33.924  24.392  23.850  1.00  0.00     0.130 A 
ATOM     88  C   UNL A   1      33.569  23.561  22.783  1.00  0.00     0.047 A 
BRANCH  87  89
ATOM     89  O   UNL A   1      34.315  23.751  25.009  1.00  0.00    -0.438 OA
BRANCH  89  90
ATOM     90  C   UNL A   1      34.117  22.387  25.066  1.00  0.00     0.234 A 
ATOM     91  N   UNL A   1      32.845  21.991  25.327  1.00  0.00    -0.214 NA
ATOM     92  C   UNL A   1      35.169  21.500  24.832  1.00  0.00     0.087 A 
ATOM     93  C   UNL A   1      32.599  20.657  25.322  1.00  0.00     0.200 A 
ATOM     94  C   UNL A   1      34.886  20.135  24.789  1.00  0.00     0.108 A 
ATOM     95  Br  UNL A   1      36.939  22.078  24.494  1.00  0.00    -0.045 Br
ATOM     96  C   UNL A   1      33.575  19.714  25.033  1.00  0.00     0.288 A 
BRANCH  96  97
ATOM     97  N   UNL A   1      33.215  18.307  24.929  1.00  0.00     0.064 N 
ATOM     98  O   UNL A   1      32.156  17.945  25.455  1.00  0.00    -0.258 OA
ATOM     99  O   UNL A   1      33.976  17.573  24.285  1.00  0.00    -0.258 OA
ENDBRANCH  96  97
ENDBRANCH  89  90
ENDBRANCH  87  89
ENDBRANCH  80  83
ENDBRANCH  78  79
ENDBRANCH  77  78
ENDBRANCH  76  77
ENDBRANCH   1  76
TORSDOF 19
ENDMDL
MODEL 3
REMARK VINA RESULT:     -11.1      5.207     10.244
REMARK SMILES O=C(NCCCCCCNC(=O)c1cccc(Oc2ncc([N+](=O)[O-])cc2Br)c1)c1ccc(-c2c3nc(c(-c4c(F)cc(S(=O)(=O)[O-])cc4F)c4ccc([nH]4)c(-c4c(F)cc(S(=O)(=O)[O-])cc4F)c4nc(c(-c5c(F)cc(S(=O)(=O)[O-])cc5F)c5ccc2[nH]5)C=C4)C=C3)cc1
REMARK SMILES IDX 6 1 5 2 4 3 3 4 1 5 2 6 30 8 31 9 95 10 32 11 94 12 33 13
REMARK SMILES IDX 34 14 35 15 88 16 36 17 93 18 87 19 89 20 37 21 92 22 86 23
REMARK SMILES IDX 85 24 38 26 72 27 51 28 71 29 52 30 55 31 70 32 90 33 53 34
REMARK SMILES IDX 54 35 69 37 91 38 56 39 39 40 40 41 49 42 41 43 42 44 48 45
REMARK SMILES IDX 50 46 43 47 44 48 45 49 46 50 47 51 73 52 74 53 83 54 75 55
REMARK SMILES IDX 76 56 82 57 84 58 77 59 78 60 79 61 80 62 81 63 57 64 58 65
REMARK SMILES IDX 67 66 59 67 60 68 66 69 68 70 61 71 62 72 63 73 64 74 65 75
REMARK SMILES IDX 7 76 8 77 9 78 10 79 11 80 12 82 13 83 14 84 29 85 15 86
REMARK SMILES IDX 17 87 16 88 18 89 19 90 20 91 27 92 21 93 26 94 28 95 22 96
REMARK SMILES IDX 23 97 24 98 25 99
REMARK H PARENT 3 7 89 25 55 36 10 81
REMARK Flexibility Score: inf
ROOT
ATOM      1  C   UNL A   1      37.816  22.268  25.213  1.00  0.00     0.002 C 
ENDROOT
BRANCH   1   2
ATOM      2  C   UNL A   1      37.265  23.288  26.209  1.00  0.00     0.021 C 
BRANCH   2   3
ATOM      3  C   UNL A   1      38.130  24.525  26.416  1.00  0.00     0.116 C 
BRANCH   3   4
ATOM      4  N   UNL A   1      39.514  24.319  26.023  1.00  0.00    -0.352 N 
ATOM      5  O   UNL A   1      41.724  24.764  25.929  1.00  0.00    -0.269 OA
ATOM      6  C   UNL A   1      40.640  24.967  26.471  1.00  0.00     0.251 C 
ATOM      7  H   UNL A   1      39.665  23.623  25.344  1.00  0.00     0.163 HD
BRANCH   6   8
ATOM      8  C   UNL A   1      40.535  25.926  27.593  1.00  0.00     0.039 A 
ATOM      9  C   UNL A   1      41.373  27.043  27.655  1.00  0.00     0.014 A 
ATOM     10  C   UNL A   1      39.585  25.706  28.595  1.00  0.00     0.014 A 
ATOM     11  C   UNL A   1      41.350  27.863  28.776  1.00  0.00     0.010 A 
ATOM     12  C   UNL A   1      39.507  26.581  29.683  1.00  0.00     0.010 A 
ATOM     13  C   UNL A   1      40.403  27.655  29.794  1.00  0.00    -0.014 A 
BRANCH  13  14
ATOM     14  C   UNL A   1      40.320  28.629  30.912  1.00  0.00     0.031 A 
ATOM     15  C   UNL A   1      41.244  28.549  32.094  1.00  0.00     0.074 A 
ATOM     16  C   UNL A   1      39.405  29.616  30.829  1.00  0.00     0.049 A 
ATOM     17  N   UNL A   1      41.314  29.339  33.136  1.00  0.00    -0.248 NA
ATOM     18  C   UNL A   1      42.212  27.441  32.119  1.00  0.00     0.031 C 
ATOM     19  C   UNL A   1      38.441  29.778  29.735  1.00  0.00     0.029 A 
ATOM     20  N   UNL A   1      39.145  30.676  31.656  1.00  0.00    -0.354 N 
ATOM     21  C   UNL A   1      42.318  28.821  33.946  1.00  0.00     0.074 A 
ATOM     22  C   UNL A   1      42.816  27.632  33.285  1.00  0.00     0.031 C 
ATOM     23  C   UNL A   1      37.728  30.895  29.937  1.00  0.00     0.029 A 
ATOM     24  C   UNL A   1      38.140  31.496  31.200  1.00  0.00     0.049 A 
ATOM     25  H   UNL A   1      39.631  30.837  32.497  1.00  0.00     0.167 HD
ATOM     26  C   UNL A   1      42.783  29.300  35.126  1.00  0.00     0.037 A 
ATOM     27  C   UNL A   1      37.594  32.599  31.743  1.00  0.00     0.037 A 
ATOM     28  C   UNL A   1      42.286  30.492  35.767  1.00  0.00     0.049 A 
ATOM     29  C   UNL A   1      38.122  33.099  33.056  1.00  0.00     0.074 A 
ATOM     30  C   UNL A   1      42.713  31.076  36.948  1.00  0.00     0.029 A 
ATOM     31  N   UNL A   1      41.251  31.283  35.286  1.00  0.00    -0.354 N 
ATOM     32  N   UNL A   1      39.093  32.611  33.791  1.00  0.00    -0.248 NA
ATOM     33  C   UNL A   1      37.480  34.293  33.617  1.00  0.00     0.031 C 
ATOM     34  C   UNL A   1      41.911  32.195  37.201  1.00  0.00     0.029 A 
ATOM     35  C   UNL A   1      41.014  32.337  36.155  1.00  0.00     0.049 A 
ATOM     36  H   UNL A   1      40.758  31.119  34.449  1.00  0.00     0.167 HD
ATOM     37  C   UNL A   1      39.185  33.445  34.897  1.00  0.00     0.074 A 
ATOM     38  C   UNL A   1      38.187  34.483  34.722  1.00  0.00     0.031 C 
ATOM     39  C   UNL A   1      40.014  33.357  35.966  1.00  0.00     0.037 A 
BRANCH  26  40
ATOM     40  C   UNL A   1      43.883  28.537  35.813  1.00  0.00     0.058 A 
ATOM     41  C   UNL A   1      43.607  27.484  36.699  1.00  0.00     0.135 A 
ATOM     42  C   UNL A   1      45.230  28.814  35.529  1.00  0.00     0.135 A 
ATOM     43  F   UNL A   1      42.337  27.183  37.016  1.00  0.00    -0.206 F 
ATOM     44  C   UNL A   1      44.625  26.742  37.288  1.00  0.00     0.059 A 
ATOM     45  C   UNL A   1      46.265  28.072  36.090  1.00  0.00     0.059 A 
ATOM     46  F   UNL A   1      45.551  29.811  34.688  1.00  0.00    -0.206 F 
ATOM     47  C   UNL A   1      45.953  27.042  36.977  1.00  0.00     0.060 A 
BRANCH  47  48
ATOM     48  S   UNL A   1      47.263  26.053  37.731  1.00  0.00     0.124 S 
ATOM     49  O   UNL A   1      46.730  25.842  39.074  1.00  0.00    -0.237 OA
ATOM     50  O   UNL A   1      47.298  24.874  36.872  1.00  0.00    -0.237 OA
ATOM     51  O   UNL A   1      48.434  26.920  37.651  1.00  0.00    -0.744 OA
ENDBRANCH  47  48
ENDBRANCH  26  40
BRANCH  27  52
ATOM     52  C   UNL A   1      36.479  33.292  31.047  1.00  0.00     0.058 A 
ATOM     53  C   UNL A   1      35.174  33.262  31.557  1.00  0.00     0.135 A 
ATOM     54  C   UNL A   1      36.704  34.015  29.864  1.00  0.00     0.135 A 
ATOM     55  F   UNL A   1      34.910  32.581  32.684  1.00  0.00    -0.206 F 
ATOM     56  C   UNL A   1      34.125  33.908  30.911  1.00  0.00     0.059 A 
ATOM     57  C   UNL A   1      35.678  34.693  29.216  1.00  0.00     0.059 A 
ATOM     58  F   UNL A   1      37.940  34.091  29.346  1.00  0.00    -0.206 F 
ATOM     59  C   UNL A   1      34.389  34.622  29.741  1.00  0.00     0.060 A 
BRANCH  59  60
ATOM     60  S   UNL A   1      33.031  35.495  28.931  1.00  0.00     0.124 S 
ATOM     61  O   UNL A   1      32.268  35.974  30.077  1.00  0.00    -0.237 OA
ATOM     62  O   UNL A   1      33.735  36.514  28.159  1.00  0.00    -0.237 OA
ATOM     63  O   UNL A   1      32.391  34.451  28.137  1.00  0.00    -0.744 OA
ENDBRANCH  59  60
ENDBRANCH  27  52
BRANCH  39  64
ATOM     64  C   UNL A   1      39.884  34.423  37.017  1.00  0.00     0.058 A 
ATOM     65  C   UNL A   1      38.976  34.297  38.081  1.00  0.00     0.135 A 
ATOM     66  C   UNL A   1      40.687  35.572  36.968  1.00  0.00     0.135 A 
ATOM     67  F   UNL A   1      38.179  33.221  38.165  1.00  0.00    -0.206 F 
ATOM     68  C   UNL A   1      38.848  35.291  39.045  1.00  0.00     0.059 A 
ATOM     69  C   UNL A   1      40.594  36.567  37.937  1.00  0.00     0.059 A 
ATOM     70  F   UNL A   1      41.575  35.736  35.976  1.00  0.00    -0.206 F 
ATOM     71  C   UNL A   1      39.660  36.425  38.963  1.00  0.00     0.060 A 
BRANCH  71  72
ATOM     72  S   UNL A   1      39.496  37.702  40.227  1.00  0.00     0.124 S 
ATOM     73  O   UNL A   1      40.738  38.449  40.051  1.00  0.00    -0.237 OA
ATOM     74  O   UNL A   1      38.278  38.395  39.819  1.00  0.00    -0.237 OA
ATOM     75  O   UNL A   1      39.391  36.940  41.467  1.00  0.00    -0.744 OA
ENDBRANCH  71  72
ENDBRANCH  39  64
ENDBRANCH  13  14
ENDBRANCH   6   8
ENDBRANCH   3   4
ENDBRANCH   2   3
ENDBRANCH   1   2
BRANCH   1  76
ATOM     76  C   UNL A   1      36.974  22.048  23.954  1.00  0.00     0.002 C 
BRANCH  76  77
ATOM     77  C   UNL A   1      35.606  22.740  23.937  1.00  0.00     0.021 C 
BRANCH  77  78
ATOM     78  C   UNL A   1      34.413  21.826  24.202  1.00  0.00     0.116 C 
BRANCH  78  79
ATOM     79  N   UNL A   1      34.353  21.402  25.591  1.00  0.00    -0.352 N 
ATOM     80  C   UNL A   1      33.856  22.078  26.676  1.00  0.00     0.251 C 
ATOM     81  H   UNL A   1      34.719  20.508  25.778  1.00  0.00     0.163 HD
ATOM     82  O   UNL A   1      34.063  21.665  27.813  1.00  0.00    -0.269 OA
BRANCH  80  83
ATOM     83  C   UNL A   1      33.050  23.300  26.477  1.00  0.00     0.043 A 
ATOM     84  C   UNL A   1      31.659  23.231  26.566  1.00  0.00     0.014 A 
ATOM     85  C   UNL A   1      33.678  24.500  26.127  1.00  0.00     0.061 A 
ATOM     86  C   UNL A   1      30.900  24.381  26.354  1.00  0.00     0.005 A 
ATOM     87  C   UNL A   1      32.921  25.653  25.909  1.00  0.00     0.130 A 
ATOM     88  C   UNL A   1      31.530  25.588  26.031  1.00  0.00     0.047 A 
BRANCH  87  89
ATOM     89  O   UNL A   1      33.437  26.877  25.531  1.00  0.00    -0.438 OA
BRANCH  89  90
ATOM     90  C   UNL A   1      32.604  27.710  24.813  1.00  0.00     0.234 A 
ATOM     91  N   UNL A   1      32.382  27.345  23.524  1.00  0.00    -0.214 NA
ATOM     92  C   UNL A   1      32.018  28.827  25.411  1.00  0.00     0.087 A 
ATOM     93  C   UNL A   1      31.514  28.103  22.808  1.00  0.00     0.200 A 
ATOM     94  C   UNL A   1      31.097  29.567  24.670  1.00  0.00     0.108 A 
ATOM     95  Br  UNL A   1      32.363  29.327  27.203  1.00  0.00    -0.045 Br
ATOM     96  C   UNL A   1      30.840  29.188  23.349  1.00  0.00     0.288 A 
BRANCH  96  97
ATOM     97  N   UNL A   1      29.835  29.885  22.558  1.00  0.00     0.064 N 
ATOM     98  O   UNL A   1      29.207  30.799  23.105  1.00  0.00    -0.258 OA
ATOM     99  O   UNL A   1      29.704  29.541  21.376  1.00  0.00    -0.258 OA
ENDBRANCH  96  97
ENDBRANCH  89  90
ENDBRANCH  87  89
ENDBRANCH  80  83
ENDBRANCH  78  79
ENDBRANCH  77  78
ENDBRANCH  76  77
ENDBRANCH   1  76
TORSDOF 19
ENDMDL
