MODEL 1
REMARK VINA RESULT:     -11.9      0.000      0.000
REMARK SMILES O=C(NCCCCCCNC(=O)c1ccc(-c2c3nc(c(-c4c(F)cc(S(=O)(=O)[O-])cc4F)c4ccc([nH]4)c(-c4c(F)cc(S(=O)(=O)[O-])cc4F)c4nc(c(-c5c(F)cc(S(=O)(=O)[O-])cc5F)c5ccc2[nH]5)C=C4)C=C3)cc1)c1ccc(NS(=O)(=O)C2=Cc3ccccc3CC2)cc1
REMARK SMILES IDX 6 1 5 2 4 3 3 4 1 5 2 6 79 8 80 9 98 10 81 11 97 12 82 13
REMARK SMILES IDX 83 14 84 16 85 17 86 18 87 19 88 20 96 21 89 22 95 23 90 24
REMARK SMILES IDX 94 25 91 26 93 27 92 28 7 29 8 30 9 31 10 32 11 33 12 35
REMARK SMILES IDX 13 36 14 37 78 38 15 39 77 40 16 41 17 42 18 43 71 44 19 45
REMARK SMILES IDX 76 46 70 47 72 48 20 49 75 50 69 51 68 52 21 54 55 55 34 56
REMARK SMILES IDX 54 57 35 58 38 59 53 60 73 61 36 62 37 63 52 65 74 66 39 67
REMARK SMILES IDX 22 68 23 69 32 70 24 71 25 72 31 73 33 74 26 75 27 76 28 77
REMARK SMILES IDX 29 78 30 79 56 80 57 81 66 82 58 83 59 84 65 85 67 86 60 87
REMARK SMILES IDX 61 88 62 89 63 90 64 91 40 92 41 93 50 94 42 95 43 96 49 97
REMARK SMILES IDX 51 98 44 99 45 100 46 101 47 102 48 103
REMARK H PARENT 3 7 83 15 10 34 72 53 38 64
REMARK Flexibility Score: inf
ROOT
ATOM      1  C   UNL A   1      35.330  23.440  26.733  1.00  0.00     0.002 C 
ENDROOT
BRANCH   1   2
ATOM      2  C   UNL A   1      34.917  21.974  26.890  1.00  0.00     0.021 C 
BRANCH   2   3
ATOM      3  C   UNL A   1      35.178  21.091  25.673  1.00  0.00     0.116 C 
BRANCH   3   4
ATOM      4  N   UNL A   1      34.139  20.093  25.490  1.00  0.00    -0.352 N 
ATOM      5  O   UNL A   1      32.035  19.366  25.089  1.00  0.00    -0.269 OA
ATOM      6  C   UNL A   1      32.860  20.272  25.027  1.00  0.00     0.251 C 
ATOM      7  H   UNL A   1      34.384  19.169  25.731  1.00  0.00     0.163 HD
BRANCH   6   8
ATOM      8  C   UNL A   1      32.479  21.572  24.440  1.00  0.00     0.039 A 
ATOM      9  C   UNL A   1      31.436  22.315  24.997  1.00  0.00     0.016 A 
ATOM     10  C   UNL A   1      33.216  22.088  23.370  1.00  0.00     0.016 A 
ATOM     11  C   UNL A   1      31.111  23.561  24.465  1.00  0.00     0.027 A 
ATOM     12  C   UNL A   1      32.875  23.334  22.828  1.00  0.00     0.027 A 
ATOM     13  C   UNL A   1      31.813  24.067  23.370  1.00  0.00     0.049 A 
BRANCH  13  14
ATOM     14  N   UNL A   1      31.571  25.405  22.930  1.00  0.00    -0.280 N 
ATOM     15  H   UNL A   1      30.942  25.568  22.191  1.00  0.00     0.180 HD
BRANCH  14  16
ATOM     16  S   UNL A   1      32.361  26.720  23.673  1.00  0.00     0.258 S 
ATOM     17  O   UNL A   1      33.600  26.843  22.933  1.00  0.00    -0.202 OA
ATOM     18  O   UNL A   1      31.397  27.803  23.607  1.00  0.00    -0.202 OA
BRANCH  16  19
ATOM     19  C   UNL A   1      32.683  26.325  25.365  1.00  0.00     0.066 C 
ATOM     20  C   UNL A   1      33.858  26.767  25.866  1.00  0.00     0.026 C 
ATOM     21  C   UNL A   1      31.487  26.447  26.280  1.00  0.00     0.055 C 
ATOM     22  C   UNL A   1      33.789  28.119  26.495  1.00  0.00    -0.021 A 
ATOM     23  C   UNL A   1      31.257  27.916  26.665  1.00  0.00     0.041 C 
ATOM     24  C   UNL A   1      34.972  28.830  26.719  1.00  0.00     0.008 A 
ATOM     25  C   UNL A   1      32.549  28.679  26.867  1.00  0.00    -0.040 A 
ATOM     26  C   UNL A   1      34.923  30.114  27.266  1.00  0.00     0.001 A 
ATOM     27  C   UNL A   1      32.513  29.977  27.393  1.00  0.00     0.004 A 
ATOM     28  C   UNL A   1      33.695  30.691  27.588  1.00  0.00     0.000 A 
ENDBRANCH  16  19
ENDBRANCH  14  16
ENDBRANCH  13  14
ENDBRANCH   6   8
ENDBRANCH   3   4
ENDBRANCH   2   3
ENDBRANCH   1   2
BRANCH   1  29
ATOM     29  C   UNL A   1      35.783  23.854  25.331  1.00  0.00     0.002 C 
BRANCH  29  30
ATOM     30  C   UNL A   1      37.295  23.992  25.133  1.00  0.00     0.021 C 
BRANCH  30  31
ATOM     31  C   UNL A   1      38.124  24.070  26.411  1.00  0.00     0.116 C 
BRANCH  31  32
ATOM     32  N   UNL A   1      39.523  23.746  26.197  1.00  0.00    -0.352 N 
ATOM     33  C   UNL A   1      40.648  24.374  26.672  1.00  0.00     0.251 C 
ATOM     34  H   UNL A   1      39.690  22.962  25.625  1.00  0.00     0.163 HD
ATOM     35  O   UNL A   1      41.755  24.027  26.267  1.00  0.00    -0.269 OA
BRANCH  33  36
ATOM     36  C   UNL A   1      40.530  25.482  27.647  1.00  0.00     0.039 A 
ATOM     37  C   UNL A   1      39.525  25.417  28.616  1.00  0.00     0.014 A 
ATOM     38  C   UNL A   1      41.390  26.584  27.603  1.00  0.00     0.014 A 
ATOM     39  C   UNL A   1      39.420  26.424  29.578  1.00  0.00     0.010 A 
ATOM     40  C   UNL A   1      41.322  27.557  28.599  1.00  0.00     0.010 A 
ATOM     41  C   UNL A   1      40.337  27.488  29.597  1.00  0.00    -0.014 A 
BRANCH  41  42
ATOM     42  C   UNL A   1      40.284  28.530  30.655  1.00  0.00     0.031 A 
ATOM     43  C   UNL A   1      41.159  28.418  31.873  1.00  0.00     0.074 A 
ATOM     44  C   UNL A   1      39.404  29.545  30.546  1.00  0.00     0.049 A 
ATOM     45  N   UNL A   1      41.193  29.179  32.937  1.00  0.00    -0.248 NA
ATOM     46  C   UNL A   1      42.103  27.289  31.910  1.00  0.00     0.031 C 
ATOM     47  C   UNL A   1      38.468  29.738  29.436  1.00  0.00     0.029 A 
ATOM     48  N   UNL A   1      39.140  30.596  31.388  1.00  0.00    -0.354 N 
ATOM     49  C   UNL A   1      42.151  28.619  33.773  1.00  0.00     0.074 A 
ATOM     50  C   UNL A   1      42.640  27.426  33.114  1.00  0.00     0.031 C 
ATOM     51  C   UNL A   1      37.739  30.843  29.663  1.00  0.00     0.029 A 
ATOM     52  C   UNL A   1      38.132  31.420  30.944  1.00  0.00     0.049 A 
ATOM     53  H   UNL A   1      39.626  30.746  32.231  1.00  0.00     0.167 HD
ATOM     54  C   UNL A   1      42.600  29.068  34.970  1.00  0.00     0.037 A 
ATOM     55  C   UNL A   1      37.579  32.510  31.511  1.00  0.00     0.037 A 
ATOM     56  C   UNL A   1      42.128  30.266  35.612  1.00  0.00     0.049 A 
ATOM     57  C   UNL A   1      38.103  32.998  32.833  1.00  0.00     0.074 A 
ATOM     58  C   UNL A   1      42.545  30.824  36.809  1.00  0.00     0.029 A 
ATOM     59  N   UNL A   1      41.137  31.097  35.110  1.00  0.00    -0.354 N 
ATOM     60  N   UNL A   1      39.041  32.479  33.589  1.00  0.00    -0.248 NA
ATOM     61  C   UNL A   1      37.502  34.225  33.377  1.00  0.00     0.031 C 
ATOM     62  C   UNL A   1      41.788  31.977  37.044  1.00  0.00     0.029 A 
ATOM     63  C   UNL A   1      40.925  32.158  35.976  1.00  0.00     0.049 A 
ATOM     64  H   UNL A   1      40.655  30.953  34.265  1.00  0.00     0.167 HD
ATOM     65  C   UNL A   1      39.157  33.325  34.685  1.00  0.00     0.074 A 
ATOM     66  C   UNL A   1      38.203  34.398  34.488  1.00  0.00     0.031 C 
ATOM     67  C   UNL A   1      39.977  33.223  35.760  1.00  0.00     0.037 A 
BRANCH  54  68
ATOM     68  C   UNL A   1      43.669  28.264  35.657  1.00  0.00     0.058 A 
ATOM     69  C   UNL A   1      43.347  27.264  36.588  1.00  0.00     0.135 A 
ATOM     70  C   UNL A   1      45.025  28.470  35.358  1.00  0.00     0.135 A 
ATOM     71  F   UNL A   1      42.067  27.038  36.921  1.00  0.00    -0.206 F 
ATOM     72  C   UNL A   1      44.334  26.514  37.219  1.00  0.00     0.059 A 
ATOM     73  C   UNL A   1      46.028  27.713  35.960  1.00  0.00     0.059 A 
ATOM     74  F   UNL A   1      45.388  29.414  34.476  1.00  0.00    -0.206 F 
ATOM     75  C   UNL A   1      45.672  26.748  36.901  1.00  0.00     0.060 A 
BRANCH  75  76
ATOM     76  S   UNL A   1      46.940  25.764  37.727  1.00  0.00     0.124 S 
ATOM     77  O   UNL A   1      46.463  24.407  37.475  1.00  0.00    -0.237 OA
ATOM     78  O   UNL A   1      48.153  26.152  37.013  1.00  0.00    -0.237 OA
ATOM     79  O   UNL A   1      46.863  26.208  39.115  1.00  0.00    -0.744 OA
ENDBRANCH  75  76
ENDBRANCH  54  68
BRANCH  55  80
ATOM     80  C   UNL A   1      36.471  33.222  30.820  1.00  0.00     0.058 A 
ATOM     81  C   UNL A   1      36.711  33.998  29.678  1.00  0.00     0.135 A 
ATOM     82  C   UNL A   1      35.150  33.129  31.284  1.00  0.00     0.135 A 
ATOM     83  F   UNL A   1      37.960  34.120  29.201  1.00  0.00    -0.206 F 
ATOM     84  C   UNL A   1      35.684  34.673  29.027  1.00  0.00     0.059 A 
ATOM     85  C   UNL A   1      34.102  33.776  30.638  1.00  0.00     0.059 A 
ATOM     86  F   UNL A   1      34.866  32.382  32.363  1.00  0.00    -0.206 F 
ATOM     87  C   UNL A   1      34.382  34.555  29.515  1.00  0.00     0.060 A 
BRANCH  87  88
ATOM     88  S   UNL A   1      33.044  35.394  28.638  1.00  0.00     0.124 S 
ATOM     89  O   UNL A   1      32.467  34.299  27.868  1.00  0.00    -0.237 OA
ATOM     90  O   UNL A   1      32.228  35.904  29.735  1.00  0.00    -0.237 OA
ATOM     91  O   UNL A   1      33.743  36.414  27.862  1.00  0.00    -0.744 OA
ENDBRANCH  87  88
ENDBRANCH  55  80
BRANCH  67  92
ATOM     92  C   UNL A   1      39.904  34.312  36.792  1.00  0.00     0.058 A 
ATOM     93  C   UNL A   1      39.125  34.176  37.951  1.00  0.00     0.135 A 
ATOM     94  C   UNL A   1      40.661  35.485  36.642  1.00  0.00     0.135 A 
ATOM     95  F   UNL A   1      38.379  33.076  38.138  1.00  0.00    -0.206 F 
ATOM     96  C   UNL A   1      39.084  35.174  38.918  1.00  0.00     0.059 A 
ATOM     97  C   UNL A   1      40.652  36.487  37.607  1.00  0.00     0.059 A 
ATOM     98  F   UNL A   1      41.429  35.660  35.554  1.00  0.00    -0.206 F 
ATOM     99  C   UNL A   1      39.852  36.326  38.738  1.00  0.00     0.060 A 
BRANCH  99 100
ATOM    100  S   UNL A   1      39.818  37.600  40.017  1.00  0.00     0.124 S 
ATOM    101  O   UNL A   1      41.148  38.186  39.882  1.00  0.00    -0.237 OA
ATOM    102  O   UNL A   1      38.707  38.445  39.591  1.00  0.00    -0.237 OA
ATOM    103  O   UNL A   1      39.587  36.843  41.244  1.00  0.00    -0.744 OA
ENDBRANCH  99 100
ENDBRANCH  67  92
ENDBRANCH  41  42
ENDBRANCH  33  36
ENDBRANCH  31  32
ENDBRANCH  30  31
ENDBRANCH  29  30
ENDBRANCH   1  29
TORSDOF 19
ENDMDL
MODEL 2
REMARK VINA RESULT:     -11.8      1.453      2.313
REMARK SMILES O=C(NCCCCCCNC(=O)c1ccc(-c2c3nc(c(-c4c(F)cc(S(=O)(=O)[O-])cc4F)c4ccc([nH]4)c(-c4c(F)cc(S(=O)(=O)[O-])cc4F)c4nc(c(-c5c(F)cc(S(=O)(=O)[O-])cc5F)c5ccc2[nH]5)C=C4)C=C3)cc1)c1ccc(NS(=O)(=O)C2=Cc3ccccc3CC2)cc1
REMARK SMILES IDX 6 1 5 2 4 3 3 4 1 5 2 6 79 8 80 9 98 10 81 11 97 12 82 13
REMARK SMILES IDX 83 14 84 16 85 17 86 18 87 19 88 20 96 21 89 22 95 23 90 24
REMARK SMILES IDX 94 25 91 26 93 27 92 28 7 29 8 30 9 31 10 32 11 33 12 35
REMARK SMILES IDX 13 36 14 37 78 38 15 39 77 40 16 41 17 42 18 43 71 44 19 45
REMARK SMILES IDX 76 46 70 47 72 48 20 49 75 50 69 51 68 52 21 54 55 55 34 56
REMARK SMILES IDX 54 57 35 58 38 59 53 60 73 61 36 62 37 63 52 65 74 66 39 67
REMARK SMILES IDX 22 68 23 69 32 70 24 71 25 72 31 73 33 74 26 75 27 76 28 77
REMARK SMILES IDX 29 78 30 79 56 80 57 81 66 82 58 83 59 84 65 85 67 86 60 87
REMARK SMILES IDX 61 88 62 89 63 90 64 91 40 92 41 93 50 94 42 95 43 96 49 97
REMARK SMILES IDX 51 98 44 99 45 100 46 101 47 102 48 103
REMARK H PARENT 3 7 83 15 10 34 72 53 38 64
REMARK Flexibility Score: inf
ROOT
ATOM      1  C   UNL A   1      35.196  23.136  26.651  1.00  0.00     0.002 C 
ENDROOT
BRANCH   1   2
ATOM      2  C   UNL A   1      35.173  21.607  26.569  1.00  0.00     0.021 C 
BRANCH   2   3
ATOM      3  C   UNL A   1      35.131  21.033  25.156  1.00  0.00     0.116 C 
BRANCH   3   4
ATOM      4  N   UNL A   1      34.232  19.896  25.056  1.00  0.00    -0.352 N 
ATOM      5  O   UNL A   1      32.225  18.853  25.099  1.00  0.00    -0.269 OA
ATOM      6  C   UNL A   1      32.861  19.898  25.007  1.00  0.00     0.251 C 
ATOM      7  H   UNL A   1      34.661  19.010  25.020  1.00  0.00     0.163 HD
BRANCH   6   8
ATOM      8  C   UNL A   1      32.145  21.179  24.834  1.00  0.00     0.039 A 
ATOM      9  C   UNL A   1      31.494  21.770  25.918  1.00  0.00     0.016 A 
ATOM     10  C   UNL A   1      32.187  21.831  23.599  1.00  0.00     0.016 A 
ATOM     11  C   UNL A   1      30.858  23.000  25.759  1.00  0.00     0.027 A 
ATOM     12  C   UNL A   1      31.533  23.058  23.438  1.00  0.00     0.027 A 
ATOM     13  C   UNL A   1      30.857  23.639  24.518  1.00  0.00     0.049 A 
BRANCH  13  14
ATOM     14  N   UNL A   1      30.334  24.964  24.404  1.00  0.00    -0.280 N 
ATOM     15  H   UNL A   1      29.389  25.095  24.166  1.00  0.00     0.180 HD
BRANCH  14  16
ATOM     16  S   UNL A   1      31.334  26.318  24.675  1.00  0.00     0.258 S 
ATOM     17  O   UNL A   1      30.629  27.070  25.693  1.00  0.00    -0.202 OA
ATOM     18  O   UNL A   1      32.630  25.749  24.999  1.00  0.00    -0.202 OA
BRANCH  16  19
ATOM     19  C   UNL A   1      31.462  27.256  23.183  1.00  0.00     0.066 C 
ATOM     20  C   UNL A   1      30.310  27.453  22.504  1.00  0.00     0.026 C 
ATOM     21  C   UNL A   1      32.394  28.442  23.261  1.00  0.00     0.055 C 
ATOM     22  C   UNL A   1      29.577  28.697  22.883  1.00  0.00    -0.021 A 
ATOM     23  C   UNL A   1      31.695  29.625  23.947  1.00  0.00     0.041 C 
ATOM     24  C   UNL A   1      28.231  28.832  22.531  1.00  0.00     0.008 A 
ATOM     25  C   UNL A   1      30.230  29.734  23.584  1.00  0.00    -0.040 A 
ATOM     26  C   UNL A   1      27.519  29.970  22.914  1.00  0.00     0.001 A 
ATOM     27  C   UNL A   1      29.498  30.859  23.982  1.00  0.00     0.004 A 
ATOM     28  C   UNL A   1      28.147  30.973  23.651  1.00  0.00     0.000 A 
ENDBRANCH  16  19
ENDBRANCH  14  16
ENDBRANCH  13  14
ENDBRANCH   6   8
ENDBRANCH   3   4
ENDBRANCH   2   3
ENDBRANCH   1   2
BRANCH   1  29
ATOM     29  C   UNL A   1      35.615  23.862  25.369  1.00  0.00     0.002 C 
BRANCH  29  30
ATOM     30  C   UNL A   1      37.123  23.964  25.125  1.00  0.00     0.021 C 
BRANCH  30  31
ATOM     31  C   UNL A   1      37.982  24.156  26.370  1.00  0.00     0.116 C 
BRANCH  31  32
ATOM     32  N   UNL A   1      39.372  23.790  26.159  1.00  0.00    -0.352 N 
ATOM     33  C   UNL A   1      40.514  24.380  26.641  1.00  0.00     0.251 C 
ATOM     34  H   UNL A   1      39.516  23.004  25.584  1.00  0.00     0.163 HD
ATOM     35  O   UNL A   1      41.611  24.001  26.238  1.00  0.00    -0.269 OA
BRANCH  33  36
ATOM     36  C   UNL A   1      40.427  25.487  27.621  1.00  0.00     0.039 A 
ATOM     37  C   UNL A   1      39.454  25.421  28.622  1.00  0.00     0.014 A 
ATOM     38  C   UNL A   1      41.284  26.590  27.550  1.00  0.00     0.014 A 
ATOM     39  C   UNL A   1      39.380  26.426  29.588  1.00  0.00     0.010 A 
ATOM     40  C   UNL A   1      41.248  27.562  28.548  1.00  0.00     0.010 A 
ATOM     41  C   UNL A   1      40.296  27.490  29.578  1.00  0.00    -0.014 A 
BRANCH  41  42
ATOM     42  C   UNL A   1      40.278  28.531  30.638  1.00  0.00     0.031 A 
ATOM     43  C   UNL A   1      41.178  28.409  31.837  1.00  0.00     0.074 A 
ATOM     44  C   UNL A   1      39.405  29.555  30.551  1.00  0.00     0.049 A 
ATOM     45  N   UNL A   1      41.243  29.168  32.901  1.00  0.00    -0.248 NA
ATOM     46  C   UNL A   1      42.112  27.271  31.851  1.00  0.00     0.031 C 
ATOM     47  C   UNL A   1      38.446  29.759  29.463  1.00  0.00     0.029 A 
ATOM     48  N   UNL A   1      39.170  30.607  31.400  1.00  0.00    -0.354 N 
ATOM     49  C   UNL A   1      42.215  28.597  33.714  1.00  0.00     0.074 A 
ATOM     50  C   UNL A   1      42.677  27.400  33.042  1.00  0.00     0.031 C 
ATOM     51  C   UNL A   1      37.734  30.871  29.707  1.00  0.00     0.029 A 
ATOM     52  C   UNL A   1      38.161  31.442  30.980  1.00  0.00     0.049 A 
ATOM     53  H   UNL A   1      39.677  30.751  32.232  1.00  0.00     0.167 HD
ATOM     54  C   UNL A   1      42.695  29.040  34.901  1.00  0.00     0.037 A 
ATOM     55  C   UNL A   1      37.631  32.536  31.561  1.00  0.00     0.037 A 
ATOM     56  C   UNL A   1      42.249  30.242  35.556  1.00  0.00     0.049 A 
ATOM     57  C   UNL A   1      38.189  33.017  32.871  1.00  0.00     0.074 A 
ATOM     58  C   UNL A   1      42.699  30.794  36.743  1.00  0.00     0.029 A 
ATOM     59  N   UNL A   1      41.255  31.083  35.077  1.00  0.00    -0.354 N 
ATOM     60  N   UNL A   1      39.139  32.487  33.605  1.00  0.00    -0.248 NA
ATOM     61  C   UNL A   1      37.613  34.249  33.430  1.00  0.00     0.031 C 
ATOM     62  C   UNL A   1      41.958  31.953  36.997  1.00  0.00     0.029 A 
ATOM     63  C   UNL A   1      41.073  32.144  35.949  1.00  0.00     0.049 A 
ATOM     64  H   UNL A   1      40.753  30.945  34.242  1.00  0.00     0.167 HD
ATOM     65  C   UNL A   1      39.288  33.331  34.700  1.00  0.00     0.074 A 
ATOM     66  C   UNL A   1      38.340  34.414  34.526  1.00  0.00     0.031 C 
ATOM     67  C   UNL A   1      40.131  33.219  35.756  1.00  0.00     0.037 A 
BRANCH  54  68
ATOM     68  C   UNL A   1      43.771  28.225  35.563  1.00  0.00     0.058 A 
ATOM     69  C   UNL A   1      43.461  27.226  36.498  1.00  0.00     0.135 A 
ATOM     70  C   UNL A   1      45.122  28.419  35.235  1.00  0.00     0.135 A 
ATOM     71  F   UNL A   1      42.186  27.010  36.859  1.00  0.00    -0.206 F 
ATOM     72  C   UNL A   1      44.454  26.465  37.106  1.00  0.00     0.059 A 
ATOM     73  C   UNL A   1      46.131  27.651  35.812  1.00  0.00     0.059 A 
ATOM     74  F   UNL A   1      45.474  29.362  34.346  1.00  0.00    -0.206 F 
ATOM     75  C   UNL A   1      45.786  26.687  36.759  1.00  0.00     0.060 A 
BRANCH  75  76
ATOM     76  S   UNL A   1      47.064  25.690  37.555  1.00  0.00     0.124 S 
ATOM     77  O   UNL A   1      46.313  24.490  37.911  1.00  0.00    -0.237 OA
ATOM     78  O   UNL A   1      48.047  25.529  36.488  1.00  0.00    -0.237 OA
ATOM     79  O   UNL A   1      47.491  26.519  38.678  1.00  0.00    -0.744 OA
ENDBRANCH  75  76
ENDBRANCH  54  68
BRANCH  55  80
ATOM     80  C   UNL A   1      36.515  33.259  30.896  1.00  0.00     0.058 A 
ATOM     81  C   UNL A   1      35.204  33.177  31.390  1.00  0.00     0.135 A 
ATOM     82  C   UNL A   1      36.739  34.055  29.762  1.00  0.00     0.135 A 
ATOM     83  F   UNL A   1      34.941  32.424  32.469  1.00  0.00    -0.206 F 
ATOM     84  C   UNL A   1      34.152  33.844  30.773  1.00  0.00     0.059 A 
ATOM     85  C   UNL A   1      35.707  34.750  29.142  1.00  0.00     0.059 A 
ATOM     86  F   UNL A   1      37.979  34.180  29.263  1.00  0.00    -0.206 F 
ATOM     87  C   UNL A   1      34.413  34.629  29.650  1.00  0.00     0.060 A 
BRANCH  87  88
ATOM     88  S   UNL A   1      33.050  35.532  28.882  1.00  0.00     0.124 S 
ATOM     89  O   UNL A   1      33.764  36.562  28.136  1.00  0.00    -0.237 OA
ATOM     90  O   UNL A   1      32.405  34.495  28.082  1.00  0.00    -0.237 OA
ATOM     91  O   UNL A   1      32.275  36.002  30.026  1.00  0.00    -0.744 OA
ENDBRANCH  87  88
ENDBRANCH  55  80
BRANCH  67  92
ATOM     92  C   UNL A   1      40.092  34.307  36.790  1.00  0.00     0.058 A 
ATOM     93  C   UNL A   1      40.961  35.408  36.733  1.00  0.00     0.135 A 
ATOM     94  C   UNL A   1      39.141  34.273  37.822  1.00  0.00     0.135 A 
ATOM     95  F   UNL A   1      41.892  35.483  35.769  1.00  0.00    -0.206 F 
ATOM     96  C   UNL A   1      40.901  36.428  37.676  1.00  0.00     0.059 A 
ATOM     97  C   UNL A   1      39.048  35.294  38.763  1.00  0.00     0.059 A 
ATOM     98  F   UNL A   1      38.281  33.246  37.916  1.00  0.00    -0.206 F 
ATOM     99  C   UNL A   1      39.941  36.363  38.687  1.00  0.00     0.060 A 
BRANCH  99 100
ATOM    100  S   UNL A   1      39.849  37.711  39.885  1.00  0.00     0.124 S 
ATOM    101  O   UNL A   1      39.886  36.983  41.149  1.00  0.00    -0.237 OA
ATOM    102  O   UNL A   1      41.039  38.495  39.568  1.00  0.00    -0.237 OA
ATOM    103  O   UNL A   1      38.578  38.358  39.570  1.00  0.00    -0.744 OA
ENDBRANCH  99 100
ENDBRANCH  67  92
ENDBRANCH  41  42
ENDBRANCH  33  36
ENDBRANCH  31  32
ENDBRANCH  30  31
ENDBRANCH  29  30
ENDBRANCH   1  29
TORSDOF 19
ENDMDL
MODEL 3
REMARK VINA RESULT:     -11.3      4.785      5.625
REMARK SMILES O=C(NCCCCCCNC(=O)c1ccc(-c2c3nc(c(-c4c(F)cc(S(=O)(=O)[O-])cc4F)c4ccc([nH]4)c(-c4c(F)cc(S(=O)(=O)[O-])cc4F)c4nc(c(-c5c(F)cc(S(=O)(=O)[O-])cc5F)c5ccc2[nH]5)C=C4)C=C3)cc1)c1ccc(NS(=O)(=O)C2=Cc3ccccc3CC2)cc1
REMARK SMILES IDX 6 1 5 2 4 3 3 4 1 5 2 6 79 8 80 9 98 10 81 11 97 12 82 13
REMARK SMILES IDX 83 14 84 16 85 17 86 18 87 19 88 20 96 21 89 22 95 23 90 24
REMARK SMILES IDX 94 25 91 26 93 27 92 28 7 29 8 30 9 31 10 32 11 33 12 35
REMARK SMILES IDX 13 36 14 37 78 38 15 39 77 40 16 41 17 42 18 43 71 44 19 45
REMARK SMILES IDX 76 46 70 47 72 48 20 49 75 50 69 51 68 52 21 54 55 55 34 56
REMARK SMILES IDX 54 57 35 58 38 59 53 60 73 61 36 62 37 63 52 65 74 66 39 67
REMARK SMILES IDX 22 68 23 69 32 70 24 71 25 72 31 73 33 74 26 75 27 76 28 77
REMARK SMILES IDX 29 78 30 79 56 80 57 81 66 82 58 83 59 84 65 85 67 86 60 87
REMARK SMILES IDX 61 88 62 89 63 90 64 91 40 92 41 93 50 94 42 95 43 96 49 97
REMARK SMILES IDX 51 98 44 99 45 100 46 101 47 102 48 103
REMARK H PARENT 3 7 83 15 10 34 72 53 38 64
REMARK Flexibility Score: inf
ROOT
ATOM      1  C   UNL A   1      34.943  23.178  26.273  1.00  0.00     0.002 C 
ENDROOT
BRANCH   1   2
ATOM      2  C   UNL A   1      34.991  21.681  26.589  1.00  0.00     0.021 C 
BRANCH   2   3
ATOM      3  C   UNL A   1      35.093  20.763  25.374  1.00  0.00     0.116 C 
BRANCH   3   4
ATOM      4  N   UNL A   1      34.109  19.696  25.413  1.00  0.00    -0.352 N 
ATOM      5  O   UNL A   1      32.023  18.821  25.382  1.00  0.00    -0.269 OA
ATOM      6  C   UNL A   1      32.766  19.767  25.140  1.00  0.00     0.251 C 
ATOM      7  H   UNL A   1      34.449  18.807  25.669  1.00  0.00     0.163 HD
BRANCH   6   8
ATOM      8  C   UNL A   1      32.214  20.999  24.540  1.00  0.00     0.039 A 
ATOM      9  C   UNL A   1      31.590  21.952  25.346  1.00  0.00     0.016 A 
ATOM     10  C   UNL A   1      32.387  21.237  23.173  1.00  0.00     0.016 A 
ATOM     11  C   UNL A   1      31.110  23.132  24.779  1.00  0.00     0.027 A 
ATOM     12  C   UNL A   1      31.889  22.416  22.605  1.00  0.00     0.027 A 
ATOM     13  C   UNL A   1      31.240  23.361  23.408  1.00  0.00     0.049 A 
BRANCH  13  14
ATOM     14  N   UNL A   1      30.882  24.633  22.866  1.00  0.00    -0.280 N 
ATOM     15  H   UNL A   1      29.935  24.841  22.694  1.00  0.00     0.180 HD
BRANCH  14  16
ATOM     16  S   UNL A   1      32.079  25.795  22.512  1.00  0.00     0.258 S 
ATOM     17  O   UNL A   1      33.176  25.439  23.388  1.00  0.00    -0.202 OA
ATOM     18  O   UNL A   1      32.269  25.689  21.076  1.00  0.00    -0.202 OA
BRANCH  16  19
ATOM     19  C   UNL A   1      31.463  27.404  22.904  1.00  0.00     0.066 C 
ATOM     20  C   UNL A   1      30.869  27.536  24.110  1.00  0.00     0.026 C 
ATOM     21  C   UNL A   1      32.360  28.543  22.480  1.00  0.00     0.055 C 
ATOM     22  C   UNL A   1      31.794  27.938  25.211  1.00  0.00    -0.021 A 
ATOM     23  C   UNL A   1      33.499  28.730  23.494  1.00  0.00     0.041 C 
ATOM     24  C   UNL A   1      31.395  27.760  26.539  1.00  0.00     0.008 A 
ATOM     25  C   UNL A   1      33.057  28.497  24.923  1.00  0.00    -0.040 A 
ATOM     26  C   UNL A   1      32.265  28.090  27.580  1.00  0.00     0.001 A 
ATOM     27  C   UNL A   1      33.928  28.802  25.977  1.00  0.00     0.004 A 
ATOM     28  C   UNL A   1      33.533  28.595  27.299  1.00  0.00     0.000 A 
ENDBRANCH  16  19
ENDBRANCH  14  16
ENDBRANCH  13  14
ENDBRANCH   6   8
ENDBRANCH   3   4
ENDBRANCH   2   3
ENDBRANCH   1   2
BRANCH   1  29
ATOM     29  C   UNL A   1      35.461  23.580  24.890  1.00  0.00     0.002 C 
BRANCH  29  30
ATOM     30  C   UNL A   1      36.981  23.706  24.759  1.00  0.00     0.021 C 
BRANCH  30  31
ATOM     31  C   UNL A   1      37.757  23.730  26.072  1.00  0.00     0.116 C 
BRANCH  31  32
ATOM     32  N   UNL A   1      38.909  22.847  26.062  1.00  0.00    -0.352 N 
ATOM     33  C   UNL A   1      40.223  23.119  26.355  1.00  0.00     0.251 C 
ATOM     34  H   UNL A   1      38.721  21.914  25.807  1.00  0.00     0.163 HD
ATOM     35  O   UNL A   1      41.081  22.262  26.158  1.00  0.00    -0.269 OA
BRANCH  33  36
ATOM     36  C   UNL A   1      40.611  24.449  26.879  1.00  0.00     0.039 A 
ATOM     37  C   UNL A   1      40.921  24.569  28.236  1.00  0.00     0.014 A 
ATOM     38  C   UNL A   1      40.657  25.573  26.048  1.00  0.00     0.014 A 
ATOM     39  C   UNL A   1      41.337  25.800  28.749  1.00  0.00     0.010 A 
ATOM     40  C   UNL A   1      41.129  26.786  26.547  1.00  0.00     0.010 A 
ATOM     41  C   UNL A   1      41.474  26.913  27.902  1.00  0.00    -0.014 A 
BRANCH  41  42
ATOM     42  C   UNL A   1      41.982  28.211  28.415  1.00  0.00     0.031 A 
ATOM     43  C   UNL A   1      43.461  28.483  28.460  1.00  0.00     0.074 A 
ATOM     44  C   UNL A   1      41.114  29.122  28.899  1.00  0.00     0.049 A 
ATOM     45  N   UNL A   1      44.096  29.516  28.949  1.00  0.00    -0.248 NA
ATOM     46  C   UNL A   1      44.342  27.444  27.901  1.00  0.00     0.031 C 
ATOM     47  C   UNL A   1      39.659  28.958  28.955  1.00  0.00     0.029 A 
ATOM     48  N   UNL A   1      41.329  30.360  29.450  1.00  0.00    -0.354 N 
ATOM     49  C   UNL A   1      45.448  29.252  28.767  1.00  0.00     0.074 A 
ATOM     50  C   UNL A   1      45.543  27.938  28.167  1.00  0.00     0.031 C 
ATOM     51  C   UNL A   1      39.114  30.056  29.502  1.00  0.00     0.029 A 
ATOM     52  C   UNL A   1      40.176  30.988  29.864  1.00  0.00     0.049 A 
ATOM     53  H   UNL A   1      42.223  30.762  29.540  1.00  0.00     0.167 HD
ATOM     54  C   UNL A   1      46.513  30.040  29.053  1.00  0.00     0.037 A 
ATOM     55  C   UNL A   1      39.998  32.175  30.476  1.00  0.00     0.037 A 
ATOM     56  C   UNL A   1      46.414  31.355  29.629  1.00  0.00     0.049 A 
ATOM     57  C   UNL A   1      41.193  33.039  30.770  1.00  0.00     0.074 A 
ATOM     58  C   UNL A   1      47.432  32.245  29.924  1.00  0.00     0.029 A 
ATOM     59  N   UNL A   1      45.227  31.973  29.994  1.00  0.00    -0.354 N 
ATOM     60  N   UNL A   1      42.463  32.789  30.551  1.00  0.00    -0.248 NA
ATOM     61  C   UNL A   1      40.935  34.348  31.386  1.00  0.00     0.031 C 
ATOM     62  C   UNL A   1      46.863  33.390  30.492  1.00  0.00     0.029 A 
ATOM     63  C   UNL A   1      45.488  33.229  30.517  1.00  0.00     0.049 A 
ATOM     64  H   UNL A   1      44.331  31.577  29.898  1.00  0.00     0.167 HD
ATOM     65  C   UNL A   1      43.151  33.917  30.982  1.00  0.00     0.074 A 
ATOM     66  C   UNL A   1      42.157  34.856  31.462  1.00  0.00     0.031 C 
ATOM     67  C   UNL A   1      44.486  34.155  30.983  1.00  0.00     0.037 A 
BRANCH  54  68
ATOM     68  C   UNL A   1      47.880  29.503  28.731  1.00  0.00     0.058 A 
ATOM     69  C   UNL A   1      48.609  28.753  29.666  1.00  0.00     0.135 A 
ATOM     70  C   UNL A   1      48.452  29.710  27.466  1.00  0.00     0.135 A 
ATOM     71  F   UNL A   1      48.115  28.540  30.896  1.00  0.00    -0.206 F 
ATOM     72  C   UNL A   1      49.871  28.249  29.369  1.00  0.00     0.059 A 
ATOM     73  C   UNL A   1      49.703  29.192  27.138  1.00  0.00     0.059 A 
ATOM     74  F   UNL A   1      47.797  30.420  26.535  1.00  0.00    -0.206 F 
ATOM     75  C   UNL A   1      50.411  28.476  28.103  1.00  0.00     0.060 A 
BRANCH  75  76
ATOM     76  S   UNL A   1      52.049  27.813  27.731  1.00  0.00     0.124 S 
ATOM     77  O   UNL A   1      52.425  27.234  29.017  1.00  0.00    -0.237 OA
ATOM     78  O   UNL A   1      51.766  26.858  26.664  1.00  0.00    -0.237 OA
ATOM     79  O   UNL A   1      52.809  28.992  27.328  1.00  0.00    -0.744 OA
ENDBRANCH  75  76
ENDBRANCH  54  68
BRANCH  55  80
ATOM     80  C   UNL A   1      38.627  32.621  30.840  1.00  0.00     0.058 A 
ATOM     81  C   UNL A   1      37.804  33.266  29.905  1.00  0.00     0.135 A 
ATOM     82  C   UNL A   1      38.111  32.401  32.126  1.00  0.00     0.135 A 
ATOM     83  F   UNL A   1      38.258  33.504  28.665  1.00  0.00    -0.206 F 
ATOM     84  C   UNL A   1      36.523  33.693  30.237  1.00  0.00     0.059 A 
ATOM     85  C   UNL A   1      36.825  32.798  32.474  1.00  0.00     0.059 A 
ATOM     86  F   UNL A   1      38.853  31.770  33.050  1.00  0.00    -0.206 F 
ATOM     87  C   UNL A   1      36.042  33.454  31.524  1.00  0.00     0.060 A 
BRANCH  87  88
ATOM     88  S   UNL A   1      34.359  33.967  31.934  1.00  0.00     0.124 S 
ATOM     89  O   UNL A   1      34.606  35.113  32.802  1.00  0.00    -0.237 OA
ATOM     90  O   UNL A   1      33.800  34.269  30.620  1.00  0.00    -0.237 OA
ATOM     91  O   UNL A   1      33.800  32.787  32.587  1.00  0.00    -0.744 OA
ENDBRANCH  87  88
ENDBRANCH  55  80
BRANCH  67  92
ATOM     92  C   UNL A   1      44.950  35.490  31.490  1.00  0.00     0.058 A 
ATOM     93  C   UNL A   1      45.305  35.684  32.834  1.00  0.00     0.135 A 
ATOM     94  C   UNL A   1      45.088  36.575  30.610  1.00  0.00     0.135 A 
ATOM     95  F   UNL A   1      45.184  34.679  33.715  1.00  0.00    -0.206 F 
ATOM     96  C   UNL A   1      45.763  36.914  33.292  1.00  0.00     0.059 A 
ATOM     97  C   UNL A   1      45.566  37.808  31.042  1.00  0.00     0.059 A 
ATOM     98  F   UNL A   1      44.770  36.439  29.313  1.00  0.00    -0.206 F 
ATOM     99  C   UNL A   1      45.891  37.971  32.389  1.00  0.00     0.060 A 
BRANCH  99 100
ATOM    100  S   UNL A   1      46.521  39.553  32.988  1.00  0.00     0.124 S 
ATOM    101  O   UNL A   1      47.765  39.677  32.237  1.00  0.00    -0.237 OA
ATOM    102  O   UNL A   1      45.457  40.479  32.610  1.00  0.00    -0.237 OA
ATOM    103  O   UNL A   1      46.673  39.335  34.424  1.00  0.00    -0.744 OA
ENDBRANCH  99 100
ENDBRANCH  67  92
ENDBRANCH  41  42
ENDBRANCH  33  36
ENDBRANCH  31  32
ENDBRANCH  30  31
ENDBRANCH  29  30
ENDBRANCH   1  29
TORSDOF 19
ENDMDL
