MODEL 1
REMARK VINA RESULT:     -12.0      0.000      0.000
REMARK SMILES C[C@@H]1Cc2ccccc2N1S(=O)(=O)c1cccc(C(=O)NCCCCCCNC(=O)c2ccc(-c3c4nc(c(-c5c(F)cc(S(=O)(=O)[O-])cc5F)c5ccc([nH]5)c(-c5c(F)cc(S(=O)(=O)[O-])cc5F)c5nc(c(-c6c(F)cc(S(=O)(=O)[O-])cc6F)c6ccc3[nH]6)C=C5)C=C4)cc2)c1
REMARK SMILES IDX 25 1 24 2 23 3 22 4 21 5 19 6 20 7 18 9 14 10 15 11 97 12
REMARK SMILES IDX 16 13 17 14 11 15 12 16 13 17 10 18 1 19 2 20 3 21 4 22 9 23
REMARK SMILES IDX 5 24 8 25 6 26 7 27 26 28 27 29 28 30 29 31 30 33 31 34
REMARK SMILES IDX 32 35 96 36 33 37 95 38 34 39 35 40 36 41 89 42 37 43 94 44
REMARK SMILES IDX 88 45 90 46 38 47 93 48 87 49 86 50 39 52 73 53 52 54 72 55
REMARK SMILES IDX 53 56 56 57 71 58 91 59 54 60 55 61 70 63 92 64 57 65 40 66
REMARK SMILES IDX 41 67 50 68 42 69 43 70 49 71 51 72 44 73 45 74 46 75 47 76
REMARK SMILES IDX 48 77 74 78 75 79 84 80 76 81 77 82 83 83 85 84 78 85 79 86
REMARK SMILES IDX 80 87 81 88 82 89 58 90 59 91 68 92 60 93 61 94 67 95 69 96
REMARK SMILES IDX 62 97 63 98 64 99 65 100 66 101
REMARK H PARENT 21 8 28 32 90 51 56 62
REMARK Flexibility Score: inf
ROOT
ATOM      1  C   UNL A   1      34.181  31.530  27.761  1.00  0.00     0.002 C 
ENDROOT
BRANCH   1   2
ATOM      2  C   UNL A   1      34.536  30.239  27.021  1.00  0.00     0.002 C 
BRANCH   2   3
ATOM      3  C   UNL A   1      33.825  28.957  27.453  1.00  0.00     0.021 C 
BRANCH   3   4
ATOM      4  C   UNL A   1      32.306  28.911  27.331  1.00  0.00     0.116 C 
BRANCH   4   5
ATOM      5  N   UNL A   1      31.799  29.040  25.980  1.00  0.00    -0.352 N 
ATOM      6  C   UNL A   1      31.393  28.097  25.065  1.00  0.00     0.251 C 
ATOM      7  O   UNL A   1      30.968  28.501  23.982  1.00  0.00    -0.269 OA
ATOM      8  H   UNL A   1      31.734  29.968  25.660  1.00  0.00     0.163 HD
BRANCH   6   9
ATOM      9  C   UNL A   1      31.516  26.622  25.285  1.00  0.00     0.041 A 
ATOM     10  C   UNL A   1      32.480  24.442  24.905  1.00  0.00     0.088 A 
ATOM     11  C   UNL A   1      31.430  23.821  25.589  1.00  0.00     0.022 A 
ATOM     12  C   UNL A   1      32.583  25.836  24.847  1.00  0.00     0.036 A 
ATOM     13  C   UNL A   1      30.413  24.603  26.122  1.00  0.00     0.002 A 
ATOM     14  C   UNL A   1      30.442  25.989  25.943  1.00  0.00     0.014 A 
BRANCH  10  15
ATOM     15  S   UNL A   1      33.635  23.434  24.008  1.00  0.00     0.264 S 
ATOM     16  O   UNL A   1      34.610  24.322  23.413  1.00  0.00    -0.201 OA
ATOM     17  O   UNL A   1      32.854  22.534  23.179  1.00  0.00    -0.201 OA
BRANCH  15  18
ATOM     18  N   UNL A   1      34.441  22.459  25.192  1.00  0.00    -0.263 N 
ATOM     19  C   UNL A   1      33.359  20.266  25.689  1.00  0.00     0.032 C 
ATOM     20  C   UNL A   1      34.369  20.979  24.804  1.00  0.00     0.101 C 
ATOM     21  C   UNL A   1      35.796  20.401  24.951  1.00  0.00     0.063 C 
ATOM     22  C   UNL A   1      36.614  21.593  25.311  1.00  0.00    -0.021 A 
ATOM     23  C   UNL A   1      35.825  22.722  25.482  1.00  0.00     0.055 A 
ATOM     24  C   UNL A   1      37.986  21.625  25.542  1.00  0.00     0.006 A 
ATOM     25  C   UNL A   1      36.378  23.868  26.031  1.00  0.00     0.027 A 
ATOM     26  C   UNL A   1      38.561  22.812  25.996  1.00  0.00     0.000 A 
ATOM     27  C   UNL A   1      37.757  23.924  26.260  1.00  0.00     0.002 A 
ENDBRANCH  15  18
ENDBRANCH  10  15
ENDBRANCH   6   9
ENDBRANCH   4   5
ENDBRANCH   3   4
ENDBRANCH   2   3
ENDBRANCH   1   2
BRANCH   1  28
ATOM     28  C   UNL A   1      35.290  32.567  27.927  1.00  0.00     0.021 C 
BRANCH  28  29
ATOM     29  C   UNL A   1      36.058  32.546  29.244  1.00  0.00     0.116 C 
BRANCH  29  30
ATOM     30  N   UNL A   1      35.707  31.436  30.114  1.00  0.00    -0.352 N 
ATOM     31  C   UNL A   1      36.456  30.335  30.465  1.00  0.00     0.251 C 
ATOM     32  H   UNL A   1      34.805  31.477  30.507  1.00  0.00     0.163 HD
ATOM     33  O   UNL A   1      35.959  29.455  31.162  1.00  0.00    -0.269 OA
BRANCH  31  34
ATOM     34  C   UNL A   1      37.844  30.189  29.967  1.00  0.00     0.039 A 
ATOM     35  C   UNL A   1      38.105  29.939  28.618  1.00  0.00     0.014 A 
ATOM     36  C   UNL A   1      38.904  30.273  30.876  1.00  0.00     0.014 A 
ATOM     37  C   UNL A   1      39.393  29.597  28.214  1.00  0.00     0.010 A 
ATOM     38  C   UNL A   1      40.211  30.010  30.451  1.00  0.00     0.010 A 
ATOM     39  C   UNL A   1      40.461  29.615  29.128  1.00  0.00    -0.014 A 
BRANCH  39  40
ATOM     40  C   UNL A   1      41.820  29.201  28.679  1.00  0.00     0.031 A 
ATOM     41  C   UNL A   1      42.969  30.178  28.704  1.00  0.00     0.074 A 
ATOM     42  C   UNL A   1      42.031  27.924  28.303  1.00  0.00     0.049 A 
ATOM     43  N   UNL A   1      44.219  29.985  28.364  1.00  0.00    -0.248 NA
ATOM     44  C   UNL A   1      42.683  31.547  29.165  1.00  0.00     0.031 C 
ATOM     45  C   UNL A   1      41.003  26.883  28.240  1.00  0.00     0.029 A 
ATOM     46  N   UNL A   1      43.181  27.275  27.927  1.00  0.00    -0.354 N 
ATOM     47  C   UNL A   1      44.862  31.203  28.555  1.00  0.00     0.074 A 
ATOM     48  C   UNL A   1      43.859  32.140  29.014  1.00  0.00     0.031 C 
ATOM     49  C   UNL A   1      41.575  25.718  27.896  1.00  0.00     0.029 A 
ATOM     50  C   UNL A   1      42.998  25.939  27.657  1.00  0.00     0.049 A 
ATOM     51  H   UNL A   1      44.054  27.724  27.855  1.00  0.00     0.167 HD
ATOM     52  C   UNL A   1      46.169  31.510  28.379  1.00  0.00     0.037 A 
ATOM     53  C   UNL A   1      43.870  24.997  27.251  1.00  0.00     0.037 A 
ATOM     54  C   UNL A   1      47.174  30.567  27.957  1.00  0.00     0.049 A 
ATOM     55  C   UNL A   1      45.310  25.371  27.037  1.00  0.00     0.074 A 
ATOM     56  C   UNL A   1      48.531  30.781  27.778  1.00  0.00     0.029 A 
ATOM     57  N   UNL A   1      46.938  29.235  27.655  1.00  0.00    -0.354 N 
ATOM     58  N   UNL A   1      45.896  26.528  27.231  1.00  0.00    -0.248 NA
ATOM     59  C   UNL A   1      46.206  24.318  26.540  1.00  0.00     0.031 C 
ATOM     60  C   UNL A   1      49.108  29.587  27.335  1.00  0.00     0.029 A 
ATOM     61  C   UNL A   1      48.119  28.619  27.276  1.00  0.00     0.049 A 
ATOM     62  H   UNL A   1      46.060  28.792  27.704  1.00  0.00     0.167 HD
ATOM     63  C   UNL A   1      47.230  26.339  26.889  1.00  0.00     0.074 A 
ATOM     64  C   UNL A   1      47.370  24.953  26.496  1.00  0.00     0.031 C 
ATOM     65  C   UNL A   1      48.245  27.237  26.893  1.00  0.00     0.037 A 
BRANCH  52  66
ATOM     66  C   UNL A   1      46.613  32.921  28.647  1.00  0.00     0.058 A 
ATOM     67  C   UNL A   1      46.595  33.899  27.641  1.00  0.00     0.135 A 
ATOM     68  C   UNL A   1      46.960  33.325  29.947  1.00  0.00     0.135 A 
ATOM     69  F   UNL A   1      46.285  33.563  26.378  1.00  0.00    -0.206 F 
ATOM     70  C   UNL A   1      46.905  35.228  27.913  1.00  0.00     0.059 A 
ATOM     71  C   UNL A   1      47.253  34.652  30.247  1.00  0.00     0.059 A 
ATOM     72  F   UNL A   1      46.993  32.429  30.947  1.00  0.00    -0.206 F 
ATOM     73  C   UNL A   1      47.225  35.597  29.221  1.00  0.00     0.060 A 
BRANCH  73  74
ATOM     74  S   UNL A   1      47.575  37.335  29.565  1.00  0.00     0.124 S 
ATOM     75  O   UNL A   1      48.810  37.237  30.337  1.00  0.00    -0.237 OA
ATOM     76  O   UNL A   1      47.708  37.897  28.225  1.00  0.00    -0.237 OA
ATOM     77  O   UNL A   1      46.402  37.777  30.314  1.00  0.00    -0.744 OA
ENDBRANCH  73  74
ENDBRANCH  52  66
BRANCH  53  78
ATOM     78  C   UNL A   1      43.402  23.607  27.009  1.00  0.00     0.058 A 
ATOM     79  C   UNL A   1      43.057  23.174  25.720  1.00  0.00     0.135 A 
ATOM     80  C   UNL A   1      43.300  22.682  28.060  1.00  0.00     0.135 A 
ATOM     81  F   UNL A   1      43.132  24.024  24.684  1.00  0.00    -0.206 F 
ATOM     82  C   UNL A   1      42.616  21.876  25.483  1.00  0.00     0.059 A 
ATOM     83  C   UNL A   1      42.887  21.372  27.843  1.00  0.00     0.059 A 
ATOM     84  F   UNL A   1      43.632  23.044  29.309  1.00  0.00    -0.206 F 
ATOM     85  C   UNL A   1      42.536  20.982  26.552  1.00  0.00     0.060 A 
BRANCH  85  86
ATOM     86  S   UNL A   1      42.004  19.287  26.226  1.00  0.00     0.124 S 
ATOM     87  O   UNL A   1      42.915  18.894  25.158  1.00  0.00    -0.237 OA
ATOM     88  O   UNL A   1      42.220  18.645  27.519  1.00  0.00    -0.237 OA
ATOM     89  O   UNL A   1      40.605  19.444  25.839  1.00  0.00    -0.744 OA
ENDBRANCH  85  86
ENDBRANCH  53  78
BRANCH  65  90
ATOM     90  C   UNL A   1      49.603  26.752  26.473  1.00  0.00     0.058 A 
ATOM     91  C   UNL A   1      50.422  26.026  27.350  1.00  0.00     0.135 A 
ATOM     92  C   UNL A   1      50.056  26.949  25.158  1.00  0.00     0.135 A 
ATOM     93  F   UNL A   1      50.037  25.818  28.619  1.00  0.00    -0.206 F 
ATOM     94  C   UNL A   1      51.651  25.519  26.941  1.00  0.00     0.059 A 
ATOM     95  C   UNL A   1      51.271  26.432  24.722  1.00  0.00     0.059 A 
ATOM     96  F   UNL A   1      49.304  27.631  24.280  1.00  0.00    -0.206 F 
ATOM     97  C   UNL A   1      52.064  25.722  25.623  1.00  0.00     0.060 A 
BRANCH  97  98
ATOM     98  S   UNL A   1      53.639  25.013  25.094  1.00  0.00     0.124 S 
ATOM     99  O   UNL A   1      53.846  25.683  23.814  1.00  0.00    -0.237 OA
ATOM    100  O   UNL A   1      54.539  25.412  26.172  1.00  0.00    -0.237 OA
ATOM    101  O   UNL A   1      53.358  23.583  25.015  1.00  0.00    -0.744 OA
ENDBRANCH  97  98
ENDBRANCH  65  90
ENDBRANCH  39  40
ENDBRANCH  31  34
ENDBRANCH  29  30
ENDBRANCH  28  29
ENDBRANCH   1  28
TORSDOF 18
ENDMDL
MODEL 2
REMARK VINA RESULT:     -11.8      1.108      2.313
REMARK SMILES C[C@@H]1Cc2ccccc2N1S(=O)(=O)c1cccc(C(=O)NCCCCCCNC(=O)c2ccc(-c3c4nc(c(-c5c(F)cc(S(=O)(=O)[O-])cc5F)c5ccc([nH]5)c(-c5c(F)cc(S(=O)(=O)[O-])cc5F)c5nc(c(-c6c(F)cc(S(=O)(=O)[O-])cc6F)c6ccc3[nH]6)C=C5)C=C4)cc2)c1
REMARK SMILES IDX 25 1 24 2 23 3 22 4 21 5 19 6 20 7 18 9 14 10 15 11 97 12
REMARK SMILES IDX 16 13 17 14 11 15 12 16 13 17 10 18 1 19 2 20 3 21 4 22 9 23
REMARK SMILES IDX 5 24 8 25 6 26 7 27 26 28 27 29 28 30 29 31 30 33 31 34
REMARK SMILES IDX 32 35 96 36 33 37 95 38 34 39 35 40 36 41 89 42 37 43 94 44
REMARK SMILES IDX 88 45 90 46 38 47 93 48 87 49 86 50 39 52 73 53 52 54 72 55
REMARK SMILES IDX 53 56 56 57 71 58 91 59 54 60 55 61 70 63 92 64 57 65 40 66
REMARK SMILES IDX 41 67 50 68 42 69 43 70 49 71 51 72 44 73 45 74 46 75 47 76
REMARK SMILES IDX 48 77 74 78 75 79 84 80 76 81 77 82 83 83 85 84 78 85 79 86
REMARK SMILES IDX 80 87 81 88 82 89 58 90 59 91 68 92 60 93 61 94 67 95 69 96
REMARK SMILES IDX 62 97 63 98 64 99 65 100 66 101
REMARK H PARENT 21 8 28 32 90 51 56 62
REMARK Flexibility Score: inf
ROOT
ATOM      1  C   UNL A   1      34.794  29.805  27.281  1.00  0.00     0.002 C 
ENDROOT
BRANCH   1   2
ATOM      2  C   UNL A   1      33.498  28.993  27.286  1.00  0.00     0.002 C 
BRANCH   2   3
ATOM      3  C   UNL A   1      33.290  27.984  26.157  1.00  0.00     0.021 C 
BRANCH   3   4
ATOM      4  C   UNL A   1      32.025  28.110  25.315  1.00  0.00     0.116 C 
BRANCH   4   5
ATOM      5  N   UNL A   1      32.044  27.362  24.075  1.00  0.00    -0.352 N 
ATOM      6  C   UNL A   1      31.966  26.012  23.824  1.00  0.00     0.251 C 
ATOM      7  O   UNL A   1      31.971  25.650  22.646  1.00  0.00    -0.269 OA
ATOM      8  H   UNL A   1      32.127  27.919  23.268  1.00  0.00     0.163 HD
BRANCH   6   9
ATOM      9  C   UNL A   1      31.956  24.968  24.895  1.00  0.00     0.041 A 
ATOM     10  C   UNL A   1      32.963  23.266  26.279  1.00  0.00     0.088 A 
ATOM     11  C   UNL A   1      31.709  22.842  26.729  1.00  0.00     0.022 A 
ATOM     12  C   UNL A   1      33.096  24.390  25.455  1.00  0.00     0.036 A 
ATOM     13  C   UNL A   1      30.569  23.481  26.258  1.00  0.00     0.002 A 
ATOM     14  C   UNL A   1      30.693  24.515  25.325  1.00  0.00     0.014 A 
BRANCH  10  15
ATOM     15  S   UNL A   1      34.393  22.290  26.677  1.00  0.00     0.264 S 
ATOM     16  O   UNL A   1      33.981  21.299  27.647  1.00  0.00    -0.201 OA
ATOM     17  O   UNL A   1      35.466  23.219  26.981  1.00  0.00    -0.201 OA
BRANCH  15  18
ATOM     18  N   UNL A   1      34.834  21.468  25.217  1.00  0.00    -0.263 N 
ATOM     19  C   UNL A   1      37.021  22.149  24.225  1.00  0.00     0.032 C 
ATOM     20  C   UNL A   1      36.341  21.194  25.194  1.00  0.00     0.101 C 
ATOM     21  C   UNL A   1      36.528  19.712  24.792  1.00  0.00     0.063 C 
ATOM     22  C   UNL A   1      35.131  19.200  24.709  1.00  0.00    -0.021 A 
ATOM     23  C   UNL A   1      34.203  20.213  24.909  1.00  0.00     0.055 A 
ATOM     24  C   UNL A   1      34.734  17.904  24.395  1.00  0.00     0.006 A 
ATOM     25  C   UNL A   1      32.863  19.974  24.652  1.00  0.00     0.027 A 
ATOM     26  C   UNL A   1      33.374  17.640  24.239  1.00  0.00     0.000 A 
ATOM     27  C   UNL A   1      32.442  18.676  24.346  1.00  0.00     0.002 A 
ENDBRANCH  15  18
ENDBRANCH  10  15
ENDBRANCH   6   9
ENDBRANCH   4   5
ENDBRANCH   3   4
ENDBRANCH   2   3
ENDBRANCH   1   2
BRANCH   1  28
ATOM     28  C   UNL A   1      34.703  31.269  27.709  1.00  0.00     0.021 C 
BRANCH  28  29
ATOM     29  C   UNL A   1      35.714  31.746  28.744  1.00  0.00     0.116 C 
BRANCH  29  30
ATOM     30  N   UNL A   1      35.602  31.078  30.030  1.00  0.00    -0.352 N 
ATOM     31  C   UNL A   1      36.549  30.354  30.720  1.00  0.00     0.251 C 
ATOM     32  H   UNL A   1      34.725  31.153  30.469  1.00  0.00     0.163 HD
ATOM     33  O   UNL A   1      36.246  29.796  31.771  1.00  0.00    -0.269 OA
BRANCH  31  34
ATOM     34  C   UNL A   1      37.920  30.210  30.174  1.00  0.00     0.039 A 
ATOM     35  C   UNL A   1      38.138  30.045  28.806  1.00  0.00     0.014 A 
ATOM     36  C   UNL A   1      39.004  30.208  31.058  1.00  0.00     0.014 A 
ATOM     37  C   UNL A   1      39.407  29.701  28.344  1.00  0.00     0.010 A 
ATOM     38  C   UNL A   1      40.293  29.943  30.579  1.00  0.00     0.010 A 
ATOM     39  C   UNL A   1      40.498  29.633  29.226  1.00  0.00    -0.014 A 
BRANCH  39  40
ATOM     40  C   UNL A   1      41.834  29.219  28.713  1.00  0.00     0.031 A 
ATOM     41  C   UNL A   1      42.983  30.196  28.681  1.00  0.00     0.074 A 
ATOM     42  C   UNL A   1      42.028  27.941  28.331  1.00  0.00     0.049 A 
ATOM     43  N   UNL A   1      44.215  30.003  28.282  1.00  0.00    -0.248 NA
ATOM     44  C   UNL A   1      42.719  31.566  29.153  1.00  0.00     0.031 C 
ATOM     45  C   UNL A   1      40.998  26.899  28.319  1.00  0.00     0.029 A 
ATOM     46  N   UNL A   1      43.159  27.292  27.900  1.00  0.00    -0.354 N 
ATOM     47  C   UNL A   1      44.866  31.222  28.439  1.00  0.00     0.074 A 
ATOM     48  C   UNL A   1      43.886  32.159  28.944  1.00  0.00     0.031 C 
ATOM     49  C   UNL A   1      41.554  25.734  27.950  1.00  0.00     0.029 A 
ATOM     50  C   UNL A   1      42.963  25.955  27.642  1.00  0.00     0.049 A 
ATOM     51  H   UNL A   1      44.027  27.741  27.786  1.00  0.00     0.167 HD
ATOM     52  C   UNL A   1      46.163  31.529  28.199  1.00  0.00     0.037 A 
ATOM     53  C   UNL A   1      43.816  25.013  27.197  1.00  0.00     0.037 A 
ATOM     54  C   UNL A   1      47.146  30.586  27.731  1.00  0.00     0.049 A 
ATOM     55  C   UNL A   1      45.244  25.387  26.912  1.00  0.00     0.074 A 
ATOM     56  C   UNL A   1      48.493  30.800  27.486  1.00  0.00     0.029 A 
ATOM     57  N   UNL A   1      46.897  29.253  27.443  1.00  0.00    -0.354 N 
ATOM     58  N   UNL A   1      45.837  26.545  27.075  1.00  0.00    -0.248 NA
ATOM     59  C   UNL A   1      46.115  24.333  26.375  1.00  0.00     0.031 C 
ATOM     60  C   UNL A   1      49.049  29.606  27.018  1.00  0.00     0.029 A 
ATOM     61  C   UNL A   1      48.058  28.637  27.009  1.00  0.00     0.049 A 
ATOM     62  H   UNL A   1      46.022  28.809  27.535  1.00  0.00     0.167 HD
ATOM     63  C   UNL A   1      47.153  26.356  26.669  1.00  0.00     0.074 A 
ATOM     64  C   UNL A   1      47.275  24.969  26.273  1.00  0.00     0.031 C 
ATOM     65  C   UNL A   1      48.167  27.254  26.623  1.00  0.00     0.037 A 
BRANCH  52  66
ATOM     66  C   UNL A   1      46.618  32.941  28.443  1.00  0.00     0.058 A 
ATOM     67  C   UNL A   1      47.132  33.342  29.684  1.00  0.00     0.135 A 
ATOM     68  C   UNL A   1      46.637  33.875  27.393  1.00  0.00     0.135 A 
ATOM     69  F   UNL A   1      47.124  32.494  30.725  1.00  0.00    -0.206 F 
ATOM     70  C   UNL A   1      47.651  34.619  29.879  1.00  0.00     0.059 A 
ATOM     71  C   UNL A   1      47.169  35.150  27.558  1.00  0.00     0.059 A 
ATOM     72  F   UNL A   1      46.157  33.543  26.184  1.00  0.00    -0.206 F 
ATOM     73  C   UNL A   1      47.672  35.514  28.807  1.00  0.00     0.060 A 
BRANCH  73  74
ATOM     74  S   UNL A   1      48.394  37.149  29.065  1.00  0.00     0.124 S 
ATOM     75  O   UNL A   1      47.982  37.845  27.849  1.00  0.00    -0.237 OA
ATOM     76  O   UNL A   1      47.744  37.586  30.296  1.00  0.00    -0.237 OA
ATOM     77  O   UNL A   1      49.824  36.877  29.176  1.00  0.00    -0.744 OA
ENDBRANCH  73  74
ENDBRANCH  52  66
BRANCH  53  78
ATOM     78  C   UNL A   1      43.337  23.622  26.980  1.00  0.00     0.058 A 
ATOM     79  C   UNL A   1      43.076  23.140  25.689  1.00  0.00     0.135 A 
ATOM     80  C   UNL A   1      43.141  22.745  28.059  1.00  0.00     0.135 A 
ATOM     81  F   UNL A   1      43.242  23.942  24.626  1.00  0.00    -0.206 F 
ATOM     82  C   UNL A   1      42.626  21.841  25.476  1.00  0.00     0.059 A 
ATOM     83  C   UNL A   1      42.717  21.435  27.868  1.00  0.00     0.059 A 
ATOM     84  F   UNL A   1      43.391  23.155  29.312  1.00  0.00    -0.206 F 
ATOM     85  C   UNL A   1      42.452  20.995  26.573  1.00  0.00     0.060 A 
BRANCH  85  86
ATOM     86  S   UNL A   1      41.909  19.298  26.281  1.00  0.00     0.124 S 
ATOM     87  O   UNL A   1      40.463  19.462  26.202  1.00  0.00    -0.237 OA
ATOM     88  O   UNL A   1      42.585  18.971  25.029  1.00  0.00    -0.237 OA
ATOM     89  O   UNL A   1      42.402  18.583  27.456  1.00  0.00    -0.744 OA
ENDBRANCH  85  86
ENDBRANCH  53  78
BRANCH  65  90
ATOM     90  C   UNL A   1      49.503  26.769  26.139  1.00  0.00     0.058 A 
ATOM     91  C   UNL A   1      49.913  26.964  24.812  1.00  0.00     0.135 A 
ATOM     92  C   UNL A   1      50.412  26.173  27.030  1.00  0.00     0.135 A 
ATOM     93  F   UNL A   1      49.078  27.521  23.921  1.00  0.00    -0.206 F 
ATOM     94  C   UNL A   1      51.177  26.575  24.379  1.00  0.00     0.059 A 
ATOM     95  C   UNL A   1      51.688  25.798  26.624  1.00  0.00     0.059 A 
ATOM     96  F   UNL A   1      50.068  25.973  28.311  1.00  0.00    -0.206 F 
ATOM     97  C   UNL A   1      52.059  25.998  25.294  1.00  0.00     0.060 A 
BRANCH  97  98
ATOM     98  S   UNL A   1      53.714  25.547  24.730  1.00  0.00     0.124 S 
ATOM     99  O   UNL A   1      53.739  26.134  23.395  1.00  0.00    -0.237 OA
ATOM    100  O   UNL A   1      54.569  26.191  25.723  1.00  0.00    -0.237 OA
ATOM    101  O   UNL A   1      53.702  24.088  24.773  1.00  0.00    -0.744 OA
ENDBRANCH  97  98
ENDBRANCH  65  90
ENDBRANCH  39  40
ENDBRANCH  31  34
ENDBRANCH  29  30
ENDBRANCH  28  29
ENDBRANCH   1  28
TORSDOF 18
ENDMDL
MODEL 3
REMARK VINA RESULT:     -11.7      1.118      2.144
REMARK SMILES C[C@@H]1Cc2ccccc2N1S(=O)(=O)c1cccc(C(=O)NCCCCCCNC(=O)c2ccc(-c3c4nc(c(-c5c(F)cc(S(=O)(=O)[O-])cc5F)c5ccc([nH]5)c(-c5c(F)cc(S(=O)(=O)[O-])cc5F)c5nc(c(-c6c(F)cc(S(=O)(=O)[O-])cc6F)c6ccc3[nH]6)C=C5)C=C4)cc2)c1
REMARK SMILES IDX 25 1 24 2 23 3 22 4 21 5 19 6 20 7 18 9 14 10 15 11 97 12
REMARK SMILES IDX 16 13 17 14 11 15 12 16 13 17 10 18 1 19 2 20 3 21 4 22 9 23
REMARK SMILES IDX 5 24 8 25 6 26 7 27 26 28 27 29 28 30 29 31 30 33 31 34
REMARK SMILES IDX 32 35 96 36 33 37 95 38 34 39 35 40 36 41 89 42 37 43 94 44
REMARK SMILES IDX 88 45 90 46 38 47 93 48 87 49 86 50 39 52 73 53 52 54 72 55
REMARK SMILES IDX 53 56 56 57 71 58 91 59 54 60 55 61 70 63 92 64 57 65 40 66
REMARK SMILES IDX 41 67 50 68 42 69 43 70 49 71 51 72 44 73 45 74 46 75 47 76
REMARK SMILES IDX 48 77 74 78 75 79 84 80 76 81 77 82 83 83 85 84 78 85 79 86
REMARK SMILES IDX 80 87 81 88 82 89 58 90 59 91 68 92 60 93 61 94 67 95 69 96
REMARK SMILES IDX 62 97 63 98 64 99 65 100 66 101
REMARK H PARENT 21 8 28 32 90 51 56 62
REMARK Flexibility Score: inf
ROOT
ATOM      1  C   UNL A   1      32.988  30.015  27.424  1.00  0.00     0.002 C 
ENDROOT
BRANCH   1   2
ATOM      2  C   UNL A   1      32.146  28.757  27.204  1.00  0.00     0.002 C 
BRANCH   2   3
ATOM      3  C   UNL A   1      31.412  28.620  25.870  1.00  0.00     0.021 C 
BRANCH   3   4
ATOM      4  C   UNL A   1      31.261  29.869  25.010  1.00  0.00     0.116 C 
BRANCH   4   5
ATOM      5  N   UNL A   1      30.370  29.723  23.877  1.00  0.00    -0.352 N 
ATOM      6  C   UNL A   1      30.368  28.834  22.828  1.00  0.00     0.251 C 
ATOM      7  O   UNL A   1      29.451  28.922  22.009  1.00  0.00    -0.269 OA
ATOM      8  H   UNL A   1      29.635  30.377  23.854  1.00  0.00     0.163 HD
BRANCH   6   9
ATOM      9  C   UNL A   1      31.452  27.831  22.588  1.00  0.00     0.041 A 
ATOM     10  C   UNL A   1      32.407  25.615  22.623  1.00  0.00     0.088 A 
ATOM     11  C   UNL A   1      33.681  26.122  22.350  1.00  0.00     0.022 A 
ATOM     12  C   UNL A   1      31.282  26.447  22.633  1.00  0.00     0.036 A 
ATOM     13  C   UNL A   1      33.845  27.494  22.199  1.00  0.00     0.002 A 
ATOM     14  C   UNL A   1      32.744  28.342  22.348  1.00  0.00     0.014 A 
BRANCH  10  15
ATOM     15  S   UNL A   1      32.243  23.904  23.069  1.00  0.00     0.264 S 
ATOM     16  O   UNL A   1      32.825  23.122  22.000  1.00  0.00    -0.201 OA
ATOM     17  O   UNL A   1      30.860  23.701  23.462  1.00  0.00    -0.201 OA
BRANCH  15  18
ATOM     18  N   UNL A   1      33.210  23.683  24.490  1.00  0.00    -0.263 N 
ATOM     19  C   UNL A   1      31.983  23.857  26.657  1.00  0.00     0.032 C 
ATOM     20  C   UNL A   1      32.426  22.909  25.554  1.00  0.00     0.101 C 
ATOM     21  C   UNL A   1      33.355  21.788  26.077  1.00  0.00     0.063 C 
ATOM     22  C   UNL A   1      34.567  21.918  25.219  1.00  0.00    -0.021 A 
ATOM     23  C   UNL A   1      34.477  23.013  24.370  1.00  0.00     0.055 A 
ATOM     24  C   UNL A   1      35.712  21.130  25.266  1.00  0.00     0.006 A 
ATOM     25  C   UNL A   1      35.593  23.423  23.659  1.00  0.00     0.027 A 
ATOM     26  C   UNL A   1      36.801  21.483  24.470  1.00  0.00     0.000 A 
ATOM     27  C   UNL A   1      36.751  22.638  23.685  1.00  0.00     0.002 A 
ENDBRANCH  15  18
ENDBRANCH  10  15
ENDBRANCH   6   9
ENDBRANCH   4   5
ENDBRANCH   3   4
ENDBRANCH   2   3
ENDBRANCH   1   2
BRANCH   1  28
ATOM     28  C   UNL A   1      34.412  30.007  26.872  1.00  0.00     0.021 C 
BRANCH  28  29
ATOM     29  C   UNL A   1      35.489  29.398  27.761  1.00  0.00     0.116 C 
BRANCH  29  30
ATOM     30  N   UNL A   1      35.343  29.719  29.171  1.00  0.00    -0.352 N 
ATOM     31  C   UNL A   1      36.316  29.881  30.132  1.00  0.00     0.251 C 
ATOM     32  H   UNL A   1      34.417  29.838  29.483  1.00  0.00     0.163 HD
ATOM     33  O   UNL A   1      35.995  30.081  31.300  1.00  0.00    -0.269 OA
BRANCH  31  34
ATOM     34  C   UNL A   1      37.749  29.767  29.768  1.00  0.00     0.039 A 
ATOM     35  C   UNL A   1      38.191  30.057  28.476  1.00  0.00     0.014 A 
ATOM     36  C   UNL A   1      38.661  29.330  30.733  1.00  0.00     0.014 A 
ATOM     37  C   UNL A   1      39.495  29.741  28.103  1.00  0.00     0.010 A 
ATOM     38  C   UNL A   1      39.994  29.090  30.377  1.00  0.00     0.010 A 
ATOM     39  C   UNL A   1      40.410  29.242  29.046  1.00  0.00    -0.014 A 
BRANCH  39  40
ATOM     40  C   UNL A   1      41.785  28.870  28.610  1.00  0.00     0.031 A 
ATOM     41  C   UNL A   1      42.904  29.881  28.646  1.00  0.00     0.074 A 
ATOM     42  C   UNL A   1      42.039  27.599  28.236  1.00  0.00     0.049 A 
ATOM     43  N   UNL A   1      44.163  29.726  28.319  1.00  0.00    -0.248 NA
ATOM     44  C   UNL A   1      42.572  31.240  29.105  1.00  0.00     0.031 C 
ATOM     45  C   UNL A   1      41.044  26.528  28.162  1.00  0.00     0.029 A 
ATOM     46  N   UNL A   1      43.212  26.986  27.870  1.00  0.00    -0.354 N 
ATOM     47  C   UNL A   1      44.766  30.964  28.516  1.00  0.00     0.074 A 
ATOM     48  C   UNL A   1      43.731  31.869  28.966  1.00  0.00     0.031 C 
ATOM     49  C   UNL A   1      41.654  25.381  27.822  1.00  0.00     0.029 A 
ATOM     50  C   UNL A   1      43.072  25.645  27.598  1.00  0.00     0.049 A 
ATOM     51  H   UNL A   1      44.071  27.462  27.807  1.00  0.00     0.167 HD
ATOM     52  C   UNL A   1      46.065  31.310  28.353  1.00  0.00     0.037 A 
ATOM     53  C   UNL A   1      43.977  24.731  27.200  1.00  0.00     0.037 A 
ATOM     54  C   UNL A   1      47.102  30.398  27.940  1.00  0.00     0.049 A 
ATOM     55  C   UNL A   1      45.407  25.149  26.999  1.00  0.00     0.074 A 
ATOM     56  C   UNL A   1      48.453  30.654  27.774  1.00  0.00     0.029 A 
ATOM     57  N   UNL A   1      46.910  29.060  27.635  1.00  0.00    -0.354 N 
ATOM     58  N   UNL A   1      45.954  26.323  27.199  1.00  0.00    -0.248 NA
ATOM     59  C   UNL A   1      46.339  24.124  26.511  1.00  0.00     0.031 C 
ATOM     60  C   UNL A   1      49.071  29.478  27.336  1.00  0.00     0.029 A 
ATOM     61  C   UNL A   1      48.112  28.481  27.267  1.00  0.00     0.049 A 
ATOM     62  H   UNL A   1      46.045  28.590  27.675  1.00  0.00     0.167 HD
ATOM     63  C   UNL A   1      47.297  26.175  26.870  1.00  0.00     0.074 A 
ATOM     64  C   UNL A   1      47.483  24.794  26.478  1.00  0.00     0.031 C 
ATOM     65  C   UNL A   1      48.284  27.103  26.885  1.00  0.00     0.037 A 
BRANCH  52  66
ATOM     66  C   UNL A   1      46.463  32.734  28.626  1.00  0.00     0.058 A 
ATOM     67  C   UNL A   1      46.933  33.136  29.885  1.00  0.00     0.135 A 
ATOM     68  C   UNL A   1      46.473  33.682  27.589  1.00  0.00     0.135 A 
ATOM     69  F   UNL A   1      46.930  32.273  30.914  1.00  0.00    -0.206 F 
ATOM     70  C   UNL A   1      47.400  34.428  30.108  1.00  0.00     0.059 A 
ATOM     71  C   UNL A   1      46.954  34.973  27.784  1.00  0.00     0.059 A 
ATOM     72  F   UNL A   1      46.034  33.350  26.364  1.00  0.00    -0.206 F 
ATOM     73  C   UNL A   1      47.414  35.337  29.049  1.00  0.00     0.060 A 
BRANCH  73  74
ATOM     74  S   UNL A   1      48.071  36.994  29.346  1.00  0.00     0.124 S 
ATOM     75  O   UNL A   1      49.187  36.709  30.243  1.00  0.00    -0.237 OA
ATOM     76  O   UNL A   1      48.433  37.430  28.002  1.00  0.00    -0.237 OA
ATOM     77  O   UNL A   1      46.947  37.702  29.951  1.00  0.00    -0.744 OA
ENDBRANCH  73  74
ENDBRANCH  52  66
BRANCH  53  78
ATOM     78  C   UNL A   1      43.553  23.327  26.952  1.00  0.00     0.058 A 
ATOM     79  C   UNL A   1      43.259  22.462  28.017  1.00  0.00     0.135 A 
ATOM     80  C   UNL A   1      43.422  22.827  25.647  1.00  0.00     0.135 A 
ATOM     81  F   UNL A   1      43.374  22.892  29.283  1.00  0.00    -0.206 F 
ATOM     82  C   UNL A   1      42.862  21.148  27.797  1.00  0.00     0.059 A 
ATOM     83  C   UNL A   1      43.003  21.525  25.402  1.00  0.00     0.059 A 
ATOM     84  F   UNL A   1      43.678  23.620  24.595  1.00  0.00    -0.206 F 
ATOM     85  C   UNL A   1      42.736  20.689  26.484  1.00  0.00     0.060 A 
BRANCH  85  86
ATOM     86  S   UNL A   1      42.179  18.993  26.209  1.00  0.00     0.124 S 
ATOM     87  O   UNL A   1      42.395  18.397  27.521  1.00  0.00    -0.237 OA
ATOM     88  O   UNL A   1      40.786  19.188  25.817  1.00  0.00    -0.237 OA
ATOM     89  O   UNL A   1      43.061  18.520  25.145  1.00  0.00    -0.744 OA
ENDBRANCH  85  86
ENDBRANCH  53  78
BRANCH  65  90
ATOM     90  C   UNL A   1      49.660  26.660  26.477  1.00  0.00     0.058 A 
ATOM     91  C   UNL A   1      50.510  25.999  27.376  1.00  0.00     0.135 A 
ATOM     92  C   UNL A   1      50.103  26.830  25.155  1.00  0.00     0.135 A 
ATOM     93  F   UNL A   1      50.135  25.820  28.653  1.00  0.00    -0.206 F 
ATOM     94  C   UNL A   1      51.758  25.529  26.981  1.00  0.00     0.059 A 
ATOM     95  C   UNL A   1      51.337  26.348  24.733  1.00  0.00     0.059 A 
ATOM     96  F   UNL A   1      49.322  27.450  24.256  1.00  0.00    -0.206 F 
ATOM     97  C   UNL A   1      52.160  25.703  25.656  1.00  0.00     0.060 A 
BRANCH  97  98
ATOM     98  S   UNL A   1      53.762  25.042  25.146  1.00  0.00     0.124 S 
ATOM     99  O   UNL A   1      53.547  23.606  25.294  1.00  0.00    -0.237 OA
ATOM    100  O   UNL A   1      53.877  25.528  23.774  1.00  0.00    -0.237 OA
ATOM    101  O   UNL A   1      54.694  25.637  26.098  1.00  0.00    -0.744 OA
ENDBRANCH  97  98
ENDBRANCH  65  90
ENDBRANCH  39  40
ENDBRANCH  31  34
ENDBRANCH  29  30
ENDBRANCH  28  29
ENDBRANCH   1  28
TORSDOF 18
ENDMDL
