MODEL 1
REMARK VINA RESULT:     -12.7      0.000      0.000
REMARK SMILES Cc1n[nH]c(C[N@H+]2CCC[C@H](c3cccc(C(=O)NCCCCCCNC(=O)c4ccc(-c5c6nc(c(-c7c(F)cc(S(=O)(=O)[O-])cc7F)c7ccc([nH]7)c(-c7c(F)cc(S(=O)(=O)[O-])cc7F)c7nc(c(-c8c(F)cc(S(=O)(=O)[O-])cc8F)c8ccc5[nH]8)C=C7)C=C6)cc4)c3)C2)n1
REMARK SMILES IDX 22 1 21 2 20 3 19 4 17 5 18 6 16 8 12 9 13 10 95 11 14 12
REMARK SMILES IDX 15 13 11 14 7 15 8 16 96 17 9 19 10 20 6 21 5 22 1 23 2 24
REMARK SMILES IDX 3 25 97 26 4 27 23 29 24 30 25 31 26 32 27 33 28 35 29 36
REMARK SMILES IDX 30 37 94 38 31 39 93 40 32 41 33 42 34 43 87 44 35 45 92 46
REMARK SMILES IDX 86 47 88 48 36 49 91 50 85 51 84 52 37 54 71 55 50 56 70 57
REMARK SMILES IDX 51 58 54 59 69 60 89 61 52 62 53 63 68 65 90 66 55 67 38 68
REMARK SMILES IDX 39 69 48 70 40 71 41 72 47 73 49 74 42 75 43 76 44 77 45 78
REMARK SMILES IDX 46 79 72 80 73 81 82 82 74 83 75 84 81 85 83 86 76 87 77 88
REMARK SMILES IDX 78 89 79 90 80 91 56 92 57 93 66 94 58 95 59 96 65 97 67 98
REMARK SMILES IDX 60 99 61 100 62 101 63 102 64 103
REMARK H PARENT 19 7 7 18 4 28 26 34 88 53 54 64
REMARK Flexibility Score: inf
ROOT
ATOM      1  C   UNL A   1      39.424  22.315  26.231  1.00  0.00     0.002 C 
ENDROOT
BRANCH   1   2
ATOM      2  C   UNL A   1      38.188  21.660  25.624  1.00  0.00     0.021 C 
BRANCH   2   3
ATOM      3  C   UNL A   1      36.878  22.427  25.730  1.00  0.00     0.116 C 
BRANCH   3   4
ATOM      4  N   UNL A   1      35.821  21.766  26.484  1.00  0.00    -0.352 N 
ATOM      5  C   UNL A   1      34.452  21.739  26.295  1.00  0.00     0.251 C 
ATOM      6  O   UNL A   1      33.764  21.075  27.070  1.00  0.00    -0.269 OA
ATOM      7  H   UNL A   1      36.136  21.253  27.262  1.00  0.00     0.163 HD
BRANCH   5   8
ATOM      8  C   UNL A   1      33.782  22.526  25.221  1.00  0.00     0.040 A 
ATOM      9  C   UNL A   1      31.966  23.998  24.509  1.00  0.00    -0.039 A 
ATOM     10  C   UNL A   1      32.287  23.698  23.177  1.00  0.00     0.004 A 
ATOM     11  C   UNL A   1      32.808  23.483  25.504  1.00  0.00     0.018 A 
ATOM     12  C   UNL A   1      33.373  22.876  22.866  1.00  0.00     0.001 A 
ATOM     13  C   UNL A   1      34.099  22.263  23.887  1.00  0.00     0.014 A 
BRANCH   9  14
ATOM     14  C   UNL A   1      30.666  24.689  24.927  1.00  0.00     0.074 C 
ATOM     15  N   UNL A   1      30.887  26.829  23.674  1.00  0.00    -0.328 N 
ATOM     16  C   UNL A   1      31.028  27.598  24.917  1.00  0.00     0.262 C 
ATOM     17  C   UNL A   1      30.046  25.632  23.878  1.00  0.00     0.270 C 
ATOM     18  H   UNL A   1      31.828  26.524  23.423  1.00  0.00     0.348 HD
ATOM     19  C   UNL A   1      31.572  26.745  26.068  1.00  0.00     0.062 C 
ATOM     20  C   UNL A   1      30.742  25.478  26.251  1.00  0.00     0.020 C 
BRANCH  15  21
ATOM     21  C   UNL A   1      30.401  27.634  22.539  1.00  0.00     0.340 C 
BRANCH  21  22
ATOM     22  C   UNL A   1      29.298  28.577  22.879  1.00  0.00     0.179 A 
ATOM     23  C   UNL A   1      27.666  31.686  23.166  1.00  0.00     0.092 C 
ATOM     24  C   UNL A   1      28.056  30.262  23.131  1.00  0.00     0.147 A 
ATOM     25  N   UNL A   1      27.180  29.248  23.126  1.00  0.00    -0.159 NA
ATOM     26  N   UNL A   1      29.365  29.882  23.030  1.00  0.00    -0.211 NA
ATOM     27  N   UNL A   1      27.994  28.191  22.986  1.00  0.00    -0.258 N 
ATOM     28  H   UNL A   1      27.690  27.255  22.965  1.00  0.00     0.192 HD
ENDBRANCH  21  22
ENDBRANCH  15  21
ENDBRANCH   9  14
ENDBRANCH   5   8
ENDBRANCH   3   4
ENDBRANCH   2   3
ENDBRANCH   1   2
BRANCH   1  29
ATOM     29  C   UNL A   1      40.400  21.412  26.994  1.00  0.00     0.002 C 
BRANCH  29  30
ATOM     30  C   UNL A   1      40.934  20.162  26.282  1.00  0.00     0.021 C 
BRANCH  30  31
ATOM     31  C   UNL A   1      42.219  19.575  26.849  1.00  0.00     0.116 C 
BRANCH  31  32
ATOM     32  N   UNL A   1      43.276  19.440  25.852  1.00  0.00    -0.352 N 
ATOM     33  C   UNL A   1      43.888  20.428  25.103  1.00  0.00     0.251 C 
ATOM     34  H   UNL A   1      43.595  18.523  25.690  1.00  0.00     0.163 HD
ATOM     35  O   UNL A   1      44.453  20.147  24.057  1.00  0.00    -0.269 OA
BRANCH  33  36
ATOM     36  C   UNL A   1      43.848  21.827  25.580  1.00  0.00     0.039 A 
ATOM     37  C   UNL A   1      43.057  22.783  24.935  1.00  0.00     0.014 A 
ATOM     38  C   UNL A   1      44.616  22.179  26.686  1.00  0.00     0.014 A 
ATOM     39  C   UNL A   1      42.982  24.069  25.469  1.00  0.00     0.010 A 
ATOM     40  C   UNL A   1      44.433  23.398  27.292  1.00  0.00     0.010 A 
ATOM     41  C   UNL A   1      43.656  24.365  26.665  1.00  0.00    -0.014 A 
BRANCH  41  42
ATOM     42  C   UNL A   1      43.445  25.644  27.341  1.00  0.00     0.031 A 
ATOM     43  C   UNL A   1      44.472  26.676  27.024  1.00  0.00     0.074 A 
ATOM     44  C   UNL A   1      42.305  25.961  27.993  1.00  0.00     0.049 A 
ATOM     45  N   UNL A   1      45.373  27.171  27.807  1.00  0.00    -0.248 NA
ATOM     46  C   UNL A   1      44.620  27.089  25.618  1.00  0.00     0.031 C 
ATOM     47  C   UNL A   1      41.068  25.175  28.087  1.00  0.00     0.029 A 
ATOM     48  N   UNL A   1      41.962  27.121  28.620  1.00  0.00    -0.354 N 
ATOM     49  C   UNL A   1      46.035  28.142  27.058  1.00  0.00     0.074 A 
ATOM     50  C   UNL A   1      45.691  27.883  25.686  1.00  0.00     0.031 C 
ATOM     51  C   UNL A   1      40.059  25.965  28.512  1.00  0.00     0.029 A 
ATOM     52  C   UNL A   1      40.602  27.257  28.886  1.00  0.00     0.049 A 
ATOM     53  H   UNL A   1      42.624  27.808  28.865  1.00  0.00     0.167 HD
ATOM     54  C   UNL A   1      46.588  29.236  27.654  1.00  0.00     0.037 A 
ATOM     55  C   UNL A   1      39.968  28.364  29.354  1.00  0.00     0.037 A 
ATOM     56  C   UNL A   1      46.716  29.030  29.077  1.00  0.00     0.049 A 
ATOM     57  C   UNL A   1      41.010  29.225  29.971  1.00  0.00     0.074 A 
ATOM     58  C   UNL A   1      47.345  28.094  29.876  1.00  0.00     0.029 A 
ATOM     59  N   UNL A   1      45.802  29.660  29.889  1.00  0.00    -0.354 N 
ATOM     60  N   UNL A   1      41.673  28.911  31.049  1.00  0.00    -0.248 NA
ATOM     61  C   UNL A   1      41.621  30.250  29.140  1.00  0.00     0.031 C 
ATOM     62  C   UNL A   1      46.455  27.882  30.969  1.00  0.00     0.029 A 
ATOM     63  C   UNL A   1      45.374  28.752  30.821  1.00  0.00     0.049 A 
ATOM     64  H   UNL A   1      45.509  30.597  29.814  1.00  0.00     0.167 HD
ATOM     65  C   UNL A   1      42.963  29.361  30.814  1.00  0.00     0.074 A 
ATOM     66  C   UNL A   1      42.844  30.267  29.674  1.00  0.00     0.031 C 
ATOM     67  C   UNL A   1      44.039  28.739  31.379  1.00  0.00     0.037 A 
BRANCH  54  68
ATOM     68  C   UNL A   1      46.642  30.625  27.041  1.00  0.00     0.058 A 
ATOM     69  C   UNL A   1      47.866  31.334  27.062  1.00  0.00     0.135 A 
ATOM     70  C   UNL A   1      45.510  31.400  26.700  1.00  0.00     0.135 A 
ATOM     71  F   UNL A   1      49.015  30.708  27.361  1.00  0.00    -0.206 F 
ATOM     72  C   UNL A   1      47.941  32.714  26.865  1.00  0.00     0.059 A 
ATOM     73  C   UNL A   1      45.572  32.766  26.446  1.00  0.00     0.059 A 
ATOM     74  F   UNL A   1      44.270  30.903  26.686  1.00  0.00    -0.206 F 
ATOM     75  C   UNL A   1      46.782  33.424  26.576  1.00  0.00     0.060 A 
BRANCH  75  76
ATOM     76  S   UNL A   1      46.853  35.216  26.421  1.00  0.00     0.124 S 
ATOM     77  O   UNL A   1      47.059  35.617  27.807  1.00  0.00    -0.237 OA
ATOM     78  O   UNL A   1      47.989  35.396  25.523  1.00  0.00    -0.237 OA
ATOM     79  O   UNL A   1      45.552  35.553  25.849  1.00  0.00    -0.744 OA
ENDBRANCH  75  76
ENDBRANCH  54  68
BRANCH  55  80
ATOM     80  C   UNL A   1      38.601  28.872  29.057  1.00  0.00     0.058 A 
ATOM     81  C   UNL A   1      37.673  29.089  30.094  1.00  0.00     0.135 A 
ATOM     82  C   UNL A   1      38.275  29.442  27.810  1.00  0.00     0.135 A 
ATOM     83  F   UNL A   1      37.900  28.587  31.317  1.00  0.00    -0.206 F 
ATOM     84  C   UNL A   1      36.538  29.890  29.930  1.00  0.00     0.059 A 
ATOM     85  C   UNL A   1      37.142  30.234  27.619  1.00  0.00     0.059 A 
ATOM     86  F   UNL A   1      39.103  29.329  26.760  1.00  0.00    -0.206 F 
ATOM     87  C   UNL A   1      36.297  30.484  28.693  1.00  0.00     0.060 A 
BRANCH  87  88
ATOM     88  S   UNL A   1      34.959  31.692  28.535  1.00  0.00     0.124 S 
ATOM     89  O   UNL A   1      33.884  30.881  27.974  1.00  0.00    -0.237 OA
ATOM     90  O   UNL A   1      34.774  32.130  29.915  1.00  0.00    -0.237 OA
ATOM     91  O   UNL A   1      35.518  32.698  27.636  1.00  0.00    -0.744 OA
ENDBRANCH  87  88
ENDBRANCH  55  80
BRANCH  67  92
ATOM     92  C   UNL A   1      43.804  27.806  32.539  1.00  0.00     0.058 A 
ATOM     93  C   UNL A   1      43.726  26.404  32.448  1.00  0.00     0.135 A 
ATOM     94  C   UNL A   1      43.813  28.363  33.827  1.00  0.00     0.135 A 
ATOM     95  F   UNL A   1      43.808  25.782  31.264  1.00  0.00    -0.206 F 
ATOM     96  C   UNL A   1      43.628  25.599  33.587  1.00  0.00     0.059 A 
ATOM     97  C   UNL A   1      43.750  27.580  34.974  1.00  0.00     0.059 A 
ATOM     98  F   UNL A   1      43.941  29.692  33.984  1.00  0.00    -0.206 F 
ATOM     99  C   UNL A   1      43.645  26.198  34.847  1.00  0.00     0.060 A 
BRANCH  99 100
ATOM    100  S   UNL A   1      43.604  25.156  36.322  1.00  0.00     0.124 S 
ATOM    101  O   UNL A   1      42.649  24.122  35.940  1.00  0.00    -0.237 OA
ATOM    102  O   UNL A   1      44.994  24.723  36.445  1.00  0.00    -0.237 OA
ATOM    103  O   UNL A   1      43.151  26.066  37.371  1.00  0.00    -0.744 OA
ENDBRANCH  99 100
ENDBRANCH  67  92
ENDBRANCH  41  42
ENDBRANCH  33  36
ENDBRANCH  31  32
ENDBRANCH  30  31
ENDBRANCH  29  30
ENDBRANCH   1  29
TORSDOF 19
ENDMDL
MODEL 2
REMARK VINA RESULT:     -12.4      3.242      9.786
REMARK SMILES Cc1n[nH]c(C[N@H+]2CCC[C@H](c3cccc(C(=O)NCCCCCCNC(=O)c4ccc(-c5c6nc(c(-c7c(F)cc(S(=O)(=O)[O-])cc7F)c7ccc([nH]7)c(-c7c(F)cc(S(=O)(=O)[O-])cc7F)c7nc(c(-c8c(F)cc(S(=O)(=O)[O-])cc8F)c8ccc5[nH]8)C=C7)C=C6)cc4)c3)C2)n1
REMARK SMILES IDX 22 1 21 2 20 3 19 4 17 5 18 6 16 8 12 9 13 10 95 11 14 12
REMARK SMILES IDX 15 13 11 14 7 15 8 16 96 17 9 19 10 20 6 21 5 22 1 23 2 24
REMARK SMILES IDX 3 25 97 26 4 27 23 29 24 30 25 31 26 32 27 33 28 35 29 36
REMARK SMILES IDX 30 37 94 38 31 39 93 40 32 41 33 42 34 43 87 44 35 45 92 46
REMARK SMILES IDX 86 47 88 48 36 49 91 50 85 51 84 52 37 54 71 55 50 56 70 57
REMARK SMILES IDX 51 58 54 59 69 60 89 61 52 62 53 63 68 65 90 66 55 67 38 68
REMARK SMILES IDX 39 69 48 70 40 71 41 72 47 73 49 74 42 75 43 76 44 77 45 78
REMARK SMILES IDX 46 79 72 80 73 81 82 82 74 83 75 84 81 85 83 86 76 87 77 88
REMARK SMILES IDX 78 89 79 90 80 91 56 92 57 93 66 94 58 95 59 96 65 97 67 98
REMARK SMILES IDX 60 99 61 100 62 101 63 102 64 103
REMARK H PARENT 19 7 7 18 4 28 26 34 88 53 54 64
REMARK Flexibility Score: inf
ROOT
ATOM      1  C   UNL A   1      34.936  31.024  28.075  1.00  0.00     0.002 C 
ENDROOT
BRANCH   1   2
ATOM      2  C   UNL A   1      35.414  29.688  27.516  1.00  0.00     0.021 C 
BRANCH   2   3
ATOM      3  C   UNL A   1      34.373  28.814  26.831  1.00  0.00     0.116 C 
BRANCH   3   4
ATOM      4  N   UNL A   1      33.098  28.693  27.526  1.00  0.00    -0.352 N 
ATOM      5  C   UNL A   1      32.051  27.806  27.354  1.00  0.00     0.251 C 
ATOM      6  O   UNL A   1      31.075  27.897  28.098  1.00  0.00    -0.269 OA
ATOM      7  H   UNL A   1      32.958  29.356  28.239  1.00  0.00     0.163 HD
BRANCH   5   8
ATOM      8  C   UNL A   1      32.044  26.786  26.268  1.00  0.00     0.040 A 
ATOM      9  C   UNL A   1      33.020  24.794  25.242  1.00  0.00    -0.039 A 
ATOM     10  C   UNL A   1      32.310  25.089  24.069  1.00  0.00     0.004 A 
ATOM     11  C   UNL A   1      32.774  25.602  26.360  1.00  0.00     0.018 A 
ATOM     12  C   UNL A   1      31.434  26.176  24.011  1.00  0.00     0.001 A 
ATOM     13  C   UNL A   1      31.326  27.044  25.098  1.00  0.00     0.014 A 
BRANCH   9  14
ATOM     14  C   UNL A   1      34.159  23.774  25.303  1.00  0.00     0.074 C 
ATOM     15  N   UNL A   1      32.869  21.662  25.039  1.00  0.00    -0.328 N 
ATOM     16  C   UNL A   1      33.182  21.243  26.411  1.00  0.00     0.262 C 
ATOM     17  C   UNL A   1      33.952  22.493  24.473  1.00  0.00     0.270 C 
ATOM     18  H   UNL A   1      32.025  22.231  25.104  1.00  0.00     0.348 HD
ATOM     19  C   UNL A   1      33.483  22.435  27.327  1.00  0.00     0.062 C 
ATOM     20  C   UNL A   1      34.562  23.329  26.725  1.00  0.00     0.020 C 
BRANCH  15  21
ATOM     21  C   UNL A   1      32.537  20.538  24.145  1.00  0.00     0.340 C 
BRANCH  21  22
ATOM     22  C   UNL A   1      32.963  19.202  24.649  1.00  0.00     0.179 A 
ATOM     23  C   UNL A   1      32.588  15.834  25.612  1.00  0.00     0.092 C 
ATOM     24  C   UNL A   1      33.066  17.182  25.247  1.00  0.00     0.147 A 
ATOM     25  N   UNL A   1      34.341  17.466  24.946  1.00  0.00    -0.159 NA
ATOM     26  N   UNL A   1      32.205  18.236  25.122  1.00  0.00    -0.211 NA
ATOM     27  N   UNL A   1      34.251  18.757  24.591  1.00  0.00    -0.258 N 
ATOM     28  H   UNL A   1      35.017  19.313  24.323  1.00  0.00     0.192 HD
ENDBRANCH  21  22
ENDBRANCH  15  21
ENDBRANCH   9  14
ENDBRANCH   5   8
ENDBRANCH   3   4
ENDBRANCH   2   3
ENDBRANCH   1   2
BRANCH   1  29
ATOM     29  C   UNL A   1      35.899  32.213  27.984  1.00  0.00     0.002 C 
BRANCH  29  30
ATOM     30  C   UNL A   1      35.341  33.616  28.262  1.00  0.00     0.021 C 
BRANCH  30  31
ATOM     31  C   UNL A   1      34.063  33.668  29.087  1.00  0.00     0.116 C 
BRANCH  31  32
ATOM     32  N   UNL A   1      34.111  34.660  30.156  1.00  0.00    -0.352 N 
ATOM     33  C   UNL A   1      34.785  34.597  31.362  1.00  0.00     0.251 C 
ATOM     34  H   UNL A   1      33.596  35.484  29.998  1.00  0.00     0.163 HD
ATOM     35  O   UNL A   1      34.432  35.293  32.302  1.00  0.00    -0.269 OA
BRANCH  33  36
ATOM     36  C   UNL A   1      35.932  33.675  31.503  1.00  0.00     0.039 A 
ATOM     37  C   UNL A   1      35.734  32.308  31.719  1.00  0.00     0.014 A 
ATOM     38  C   UNL A   1      37.221  34.195  31.418  1.00  0.00     0.014 A 
ATOM     39  C   UNL A   1      36.842  31.463  31.760  1.00  0.00     0.010 A 
ATOM     40  C   UNL A   1      38.299  33.349  31.315  1.00  0.00     0.010 A 
ATOM     41  C   UNL A   1      38.124  31.987  31.534  1.00  0.00    -0.014 A 
BRANCH  41  42
ATOM     42  C   UNL A   1      39.277  31.099  31.388  1.00  0.00     0.031 A 
ATOM     43  C   UNL A   1      39.967  30.783  32.669  1.00  0.00     0.074 A 
ATOM     44  C   UNL A   1      39.553  30.421  30.252  1.00  0.00     0.049 A 
ATOM     45  N   UNL A   1      41.144  31.152  33.053  1.00  0.00    -0.248 NA
ATOM     46  C   UNL A   1      39.188  30.109  33.722  1.00  0.00     0.031 C 
ATOM     47  C   UNL A   1      38.759  30.361  29.018  1.00  0.00     0.029 A 
ATOM     48  N   UNL A   1      40.556  29.535  29.997  1.00  0.00    -0.354 N 
ATOM     49  C   UNL A   1      41.349  30.543  34.290  1.00  0.00     0.074 A 
ATOM     50  C   UNL A   1      40.050  30.121  34.740  1.00  0.00     0.031 C 
ATOM     51  C   UNL A   1      39.174  29.323  28.261  1.00  0.00     0.029 A 
ATOM     52  C   UNL A   1      40.365  28.752  28.861  1.00  0.00     0.049 A 
ATOM     53  H   UNL A   1      41.352  29.455  30.571  1.00  0.00     0.167 HD
ATOM     54  C   UNL A   1      42.600  30.199  34.708  1.00  0.00     0.037 A 
ATOM     55  C   UNL A   1      41.118  27.694  28.463  1.00  0.00     0.037 A 
ATOM     56  C   UNL A   1      43.603  30.874  33.918  1.00  0.00     0.049 A 
ATOM     57  C   UNL A   1      42.422  27.809  29.163  1.00  0.00     0.074 A 
ATOM     58  C   UNL A   1      43.900  32.194  33.637  1.00  0.00     0.029 A 
ATOM     59  N   UNL A   1      44.253  30.133  32.960  1.00  0.00    -0.354 N 
ATOM     60  N   UNL A   1      43.289  28.759  28.942  1.00  0.00    -0.248 NA
ATOM     61  C   UNL A   1      42.579  27.105  30.425  1.00  0.00     0.031 C 
ATOM     62  C   UNL A   1      44.300  32.200  32.268  1.00  0.00     0.029 A 
ATOM     63  C   UNL A   1      44.302  30.881  31.813  1.00  0.00     0.049 A 
ATOM     64  H   UNL A   1      44.619  29.226  33.077  1.00  0.00     0.167 HD
ATOM     65  C   UNL A   1      43.807  29.062  30.191  1.00  0.00     0.074 A 
ATOM     66  C   UNL A   1      43.412  27.944  31.045  1.00  0.00     0.031 C 
ATOM     67  C   UNL A   1      44.257  30.318  30.481  1.00  0.00     0.037 A 
BRANCH  54  68
ATOM     68  C   UNL A   1      42.932  28.972  35.539  1.00  0.00     0.058 A 
ATOM     69  C   UNL A   1      43.789  29.115  36.656  1.00  0.00     0.135 A 
ATOM     70  C   UNL A   1      42.693  27.638  35.138  1.00  0.00     0.135 A 
ATOM     71  F   UNL A   1      44.085  30.331  37.141  1.00  0.00    -0.206 F 
ATOM     72  C   UNL A   1      44.433  28.031  37.254  1.00  0.00     0.059 A 
ATOM     73  C   UNL A   1      43.282  26.541  35.756  1.00  0.00     0.059 A 
ATOM     74  F   UNL A   1      41.953  27.324  34.071  1.00  0.00    -0.206 F 
ATOM     75  C   UNL A   1      44.187  26.748  36.782  1.00  0.00     0.060 A 
BRANCH  75  76
ATOM     76  S   UNL A   1      45.091  25.355  37.479  1.00  0.00     0.124 S 
ATOM     77  O   UNL A   1      46.470  25.745  37.215  1.00  0.00    -0.237 OA
ATOM     78  O   UNL A   1      44.669  25.392  38.875  1.00  0.00    -0.237 OA
ATOM     79  O   UNL A   1      44.594  24.217  36.711  1.00  0.00    -0.744 OA
ENDBRANCH  75  76
ENDBRANCH  54  68
BRANCH  55  80
ATOM     80  C   UNL A   1      40.706  26.446  27.764  1.00  0.00     0.058 A 
ATOM     81  C   UNL A   1      41.477  25.928  26.704  1.00  0.00     0.135 A 
ATOM     82  C   UNL A   1      39.740  25.575  28.306  1.00  0.00     0.135 A 
ATOM     83  F   UNL A   1      42.423  26.684  26.127  1.00  0.00    -0.206 F 
ATOM     84  C   UNL A   1      41.355  24.606  26.265  1.00  0.00     0.059 A 
ATOM     85  C   UNL A   1      39.592  24.256  27.875  1.00  0.00     0.059 A 
ATOM     86  F   UNL A   1      38.974  25.950  29.342  1.00  0.00    -0.206 F 
ATOM     87  C   UNL A   1      40.429  23.767  26.879  1.00  0.00     0.060 A 
BRANCH  87  88
ATOM     88  S   UNL A   1      40.420  22.004  26.469  1.00  0.00     0.124 S 
ATOM     89  O   UNL A   1      41.605  21.883  25.627  1.00  0.00    -0.237 OA
ATOM     90  O   UNL A   1      40.505  21.381  27.785  1.00  0.00    -0.237 OA
ATOM     91  O   UNL A   1      39.143  21.824  25.781  1.00  0.00    -0.744 OA
ENDBRANCH  87  88
ENDBRANCH  55  80
BRANCH  67  92
ATOM     92  C   UNL A   1      44.531  31.265  29.341  1.00  0.00     0.058 A 
ATOM     93  C   UNL A   1      45.693  31.264  28.548  1.00  0.00     0.135 A 
ATOM     94  C   UNL A   1      43.486  32.113  28.942  1.00  0.00     0.135 A 
ATOM     95  F   UNL A   1      46.701  30.417  28.799  1.00  0.00    -0.206 F 
ATOM     96  C   UNL A   1      45.820  32.094  27.431  1.00  0.00     0.059 A 
ATOM     97  C   UNL A   1      43.577  32.922  27.815  1.00  0.00     0.059 A 
ATOM     98  F   UNL A   1      42.328  32.120  29.624  1.00  0.00    -0.206 F 
ATOM     99  C   UNL A   1      44.753  32.917  27.070  1.00  0.00     0.060 A 
BRANCH  99 100
ATOM    100  S   UNL A   1      44.880  33.928  25.579  1.00  0.00     0.124 S 
ATOM    101  O   UNL A   1      46.317  34.163  25.489  1.00  0.00    -0.237 OA
ATOM    102  O   UNL A   1      44.314  33.056  24.553  1.00  0.00    -0.237 OA
ATOM    103  O   UNL A   1      44.075  35.106  25.894  1.00  0.00    -0.744 OA
ENDBRANCH  99 100
ENDBRANCH  67  92
ENDBRANCH  41  42
ENDBRANCH  33  36
ENDBRANCH  31  32
ENDBRANCH  30  31
ENDBRANCH  29  30
ENDBRANCH   1  29
TORSDOF 19
ENDMDL
MODEL 3
REMARK VINA RESULT:     -12.3      2.686      9.562
REMARK SMILES Cc1n[nH]c(C[N@H+]2CCC[C@H](c3cccc(C(=O)NCCCCCCNC(=O)c4ccc(-c5c6nc(c(-c7c(F)cc(S(=O)(=O)[O-])cc7F)c7ccc([nH]7)c(-c7c(F)cc(S(=O)(=O)[O-])cc7F)c7nc(c(-c8c(F)cc(S(=O)(=O)[O-])cc8F)c8ccc5[nH]8)C=C7)C=C6)cc4)c3)C2)n1
REMARK SMILES IDX 22 1 21 2 20 3 19 4 17 5 18 6 16 8 12 9 13 10 95 11 14 12
REMARK SMILES IDX 15 13 11 14 7 15 8 16 96 17 9 19 10 20 6 21 5 22 1 23 2 24
REMARK SMILES IDX 3 25 97 26 4 27 23 29 24 30 25 31 26 32 27 33 28 35 29 36
REMARK SMILES IDX 30 37 94 38 31 39 93 40 32 41 33 42 34 43 87 44 35 45 92 46
REMARK SMILES IDX 86 47 88 48 36 49 91 50 85 51 84 52 37 54 71 55 50 56 70 57
REMARK SMILES IDX 51 58 54 59 69 60 89 61 52 62 53 63 68 65 90 66 55 67 38 68
REMARK SMILES IDX 39 69 48 70 40 71 41 72 47 73 49 74 42 75 43 76 44 77 45 78
REMARK SMILES IDX 46 79 72 80 73 81 82 82 74 83 75 84 81 85 83 86 76 87 77 88
REMARK SMILES IDX 78 89 79 90 80 91 56 92 57 93 66 94 58 95 59 96 65 97 67 98
REMARK SMILES IDX 60 99 61 100 62 101 63 102 64 103
REMARK H PARENT 19 7 7 18 4 28 26 34 88 53 54 64
REMARK Flexibility Score: inf
ROOT
ATOM      1  C   UNL A   1      31.698  28.770  24.762  1.00  0.00     0.002 C 
ENDROOT
BRANCH   1   2
ATOM      2  C   UNL A   1      32.279  29.105  23.392  1.00  0.00     0.021 C 
BRANCH   2   3
ATOM      3  C   UNL A   1      33.647  28.525  23.063  1.00  0.00     0.116 C 
BRANCH   3   4
ATOM      4  N   UNL A   1      33.672  27.548  21.983  1.00  0.00    -0.352 N 
ATOM      5  C   UNL A   1      33.138  26.275  21.897  1.00  0.00     0.251 C 
ATOM      6  O   UNL A   1      33.277  25.649  20.847  1.00  0.00    -0.269 OA
ATOM      7  H   UNL A   1      34.152  27.844  21.177  1.00  0.00     0.163 HD
BRANCH   5   8
ATOM      8  C   UNL A   1      32.451  25.623  23.047  1.00  0.00     0.040 A 
ATOM      9  C   UNL A   1      32.573  24.315  25.107  1.00  0.00    -0.039 A 
ATOM     10  C   UNL A   1      31.196  24.072  24.998  1.00  0.00     0.004 A 
ATOM     11  C   UNL A   1      33.147  25.189  24.175  1.00  0.00     0.018 A 
ATOM     12  C   UNL A   1      30.444  24.643  23.968  1.00  0.00     0.001 A 
ATOM     13  C   UNL A   1      31.076  25.390  22.974  1.00  0.00     0.014 A 
BRANCH   9  14
ATOM     14  C   UNL A   1      33.491  23.543  26.058  1.00  0.00     0.074 C 
ATOM     15  N   UNL A   1      35.182  22.696  24.440  1.00  0.00    -0.328 N 
ATOM     16  C   UNL A   1      34.750  21.307  24.642  1.00  0.00     0.262 C 
ATOM     17  C   UNL A   1      34.979  23.502  25.661  1.00  0.00     0.270 C 
ATOM     18  H   UNL A   1      34.587  23.071  23.702  1.00  0.00     0.348 HD
ATOM     19  C   UNL A   1      33.295  21.215  25.114  1.00  0.00     0.062 C 
ATOM     20  C   UNL A   1      33.061  22.088  26.343  1.00  0.00     0.020 C 
BRANCH  15  21
ATOM     21  C   UNL A   1      36.568  22.812  23.950  1.00  0.00     0.340 C 
BRANCH  21  22
ATOM     22  C   UNL A   1      37.612  22.558  24.982  1.00  0.00     0.179 A 
ATOM     23  C   UNL A   1      40.237  20.833  26.578  1.00  0.00     0.092 C 
ATOM     24  C   UNL A   1      39.208  21.792  26.128  1.00  0.00     0.147 A 
ATOM     25  N   UNL A   1      39.192  23.086  26.474  1.00  0.00    -0.159 NA
ATOM     26  N   UNL A   1      38.224  21.425  25.253  1.00  0.00    -0.211 NA
ATOM     27  N   UNL A   1      38.158  23.543  25.751  1.00  0.00    -0.258 N 
ATOM     28  H   UNL A   1      37.834  24.472  25.772  1.00  0.00     0.192 HD
ENDBRANCH  21  22
ENDBRANCH  15  21
ENDBRANCH   9  14
ENDBRANCH   5   8
ENDBRANCH   3   4
ENDBRANCH   2   3
ENDBRANCH   1   2
BRANCH   1  29
ATOM     29  C   UNL A   1      32.657  28.216  25.821  1.00  0.00     0.002 C 
BRANCH  29  30
ATOM     30  C   UNL A   1      32.949  29.082  27.054  1.00  0.00     0.021 C 
BRANCH  30  31
ATOM     31  C   UNL A   1      34.257  29.859  27.022  1.00  0.00     0.116 C 
BRANCH  31  32
ATOM     32  N   UNL A   1      34.158  31.174  27.649  1.00  0.00    -0.352 N 
ATOM     33  C   UNL A   1      34.861  31.669  28.731  1.00  0.00     0.251 C 
ATOM     34  H   UNL A   1      33.503  31.789  27.248  1.00  0.00     0.163 HD
ATOM     35  O   UNL A   1      34.415  32.603  29.380  1.00  0.00    -0.269 OA
BRANCH  33  36
ATOM     36  C   UNL A   1      36.155  31.054  29.097  1.00  0.00     0.039 A 
ATOM     37  C   UNL A   1      36.274  29.670  29.251  1.00  0.00     0.014 A 
ATOM     38  C   UNL A   1      37.259  31.882  29.287  1.00  0.00     0.014 A 
ATOM     39  C   UNL A   1      37.531  29.125  29.512  1.00  0.00     0.010 A 
ATOM     40  C   UNL A   1      38.515  31.338  29.401  1.00  0.00     0.010 A 
ATOM     41  C   UNL A   1      38.655  29.965  29.563  1.00  0.00    -0.014 A 
BRANCH  41  42
ATOM     42  C   UNL A   1      40.002  29.402  29.650  1.00  0.00     0.031 A 
ATOM     43  C   UNL A   1      40.498  29.225  31.043  1.00  0.00     0.074 A 
ATOM     44  C   UNL A   1      40.648  28.855  28.596  1.00  0.00     0.049 A 
ATOM     45  N   UNL A   1      41.450  29.865  31.637  1.00  0.00    -0.248 NA
ATOM     46  C   UNL A   1      39.734  28.340  31.938  1.00  0.00     0.031 C 
ATOM     47  C   UNL A   1      40.140  28.641  27.235  1.00  0.00     0.029 A 
ATOM     48  N   UNL A   1      41.872  28.261  28.547  1.00  0.00    -0.354 N 
ATOM     49  C   UNL A   1      41.569  29.285  32.899  1.00  0.00     0.074 A 
ATOM     50  C   UNL A   1      40.361  28.533  33.101  1.00  0.00     0.031 C 
ATOM     51  C   UNL A   1      40.938  27.768  26.584  1.00  0.00     0.029 A 
ATOM     52  C   UNL A   1      42.102  27.495  27.407  1.00  0.00     0.049 A 
ATOM     53  H   UNL A   1      42.542  28.364  29.262  1.00  0.00     0.167 HD
ATOM     54  C   UNL A   1      42.767  29.253  33.550  1.00  0.00     0.037 A 
ATOM     55  C   UNL A   1      43.160  26.676  27.172  1.00  0.00     0.037 A 
ATOM     56  C   UNL A   1      43.694  30.186  32.955  1.00  0.00     0.049 A 
ATOM     57  C   UNL A   1      44.238  27.092  28.104  1.00  0.00     0.074 A 
ATOM     58  C   UNL A   1      43.692  31.548  32.717  1.00  0.00     0.029 A 
ATOM     59  N   UNL A   1      44.678  29.667  32.147  1.00  0.00    -0.354 N 
ATOM     60  N   UNL A   1      44.861  28.237  28.038  1.00  0.00    -0.248 NA
ATOM     61  C   UNL A   1      44.330  26.406  29.383  1.00  0.00     0.031 C 
ATOM     62  C   UNL A   1      44.325  31.703  31.449  1.00  0.00     0.029 A 
ATOM     63  C   UNL A   1      44.748  30.444  31.020  1.00  0.00     0.049 A 
ATOM     64  H   UNL A   1      45.234  28.879  32.343  1.00  0.00     0.167 HD
ATOM     65  C   UNL A   1      45.042  28.616  29.359  1.00  0.00     0.074 A 
ATOM     66  C   UNL A   1      44.793  27.405  30.137  1.00  0.00     0.031 C 
ATOM     67  C   UNL A   1      45.096  29.934  29.711  1.00  0.00     0.037 A 
BRANCH  54  68
ATOM     68  C   UNL A   1      43.239  28.121  34.446  1.00  0.00     0.058 A 
ATOM     69  C   UNL A   1      43.671  28.423  35.758  1.00  0.00     0.135 A 
ATOM     70  C   UNL A   1      43.558  26.819  33.998  1.00  0.00     0.135 A 
ATOM     71  F   UNL A   1      43.419  29.624  36.303  1.00  0.00    -0.206 F 
ATOM     72  C   UNL A   1      44.443  27.544  36.519  1.00  0.00     0.059 A 
ATOM     73  C   UNL A   1      44.280  25.908  34.761  1.00  0.00     0.059 A 
ATOM     74  F   UNL A   1      43.273  26.386  32.766  1.00  0.00    -0.206 F 
ATOM     75  C   UNL A   1      44.759  26.294  36.001  1.00  0.00     0.060 A 
BRANCH  75  76
ATOM     76  S   UNL A   1      45.840  25.194  36.930  1.00  0.00     0.124 S 
ATOM     77  O   UNL A   1      46.479  26.126  37.849  1.00  0.00    -0.237 OA
ATOM     78  O   UNL A   1      44.885  24.261  37.519  1.00  0.00    -0.237 OA
ATOM     79  O   UNL A   1      46.704  24.626  35.898  1.00  0.00    -0.744 OA
ENDBRANCH  75  76
ENDBRANCH  54  68
BRANCH  55  80
ATOM     80  C   UNL A   1      43.217  25.390  26.425  1.00  0.00     0.058 A 
ATOM     81  C   UNL A   1      44.105  25.225  25.344  1.00  0.00     0.135 A 
ATOM     82  C   UNL A   1      42.640  24.209  26.934  1.00  0.00     0.135 A 
ATOM     83  F   UNL A   1      44.704  26.293  24.795  1.00  0.00    -0.206 F 
ATOM     84  C   UNL A   1      44.463  23.966  24.853  1.00  0.00     0.059 A 
ATOM     85  C   UNL A   1      42.973  22.942  26.452  1.00  0.00     0.059 A 
ATOM     86  F   UNL A   1      41.808  24.243  27.986  1.00  0.00    -0.206 F 
ATOM     87  C   UNL A   1      43.913  22.826  25.435  1.00  0.00     0.060 A 
BRANCH  87  88
ATOM     88  S   UNL A   1      44.537  21.196  24.955  1.00  0.00     0.124 S 
ATOM     89  O   UNL A   1      45.859  21.185  25.571  1.00  0.00    -0.237 OA
ATOM     90  O   UNL A   1      43.549  20.301  25.549  1.00  0.00    -0.237 OA
ATOM     91  O   UNL A   1      44.527  21.248  23.495  1.00  0.00    -0.744 OA
ENDBRANCH  87  88
ENDBRANCH  55  80
BRANCH  67  92
ATOM     92  C   UNL A   1      45.327  30.959  28.630  1.00  0.00     0.058 A 
ATOM     93  C   UNL A   1      44.319  31.550  27.846  1.00  0.00     0.135 A 
ATOM     94  C   UNL A   1      46.625  31.475  28.498  1.00  0.00     0.135 A 
ATOM     95  F   UNL A   1      43.036  31.186  27.977  1.00  0.00    -0.206 F 
ATOM     96  C   UNL A   1      44.601  32.583  26.947  1.00  0.00     0.059 A 
ATOM     97  C   UNL A   1      46.922  32.524  27.635  1.00  0.00     0.059 A 
ATOM     98  F   UNL A   1      47.622  30.992  29.259  1.00  0.00    -0.206 F 
ATOM     99  C   UNL A   1      45.906  33.066  26.852  1.00  0.00     0.060 A 
BRANCH  99 100
ATOM    100  S   UNL A   1      46.257  34.457  25.755  1.00  0.00     0.124 S 
ATOM    101  O   UNL A   1      47.682  34.287  25.491  1.00  0.00    -0.237 OA
ATOM    102  O   UNL A   1      45.368  34.204  24.625  1.00  0.00    -0.237 OA
ATOM    103  O   UNL A   1      45.907  35.625  26.560  1.00  0.00    -0.744 OA
ENDBRANCH  99 100
ENDBRANCH  67  92
ENDBRANCH  41  42
ENDBRANCH  33  36
ENDBRANCH  31  32
ENDBRANCH  30  31
ENDBRANCH  29  30
ENDBRANCH   1  29
TORSDOF 19
ENDMDL
