MODEL 1
REMARK VINA RESULT:     -11.2      0.000      0.000
REMARK SMILES CC[C@](C)(NC(=O)[C@](C)([NH3+])c1ccccc1)C(=O)NCCCCCCNC(=O)c1ccc(-c2c3nc(c(-c4c(F)cc(S(=O)(=O)[O-])cc4F)c4ccc([nH]4)c(-c4c(F)cc(S(=O)(=O)[O-])cc4F)c4nc(c(-c5c(F)cc(S(=O)(=O)[O-])cc5F)c5ccc2[nH]5)C=C4)C=C3)cc1
REMARK SMILES IDX 22 1 21 2 20 3 19 4 17 5 18 6 3 8 4 9 2 10 1 11 5 12 6 13
REMARK SMILES IDX 7 15 8 16 9 17 10 18 11 22 12 23 16 24 13 25 15 26 14 27
REMARK SMILES IDX 23 28 24 29 25 30 26 31 27 32 28 34 29 35 30 36 94 37 31 38
REMARK SMILES IDX 93 39 32 40 33 41 34 42 87 43 35 44 92 45 86 46 88 47 36 48
REMARK SMILES IDX 91 49 85 50 84 51 37 53 71 54 50 55 70 56 51 57 54 58 69 59
REMARK SMILES IDX 89 60 52 61 53 62 68 64 90 65 55 66 38 67 39 68 48 69 40 70
REMARK SMILES IDX 41 71 47 72 49 73 42 74 43 75 44 76 45 77 46 78 72 79 73 80
REMARK SMILES IDX 82 81 74 82 75 83 81 84 83 85 76 86 77 87 78 88 79 89 80 90
REMARK SMILES IDX 56 91 57 92 66 93 58 94 59 95 65 96 67 97 60 98 61 99 62 100
REMARK SMILES IDX 63 101 64 102
REMARK H PARENT 19 7 5 14 10 19 10 20 10 21 26 33 88 52 54 63
REMARK Flexibility Score: inf
ROOT
ATOM      1  C   UNL A   1      31.766  29.555  26.249  1.00  0.00     0.002 C 
ENDROOT
BRANCH   1   2
ATOM      2  C   UNL A   1      32.113  29.320  24.788  1.00  0.00     0.021 C 
BRANCH   2   3
ATOM      3  C   UNL A   1      31.654  28.012  24.130  1.00  0.00     0.116 C 
BRANCH   3   4
ATOM      4  N   UNL A   1      30.636  27.180  24.785  1.00  0.00    -0.354 N 
ATOM      5  C   UNL A   1      30.755  26.080  25.616  1.00  0.00     0.245 C 
ATOM      6  O   UNL A   1      29.894  25.890  26.478  1.00  0.00    -0.272 OA
ATOM      7  H   UNL A   1      29.708  27.454  24.602  1.00  0.00     0.163 HD
BRANCH   5   8
ATOM      8  C   UNL A   1      32.019  25.209  25.552  1.00  0.00     0.116 C 
ATOM      9  C   UNL A   1      33.378  25.917  25.667  1.00  0.00     0.045 C 
BRANCH   8  10
ATOM     10  C   UNL A   1      31.951  24.670  24.068  1.00  0.00     0.035 C 
ATOM     11  C   UNL A   1      30.694  23.963  23.599  1.00  0.00     0.007 C 
ENDBRANCH   8  10
BRANCH   8  12
ATOM     12  N   UNL A   1      31.862  24.240  26.654  1.00  0.00    -0.336 N 
ATOM     13  C   UNL A   1      32.332  22.984  26.930  1.00  0.00     0.286 C 
ATOM     14  H   UNL A   1      31.276  24.581  27.368  1.00  0.00     0.164 HD
ATOM     15  O   UNL A   1      31.856  22.555  28.006  1.00  0.00    -0.267 OA
BRANCH  13  16
ATOM     16  C   UNL A   1      33.305  21.955  26.096  1.00  0.00     0.196 C 
ATOM     17  C   UNL A   1      32.575  21.149  25.024  1.00  0.00     0.096 C 
BRANCH  16  18
ATOM     18  N   UNL A   1      33.609  20.902  27.146  1.00  0.00    -0.341 N 
ATOM     19  H   UNL A   1      33.201  20.011  26.862  1.00  0.00     0.345 HD
ATOM     20  H   UNL A   1      33.213  21.188  28.041  1.00  0.00     0.345 HD
ATOM     21  H   UNL A   1      34.620  20.797  27.239  1.00  0.00     0.345 HD
ENDBRANCH  16  18
BRANCH  16  22
ATOM     22  C   UNL A   1      34.676  22.466  25.543  1.00  0.00     0.022 A 
ATOM     23  C   UNL A   1      35.142  22.135  24.259  1.00  0.00     0.011 A 
ATOM     24  C   UNL A   1      35.598  23.196  26.333  1.00  0.00     0.011 A 
ATOM     25  C   UNL A   1      36.348  22.629  23.731  1.00  0.00     0.001 A 
ATOM     26  C   UNL A   1      36.836  23.645  25.835  1.00  0.00     0.001 A 
ATOM     27  C   UNL A   1      37.195  23.394  24.519  1.00  0.00     0.000 A 
ENDBRANCH  16  22
ENDBRANCH  13  16
ENDBRANCH   8  12
ENDBRANCH   5   8
ENDBRANCH   3   4
ENDBRANCH   2   3
ENDBRANCH   1   2
BRANCH   1  28
ATOM     28  C   UNL A   1      32.802  30.308  27.073  1.00  0.00     0.002 C 
BRANCH  28  29
ATOM     29  C   UNL A   1      34.034  29.490  27.427  1.00  0.00     0.021 C 
BRANCH  29  30
ATOM     30  C   UNL A   1      35.269  30.328  27.728  1.00  0.00     0.116 C 
BRANCH  30  31
ATOM     31  N   UNL A   1      35.341  30.804  29.109  1.00  0.00    -0.352 N 
ATOM     32  C   UNL A   1      36.360  30.601  30.010  1.00  0.00     0.251 C 
ATOM     33  H   UNL A   1      34.573  31.328  29.430  1.00  0.00     0.163 HD
ATOM     34  O   UNL A   1      36.276  30.990  31.172  1.00  0.00    -0.269 OA
BRANCH  32  35
ATOM     35  C   UNL A   1      37.546  29.851  29.549  1.00  0.00     0.039 A 
ATOM     36  C   UNL A   1      37.925  29.933  28.209  1.00  0.00     0.014 A 
ATOM     37  C   UNL A   1      38.367  29.225  30.491  1.00  0.00     0.014 A 
ATOM     38  C   UNL A   1      39.186  29.469  27.831  1.00  0.00     0.010 A 
ATOM     39  C   UNL A   1      39.657  28.863  30.129  1.00  0.00     0.010 A 
ATOM     40  C   UNL A   1      40.084  28.984  28.797  1.00  0.00    -0.014 A 
BRANCH  40  41
ATOM     41  C   UNL A   1      41.476  28.599  28.446  1.00  0.00     0.031 A 
ATOM     42  C   UNL A   1      42.559  29.644  28.439  1.00  0.00     0.074 A 
ATOM     43  C   UNL A   1      41.750  27.338  28.051  1.00  0.00     0.049 A 
ATOM     44  N   UNL A   1      43.811  29.537  28.081  1.00  0.00    -0.248 NA
ATOM     45  C   UNL A   1      42.167  31.004  28.845  1.00  0.00     0.031 C 
ATOM     46  C   UNL A   1      40.776  26.248  27.946  1.00  0.00     0.029 A 
ATOM     47  N   UNL A   1      42.931  26.759  27.658  1.00  0.00    -0.354 N 
ATOM     48  C   UNL A   1      44.345  30.815  28.186  1.00  0.00     0.074 A 
ATOM     49  C   UNL A   1      43.265  31.694  28.577  1.00  0.00     0.031 C 
ATOM     50  C   UNL A   1      41.406  25.126  27.564  1.00  0.00     0.029 A 
ATOM     51  C   UNL A   1      42.820  25.421  27.358  1.00  0.00     0.049 A 
ATOM     52  H   UNL A   1      43.778  27.256  27.596  1.00  0.00     0.167 HD
ATOM     53  C   UNL A   1      45.625  31.220  28.009  1.00  0.00     0.037 A 
ATOM     54  C   UNL A   1      43.756  24.533  26.970  1.00  0.00     0.037 A 
ATOM     55  C   UNL A   1      46.705  30.330  27.676  1.00  0.00     0.049 A 
ATOM     56  C   UNL A   1      45.181  24.994  26.813  1.00  0.00     0.074 A 
ATOM     57  C   UNL A   1      48.053  30.617  27.559  1.00  0.00     0.029 A 
ATOM     58  N   UNL A   1      46.558  28.976  27.413  1.00  0.00    -0.354 N 
ATOM     59  N   UNL A   1      45.683  26.194  26.991  1.00  0.00    -0.248 NA
ATOM     60  C   UNL A   1      46.166  23.983  26.404  1.00  0.00     0.031 C 
ATOM     61  C   UNL A   1      48.717  29.443  27.189  1.00  0.00     0.029 A 
ATOM     62  C   UNL A   1      47.790  28.415  27.117  1.00  0.00     0.049 A 
ATOM     63  H   UNL A   1      45.706  28.485  27.433  1.00  0.00     0.167 HD
ATOM     64  C   UNL A   1      47.047  26.074  26.750  1.00  0.00     0.074 A 
ATOM     65  C   UNL A   1      47.291  24.685  26.417  1.00  0.00     0.031 C 
ATOM     66  C   UNL A   1      48.011  27.027  26.800  1.00  0.00     0.037 A 
BRANCH  53  67
ATOM     67  C   UNL A   1      45.916  32.685  28.184  1.00  0.00     0.058 A 
ATOM     68  C   UNL A   1      46.298  33.219  29.426  1.00  0.00     0.135 A 
ATOM     69  C   UNL A   1      45.798  33.569  27.101  1.00  0.00     0.135 A 
ATOM     70  F   UNL A   1      46.410  32.422  30.500  1.00  0.00    -0.206 F 
ATOM     71  C   UNL A   1      46.500  34.584  29.600  1.00  0.00     0.059 A 
ATOM     72  C   UNL A   1      46.028  34.936  27.244  1.00  0.00     0.059 A 
ATOM     73  F   UNL A   1      45.439  33.114  25.890  1.00  0.00    -0.206 F 
ATOM     74  C   UNL A   1      46.353  35.435  28.505  1.00  0.00     0.060 A 
BRANCH  74  75
ATOM     75  S   UNL A   1      46.591  37.207  28.751  1.00  0.00     0.124 S 
ATOM     76  O   UNL A   1      46.014  37.749  27.524  1.00  0.00    -0.237 OA
ATOM     77  O   UNL A   1      45.833  37.460  29.972  1.00  0.00    -0.237 OA
ATOM     78  O   UNL A   1      48.039  37.342  28.877  1.00  0.00    -0.744 OA
ENDBRANCH  74  75
ENDBRANCH  53  67
BRANCH  54  79
ATOM     79  C   UNL A   1      43.392  23.105  26.761  1.00  0.00     0.058 A 
ATOM     80  C   UNL A   1      43.123  22.270  27.857  1.00  0.00     0.135 A 
ATOM     81  C   UNL A   1      43.292  22.549  25.478  1.00  0.00     0.135 A 
ATOM     82  F   UNL A   1      43.212  22.755  29.105  1.00  0.00    -0.206 F 
ATOM     83  C   UNL A   1      42.781  20.933  27.690  1.00  0.00     0.059 A 
ATOM     84  C   UNL A   1      42.930  21.218  25.284  1.00  0.00     0.059 A 
ATOM     85  F   UNL A   1      43.523  23.308  24.395  1.00  0.00    -0.206 F 
ATOM     86  C   UNL A   1      42.685  20.415  26.397  1.00  0.00     0.060 A 
BRANCH  86  87
ATOM     87  S   UNL A   1      42.188  18.691  26.191  1.00  0.00     0.124 S 
ATOM     88  O   UNL A   1      40.806  18.834  25.749  1.00  0.00    -0.237 OA
ATOM     89  O   UNL A   1      43.135  18.218  25.184  1.00  0.00    -0.237 OA
ATOM     90  O   UNL A   1      42.371  18.128  27.525  1.00  0.00    -0.744 OA
ENDBRANCH  86  87
ENDBRANCH  54  79
BRANCH  66  91
ATOM     91  C   UNL A   1      49.424  26.594  26.525  1.00  0.00     0.058 A 
ATOM     92  C   UNL A   1      50.260  26.112  27.543  1.00  0.00     0.135 A 
ATOM     93  C   UNL A   1      49.928  26.611  25.214  1.00  0.00     0.135 A 
ATOM     94  F   UNL A   1      49.827  26.082  28.815  1.00  0.00    -0.206 F 
ATOM     95  C   UNL A   1      51.554  25.682  27.276  1.00  0.00     0.059 A 
ATOM     96  C   UNL A   1      51.211  26.161  24.920  1.00  0.00     0.059 A 
ATOM     97  F   UNL A   1      49.164  27.053  24.201  1.00  0.00    -0.206 F 
ATOM     98  C   UNL A   1      52.020  25.709  25.960  1.00  0.00     0.060 A 
BRANCH  98  99
ATOM     99  S   UNL A   1      53.690  25.113  25.620  1.00  0.00     0.124 S 
ATOM    100  O   UNL A   1      54.054  25.909  24.453  1.00  0.00    -0.237 OA
ATOM    101  O   UNL A   1      54.397  25.438  26.854  1.00  0.00    -0.237 OA
ATOM    102  O   UNL A   1      53.497  23.687  25.372  1.00  0.00    -0.744 OA
ENDBRANCH  98  99
ENDBRANCH  66  91
ENDBRANCH  40  41
ENDBRANCH  32  35
ENDBRANCH  30  31
ENDBRANCH  29  30
ENDBRANCH  28  29
ENDBRANCH   1  28
TORSDOF 21
ENDMDL
MODEL 2
REMARK VINA RESULT:     -11.1      4.457     10.362
REMARK SMILES CC[C@](C)(NC(=O)[C@](C)([NH3+])c1ccccc1)C(=O)NCCCCCCNC(=O)c1ccc(-c2c3nc(c(-c4c(F)cc(S(=O)(=O)[O-])cc4F)c4ccc([nH]4)c(-c4c(F)cc(S(=O)(=O)[O-])cc4F)c4nc(c(-c5c(F)cc(S(=O)(=O)[O-])cc5F)c5ccc2[nH]5)C=C4)C=C3)cc1
REMARK SMILES IDX 22 1 21 2 20 3 19 4 17 5 18 6 3 8 4 9 2 10 1 11 5 12 6 13
REMARK SMILES IDX 7 15 8 16 9 17 10 18 11 22 12 23 16 24 13 25 15 26 14 27
REMARK SMILES IDX 23 28 24 29 25 30 26 31 27 32 28 34 29 35 30 36 94 37 31 38
REMARK SMILES IDX 93 39 32 40 33 41 34 42 87 43 35 44 92 45 86 46 88 47 36 48
REMARK SMILES IDX 91 49 85 50 84 51 37 53 71 54 50 55 70 56 51 57 54 58 69 59
REMARK SMILES IDX 89 60 52 61 53 62 68 64 90 65 55 66 38 67 39 68 48 69 40 70
REMARK SMILES IDX 41 71 47 72 49 73 42 74 43 75 44 76 45 77 46 78 72 79 73 80
REMARK SMILES IDX 82 81 74 82 75 83 81 84 83 85 76 86 77 87 78 88 79 89 80 90
REMARK SMILES IDX 56 91 57 92 66 93 58 94 59 95 65 96 67 97 60 98 61 99 62 100
REMARK SMILES IDX 63 101 64 102
REMARK H PARENT 19 7 5 14 10 19 10 20 10 21 26 33 88 52 54 63
REMARK Flexibility Score: inf
ROOT
ATOM      1  C   UNL A   1      34.395  21.278  24.729  1.00  0.00     0.002 C 
ENDROOT
BRANCH   1   2
ATOM      2  C   UNL A   1      33.163  20.787  25.472  1.00  0.00     0.021 C 
BRANCH   2   3
ATOM      3  C   UNL A   1      31.835  21.522  25.247  1.00  0.00     0.116 C 
BRANCH   3   4
ATOM      4  N   UNL A   1      31.203  22.249  26.355  1.00  0.00    -0.354 N 
ATOM      5  C   UNL A   1      30.634  23.509  26.411  1.00  0.00     0.245 C 
ATOM      6  O   UNL A   1      29.700  23.706  27.193  1.00  0.00    -0.272 OA
ATOM      7  H   UNL A   1      31.181  21.754  27.207  1.00  0.00     0.163 HD
BRANCH   5   8
ATOM      8  C   UNL A   1      31.065  24.587  25.405  1.00  0.00     0.116 C 
ATOM      9  C   UNL A   1      31.913  24.141  24.203  1.00  0.00     0.045 C 
BRANCH   8  10
ATOM     10  C   UNL A   1      32.027  25.473  26.291  1.00  0.00     0.035 C 
ATOM     11  C   UNL A   1      33.524  25.382  26.069  1.00  0.00     0.007 C 
ENDBRANCH   8  10
BRANCH   8  12
ATOM     12  N   UNL A   1      29.801  25.187  24.934  1.00  0.00    -0.336 N 
ATOM     13  C   UNL A   1      29.455  26.267  24.168  1.00  0.00     0.286 C 
ATOM     14  H   UNL A   1      29.014  24.686  25.246  1.00  0.00     0.164 HD
ATOM     15  O   UNL A   1      28.210  26.381  24.095  1.00  0.00    -0.267 OA
BRANCH  13  16
ATOM     16  C   UNL A   1      30.343  27.432  23.423  1.00  0.00     0.196 C 
ATOM     17  C   UNL A   1      29.501  28.477  22.695  1.00  0.00     0.096 C 
BRANCH  16  18
ATOM     18  N   UNL A   1      30.966  26.658  22.277  1.00  0.00    -0.341 N 
ATOM     19  H   UNL A   1      31.978  26.614  22.406  1.00  0.00     0.345 HD
ATOM     20  H   UNL A   1      30.756  27.125  21.395  1.00  0.00     0.345 HD
ATOM     21  H   UNL A   1      30.586  25.711  22.259  1.00  0.00     0.345 HD
ENDBRANCH  16  18
BRANCH  16  22
ATOM     22  C   UNL A   1      31.509  28.128  24.199  1.00  0.00     0.022 A 
ATOM     23  C   UNL A   1      32.853  28.007  23.809  1.00  0.00     0.011 A 
ATOM     24  C   UNL A   1      31.311  28.829  25.415  1.00  0.00     0.011 A 
ATOM     25  C   UNL A   1      33.905  28.669  24.468  1.00  0.00     0.001 A 
ATOM     26  C   UNL A   1      32.363  29.445  26.117  1.00  0.00     0.001 A 
ATOM     27  C   UNL A   1      33.658  29.397  25.622  1.00  0.00     0.000 A 
ENDBRANCH  16  22
ENDBRANCH  13  16
ENDBRANCH   8  12
ENDBRANCH   5   8
ENDBRANCH   3   4
ENDBRANCH   2   3
ENDBRANCH   1   2
BRANCH   1  28
ATOM     28  C   UNL A   1      35.653  21.471  25.567  1.00  0.00     0.002 C 
BRANCH  28  29
ATOM     29  C   UNL A   1      35.985  22.924  25.868  1.00  0.00     0.021 C 
BRANCH  29  30
ATOM     30  C   UNL A   1      37.234  23.434  25.162  1.00  0.00     0.116 C 
BRANCH  30  31
ATOM     31  N   UNL A   1      38.425  22.620  25.398  1.00  0.00    -0.352 N 
ATOM     32  C   UNL A   1      39.546  22.967  26.115  1.00  0.00     0.251 C 
ATOM     33  H   UNL A   1      38.426  21.721  24.996  1.00  0.00     0.163 HD
ATOM     34  O   UNL A   1      40.520  22.223  26.184  1.00  0.00    -0.269 OA
BRANCH  32  35
ATOM     35  C   UNL A   1      39.561  24.295  26.763  1.00  0.00     0.039 A 
ATOM     36  C   UNL A   1      39.016  24.438  28.039  1.00  0.00     0.014 A 
ATOM     37  C   UNL A   1      40.280  25.336  26.168  1.00  0.00     0.014 A 
ATOM     38  C   UNL A   1      39.280  25.601  28.764  1.00  0.00     0.010 A 
ATOM     39  C   UNL A   1      40.625  26.442  26.932  1.00  0.00     0.010 A 
ATOM     40  C   UNL A   1      40.134  26.586  28.239  1.00  0.00    -0.014 A 
BRANCH  40  41
ATOM     41  C   UNL A   1      40.534  27.776  29.035  1.00  0.00     0.031 A 
ATOM     42  C   UNL A   1      41.875  27.800  29.718  1.00  0.00     0.074 A 
ATOM     43  C   UNL A   1      39.664  28.792  29.216  1.00  0.00     0.049 A 
ATOM     44  N   UNL A   1      42.378  28.698  30.524  1.00  0.00    -0.248 NA
ATOM     45  C   UNL A   1      42.748  26.635  29.501  1.00  0.00     0.031 C 
ATOM     46  C   UNL A   1      38.306  28.859  28.668  1.00  0.00     0.029 A 
ATOM     47  N   UNL A   1      39.789  29.965  29.919  1.00  0.00    -0.354 N 
ATOM     48  C   UNL A   1      43.605  28.192  30.934  1.00  0.00     0.074 A 
ATOM     49  C   UNL A   1      43.741  26.879  30.341  1.00  0.00     0.031 C 
ATOM     50  C   UNL A   1      37.746  30.029  29.014  1.00  0.00     0.029 A 
ATOM     51  C   UNL A   1      38.684  30.780  29.842  1.00  0.00     0.049 A 
ATOM     52  H   UNL A   1      40.596  30.200  30.432  1.00  0.00     0.167 HD
ATOM     53  C   UNL A   1      44.552  28.777  31.705  1.00  0.00     0.037 A 
ATOM     54  C   UNL A   1      38.458  31.998  30.371  1.00  0.00     0.037 A 
ATOM     55  C   UNL A   1      44.434  30.105  32.244  1.00  0.00     0.049 A 
ATOM     56  C   UNL A   1      39.537  32.647  31.196  1.00  0.00     0.074 A 
ATOM     57  C   UNL A   1      45.367  30.828  32.964  1.00  0.00     0.029 A 
ATOM     58  N   UNL A   1      43.312  30.911  32.115  1.00  0.00    -0.354 N 
ATOM     59  N   UNL A   1      40.725  32.185  31.511  1.00  0.00    -0.248 NA
ATOM     60  C   UNL A   1      39.248  33.983  31.736  1.00  0.00     0.031 C 
ATOM     61  C   UNL A   1      44.796  32.060  33.302  1.00  0.00     0.029 A 
ATOM     62  C   UNL A   1      43.523  32.121  32.758  1.00  0.00     0.049 A 
ATOM     63  H   UNL A   1      42.488  30.662  31.639  1.00  0.00     0.167 HD
ATOM     64  C   UNL A   1      41.337  33.187  32.257  1.00  0.00     0.074 A 
ATOM     65  C   UNL A   1      40.389  34.280  32.342  1.00  0.00     0.031 C 
ATOM     66  C   UNL A   1      42.570  33.200  32.820  1.00  0.00     0.037 A 
BRANCH  53  67
ATOM     67  C   UNL A   1      45.794  27.980  31.995  1.00  0.00     0.058 A 
ATOM     68  C   UNL A   1      46.905  28.006  31.137  1.00  0.00     0.135 A 
ATOM     69  C   UNL A   1      45.870  27.170  33.139  1.00  0.00     0.135 A 
ATOM     70  F   UNL A   1      46.881  28.751  30.020  1.00  0.00    -0.206 F 
ATOM     71  C   UNL A   1      48.026  27.216  31.373  1.00  0.00     0.059 A 
ATOM     72  C   UNL A   1      46.995  26.396  33.413  1.00  0.00     0.059 A 
ATOM     73  F   UNL A   1      44.839  27.109  33.996  1.00  0.00    -0.206 F 
ATOM     74  C   UNL A   1      48.057  26.407  32.509  1.00  0.00     0.060 A 
BRANCH  74  75
ATOM     75  S   UNL A   1      49.505  25.366  32.787  1.00  0.00     0.124 S 
ATOM     76  O   UNL A   1      50.403  26.297  33.465  1.00  0.00    -0.237 OA
ATOM     77  O   UNL A   1      48.965  24.292  33.615  1.00  0.00    -0.237 OA
ATOM     78  O   UNL A   1      49.906  24.975  31.440  1.00  0.00    -0.744 OA
ENDBRANCH  74  75
ENDBRANCH  53  67
BRANCH  54  79
ATOM     79  C   UNL A   1      37.184  32.712  30.089  1.00  0.00     0.058 A 
ATOM     80  C   UNL A   1      37.107  33.649  29.046  1.00  0.00     0.135 A 
ATOM     81  C   UNL A   1      36.021  32.470  30.834  1.00  0.00     0.135 A 
ATOM     82  F   UNL A   1      38.194  33.920  28.308  1.00  0.00    -0.206 F 
ATOM     83  C   UNL A   1      35.929  34.331  28.762  1.00  0.00     0.059 A 
ATOM     84  C   UNL A   1      34.823  33.124  30.554  1.00  0.00     0.059 A 
ATOM     85  F   UNL A   1      36.036  31.572  31.831  1.00  0.00    -0.206 F 
ATOM     86  C   UNL A   1      34.790  34.059  29.521  1.00  0.00     0.060 A 
BRANCH  86  87
ATOM     87  S   UNL A   1      33.252  34.911  29.109  1.00  0.00     0.124 S 
ATOM     88  O   UNL A   1      32.680  34.018  28.108  1.00  0.00    -0.237 OA
ATOM     89  O   UNL A   1      32.566  34.949  30.398  1.00  0.00    -0.237 OA
ATOM     90  O   UNL A   1      33.709  36.206  28.614  1.00  0.00    -0.744 OA
ENDBRANCH  86  87
ENDBRANCH  54  79
BRANCH  66  91
ATOM     91  C   UNL A   1      42.984  34.450  33.546  1.00  0.00     0.058 A 
ATOM     92  C   UNL A   1      42.706  34.639  34.908  1.00  0.00     0.135 A 
ATOM     93  C   UNL A   1      43.717  35.446  32.879  1.00  0.00     0.135 A 
ATOM     94  F   UNL A   1      42.002  33.719  35.588  1.00  0.00    -0.206 F 
ATOM     95  C   UNL A   1      43.122  35.783  35.580  1.00  0.00     0.059 A 
ATOM     96  C   UNL A   1      44.165  36.586  33.539  1.00  0.00     0.059 A 
ATOM     97  F   UNL A   1      44.018  35.308  31.578  1.00  0.00    -0.206 F 
ATOM     98  C   UNL A   1      43.852  36.750  34.887  1.00  0.00     0.060 A 
BRANCH  98  99
ATOM     99  S   UNL A   1      44.418  38.212  35.781  1.00  0.00     0.124 S 
ATOM    100  O   UNL A   1      45.866  38.105  35.632  1.00  0.00    -0.237 OA
ATOM    101  O   UNL A   1      43.784  39.298  35.039  1.00  0.00    -0.237 OA
ATOM    102  O   UNL A   1      43.907  38.004  37.132  1.00  0.00    -0.744 OA
ENDBRANCH  98  99
ENDBRANCH  66  91
ENDBRANCH  40  41
ENDBRANCH  32  35
ENDBRANCH  30  31
ENDBRANCH  29  30
ENDBRANCH  28  29
ENDBRANCH   1  28
TORSDOF 21
ENDMDL
MODEL 3
REMARK VINA RESULT:     -10.7      6.344      8.342
REMARK SMILES CC[C@](C)(NC(=O)[C@](C)([NH3+])c1ccccc1)C(=O)NCCCCCCNC(=O)c1ccc(-c2c3nc(c(-c4c(F)cc(S(=O)(=O)[O-])cc4F)c4ccc([nH]4)c(-c4c(F)cc(S(=O)(=O)[O-])cc4F)c4nc(c(-c5c(F)cc(S(=O)(=O)[O-])cc5F)c5ccc2[nH]5)C=C4)C=C3)cc1
REMARK SMILES IDX 22 1 21 2 20 3 19 4 17 5 18 6 3 8 4 9 2 10 1 11 5 12 6 13
REMARK SMILES IDX 7 15 8 16 9 17 10 18 11 22 12 23 16 24 13 25 15 26 14 27
REMARK SMILES IDX 23 28 24 29 25 30 26 31 27 32 28 34 29 35 30 36 94 37 31 38
REMARK SMILES IDX 93 39 32 40 33 41 34 42 87 43 35 44 92 45 86 46 88 47 36 48
REMARK SMILES IDX 91 49 85 50 84 51 37 53 71 54 50 55 70 56 51 57 54 58 69 59
REMARK SMILES IDX 89 60 52 61 53 62 68 64 90 65 55 66 38 67 39 68 48 69 40 70
REMARK SMILES IDX 41 71 47 72 49 73 42 74 43 75 44 76 45 77 46 78 72 79 73 80
REMARK SMILES IDX 82 81 74 82 75 83 81 84 83 85 76 86 77 87 78 88 79 89 80 90
REMARK SMILES IDX 56 91 57 92 66 93 58 94 59 95 65 96 67 97 60 98 61 99 62 100
REMARK SMILES IDX 63 101 64 102
REMARK H PARENT 19 7 5 14 10 19 10 20 10 21 26 33 88 52 54 63
REMARK Flexibility Score: inf
ROOT
ATOM      1  C   UNL A   1      34.799  29.608  27.616  1.00  0.00     0.002 C 
ENDROOT
BRANCH   1   2
ATOM      2  C   UNL A   1      33.497  29.293  26.899  1.00  0.00     0.021 C 
BRANCH   2   3
ATOM      3  C   UNL A   1      33.076  27.824  26.762  1.00  0.00     0.116 C 
BRANCH   3   4
ATOM      4  N   UNL A   1      31.748  27.488  26.233  1.00  0.00    -0.354 N 
ATOM      5  C   UNL A   1      31.240  26.302  25.733  1.00  0.00     0.245 C 
ATOM      6  O   UNL A   1      30.039  26.062  25.878  1.00  0.00    -0.272 OA
ATOM      7  H   UNL A   1      31.108  28.236  26.235  1.00  0.00     0.163 HD
BRANCH   5   8
ATOM      8  C   UNL A   1      32.194  25.249  25.149  1.00  0.00     0.116 C 
ATOM      9  C   UNL A   1      33.664  25.293  25.596  1.00  0.00     0.045 C 
BRANCH   8  10
ATOM     10  C   UNL A   1      32.207  25.654  23.622  1.00  0.00     0.035 C 
ATOM     11  C   UNL A   1      33.530  25.984  22.959  1.00  0.00     0.007 C 
ENDBRANCH   8  10
BRANCH   8  12
ATOM     12  N   UNL A   1      31.594  23.952  25.521  1.00  0.00    -0.336 N 
ATOM     13  C   UNL A   1      31.758  22.650  25.134  1.00  0.00     0.286 C 
ATOM     14  H   UNL A   1      30.909  24.048  26.222  1.00  0.00     0.164 HD
ATOM     15  O   UNL A   1      30.953  21.901  25.735  1.00  0.00    -0.267 OA
BRANCH  13  16
ATOM     16  C   UNL A   1      32.727  21.936  24.015  1.00  0.00     0.196 C 
ATOM     17  C   UNL A   1      32.336  22.250  22.572  1.00  0.00     0.096 C 
BRANCH  16  18
ATOM     18  N   UNL A   1      32.333  20.477  24.152  1.00  0.00    -0.341 N 
ATOM     19  H   UNL A   1      32.575  20.146  25.086  1.00  0.00     0.345 HD
ATOM     20  H   UNL A   1      32.829  19.923  23.455  1.00  0.00     0.345 HD
ATOM     21  H   UNL A   1      31.327  20.382  24.009  1.00  0.00     0.345 HD
ENDBRANCH  16  18
BRANCH  16  22
ATOM     22  C   UNL A   1      34.281  22.013  24.178  1.00  0.00     0.022 A 
ATOM     23  C   UNL A   1      35.083  22.842  23.377  1.00  0.00     0.011 A 
ATOM     24  C   UNL A   1      35.003  21.168  25.058  1.00  0.00     0.011 A 
ATOM     25  C   UNL A   1      36.474  22.959  23.547  1.00  0.00     0.001 A 
ATOM     26  C   UNL A   1      36.402  21.232  25.194  1.00  0.00     0.001 A 
ATOM     27  C   UNL A   1      37.136  22.156  24.464  1.00  0.00     0.000 A 
ENDBRANCH  16  22
ENDBRANCH  13  16
ENDBRANCH   8  12
ENDBRANCH   5   8
ENDBRANCH   3   4
ENDBRANCH   2   3
ENDBRANCH   1   2
BRANCH   1  28
ATOM     28  C   UNL A   1      34.942  31.025  28.159  1.00  0.00     0.002 C 
BRANCH  28  29
ATOM     29  C   UNL A   1      33.691  31.878  28.013  1.00  0.00     0.021 C 
BRANCH  29  30
ATOM     30  C   UNL A   1      33.930  33.215  27.324  1.00  0.00     0.116 C 
BRANCH  30  31
ATOM     31  N   UNL A   1      33.077  34.297  27.815  1.00  0.00    -0.352 N 
ATOM     32  C   UNL A   1      33.189  34.973  29.007  1.00  0.00     0.251 C 
ATOM     33  H   UNL A   1      32.338  34.571  27.225  1.00  0.00     0.163 HD
ATOM     34  O   UNL A   1      32.364  35.818  29.345  1.00  0.00    -0.269 OA
BRANCH  32  35
ATOM     35  C   UNL A   1      34.310  34.612  29.899  1.00  0.00     0.039 A 
ATOM     36  C   UNL A   1      34.044  33.931  31.087  1.00  0.00     0.014 A 
ATOM     37  C   UNL A   1      35.621  34.794  29.453  1.00  0.00     0.014 A 
ATOM     38  C   UNL A   1      35.101  33.342  31.783  1.00  0.00     0.010 A 
ATOM     39  C   UNL A   1      36.652  34.118  30.091  1.00  0.00     0.010 A 
ATOM     40  C   UNL A   1      36.405  33.381  31.260  1.00  0.00    -0.014 A 
BRANCH  40  41
ATOM     41  C   UNL A   1      37.529  32.658  31.911  1.00  0.00     0.031 A 
ATOM     42  C   UNL A   1      38.049  33.133  33.241  1.00  0.00     0.074 A 
ATOM     43  C   UNL A   1      38.136  31.636  31.272  1.00  0.00     0.049 A 
ATOM     44  N   UNL A   1      39.069  32.700  33.933  1.00  0.00    -0.248 NA
ATOM     45  C   UNL A   1      37.355  34.279  33.851  1.00  0.00     0.031 C 
ATOM     46  C   UNL A   1      37.775  31.125  29.948  1.00  0.00     0.029 A 
ATOM     47  N   UNL A   1      39.193  30.845  31.650  1.00  0.00    -0.354 N 
ATOM     48  C   UNL A   1      39.159  33.539  35.038  1.00  0.00     0.074 A 
ATOM     49  C   UNL A   1      38.132  34.546  34.889  1.00  0.00     0.031 C 
ATOM     50  C   UNL A   1      38.562  30.080  29.646  1.00  0.00     0.029 A 
ATOM     51  C   UNL A   1      39.511  29.869  30.735  1.00  0.00     0.049 A 
ATOM     52  H   UNL A   1      39.679  30.966  32.498  1.00  0.00     0.167 HD
ATOM     53  C   UNL A   1      39.997  33.460  36.100  1.00  0.00     0.037 A 
ATOM     54  C   UNL A   1      40.454  28.908  30.775  1.00  0.00     0.037 A 
ATOM     55  C   UNL A   1      40.978  32.423  36.268  1.00  0.00     0.049 A 
ATOM     56  C   UNL A   1      41.352  28.816  31.980  1.00  0.00     0.074 A 
ATOM     57  C   UNL A   1      41.817  32.197  37.344  1.00  0.00     0.029 A 
ATOM     58  N   UNL A   1      41.246  31.432  35.334  1.00  0.00    -0.354 N 
ATOM     59  N   UNL A   1      41.372  29.571  33.053  1.00  0.00    -0.248 NA
ATOM     60  C   UNL A   1      42.353  27.739  31.982  1.00  0.00     0.031 C 
ATOM     61  C   UNL A   1      42.619  31.090  37.045  1.00  0.00     0.029 A 
ATOM     62  C   UNL A   1      42.251  30.601  35.801  1.00  0.00     0.049 A 
ATOM     63  H   UNL A   1      40.791  31.334  34.467  1.00  0.00     0.167 HD
ATOM     64  C   UNL A   1      42.364  29.042  33.872  1.00  0.00     0.074 A 
ATOM     65  C   UNL A   1      42.916  27.900  33.172  1.00  0.00     0.031 C 
ATOM     66  C   UNL A   1      42.779  29.462  35.092  1.00  0.00     0.037 A 
BRANCH  53  67
ATOM     67  C   UNL A   1      39.870  34.523  37.157  1.00  0.00     0.058 A 
ATOM     68  C   UNL A   1      39.051  34.350  38.284  1.00  0.00     0.135 A 
ATOM     69  C   UNL A   1      40.567  35.735  37.035  1.00  0.00     0.135 A 
ATOM     70  F   UNL A   1      38.349  33.216  38.443  1.00  0.00    -0.206 F 
ATOM     71  C   UNL A   1      38.884  35.361  39.225  1.00  0.00     0.059 A 
ATOM     72  C   UNL A   1      40.441  36.749  37.982  1.00  0.00     0.059 A 
ATOM     73  F   UNL A   1      41.367  35.954  35.979  1.00  0.00    -0.206 F 
ATOM     74  C   UNL A   1      39.577  36.560  39.060  1.00  0.00     0.060 A 
BRANCH  74  75
ATOM     75  S   UNL A   1      39.329  37.873  40.273  1.00  0.00     0.124 S 
ATOM     76  O   UNL A   1      39.011  37.103  41.471  1.00  0.00    -0.237 OA
ATOM     77  O   UNL A   1      40.625  38.545  40.278  1.00  0.00    -0.237 OA
ATOM     78  O   UNL A   1      38.227  38.649  39.713  1.00  0.00    -0.744 OA
ENDBRANCH  74  75
ENDBRANCH  53  67
BRANCH  54  79
ATOM     79  C   UNL A   1      40.561  27.918  29.669  1.00  0.00     0.058 A 
ATOM     80  C   UNL A   1      39.658  26.847  29.581  1.00  0.00     0.135 A 
ATOM     81  C   UNL A   1      41.547  28.022  28.678  1.00  0.00     0.135 A 
ATOM     82  F   UNL A   1      38.700  26.700  30.510  1.00  0.00    -0.206 F 
ATOM     83  C   UNL A   1      39.736  25.907  28.559  1.00  0.00     0.059 A 
ATOM     84  C   UNL A   1      41.632  27.106  27.632  1.00  0.00     0.059 A 
ATOM     85  F   UNL A   1      42.425  29.036  28.706  1.00  0.00    -0.206 F 
ATOM     86  C   UNL A   1      40.727  26.047  27.586  1.00  0.00     0.060 A 
BRANCH  86  87
ATOM     87  S   UNL A   1      40.786  24.851  26.233  1.00  0.00     0.124 S 
ATOM     88  O   UNL A   1      39.391  24.435  26.148  1.00  0.00    -0.237 OA
ATOM     89  O   UNL A   1      41.279  25.665  25.126  1.00  0.00    -0.237 OA
ATOM     90  O   UNL A   1      41.718  23.840  26.721  1.00  0.00    -0.744 OA
ENDBRANCH  86  87
ENDBRANCH  54  79
BRANCH  66  91
ATOM     91  C   UNL A   1      43.857  28.663  35.768  1.00  0.00     0.058 A 
ATOM     92  C   UNL A   1      45.214  28.993  35.636  1.00  0.00     0.135 A 
ATOM     93  C   UNL A   1      43.521  27.585  36.603  1.00  0.00     0.135 A 
ATOM     94  F   UNL A   1      45.587  30.011  34.843  1.00  0.00    -0.206 F 
ATOM     95  C   UNL A   1      46.203  28.269  36.291  1.00  0.00     0.059 A 
ATOM     96  C   UNL A   1      44.493  26.863  37.289  1.00  0.00     0.059 A 
ATOM     97  F   UNL A   1      42.235  27.234  36.772  1.00  0.00    -0.206 F 
ATOM     98  C   UNL A   1      45.832  27.207  37.118  1.00  0.00     0.060 A 
BRANCH  98  99
ATOM     99  S   UNL A   1      47.123  26.298  37.992  1.00  0.00     0.124 S 
ATOM    100  O   UNL A   1      47.675  25.470  36.925  1.00  0.00    -0.237 OA
ATOM    101  O   UNL A   1      47.989  27.369  38.474  1.00  0.00    -0.237 OA
ATOM    102  O   UNL A   1      46.390  25.580  39.030  1.00  0.00    -0.744 OA
ENDBRANCH  98  99
ENDBRANCH  66  91
ENDBRANCH  40  41
ENDBRANCH  32  35
ENDBRANCH  30  31
ENDBRANCH  29  30
ENDBRANCH  28  29
ENDBRANCH   1  28
TORSDOF 21
ENDMDL
