MODEL 1
REMARK VINA RESULT:     -10.3      0.000      0.000
REMARK SMILES C[N@H+]1CCO[C@H](CNc2nnc(SCC(=O)NCCCCCCNC(=O)c3ccc(-c4c5nc(c(-c6c(F)cc(S(=O)(=O)[O-])cc6F)c6ccc([nH]6)c(-c6c(F)cc(S(=O)(=O)[O-])cc6F)c6nc(c(-c7c(F)cc(S(=O)(=O)[O-])cc7F)c7ccc4[nH]7)C=C6)C=C5)cc3)s2)C1
REMARK SMILES IDX 19 1 18 2 17 3 15 4 16 5 14 7 13 8 12 9 9 10 10 11 93 12
REMARK SMILES IDX 11 13 8 14 7 16 6 17 1 18 2 19 3 20 94 21 4 23 5 24 20 25
REMARK SMILES IDX 21 26 22 27 23 28 24 29 25 30 26 32 27 33 28 34 92 35 29 36
REMARK SMILES IDX 91 37 30 38 31 39 32 40 85 41 33 42 90 43 84 44 86 45 34 46
REMARK SMILES IDX 89 47 83 48 82 49 35 51 69 52 48 53 68 54 49 55 52 56 67 57
REMARK SMILES IDX 87 58 50 59 51 60 66 62 88 63 53 64 36 65 37 66 46 67 38 68
REMARK SMILES IDX 39 69 45 70 47 71 40 72 41 73 42 74 43 75 44 76 70 77 71 78
REMARK SMILES IDX 80 79 72 80 73 81 79 82 81 83 74 84 75 85 76 86 77 87 78 88
REMARK SMILES IDX 54 89 55 90 64 91 56 92 57 93 63 94 65 95 58 96 59 97 60 98
REMARK SMILES IDX 61 99 62 100
REMARK H PARENT 17 6 8 15 2 22 24 31 86 50 52 61
REMARK Flexibility Score: inf
ROOT
ATOM      1  C   UNL A   1      38.556  23.466  26.188  1.00  0.00     0.021 C 
ENDROOT
BRANCH   1   2
ATOM      2  C   UNL A   1      37.233  23.179  25.475  1.00  0.00     0.116 C 
BRANCH   2   3
ATOM      3  N   UNL A   1      36.222  22.751  26.426  1.00  0.00    -0.355 N 
ATOM      4  C   UNL A   1      35.317  21.738  26.345  1.00  0.00     0.230 C 
ATOM      5  O   UNL A   1      34.492  21.634  27.257  1.00  0.00    -0.274 OA
ATOM      6  H   UNL A   1      36.186  23.274  27.258  1.00  0.00     0.163 HD
BRANCH   4   7
ATOM      7  C   UNL A   1      35.380  20.711  25.232  1.00  0.00     0.177 C 
BRANCH   7   8
ATOM      8  S   UNL A   1      33.796  20.015  24.739  1.00  0.00    -0.084 SA
BRANCH   8   9
ATOM      9  C   UNL A   1      32.747  21.362  24.381  1.00  0.00     0.176 A 
ATOM     10  C   UNL A   1      31.437  23.227  23.678  1.00  0.00     0.206 A 
ATOM     11  N   UNL A   1      31.016  22.710  24.811  1.00  0.00    -0.119 NA
ATOM     12  S   UNL A   1      32.863  22.467  23.083  1.00  0.00    -0.069 S 
ATOM     13  N   UNL A   1      31.753  21.615  25.203  1.00  0.00    -0.130 NA
BRANCH  10  14
ATOM     14  N   UNL A   1      30.803  24.262  23.075  1.00  0.00    -0.357 N 
ATOM     15  H   UNL A   1      30.809  24.325  22.093  1.00  0.00     0.163 HD
BRANCH  14  16
ATOM     16  C   UNL A   1      30.112  25.283  23.852  1.00  0.00     0.153 C 
BRANCH  16  17
ATOM     17  C   UNL A   1      30.558  26.701  23.407  1.00  0.00     0.192 C 
ATOM     18  C   UNL A   1      32.808  28.862  23.175  1.00  0.00     0.332 C 
ATOM     19  N   UNL A   1      31.745  28.810  24.178  1.00  0.00    -0.333 N 
ATOM     20  C   UNL A   1      30.537  29.534  23.724  1.00  0.00     0.290 C 
ATOM     21  C   UNL A   1      31.364  27.419  24.515  1.00  0.00     0.296 C 
ATOM     22  H   UNL A   1      32.122  29.262  25.011  1.00  0.00     0.348 HD
ATOM     23  C   UNL A   1      29.743  28.799  22.635  1.00  0.00     0.222 C 
ATOM     24  O   UNL A   1      29.391  27.478  23.054  1.00  0.00    -0.365 OA
ENDBRANCH  16  17
ENDBRANCH  14  16
ENDBRANCH  10  14
ENDBRANCH   8   9
ENDBRANCH   7   8
ENDBRANCH   4   7
ENDBRANCH   2   3
ENDBRANCH   1   2
BRANCH   1  25
ATOM     25  C   UNL A   1      39.421  22.220  26.430  1.00  0.00     0.002 C 
BRANCH  25  26
ATOM     26  C   UNL A   1      40.461  22.356  27.548  1.00  0.00     0.002 C 
BRANCH  26  27
ATOM     27  C   UNL A   1      41.911  22.130  27.114  1.00  0.00     0.021 C 
BRANCH  27  28
ATOM     28  C   UNL A   1      42.769  23.391  27.084  1.00  0.00     0.116 C 
BRANCH  28  29
ATOM     29  N   UNL A   1      42.403  24.277  25.988  1.00  0.00    -0.352 N 
ATOM     30  C   UNL A   1      41.822  25.520  26.029  1.00  0.00     0.251 C 
ATOM     31  H   UNL A   1      42.602  23.935  25.086  1.00  0.00     0.163 HD
ATOM     32  O   UNL A   1      41.405  26.037  24.995  1.00  0.00    -0.269 OA
BRANCH  30  33
ATOM     33  C   UNL A   1      41.675  26.222  27.322  1.00  0.00     0.039 A 
ATOM     34  C   UNL A   1      42.651  27.146  27.705  1.00  0.00     0.014 A 
ATOM     35  C   UNL A   1      40.575  25.979  28.150  1.00  0.00     0.014 A 
ATOM     36  C   UNL A   1      42.484  27.881  28.881  1.00  0.00     0.010 A 
ATOM     37  C   UNL A   1      40.374  26.764  29.283  1.00  0.00     0.010 A 
ATOM     38  C   UNL A   1      41.321  27.729  29.657  1.00  0.00    -0.014 A 
BRANCH  38  39
ATOM     39  C   UNL A   1      41.064  28.596  30.837  1.00  0.00     0.031 A 
ATOM     40  C   UNL A   1      39.981  29.640  30.796  1.00  0.00     0.074 A 
ATOM     41  C   UNL A   1      41.858  28.488  31.921  1.00  0.00     0.049 A 
ATOM     42  N   UNL A   1      39.660  30.529  31.700  1.00  0.00    -0.248 NA
ATOM     43  C   UNL A   1      39.168  29.705  29.572  1.00  0.00     0.031 C 
ATOM     44  C   UNL A   1      42.972  27.547  32.063  1.00  0.00     0.029 A 
ATOM     45  N   UNL A   1      41.861  29.181  33.106  1.00  0.00    -0.354 N 
ATOM     46  C   UNL A   1      38.613  31.264  31.154  1.00  0.00     0.074 A 
ATOM     47  C   UNL A   1      38.391  30.751  29.819  1.00  0.00     0.031 C 
ATOM     48  C   UNL A   1      43.536  27.709  33.269  1.00  0.00     0.029 A 
ATOM     49  C   UNL A   1      42.858  28.794  33.971  1.00  0.00     0.049 A 
ATOM     50  H   UNL A   1      41.210  29.890  33.317  1.00  0.00     0.167 HD
ATOM     51  C   UNL A   1      37.891  32.260  31.722  1.00  0.00     0.037 A 
ATOM     52  C   UNL A   1      43.201  29.268  35.185  1.00  0.00     0.037 A 
ATOM     53  C   UNL A   1      38.115  32.759  33.055  1.00  0.00     0.049 A 
ATOM     54  C   UNL A   1      42.401  30.394  35.784  1.00  0.00     0.074 A 
ATOM     55  C   UNL A   1      37.404  33.729  33.740  1.00  0.00     0.029 A 
ATOM     56  N   UNL A   1      39.130  32.337  33.902  1.00  0.00    -0.354 N 
ATOM     57  N   UNL A   1      41.369  31.029  35.281  1.00  0.00    -0.248 NA
ATOM     58  C   UNL A   1      42.808  30.865  37.114  1.00  0.00     0.031 C 
ATOM     59  C   UNL A   1      38.021  33.933  34.978  1.00  0.00     0.029 A 
ATOM     60  C   UNL A   1      39.083  33.048  35.090  1.00  0.00     0.049 A 
ATOM     61  H   UNL A   1      39.787  31.636  33.690  1.00  0.00     0.167 HD
ATOM     62  C   UNL A   1      40.991  31.960  36.243  1.00  0.00     0.074 A 
ATOM     63  C   UNL A   1      41.893  31.792  37.363  1.00  0.00     0.031 C 
ATOM     64  C   UNL A   1      39.987  32.872  36.200  1.00  0.00     0.037 A 
BRANCH  51  65
ATOM     65  C   UNL A   1      36.787  32.877  30.905  1.00  0.00     0.058 A 
ATOM     66  C   UNL A   1      37.040  33.903  29.980  1.00  0.00     0.135 A 
ATOM     67  C   UNL A   1      35.467  32.408  31.014  1.00  0.00     0.135 A 
ATOM     68  F   UNL A   1      38.280  34.400  29.842  1.00  0.00    -0.206 F 
ATOM     69  C   UNL A   1      36.021  34.464  29.218  1.00  0.00     0.059 A 
ATOM     70  C   UNL A   1      34.437  32.934  30.238  1.00  0.00     0.059 A 
ATOM     71  F   UNL A   1      35.167  31.429  31.881  1.00  0.00    -0.206 F 
ATOM     72  C   UNL A   1      34.721  33.972  29.353  1.00  0.00     0.060 A 
BRANCH  72  73
ATOM     73  S   UNL A   1      33.414  34.710  28.351  1.00  0.00     0.124 S 
ATOM     74  O   UNL A   1      32.699  35.506  29.344  1.00  0.00    -0.237 OA
ATOM     75  O   UNL A   1      34.171  35.466  27.359  1.00  0.00    -0.237 OA
ATOM     76  O   UNL A   1      32.688  33.554  27.834  1.00  0.00    -0.744 OA
ENDBRANCH  72  73
ENDBRANCH  51  65
BRANCH  52  77
ATOM     77  C   UNL A   1      44.353  28.674  35.915  1.00  0.00     0.058 A 
ATOM     78  C   UNL A   1      45.648  29.192  35.771  1.00  0.00     0.135 A 
ATOM     79  C   UNL A   1      44.179  27.584  36.784  1.00  0.00     0.135 A 
ATOM     80  F   UNL A   1      45.867  30.229  34.948  1.00  0.00    -0.206 F 
ATOM     81  C   UNL A   1      46.733  28.646  36.450  1.00  0.00     0.059 A 
ATOM     82  C   UNL A   1      45.244  27.038  37.495  1.00  0.00     0.059 A 
ATOM     83  F   UNL A   1      42.958  27.059  36.971  1.00  0.00    -0.206 F 
ATOM     84  C   UNL A   1      46.519  27.570  37.314  1.00  0.00     0.060 A 
BRANCH  84  85
ATOM     85  S   UNL A   1      47.925  26.902  38.229  1.00  0.00     0.124 S 
ATOM     86  O   UNL A   1      47.959  27.776  39.395  1.00  0.00    -0.237 OA
ATOM     87  O   UNL A   1      47.504  25.526  38.473  1.00  0.00    -0.237 OA
ATOM     88  O   UNL A   1      49.036  27.052  37.293  1.00  0.00    -0.744 OA
ENDBRANCH  84  85
ENDBRANCH  52  77
BRANCH  64  89
ATOM     89  C   UNL A   1      39.793  33.747  37.409  1.00  0.00     0.058 A 
ATOM     90  C   UNL A   1      40.462  34.973  37.549  1.00  0.00     0.135 A 
ATOM     91  C   UNL A   1      38.881  33.381  38.413  1.00  0.00     0.135 A 
ATOM     92  F   UNL A   1      41.351  35.368  36.623  1.00  0.00    -0.206 F 
ATOM     93  C   UNL A   1      40.248  35.796  38.649  1.00  0.00     0.059 A 
ATOM     94  C   UNL A   1      38.628  34.203  39.507  1.00  0.00     0.059 A 
ATOM     95  F   UNL A   1      38.207  32.223  38.325  1.00  0.00    -0.206 F 
ATOM     96  C   UNL A   1      39.326  35.404  39.621  1.00  0.00     0.060 A 
BRANCH  96  97
ATOM     97  S   UNL A   1      39.028  36.504  41.023  1.00  0.00     0.124 S 
ATOM     98  O   UNL A   1      38.025  35.756  41.775  1.00  0.00    -0.237 OA
ATOM     99  O   UNL A   1      40.349  36.590  41.637  1.00  0.00    -0.237 OA
ATOM    100  O   UNL A   1      38.554  37.734  40.396  1.00  0.00    -0.744 OA
ENDBRANCH  96  97
ENDBRANCH  64  89
ENDBRANCH  38  39
ENDBRANCH  30  33
ENDBRANCH  28  29
ENDBRANCH  27  28
ENDBRANCH  26  27
ENDBRANCH  25  26
ENDBRANCH   1  25
TORSDOF 21
ENDMDL
MODEL 2
REMARK VINA RESULT:     -10.2      1.282      8.249
REMARK SMILES C[N@H+]1CCO[C@H](CNc2nnc(SCC(=O)NCCCCCCNC(=O)c3ccc(-c4c5nc(c(-c6c(F)cc(S(=O)(=O)[O-])cc6F)c6ccc([nH]6)c(-c6c(F)cc(S(=O)(=O)[O-])cc6F)c6nc(c(-c7c(F)cc(S(=O)(=O)[O-])cc7F)c7ccc4[nH]7)C=C6)C=C5)cc3)s2)C1
REMARK SMILES IDX 19 1 18 2 17 3 15 4 16 5 14 7 13 8 12 9 9 10 10 11 93 12
REMARK SMILES IDX 11 13 8 14 7 16 6 17 1 18 2 19 3 20 94 21 4 23 5 24 20 25
REMARK SMILES IDX 21 26 22 27 23 28 24 29 25 30 26 32 27 33 28 34 92 35 29 36
REMARK SMILES IDX 91 37 30 38 31 39 32 40 85 41 33 42 90 43 84 44 86 45 34 46
REMARK SMILES IDX 89 47 83 48 82 49 35 51 69 52 48 53 68 54 49 55 52 56 67 57
REMARK SMILES IDX 87 58 50 59 51 60 66 62 88 63 53 64 36 65 37 66 46 67 38 68
REMARK SMILES IDX 39 69 45 70 47 71 40 72 41 73 42 74 43 75 44 76 70 77 71 78
REMARK SMILES IDX 80 79 72 80 73 81 79 82 81 83 74 84 75 85 76 86 77 87 78 88
REMARK SMILES IDX 54 89 55 90 64 91 56 92 57 93 63 94 65 95 58 96 59 97 60 98
REMARK SMILES IDX 61 99 62 100
REMARK H PARENT 17 6 8 15 2 22 24 31 86 50 52 61
REMARK Flexibility Score: inf
ROOT
ATOM      1  C   UNL A   1      39.756  22.022  27.087  1.00  0.00     0.021 C 
ENDROOT
BRANCH   1   2
ATOM      2  C   UNL A   1      39.038  21.573  25.813  1.00  0.00     0.116 C 
BRANCH   2   3
ATOM      3  N   UNL A   1      38.164  22.622  25.321  1.00  0.00    -0.355 N 
ATOM      4  C   UNL A   1      36.806  22.665  25.241  1.00  0.00     0.230 C 
ATOM      5  O   UNL A   1      36.296  23.646  24.691  1.00  0.00    -0.274 OA
ATOM      6  H   UNL A   1      38.625  23.428  24.995  1.00  0.00     0.163 HD
BRANCH   4   7
ATOM      7  C   UNL A   1      35.944  21.603  25.892  1.00  0.00     0.177 C 
BRANCH   7   8
ATOM      8  S   UNL A   1      34.410  21.225  25.032  1.00  0.00    -0.084 SA
BRANCH   8   9
ATOM      9  C   UNL A   1      33.199  22.308  25.670  1.00  0.00     0.176 A 
ATOM     10  C   UNL A   1      31.445  23.789  26.314  1.00  0.00     0.206 A 
ATOM     11  N   UNL A   1      32.206  23.434  27.326  1.00  0.00    -0.119 NA
ATOM     12  S   UNL A   1      31.991  23.156  24.809  1.00  0.00    -0.069 S 
ATOM     13  N   UNL A   1      33.201  22.556  26.961  1.00  0.00    -0.130 NA
BRANCH  10  14
ATOM     14  N   UNL A   1      30.360  24.586  26.470  1.00  0.00    -0.357 N 
ATOM     15  H   UNL A   1      29.767  24.447  27.243  1.00  0.00     0.163 HD
BRANCH  14  16
ATOM     16  C   UNL A   1      30.054  25.646  25.517  1.00  0.00     0.153 C 
BRANCH  16  17
ATOM     17  C   UNL A   1      30.886  26.918  25.833  1.00  0.00     0.192 C 
ATOM     18  C   UNL A   1      32.599  29.330  24.817  1.00  0.00     0.332 C 
ATOM     19  N   UNL A   1      33.100  28.080  25.386  1.00  0.00    -0.333 N 
ATOM     20  C   UNL A   1      33.234  28.169  26.857  1.00  0.00     0.290 C 
ATOM     21  C   UNL A   1      32.225  26.929  25.060  1.00  0.00     0.296 C 
ATOM     22  H   UNL A   1      34.017  27.928  24.967  1.00  0.00     0.348 HD
ATOM     23  C   UNL A   1      31.894  28.141  27.607  1.00  0.00     0.222 C 
ATOM     24  O   UNL A   1      31.129  26.985  27.256  1.00  0.00    -0.365 OA
ENDBRANCH  16  17
ENDBRANCH  14  16
ENDBRANCH  10  14
ENDBRANCH   8   9
ENDBRANCH   7   8
ENDBRANCH   4   7
ENDBRANCH   2   3
ENDBRANCH   1   2
BRANCH   1  25
ATOM     25  C   UNL A   1      41.107  21.331  27.324  1.00  0.00     0.002 C 
BRANCH  25  26
ATOM     26  C   UNL A   1      42.183  22.207  27.974  1.00  0.00     0.002 C 
BRANCH  26  27
ATOM     27  C   UNL A   1      43.319  22.636  27.042  1.00  0.00     0.021 C 
BRANCH  27  28
ATOM     28  C   UNL A   1      43.278  24.102  26.623  1.00  0.00     0.116 C 
BRANCH  28  29
ATOM     29  N   UNL A   1      42.096  24.415  25.832  1.00  0.00    -0.352 N 
ATOM     30  C   UNL A   1      41.015  25.197  26.153  1.00  0.00     0.251 C 
ATOM     31  H   UNL A   1      42.069  24.004  24.937  1.00  0.00     0.163 HD
ATOM     32  O   UNL A   1      40.017  25.188  25.436  1.00  0.00    -0.269 OA
BRANCH  30  33
ATOM     33  C   UNL A   1      41.045  26.030  27.374  1.00  0.00     0.039 A 
ATOM     34  C   UNL A   1      41.948  27.094  27.447  1.00  0.00     0.014 A 
ATOM     35  C   UNL A   1      40.178  25.771  28.440  1.00  0.00     0.014 A 
ATOM     36  C   UNL A   1      41.928  27.942  28.556  1.00  0.00     0.010 A 
ATOM     37  C   UNL A   1      40.111  26.660  29.510  1.00  0.00     0.010 A 
ATOM     38  C   UNL A   1      40.979  27.759  29.577  1.00  0.00    -0.014 A 
BRANCH  38  39
ATOM     39  C   UNL A   1      40.856  28.729  30.697  1.00  0.00     0.031 A 
ATOM     40  C   UNL A   1      41.722  28.596  31.920  1.00  0.00     0.074 A 
ATOM     41  C   UNL A   1      39.913  29.690  30.638  1.00  0.00     0.049 A 
ATOM     42  N   UNL A   1      41.708  29.303  33.020  1.00  0.00    -0.248 NA
ATOM     43  C   UNL A   1      42.718  27.513  31.914  1.00  0.00     0.031 C 
ATOM     44  C   UNL A   1      38.981  29.893  29.526  1.00  0.00     0.029 A 
ATOM     45  N   UNL A   1      39.570  30.670  31.537  1.00  0.00    -0.354 N 
ATOM     46  C   UNL A   1      42.686  28.750  33.840  1.00  0.00     0.074 A 
ATOM     47  C   UNL A   1      43.234  27.614  33.131  1.00  0.00     0.031 C 
ATOM     48  C   UNL A   1      38.188  30.941  29.800  1.00  0.00     0.029 A 
ATOM     49  C   UNL A   1      38.520  31.457  31.124  1.00  0.00     0.049 A 
ATOM     50  H   UNL A   1      40.033  30.798  32.397  1.00  0.00     0.167 HD
ATOM     51  C   UNL A   1      43.101  29.165  35.061  1.00  0.00     0.037 A 
ATOM     52  C   UNL A   1      37.883  32.469  31.745  1.00  0.00     0.037 A 
ATOM     53  C   UNL A   1      42.553  30.302  35.756  1.00  0.00     0.049 A 
ATOM     54  C   UNL A   1      38.344  32.894  33.113  1.00  0.00     0.074 A 
ATOM     55  C   UNL A   1      42.941  30.833  36.974  1.00  0.00     0.029 A 
ATOM     56  N   UNL A   1      41.494  31.077  35.302  1.00  0.00    -0.354 N 
ATOM     57  N   UNL A   1      39.318  32.403  33.843  1.00  0.00    -0.248 NA
ATOM     58  C   UNL A   1      37.625  34.010  33.741  1.00  0.00     0.031 C 
ATOM     59  C   UNL A   1      42.083  31.894  37.282  1.00  0.00     0.029 A 
ATOM     60  C   UNL A   1      41.197  32.063  36.230  1.00  0.00     0.049 A 
ATOM     61  H   UNL A   1      41.025  30.946  34.448  1.00  0.00     0.167 HD
ATOM     62  C   UNL A   1      39.341  33.165  35.007  1.00  0.00     0.074 A 
ATOM     63  C   UNL A   1      38.297  34.159  34.875  1.00  0.00     0.031 C 
ATOM     64  C   UNL A   1      40.154  33.048  36.087  1.00  0.00     0.037 A 
BRANCH  51  65
ATOM     65  C   UNL A   1      44.204  28.385  35.727  1.00  0.00     0.058 A 
ATOM     66  C   UNL A   1      43.931  27.310  36.588  1.00  0.00     0.135 A 
ATOM     67  C   UNL A   1      45.551  28.687  35.468  1.00  0.00     0.135 A 
ATOM     68  F   UNL A   1      42.662  26.983  36.882  1.00  0.00    -0.206 F 
ATOM     69  C   UNL A   1      44.951  26.583  37.193  1.00  0.00     0.059 A 
ATOM     70  C   UNL A   1      46.588  27.954  36.038  1.00  0.00     0.059 A 
ATOM     71  F   UNL A   1      45.871  29.704  34.652  1.00  0.00    -0.206 F 
ATOM     72  C   UNL A   1      46.278  26.913  36.911  1.00  0.00     0.060 A 
BRANCH  72  73
ATOM     73  S   UNL A   1      47.588  25.955  37.701  1.00  0.00     0.124 S 
ATOM     74  O   UNL A   1      46.830  24.855  38.291  1.00  0.00    -0.237 OA
ATOM     75  O   UNL A   1      48.441  25.602  36.571  1.00  0.00    -0.237 OA
ATOM     76  O   UNL A   1      48.172  26.895  38.653  1.00  0.00    -0.744 OA
ENDBRANCH  72  73
ENDBRANCH  51  65
BRANCH  52  77
ATOM     77  C   UNL A   1      36.745  33.153  31.074  1.00  0.00     0.058 A 
ATOM     78  C   UNL A   1      36.957  34.030  30.000  1.00  0.00     0.135 A 
ATOM     79  C   UNL A   1      35.420  32.933  31.485  1.00  0.00     0.135 A 
ATOM     80  F   UNL A   1      38.205  34.278  29.574  1.00  0.00    -0.206 F 
ATOM     81  C   UNL A   1      35.901  34.674  29.364  1.00  0.00     0.059 A 
ATOM     82  C   UNL A   1      34.345  33.544  30.846  1.00  0.00     0.059 A 
ATOM     83  F   UNL A   1      35.159  32.092  32.497  1.00  0.00    -0.206 F 
ATOM     84  C   UNL A   1      34.596  34.421  29.792  1.00  0.00     0.060 A 
BRANCH  84  85
ATOM     85  S   UNL A   1      33.229  35.223  28.927  1.00  0.00     0.124 S 
ATOM     86  O   UNL A   1      33.903  36.349  28.292  1.00  0.00    -0.237 OA
ATOM     87  O   UNL A   1      32.772  34.164  28.032  1.00  0.00    -0.237 OA
ATOM     88  O   UNL A   1      32.305  35.564  30.005  1.00  0.00    -0.744 OA
ENDBRANCH  84  85
ENDBRANCH  52  77
BRANCH  64  89
ATOM     89  C   UNL A   1      39.965  34.036  37.207  1.00  0.00     0.058 A 
ATOM     90  C   UNL A   1      40.703  35.228  37.273  1.00  0.00     0.135 A 
ATOM     91  C   UNL A   1      38.990  33.814  38.194  1.00  0.00     0.135 A 
ATOM     92  F   UNL A   1      41.653  35.487  36.360  1.00  0.00    -0.206 F 
ATOM     93  C   UNL A   1      40.496  36.156  38.288  1.00  0.00     0.059 A 
ATOM     94  C   UNL A   1      38.745  34.743  39.201  1.00  0.00     0.059 A 
ATOM     95  F   UNL A   1      38.249  32.695  38.174  1.00  0.00    -0.206 F 
ATOM     96  C   UNL A   1      39.511  35.906  39.246  1.00  0.00     0.060 A 
BRANCH  96  97
ATOM     97  S   UNL A   1      39.225  37.140  40.533  1.00  0.00     0.124 S 
ATOM     98  O   UNL A   1      38.131  37.917  39.958  1.00  0.00    -0.237 OA
ATOM     99  O   UNL A   1      38.879  36.314  41.685  1.00  0.00    -0.237 OA
ATOM    100  O   UNL A   1      40.505  37.835  40.629  1.00  0.00    -0.744 OA
ENDBRANCH  96  97
ENDBRANCH  64  89
ENDBRANCH  38  39
ENDBRANCH  30  33
ENDBRANCH  28  29
ENDBRANCH  27  28
ENDBRANCH  26  27
ENDBRANCH  25  26
ENDBRANCH   1  25
TORSDOF 21
ENDMDL
MODEL 3
REMARK VINA RESULT:      -9.9      6.514     13.501
REMARK SMILES C[N@H+]1CCO[C@H](CNc2nnc(SCC(=O)NCCCCCCNC(=O)c3ccc(-c4c5nc(c(-c6c(F)cc(S(=O)(=O)[O-])cc6F)c6ccc([nH]6)c(-c6c(F)cc(S(=O)(=O)[O-])cc6F)c6nc(c(-c7c(F)cc(S(=O)(=O)[O-])cc7F)c7ccc4[nH]7)C=C6)C=C5)cc3)s2)C1
REMARK SMILES IDX 19 1 18 2 17 3 15 4 16 5 14 7 13 8 12 9 9 10 10 11 93 12
REMARK SMILES IDX 11 13 8 14 7 16 6 17 1 18 2 19 3 20 94 21 4 23 5 24 20 25
REMARK SMILES IDX 21 26 22 27 23 28 24 29 25 30 26 32 27 33 28 34 92 35 29 36
REMARK SMILES IDX 91 37 30 38 31 39 32 40 85 41 33 42 90 43 84 44 86 45 34 46
REMARK SMILES IDX 89 47 83 48 82 49 35 51 69 52 48 53 68 54 49 55 52 56 67 57
REMARK SMILES IDX 87 58 50 59 51 60 66 62 88 63 53 64 36 65 37 66 46 67 38 68
REMARK SMILES IDX 39 69 45 70 47 71 40 72 41 73 42 74 43 75 44 76 70 77 71 78
REMARK SMILES IDX 80 79 72 80 73 81 79 82 81 83 74 84 75 85 76 86 77 87 78 88
REMARK SMILES IDX 54 89 55 90 64 91 56 92 57 93 63 94 65 95 58 96 59 97 60 98
REMARK SMILES IDX 61 99 62 100
REMARK H PARENT 17 6 8 15 2 22 24 31 86 50 52 61
REMARK Flexibility Score: inf
ROOT
ATOM      1  C   UNL A   1      39.758  34.373  32.311  1.00  0.00     0.021 C 
ENDROOT
BRANCH   1   2
ATOM      2  C   UNL A   1      40.691  34.441  33.521  1.00  0.00     0.116 C 
BRANCH   2   3
ATOM      3  N   UNL A   1      41.705  33.405  33.443  1.00  0.00    -0.355 N 
ATOM      4  C   UNL A   1      41.692  32.130  33.918  1.00  0.00     0.230 C 
ATOM      5  O   UNL A   1      42.728  31.466  33.805  1.00  0.00    -0.274 OA
ATOM      6  H   UNL A   1      42.531  33.665  32.975  1.00  0.00     0.163 HD
BRANCH   4   7
ATOM      7  C   UNL A   1      40.426  31.507  34.471  1.00  0.00     0.177 C 
BRANCH   7   8
ATOM      8  S   UNL A   1      39.792  32.262  35.975  1.00  0.00    -0.084 SA
BRANCH   8   9
ATOM      9  C   UNL A   1      38.166  32.790  35.623  1.00  0.00     0.176 A 
ATOM     10  C   UNL A   1      35.963  33.383  34.930  1.00  0.00     0.206 A 
ATOM     11  N   UNL A   1      36.251  33.823  36.135  1.00  0.00    -0.119 NA
ATOM     12  S   UNL A   1      37.288  32.590  34.171  1.00  0.00    -0.069 S 
ATOM     13  N   UNL A   1      37.512  33.457  36.548  1.00  0.00    -0.130 NA
BRANCH  10  14
ATOM     14  N   UNL A   1      34.745  33.566  34.366  1.00  0.00    -0.357 N 
ATOM     15  H   UNL A   1      34.013  33.939  34.909  1.00  0.00     0.163 HD
BRANCH  14  16
ATOM     16  C   UNL A   1      34.496  33.224  32.971  1.00  0.00     0.153 C 
BRANCH  16  17
ATOM     17  C   UNL A   1      34.229  34.505  32.136  1.00  0.00     0.192 C 
ATOM     18  C   UNL A   1      33.687  37.584  32.035  1.00  0.00     0.332 C 
ATOM     19  N   UNL A   1      32.696  36.517  31.906  1.00  0.00    -0.333 N 
ATOM     20  C   UNL A   1      32.528  36.101  30.496  1.00  0.00     0.290 C 
ATOM     21  C   UNL A   1      33.052  35.326  32.712  1.00  0.00     0.296 C 
ATOM     22  H   UNL A   1      31.819  36.904  32.255  1.00  0.00     0.348 HD
ATOM     23  C   UNL A   1      33.700  35.274  29.947  1.00  0.00     0.222 C 
ATOM     24  O   UNL A   1      33.955  34.131  30.767  1.00  0.00    -0.365 OA
ENDBRANCH  16  17
ENDBRANCH  14  16
ENDBRANCH  10  14
ENDBRANCH   8   9
ENDBRANCH   7   8
ENDBRANCH   4   7
ENDBRANCH   2   3
ENDBRANCH   1   2
BRANCH   1  25
ATOM     25  C   UNL A   1      40.416  33.816  31.040  1.00  0.00     0.002 C 
BRANCH  25  26
ATOM     26  C   UNL A   1      39.535  33.834  29.787  1.00  0.00     0.002 C 
BRANCH  26  27
ATOM     27  C   UNL A   1      38.060  34.162  30.037  1.00  0.00     0.021 C 
BRANCH  27  28
ATOM     28  C   UNL A   1      37.075  33.199  29.382  1.00  0.00     0.116 C 
BRANCH  28  29
ATOM     29  N   UNL A   1      36.470  32.293  30.348  1.00  0.00    -0.352 N 
ATOM     30  C   UNL A   1      36.834  31.015  30.690  1.00  0.00     0.251 C 
ATOM     31  H   UNL A   1      35.684  32.649  30.824  1.00  0.00     0.163 HD
ATOM     32  O   UNL A   1      36.087  30.329  31.384  1.00  0.00    -0.269 OA
BRANCH  30  33
ATOM     33  C   UNL A   1      38.114  30.457  30.202  1.00  0.00     0.039 A 
ATOM     34  C   UNL A   1      38.231  30.110  28.854  1.00  0.00     0.014 A 
ATOM     35  C   UNL A   1      39.198  30.287  31.068  1.00  0.00     0.014 A 
ATOM     36  C   UNL A   1      39.458  29.664  28.359  1.00  0.00     0.010 A 
ATOM     37  C   UNL A   1      40.439  29.913  30.558  1.00  0.00     0.010 A 
ATOM     38  C   UNL A   1      40.585  29.605  29.198  1.00  0.00    -0.014 A 
BRANCH  38  39
ATOM     39  C   UNL A   1      41.928  29.261  28.659  1.00  0.00     0.031 A 
ATOM     40  C   UNL A   1      42.242  27.853  28.234  1.00  0.00     0.074 A 
ATOM     41  C   UNL A   1      42.886  30.208  28.620  1.00  0.00     0.049 A 
ATOM     42  N   UNL A   1      43.373  27.354  27.807  1.00  0.00    -0.248 NA
ATOM     43  C   UNL A   1      41.147  26.873  28.320  1.00  0.00     0.031 C 
ATOM     44  C   UNL A   1      42.718  31.599  29.049  1.00  0.00     0.029 A 
ATOM     45  N   UNL A   1      44.196  30.146  28.213  1.00  0.00    -0.354 N 
ATOM     46  C   UNL A   1      43.131  26.003  27.579  1.00  0.00     0.074 A 
ATOM     47  C   UNL A   1      41.760  25.751  27.968  1.00  0.00     0.031 C 
ATOM     48  C   UNL A   1      43.871  32.260  28.865  1.00  0.00     0.029 A 
ATOM     49  C   UNL A   1      44.875  31.334  28.350  1.00  0.00     0.049 A 
ATOM     50  H   UNL A   1      44.611  29.327  27.856  1.00  0.00     0.167 HD
ATOM     51  C   UNL A   1      43.969  25.066  27.073  1.00  0.00     0.037 A 
ATOM     52  C   UNL A   1      46.164  31.643  28.106  1.00  0.00     0.037 A 
ATOM     53  C   UNL A   1      45.330  25.329  26.682  1.00  0.00     0.049 A 
ATOM     54  C   UNL A   1      47.083  30.578  27.570  1.00  0.00     0.074 A 
ATOM     55  C   UNL A   1      46.243  24.459  26.111  1.00  0.00     0.029 A 
ATOM     56  N   UNL A   1      45.979  26.546  26.831  1.00  0.00    -0.354 N 
ATOM     57  N   UNL A   1      46.816  29.323  27.294  1.00  0.00    -0.248 NA
ATOM     58  C   UNL A   1      48.474  30.969  27.309  1.00  0.00     0.031 C 
ATOM     59  C   UNL A   1      47.459  25.133  25.965  1.00  0.00     0.029 A 
ATOM     60  C   UNL A   1      47.289  26.442  26.390  1.00  0.00     0.049 A 
ATOM     61  H   UNL A   1      45.571  27.363  27.195  1.00  0.00     0.167 HD
ATOM     62  C   UNL A   1      48.001  28.781  26.807  1.00  0.00     0.074 A 
ATOM     63  C   UNL A   1      48.979  29.849  26.809  1.00  0.00     0.031 C 
ATOM     64  C   UNL A   1      48.255  27.513  26.397  1.00  0.00     0.037 A 
BRANCH  51  65
ATOM     65  C   UNL A   1      43.436  23.667  26.911  1.00  0.00     0.058 A 
ATOM     66  C   UNL A   1      43.290  22.802  28.007  1.00  0.00     0.135 A 
ATOM     67  C   UNL A   1      43.026  23.199  25.652  1.00  0.00     0.135 A 
ATOM     68  F   UNL A   1      43.677  23.191  29.233  1.00  0.00    -0.206 F 
ATOM     69  C   UNL A   1      42.787  21.514  27.858  1.00  0.00     0.059 A 
ATOM     70  C   UNL A   1      42.491  21.924  25.484  1.00  0.00     0.059 A 
ATOM     71  F   UNL A   1      43.142  23.982  24.568  1.00  0.00    -0.206 F 
ATOM     72  C   UNL A   1      42.390  21.083  26.590  1.00  0.00     0.060 A 
BRANCH  72  73
ATOM     73  S   UNL A   1      41.735  19.410  26.417  1.00  0.00     0.124 S 
ATOM     74  O   UNL A   1      42.217  18.780  27.643  1.00  0.00    -0.237 OA
ATOM     75  O   UNL A   1      40.296  19.645  26.349  1.00  0.00    -0.237 OA
ATOM     76  O   UNL A   1      42.348  18.930  25.183  1.00  0.00    -0.744 OA
ENDBRANCH  72  73
ENDBRANCH  51  65
BRANCH  52  77
ATOM     77  C   UNL A   1      46.658  33.023  28.361  1.00  0.00     0.058 A 
ATOM     78  C   UNL A   1      47.148  33.397  29.620  1.00  0.00     0.135 A 
ATOM     79  C   UNL A   1      46.662  33.993  27.345  1.00  0.00     0.135 A 
ATOM     80  F   UNL A   1      47.158  32.508  30.625  1.00  0.00    -0.206 F 
ATOM     81  C   UNL A   1      47.613  34.683  29.870  1.00  0.00     0.059 A 
ATOM     82  C   UNL A   1      47.148  35.279  27.563  1.00  0.00     0.059 A 
ATOM     83  F   UNL A   1      46.218  33.684  26.116  1.00  0.00    -0.206 F 
ATOM     84  C   UNL A   1      47.614  35.617  28.832  1.00  0.00     0.060 A 
BRANCH  84  85
ATOM     85  S   UNL A   1      48.268  37.270  29.153  1.00  0.00     0.124 S 
ATOM     86  O   UNL A   1      47.044  38.055  29.260  1.00  0.00    -0.237 OA
ATOM     87  O   UNL A   1      49.009  37.068  30.394  1.00  0.00    -0.237 OA
ATOM     88  O   UNL A   1      49.091  37.538  27.977  1.00  0.00    -0.744 OA
ENDBRANCH  84  85
ENDBRANCH  52  77
BRANCH  64  89
ATOM     89  C   UNL A   1      49.640  27.212  25.892  1.00  0.00     0.058 A 
ATOM     90  C   UNL A   1      50.642  26.712  26.737  1.00  0.00     0.135 A 
ATOM     91  C   UNL A   1      49.951  27.371  24.531  1.00  0.00     0.135 A 
ATOM     92  F   UNL A   1      50.401  26.549  28.048  1.00  0.00    -0.206 F 
ATOM     93  C   UNL A   1      51.909  26.397  26.257  1.00  0.00     0.059 A 
ATOM     94  C   UNL A   1      51.203  27.034  24.023  1.00  0.00     0.059 A 
ATOM     95  F   UNL A   1      49.027  27.837  23.676  1.00  0.00    -0.206 F 
ATOM     96  C   UNL A   1      52.178  26.558  24.896  1.00  0.00     0.060 A 
BRANCH  96  97
ATOM     97  S   UNL A   1      53.814  26.105  24.280  1.00  0.00     0.124 S 
ATOM     98  O   UNL A   1      53.589  26.078  22.839  1.00  0.00    -0.237 OA
ATOM     99  O   UNL A   1      54.646  27.198  24.772  1.00  0.00    -0.237 OA
ATOM    100  O   UNL A   1      54.065  24.807  24.901  1.00  0.00    -0.744 OA
ENDBRANCH  96  97
ENDBRANCH  64  89
ENDBRANCH  38  39
ENDBRANCH  30  33
ENDBRANCH  28  29
ENDBRANCH  27  28
ENDBRANCH  26  27
ENDBRANCH  25  26
ENDBRANCH   1  25
TORSDOF 21
ENDMDL
