MODEL 1
REMARK VINA RESULT:     -10.8      0.000      0.000
REMARK SMILES CC[C@@](C)(NC(=O)Nc1cccc(C[NH2+]C)c1)C(=O)NCCCCCCNC(=O)c1ccc(-c2c3nc(c(-c4c(F)cc(S(=O)(=O)[O-])cc4F)c4ccc([nH]4)c(-c4c(F)cc(S(=O)(=O)[O-])cc4F)c4nc(c(-c5c(F)cc(S(=O)(=O)[O-])cc5F)c5ccc2[nH]5)C=C4)C=C3)cc1
REMARK SMILES IDX 23 1 22 2 21 3 20 4 18 5 19 6 3 8 4 9 2 10 1 11 5 12 6 13
REMARK SMILES IDX 7 15 8 16 9 18 10 19 17 20 11 21 13 22 12 23 14 24 15 25
REMARK SMILES IDX 16 26 24 29 25 30 26 31 27 32 28 33 29 35 30 36 31 37 95 38
REMARK SMILES IDX 32 39 94 40 33 41 34 42 35 43 88 44 36 45 93 46 87 47 89 48
REMARK SMILES IDX 37 49 92 50 86 51 85 52 38 54 72 55 51 56 71 57 52 58 55 59
REMARK SMILES IDX 70 60 90 61 53 62 54 63 69 65 91 66 56 67 39 68 40 69 49 70
REMARK SMILES IDX 41 71 42 72 48 73 50 74 43 75 44 76 45 77 46 78 47 79 73 80
REMARK SMILES IDX 74 81 83 82 75 83 76 84 82 85 84 86 77 87 78 88 79 89 80 90
REMARK SMILES IDX 81 91 57 92 58 93 67 94 59 95 60 96 66 97 68 98 61 99 62 100
REMARK SMILES IDX 63 101 64 102 65 103
REMARK H PARENT 20 7 5 14 8 17 15 27 15 28 27 34 89 53 55 64
REMARK Flexibility Score: inf
ROOT
ATOM      1  C   UNL A   1      31.265  29.456  24.007  1.00  0.00     0.002 C 
ENDROOT
BRANCH   1   2
ATOM      2  C   UNL A   1      30.834  28.645  22.767  1.00  0.00     0.021 C 
BRANCH   2   3
ATOM      3  C   UNL A   1      31.619  27.344  22.485  1.00  0.00     0.116 C 
BRANCH   3   4
ATOM      4  N   UNL A   1      30.752  26.220  22.731  1.00  0.00    -0.354 N 
ATOM      5  C   UNL A   1      30.178  25.792  23.913  1.00  0.00     0.245 C 
ATOM      6  O   UNL A   1      29.193  26.308  24.423  1.00  0.00    -0.272 OA
ATOM      7  H   UNL A   1      30.537  25.676  21.939  1.00  0.00     0.163 HD
BRANCH   5   8
ATOM      8  C   UNL A   1      31.064  24.715  24.591  1.00  0.00     0.117 C 
ATOM      9  C   UNL A   1      30.901  23.587  23.519  1.00  0.00     0.045 C 
BRANCH   8  10
ATOM     10  C   UNL A   1      32.577  24.863  24.846  1.00  0.00     0.035 C 
ATOM     11  C   UNL A   1      33.545  24.391  23.784  1.00  0.00     0.007 C 
ENDBRANCH   8  10
BRANCH   8  12
ATOM     12  N   UNL A   1      30.424  24.315  25.884  1.00  0.00    -0.324 N 
ATOM     13  C   UNL A   1      30.444  23.263  26.716  1.00  0.00     0.320 C 
ATOM     14  H   UNL A   1      29.821  25.019  26.216  1.00  0.00     0.166 HD
ATOM     15  O   UNL A   1      29.537  23.246  27.557  1.00  0.00    -0.248 OA
ATOM     16  N   UNL A   1      31.290  22.219  26.740  1.00  0.00    -0.308 N 
ATOM     17  H   UNL A   1      30.910  21.529  27.330  1.00  0.00     0.171 HD
BRANCH  16  18
ATOM     18  C   UNL A   1      32.521  21.736  26.234  1.00  0.00     0.043 A 
ATOM     19  C   UNL A   1      33.677  22.315  26.762  1.00  0.00     0.026 A 
ATOM     20  C   UNL A   1      32.732  20.818  25.214  1.00  0.00     0.035 A 
ATOM     21  C   UNL A   1      34.956  21.855  26.406  1.00  0.00     0.003 A 
ATOM     22  C   UNL A   1      33.975  20.207  24.963  1.00  0.00     0.008 A 
ATOM     23  C   UNL A   1      35.104  20.763  25.548  1.00  0.00     0.010 A 
BRANCH  22  24
ATOM     24  C   UNL A   1      33.969  18.846  24.296  1.00  0.00     0.297 C 
BRANCH  24  25
ATOM     25  N   UNL A   1      34.802  17.791  24.870  1.00  0.00    -0.345 N 
ATOM     26  C   UNL A   1      33.994  16.556  24.864  1.00  0.00     0.331 C 
ATOM     27  H   UNL A   1      35.066  18.033  25.825  1.00  0.00     0.346 HD
ATOM     28  H   UNL A   1      35.659  17.668  24.330  1.00  0.00     0.346 HD
ENDBRANCH  24  25
ENDBRANCH  22  24
ENDBRANCH  16  18
ENDBRANCH   8  12
ENDBRANCH   5   8
ENDBRANCH   3   4
ENDBRANCH   2   3
ENDBRANCH   1   2
BRANCH   1  29
ATOM     29  C   UNL A   1      31.761  28.634  25.196  1.00  0.00     0.002 C 
BRANCH  29  30
ATOM     30  C   UNL A   1      33.266  28.719  25.432  1.00  0.00     0.021 C 
BRANCH  30  31
ATOM     31  C   UNL A   1      33.677  28.784  26.898  1.00  0.00     0.116 C 
BRANCH  31  32
ATOM     32  N   UNL A   1      33.574  30.122  27.454  1.00  0.00    -0.352 N 
ATOM     33  C   UNL A   1      34.503  30.803  28.218  1.00  0.00     0.251 C 
ATOM     34  H   UNL A   1      32.739  30.605  27.261  1.00  0.00     0.163 HD
ATOM     35  O   UNL A   1      34.229  31.868  28.731  1.00  0.00    -0.269 OA
BRANCH  33  36
ATOM     36  C   UNL A   1      35.832  30.179  28.431  1.00  0.00     0.039 A 
ATOM     37  C   UNL A   1      36.768  30.222  27.397  1.00  0.00     0.014 A 
ATOM     38  C   UNL A   1      36.170  29.627  29.670  1.00  0.00     0.014 A 
ATOM     39  C   UNL A   1      38.074  29.785  27.634  1.00  0.00     0.010 A 
ATOM     40  C   UNL A   1      37.489  29.266  29.926  1.00  0.00     0.010 A 
ATOM     41  C   UNL A   1      38.458  29.350  28.914  1.00  0.00    -0.014 A 
BRANCH  41  42
ATOM     42  C   UNL A   1      39.874  29.016  29.221  1.00  0.00     0.031 A 
ATOM     43  C   UNL A   1      40.788  30.049  29.817  1.00  0.00     0.074 A 
ATOM     44  C   UNL A   1      40.356  27.800  28.890  1.00  0.00     0.049 A 
ATOM     45  N   UNL A   1      42.065  29.964  30.087  1.00  0.00    -0.248 NA
ATOM     46  C   UNL A   1      40.194  31.360  30.123  1.00  0.00     0.031 C 
ATOM     47  C   UNL A   1      39.585  26.731  28.251  1.00  0.00     0.029 A 
ATOM     48  N   UNL A   1      41.613  27.265  29.026  1.00  0.00    -0.354 N 
ATOM     49  C   UNL A   1      42.429  31.207  30.592  1.00  0.00     0.074 A 
ATOM     50  C   UNL A   1      41.252  32.047  30.529  1.00  0.00     0.031 C 
ATOM     51  C   UNL A   1      40.381  25.668  28.061  1.00  0.00     0.029 A 
ATOM     52  C   UNL A   1      41.727  25.990  28.525  1.00  0.00     0.049 A 
ATOM     53  H   UNL A   1      42.362  27.748  29.444  1.00  0.00     0.167 HD
ATOM     54  C   UNL A   1      43.626  31.604  31.086  1.00  0.00     0.037 A 
ATOM     55  C   UNL A   1      42.797  25.176  28.429  1.00  0.00     0.037 A 
ATOM     56  C   UNL A   1      44.793  30.762  31.144  1.00  0.00     0.049 A 
ATOM     57  C   UNL A   1      44.123  25.639  28.965  1.00  0.00     0.074 A 
ATOM     58  C   UNL A   1      46.039  31.053  31.674  1.00  0.00     0.029 A 
ATOM     59  N   UNL A   1      44.866  29.469  30.645  1.00  0.00    -0.354 N 
ATOM     60  N   UNL A   1      44.431  26.791  29.513  1.00  0.00    -0.248 NA
ATOM     61  C   UNL A   1      45.245  24.695  28.879  1.00  0.00     0.031 C 
ATOM     62  C   UNL A   1      46.879  29.957  31.444  1.00  0.00     0.029 A 
ATOM     63  C   UNL A   1      46.142  28.960  30.824  1.00  0.00     0.049 A 
ATOM     64  H   UNL A   1      44.118  28.984  30.224  1.00  0.00     0.167 HD
ATOM     65  C   UNL A   1      45.778  26.707  29.847  1.00  0.00     0.074 A 
ATOM     66  C   UNL A   1      46.220  25.382  29.458  1.00  0.00     0.031 C 
ATOM     67  C   UNL A   1      46.574  27.642  30.423  1.00  0.00     0.037 A 
BRANCH  54  68
ATOM     68  C   UNL A   1      43.727  33.017  31.597  1.00  0.00     0.058 A 
ATOM     69  C   UNL A   1      43.448  33.341  32.935  1.00  0.00     0.135 A 
ATOM     70  C   UNL A   1      44.111  34.064  30.741  1.00  0.00     0.135 A 
ATOM     71  F   UNL A   1      43.066  32.383  33.796  1.00  0.00    -0.206 F 
ATOM     72  C   UNL A   1      43.495  34.652  33.394  1.00  0.00     0.059 A 
ATOM     73  C   UNL A   1      44.197  35.380  31.186  1.00  0.00     0.059 A 
ATOM     74  F   UNL A   1      44.395  33.815  29.453  1.00  0.00    -0.206 F 
ATOM     75  C   UNL A   1      43.864  35.667  32.510  1.00  0.00     0.060 A 
BRANCH  75  76
ATOM     76  S   UNL A   1      43.890  37.367  33.114  1.00  0.00     0.124 S 
ATOM     77  O   UNL A   1      43.797  38.119  31.865  1.00  0.00    -0.237 OA
ATOM     78  O   UNL A   1      42.709  37.414  33.970  1.00  0.00    -0.237 OA
ATOM     79  O   UNL A   1      45.169  37.463  33.809  1.00  0.00    -0.744 OA
ENDBRANCH  75  76
ENDBRANCH  54  68
BRANCH  55  80
ATOM     80  C   UNL A   1      42.643  23.837  27.798  1.00  0.00     0.058 A 
ATOM     81  C   UNL A   1      42.765  23.668  26.411  1.00  0.00     0.135 A 
ATOM     82  C   UNL A   1      42.421  22.691  28.578  1.00  0.00     0.135 A 
ATOM     83  F   UNL A   1      42.969  24.733  25.621  1.00  0.00    -0.206 F 
ATOM     84  C   UNL A   1      42.674  22.412  25.819  1.00  0.00     0.059 A 
ATOM     85  C   UNL A   1      42.352  21.422  28.013  1.00  0.00     0.059 A 
ATOM     86  F   UNL A   1      42.311  22.797  29.912  1.00  0.00    -0.206 F 
ATOM     87  C   UNL A   1      42.477  21.293  26.631  1.00  0.00     0.060 A 
BRANCH  87  88
ATOM     88  S   UNL A   1      42.443  19.659  25.862  1.00  0.00     0.124 S 
ATOM     89  O   UNL A   1      41.063  19.581  25.397  1.00  0.00    -0.237 OA
ATOM     90  O   UNL A   1      43.461  19.789  24.824  1.00  0.00    -0.237 OA
ATOM     91  O   UNL A   1      42.790  18.763  26.961  1.00  0.00    -0.744 OA
ENDBRANCH  87  88
ENDBRANCH  55  80
BRANCH  67  92
ATOM     92  C   UNL A   1      48.009  27.269  30.679  1.00  0.00     0.058 A 
ATOM     93  C   UNL A   1      48.391  26.556  31.827  1.00  0.00     0.135 A 
ATOM     94  C   UNL A   1      49.006  27.574  29.738  1.00  0.00     0.135 A 
ATOM     95  F   UNL A   1      47.481  26.246  32.764  1.00  0.00    -0.206 F 
ATOM     96  C   UNL A   1      49.711  26.172  32.039  1.00  0.00     0.059 A 
ATOM     97  C   UNL A   1      50.327  27.175  29.915  1.00  0.00     0.059 A 
ATOM     98  F   UNL A   1      48.695  28.248  28.619  1.00  0.00    -0.206 F 
ATOM     99  C   UNL A   1      50.672  26.482  31.075  1.00  0.00     0.060 A 
BRANCH  99 100
ATOM    100  S   UNL A   1      52.372  25.937  31.342  1.00  0.00     0.124 S 
ATOM    101  O   UNL A   1      52.169  24.606  31.906  1.00  0.00    -0.237 OA
ATOM    102  O   UNL A   1      52.926  25.975  29.992  1.00  0.00    -0.237 OA
ATOM    103  O   UNL A   1      52.909  26.934  32.263  1.00  0.00    -0.744 OA
ENDBRANCH  99 100
ENDBRANCH  67  92
ENDBRANCH  41  42
ENDBRANCH  33  36
ENDBRANCH  31  32
ENDBRANCH  30  31
ENDBRANCH  29  30
ENDBRANCH   1  29
TORSDOF 21
ENDMDL
MODEL 2
REMARK VINA RESULT:     -10.5      2.863      3.974
REMARK SMILES CC[C@@](C)(NC(=O)Nc1cccc(C[NH2+]C)c1)C(=O)NCCCCCCNC(=O)c1ccc(-c2c3nc(c(-c4c(F)cc(S(=O)(=O)[O-])cc4F)c4ccc([nH]4)c(-c4c(F)cc(S(=O)(=O)[O-])cc4F)c4nc(c(-c5c(F)cc(S(=O)(=O)[O-])cc5F)c5ccc2[nH]5)C=C4)C=C3)cc1
REMARK SMILES IDX 23 1 22 2 21 3 20 4 18 5 19 6 3 8 4 9 2 10 1 11 5 12 6 13
REMARK SMILES IDX 7 15 8 16 9 18 10 19 17 20 11 21 13 22 12 23 14 24 15 25
REMARK SMILES IDX 16 26 24 29 25 30 26 31 27 32 28 33 29 35 30 36 31 37 95 38
REMARK SMILES IDX 32 39 94 40 33 41 34 42 35 43 88 44 36 45 93 46 87 47 89 48
REMARK SMILES IDX 37 49 92 50 86 51 85 52 38 54 72 55 51 56 71 57 52 58 55 59
REMARK SMILES IDX 70 60 90 61 53 62 54 63 69 65 91 66 56 67 39 68 40 69 49 70
REMARK SMILES IDX 41 71 42 72 48 73 50 74 43 75 44 76 45 77 46 78 47 79 73 80
REMARK SMILES IDX 74 81 83 82 75 83 76 84 82 85 84 86 77 87 78 88 79 89 80 90
REMARK SMILES IDX 81 91 57 92 58 93 67 94 59 95 60 96 66 97 68 98 61 99 62 100
REMARK SMILES IDX 63 101 64 102 65 103
REMARK H PARENT 20 7 5 14 8 17 15 27 15 28 27 34 89 53 55 64
REMARK Flexibility Score: inf
ROOT
ATOM      1  C   UNL A   1      33.252  27.945  27.006  1.00  0.00     0.002 C 
ENDROOT
BRANCH   1   2
ATOM      2  C   UNL A   1      31.717  27.825  26.899  1.00  0.00     0.021 C 
BRANCH   2   3
ATOM      3  C   UNL A   1      31.170  26.563  26.194  1.00  0.00     0.116 C 
BRANCH   3   4
ATOM      4  N   UNL A   1      30.571  26.956  24.945  1.00  0.00    -0.354 N 
ATOM      5  C   UNL A   1      30.661  26.366  23.698  1.00  0.00     0.245 C 
ATOM      6  O   UNL A   1      30.035  25.370  23.364  1.00  0.00    -0.272 OA
ATOM      7  H   UNL A   1      30.014  27.768  24.985  1.00  0.00     0.163 HD
BRANCH   5   8
ATOM      8  C   UNL A   1      31.800  27.015  22.869  1.00  0.00     0.117 C 
ATOM      9  C   UNL A   1      31.300  28.496  22.928  1.00  0.00     0.045 C 
BRANCH   8  10
ATOM     10  C   UNL A   1      33.283  27.035  23.289  1.00  0.00     0.035 C 
ATOM     11  C   UNL A   1      34.182  28.119  22.738  1.00  0.00     0.007 C 
ENDBRANCH   8  10
BRANCH   8  12
ATOM     12  N   UNL A   1      31.732  26.486  21.470  1.00  0.00    -0.324 N 
ATOM     13  C   UNL A   1      32.288  25.496  20.757  1.00  0.00     0.320 C 
ATOM     14  H   UNL A   1      31.105  27.011  20.921  1.00  0.00     0.166 HD
ATOM     15  O   UNL A   1      32.139  25.589  19.533  1.00  0.00    -0.248 OA
ATOM     16  N   UNL A   1      33.004  24.443  21.186  1.00  0.00    -0.308 N 
ATOM     17  H   UNL A   1      33.436  24.026  20.406  1.00  0.00     0.171 HD
BRANCH  16  18
ATOM     18  C   UNL A   1      33.374  23.708  22.339  1.00  0.00     0.043 A 
ATOM     19  C   UNL A   1      32.337  23.079  23.031  1.00  0.00     0.026 A 
ATOM     20  C   UNL A   1      34.628  23.599  22.924  1.00  0.00     0.035 A 
ATOM     21  C   UNL A   1      32.591  22.247  24.134  1.00  0.00     0.003 A 
ATOM     22  C   UNL A   1      34.947  22.641  23.905  1.00  0.00     0.008 A 
ATOM     23  C   UNL A   1      33.902  21.983  24.538  1.00  0.00     0.010 A 
BRANCH  22  24
ATOM     24  C   UNL A   1      36.395  22.204  24.018  1.00  0.00     0.297 C 
BRANCH  24  25
ATOM     25  N   UNL A   1      37.411  23.230  24.242  1.00  0.00    -0.345 N 
ATOM     26  C   UNL A   1      37.277  23.667  25.645  1.00  0.00     0.331 C 
ATOM     27  H   UNL A   1      37.258  24.019  23.613  1.00  0.00     0.346 HD
ATOM     28  H   UNL A   1      38.346  22.864  24.063  1.00  0.00     0.346 HD
ENDBRANCH  24  25
ENDBRANCH  22  24
ENDBRANCH  16  18
ENDBRANCH   8  12
ENDBRANCH   5   8
ENDBRANCH   3   4
ENDBRANCH   2   3
ENDBRANCH   1   2
BRANCH   1  29
ATOM     29  C   UNL A   1      33.803  29.369  27.058  1.00  0.00     0.002 C 
BRANCH  29  30
ATOM     30  C   UNL A   1      35.304  29.451  27.312  1.00  0.00     0.021 C 
BRANCH  30  31
ATOM     31  C   UNL A   1      35.759  30.713  28.037  1.00  0.00     0.116 C 
BRANCH  31  32
ATOM     32  N   UNL A   1      35.517  30.660  29.468  1.00  0.00    -0.352 N 
ATOM     33  C   UNL A   1      36.421  30.392  30.477  1.00  0.00     0.251 C 
ATOM     34  H   UNL A   1      34.593  30.840  29.754  1.00  0.00     0.163 HD
ATOM     35  O   UNL A   1      36.051  30.248  31.624  1.00  0.00    -0.269 OA
BRANCH  33  36
ATOM     36  C   UNL A   1      37.853  30.243  30.119  1.00  0.00     0.039 A 
ATOM     37  C   UNL A   1      38.780  30.014  31.137  1.00  0.00     0.014 A 
ATOM     38  C   UNL A   1      38.258  30.255  28.781  1.00  0.00     0.014 A 
ATOM     39  C   UNL A   1      40.103  29.712  30.806  1.00  0.00     0.010 A 
ATOM     40  C   UNL A   1      39.557  29.877  28.452  1.00  0.00     0.010 A 
ATOM     41  C   UNL A   1      40.491  29.592  29.460  1.00  0.00    -0.014 A 
BRANCH  41  42
ATOM     42  C   UNL A   1      41.856  29.134  29.090  1.00  0.00     0.031 A 
ATOM     43  C   UNL A   1      42.999  30.108  29.045  1.00  0.00     0.074 A 
ATOM     44  C   UNL A   1      42.048  27.851  28.720  1.00  0.00     0.049 A 
ATOM     45  N   UNL A   1      44.239  29.909  28.680  1.00  0.00    -0.248 NA
ATOM     46  C   UNL A   1      42.702  31.495  29.436  1.00  0.00     0.031 C 
ATOM     47  C   UNL A   1      41.007  26.823  28.663  1.00  0.00     0.029 A 
ATOM     48  N   UNL A   1      43.182  27.198  28.302  1.00  0.00    -0.354 N 
ATOM     49  C   UNL A   1      44.870  31.143  28.793  1.00  0.00     0.074 A 
ATOM     50  C   UNL A   1      43.860  32.095  29.199  1.00  0.00     0.031 C 
ATOM     51  C   UNL A   1      41.550  25.669  28.247  1.00  0.00     0.029 A 
ATOM     52  C   UNL A   1      42.968  25.881  27.967  1.00  0.00     0.049 A 
ATOM     53  H   UNL A   1      44.065  27.630  28.248  1.00  0.00     0.167 HD
ATOM     54  C   UNL A   1      46.176  31.449  28.601  1.00  0.00     0.037 A 
ATOM     55  C   UNL A   1      43.809  24.953  27.471  1.00  0.00     0.037 A 
ATOM     56  C   UNL A   1      47.176  30.494  28.196  1.00  0.00     0.049 A 
ATOM     57  C   UNL A   1      45.251  25.314  27.245  1.00  0.00     0.074 A 
ATOM     58  C   UNL A   1      48.535  30.692  28.024  1.00  0.00     0.029 A 
ATOM     59  N   UNL A   1      46.925  29.165  27.884  1.00  0.00    -0.354 N 
ATOM     60  N   UNL A   1      45.849  26.467  27.434  1.00  0.00    -0.248 NA
ATOM     61  C   UNL A   1      46.136  24.251  26.749  1.00  0.00     0.031 C 
ATOM     62  C   UNL A   1      49.096  29.498  27.557  1.00  0.00     0.029 A 
ATOM     63  C   UNL A   1      48.097  28.538  27.492  1.00  0.00     0.049 A 
ATOM     64  H   UNL A   1      46.043  28.730  27.935  1.00  0.00     0.167 HD
ATOM     65  C   UNL A   1      47.181  26.266  27.090  1.00  0.00     0.074 A 
ATOM     66  C   UNL A   1      47.305  24.875  26.702  1.00  0.00     0.031 C 
ATOM     67  C   UNL A   1      48.207  27.154  27.096  1.00  0.00     0.037 A 
BRANCH  54  68
ATOM     68  C   UNL A   1      46.590  32.879  28.825  1.00  0.00     0.058 A 
ATOM     69  C   UNL A   1      46.999  33.341  30.087  1.00  0.00     0.135 A 
ATOM     70  C   UNL A   1      46.581  33.802  27.765  1.00  0.00     0.135 A 
ATOM     71  F   UNL A   1      47.016  32.506  31.139  1.00  0.00    -0.206 F 
ATOM     72  C   UNL A   1      47.334  34.673  30.303  1.00  0.00     0.059 A 
ATOM     73  C   UNL A   1      46.945  35.133  27.951  1.00  0.00     0.059 A 
ATOM     74  F   UNL A   1      46.205  33.418  26.536  1.00  0.00    -0.206 F 
ATOM     75  C   UNL A   1      47.298  35.563  29.230  1.00  0.00     0.060 A 
BRANCH  75  76
ATOM     76  S   UNL A   1      47.707  37.295  29.534  1.00  0.00     0.124 S 
ATOM     77  O   UNL A   1      48.339  37.217  30.847  1.00  0.00    -0.237 OA
ATOM     78  O   UNL A   1      48.596  37.607  28.420  1.00  0.00    -0.237 OA
ATOM     79  O   UNL A   1      46.409  37.962  29.502  1.00  0.00    -0.744 OA
ENDBRANCH  75  76
ENDBRANCH  54  68
BRANCH  55  80
ATOM     80  C   UNL A   1      43.295  23.592  27.158  1.00  0.00     0.058 A 
ATOM     81  C   UNL A   1      42.965  23.221  25.847  1.00  0.00     0.135 A 
ATOM     82  C   UNL A   1      43.171  22.618  28.162  1.00  0.00     0.135 A 
ATOM     83  F   UNL A   1      43.057  24.119  24.853  1.00  0.00    -0.206 F 
ATOM     84  C   UNL A   1      42.532  21.935  25.539  1.00  0.00     0.059 A 
ATOM     85  C   UNL A   1      42.766  21.319  27.876  1.00  0.00     0.059 A 
ATOM     86  F   UNL A   1      43.488  22.917  29.432  1.00  0.00    -0.206 F 
ATOM     87  C   UNL A   1      42.446  20.987  26.561  1.00  0.00     0.060 A 
BRANCH  87  88
ATOM     88  S   UNL A   1      41.963  19.299  26.138  1.00  0.00     0.124 S 
ATOM     89  O   UNL A   1      40.526  19.446  25.936  1.00  0.00    -0.237 OA
ATOM     90  O   UNL A   1      42.755  19.047  24.939  1.00  0.00    -0.237 OA
ATOM     91  O   UNL A   1      42.359  18.531  27.315  1.00  0.00    -0.744 OA
ENDBRANCH  87  88
ENDBRANCH  55  80
BRANCH  67  92
ATOM     92  C   UNL A   1      49.562  26.652  26.678  1.00  0.00     0.058 A 
ATOM     93  C   UNL A   1      49.985  26.700  25.339  1.00  0.00     0.135 A 
ATOM     94  C   UNL A   1      50.474  26.174  27.634  1.00  0.00     0.135 A 
ATOM     95  F   UNL A   1      49.151  27.140  24.383  1.00  0.00    -0.206 F 
ATOM     96  C   UNL A   1      51.256  26.279  24.963  1.00  0.00     0.059 A 
ATOM     97  C   UNL A   1      51.759  25.775  27.284  1.00  0.00     0.059 A 
ATOM     98  F   UNL A   1      50.124  26.113  28.929  1.00  0.00    -0.206 F 
ATOM     99  C   UNL A   1      52.139  25.823  25.943  1.00  0.00     0.060 A 
BRANCH  99 100
ATOM    100  S   UNL A   1      53.800  25.323  25.446  1.00  0.00     0.124 S 
ATOM    101  O   UNL A   1      54.399  24.970  26.729  1.00  0.00    -0.237 OA
ATOM    102  O   UNL A   1      53.533  24.208  24.543  1.00  0.00    -0.237 OA
ATOM    103  O   UNL A   1      54.341  26.521  24.810  1.00  0.00    -0.744 OA
ENDBRANCH  99 100
ENDBRANCH  67  92
ENDBRANCH  41  42
ENDBRANCH  33  36
ENDBRANCH  31  32
ENDBRANCH  30  31
ENDBRANCH  29  30
ENDBRANCH   1  29
TORSDOF 21
ENDMDL
MODEL 3
REMARK VINA RESULT:     -10.4      2.268      2.939
REMARK SMILES CC[C@@](C)(NC(=O)Nc1cccc(C[NH2+]C)c1)C(=O)NCCCCCCNC(=O)c1ccc(-c2c3nc(c(-c4c(F)cc(S(=O)(=O)[O-])cc4F)c4ccc([nH]4)c(-c4c(F)cc(S(=O)(=O)[O-])cc4F)c4nc(c(-c5c(F)cc(S(=O)(=O)[O-])cc5F)c5ccc2[nH]5)C=C4)C=C3)cc1
REMARK SMILES IDX 23 1 22 2 21 3 20 4 18 5 19 6 3 8 4 9 2 10 1 11 5 12 6 13
REMARK SMILES IDX 7 15 8 16 9 18 10 19 17 20 11 21 13 22 12 23 14 24 15 25
REMARK SMILES IDX 16 26 24 29 25 30 26 31 27 32 28 33 29 35 30 36 31 37 95 38
REMARK SMILES IDX 32 39 94 40 33 41 34 42 35 43 88 44 36 45 93 46 87 47 89 48
REMARK SMILES IDX 37 49 92 50 86 51 85 52 38 54 72 55 51 56 71 57 52 58 55 59
REMARK SMILES IDX 70 60 90 61 53 62 54 63 69 65 91 66 56 67 39 68 40 69 49 70
REMARK SMILES IDX 41 71 42 72 48 73 50 74 43 75 44 76 45 77 46 78 47 79 73 80
REMARK SMILES IDX 74 81 83 82 75 83 76 84 82 85 84 86 77 87 78 88 79 89 80 90
REMARK SMILES IDX 81 91 57 92 58 93 67 94 59 95 60 96 66 97 68 98 61 99 62 100
REMARK SMILES IDX 63 101 64 102 65 103
REMARK H PARENT 20 7 5 14 8 17 15 27 15 28 27 34 89 53 55 64
REMARK Flexibility Score: inf
ROOT
ATOM      1  C   UNL A   1      31.300  29.387  23.923  1.00  0.00     0.002 C 
ENDROOT
BRANCH   1   2
ATOM      2  C   UNL A   1      30.567  28.546  22.858  1.00  0.00     0.021 C 
BRANCH   2   3
ATOM      3  C   UNL A   1      31.286  27.266  22.372  1.00  0.00     0.116 C 
BRANCH   3   4
ATOM      4  N   UNL A   1      30.482  26.124  22.726  1.00  0.00    -0.354 N 
ATOM      5  C   UNL A   1      29.960  25.757  23.952  1.00  0.00     0.245 C 
ATOM      6  O   UNL A   1      28.965  26.262  24.452  1.00  0.00    -0.272 OA
ATOM      7  H   UNL A   1      30.274  25.513  21.982  1.00  0.00     0.163 HD
BRANCH   5   8
ATOM      8  C   UNL A   1      30.917  24.777  24.680  1.00  0.00     0.117 C 
ATOM      9  C   UNL A   1      30.944  23.650  23.595  1.00  0.00     0.045 C 
BRANCH   8  10
ATOM     10  C   UNL A   1      32.385  25.087  25.029  1.00  0.00     0.035 C 
ATOM     11  C   UNL A   1      33.460  24.762  24.016  1.00  0.00     0.007 C 
ENDBRANCH   8  10
BRANCH   8  12
ATOM     12  N   UNL A   1      30.245  24.295  25.929  1.00  0.00    -0.324 N 
ATOM     13  C   UNL A   1      30.335  23.246  26.759  1.00  0.00     0.320 C 
ATOM     14  H   UNL A   1      29.546  24.922  26.222  1.00  0.00     0.166 HD
ATOM     15  O   UNL A   1      29.383  23.118  27.540  1.00  0.00    -0.248 OA
ATOM     16  N   UNL A   1      31.293  22.307  26.837  1.00  0.00    -0.308 N 
ATOM     17  H   UNL A   1      30.958  21.573  27.402  1.00  0.00     0.171 HD
BRANCH  16  18
ATOM     18  C   UNL A   1      32.601  21.974  26.411  1.00  0.00     0.043 A 
ATOM     19  C   UNL A   1      33.643  22.715  26.974  1.00  0.00     0.026 A 
ATOM     20  C   UNL A   1      32.983  21.060  25.437  1.00  0.00     0.035 A 
ATOM     21  C   UNL A   1      34.987  22.414  26.699  1.00  0.00     0.003 A 
ATOM     22  C   UNL A   1      34.306  20.609  25.272  1.00  0.00     0.008 A 
ATOM     23  C   UNL A   1      35.321  21.325  25.890  1.00  0.00     0.010 A 
BRANCH  22  24
ATOM     24  C   UNL A   1      34.511  19.239  24.657  1.00  0.00     0.297 C 
BRANCH  24  25
ATOM     25  N   UNL A   1      33.684  18.134  25.138  1.00  0.00    -0.345 N 
ATOM     26  C   UNL A   1      32.882  17.667  23.990  1.00  0.00     0.331 C 
ATOM     27  H   UNL A   1      33.070  18.455  25.887  1.00  0.00     0.346 HD
ATOM     28  H   UNL A   1      34.262  17.379  25.509  1.00  0.00     0.346 HD
ENDBRANCH  24  25
ENDBRANCH  22  24
ENDBRANCH  16  18
ENDBRANCH   8  12
ENDBRANCH   5   8
ENDBRANCH   3   4
ENDBRANCH   2   3
ENDBRANCH   1   2
BRANCH   1  29
ATOM     29  C   UNL A   1      31.910  28.603  25.083  1.00  0.00     0.002 C 
BRANCH  29  30
ATOM     30  C   UNL A   1      33.435  28.598  25.104  1.00  0.00     0.021 C 
BRANCH  30  31
ATOM     31  C   UNL A   1      34.054  28.917  26.460  1.00  0.00     0.116 C 
BRANCH  31  32
ATOM     32  N   UNL A   1      33.942  30.321  26.815  1.00  0.00    -0.352 N 
ATOM     33  C   UNL A   1      34.756  31.057  27.654  1.00  0.00     0.251 C 
ATOM     34  H   UNL A   1      33.193  30.810  26.405  1.00  0.00     0.163 HD
ATOM     35  O   UNL A   1      34.466  32.193  27.968  1.00  0.00    -0.269 OA
BRANCH  33  36
ATOM     36  C   UNL A   1      35.976  30.409  28.199  1.00  0.00     0.039 A 
ATOM     37  C   UNL A   1      37.183  30.570  27.517  1.00  0.00     0.014 A 
ATOM     38  C   UNL A   1      35.933  29.714  29.410  1.00  0.00     0.014 A 
ATOM     39  C   UNL A   1      38.366  30.105  28.097  1.00  0.00     0.010 A 
ATOM     40  C   UNL A   1      37.120  29.322  30.021  1.00  0.00     0.010 A 
ATOM     41  C   UNL A   1      38.351  29.523  29.376  1.00  0.00    -0.014 A 
BRANCH  41  42
ATOM     42  C   UNL A   1      39.613  29.151  30.067  1.00  0.00     0.031 A 
ATOM     43  C   UNL A   1      40.112  29.963  31.229  1.00  0.00     0.074 A 
ATOM     44  C   UNL A   1      40.351  28.124  29.597  1.00  0.00     0.049 A 
ATOM     45  N   UNL A   1      41.222  29.834  31.910  1.00  0.00    -0.248 NA
ATOM     46  C   UNL A   1      39.265  31.084  31.664  1.00  0.00     0.031 C 
ATOM     47  C   UNL A   1      40.005  27.296  28.439  1.00  0.00     0.029 A 
ATOM     48  N   UNL A   1      41.552  27.613  30.021  1.00  0.00    -0.354 N 
ATOM     49  C   UNL A   1      41.209  30.857  32.852  1.00  0.00     0.074 A 
ATOM     50  C   UNL A   1      40.013  31.635  32.610  1.00  0.00     0.031 C 
ATOM     51  C   UNL A   1      40.964  26.377  28.252  1.00  0.00     0.029 A 
ATOM     52  C   UNL A   1      42.014  26.573  29.249  1.00  0.00     0.049 A 
ATOM     53  H   UNL A   1      42.038  27.957  30.806  1.00  0.00     0.167 HD
ATOM     54  C   UNL A   1      42.098  31.110  33.842  1.00  0.00     0.037 A 
ATOM     55  C   UNL A   1      43.160  25.867  29.318  1.00  0.00     0.037 A 
ATOM     56  C   UNL A   1      43.287  30.331  34.075  1.00  0.00     0.049 A 
ATOM     57  C   UNL A   1      44.145  26.173  30.412  1.00  0.00     0.074 A 
ATOM     58  C   UNL A   1      44.226  30.473  35.083  1.00  0.00     0.029 A 
ATOM     59  N   UNL A   1      43.712  29.272  33.283  1.00  0.00    -0.354 N 
ATOM     60  N   UNL A   1      44.079  27.094  31.344  1.00  0.00    -0.248 NA
ATOM     61  C   UNL A   1      45.356  25.343  30.471  1.00  0.00     0.031 C 
ATOM     62  C   UNL A   1      45.244  29.537  34.868  1.00  0.00     0.029 A 
ATOM     63  C   UNL A   1      44.913  28.772  33.761  1.00  0.00     0.049 A 
ATOM     64  H   UNL A   1      43.229  28.927  32.497  1.00  0.00     0.167 HD
ATOM     65  C   UNL A   1      45.232  26.948  32.107  1.00  0.00     0.074 A 
ATOM     66  C   UNL A   1      45.967  25.835  31.540  1.00  0.00     0.031 C 
ATOM     67  C   UNL A   1      45.643  27.670  33.180  1.00  0.00     0.037 A 
BRANCH  54  68
ATOM     68  C   UNL A   1      41.814  32.283  34.742  1.00  0.00     0.058 A 
ATOM     69  C   UNL A   1      40.957  32.175  35.849  1.00  0.00     0.135 A 
ATOM     70  C   UNL A   1      42.407  33.534  34.498  1.00  0.00     0.135 A 
ATOM     71  F   UNL A   1      40.353  31.006  36.124  1.00  0.00    -0.206 F 
ATOM     72  C   UNL A   1      40.657  33.270  36.651  1.00  0.00     0.059 A 
ATOM     73  C   UNL A   1      42.148  34.637  35.307  1.00  0.00     0.059 A 
ATOM     74  F   UNL A   1      43.239  33.697  33.458  1.00  0.00    -0.206 F 
ATOM     75  C   UNL A   1      41.253  34.500  36.368  1.00  0.00     0.060 A 
BRANCH  75  76
ATOM     76  S   UNL A   1      40.830  35.919  37.400  1.00  0.00     0.124 S 
ATOM     77  O   UNL A   1      39.811  36.575  36.585  1.00  0.00    -0.237 OA
ATOM     78  O   UNL A   1      40.351  35.285  38.624  1.00  0.00    -0.237 OA
ATOM     79  O   UNL A   1      42.093  36.639  37.522  1.00  0.00    -0.744 OA
ENDBRANCH  75  76
ENDBRANCH  54  68
BRANCH  55  80
ATOM     80  C   UNL A   1      43.425  24.802  28.314  1.00  0.00     0.058 A 
ATOM     81  C   UNL A   1      43.045  23.472  28.545  1.00  0.00     0.135 A 
ATOM     82  C   UNL A   1      44.020  25.106  27.079  1.00  0.00     0.135 A 
ATOM     83  F   UNL A   1      42.482  23.130  29.714  1.00  0.00    -0.206 F 
ATOM     84  C   UNL A   1      43.244  22.480  27.590  1.00  0.00     0.059 A 
ATOM     85  C   UNL A   1      44.205  24.137  26.098  1.00  0.00     0.059 A 
ATOM     86  F   UNL A   1      44.389  26.366  26.802  1.00  0.00    -0.206 F 
ATOM     87  C   UNL A   1      43.816  22.826  26.363  1.00  0.00     0.060 A 
BRANCH  87  88
ATOM     88  S   UNL A   1      43.993  21.548  25.100  1.00  0.00     0.124 S 
ATOM     89  O   UNL A   1      43.840  22.323  23.874  1.00  0.00    -0.237 OA
ATOM     90  O   UNL A   1      45.333  21.036  25.369  1.00  0.00    -0.237 OA
ATOM     91  O   UNL A   1      42.905  20.623  25.402  1.00  0.00    -0.744 OA
ENDBRANCH  87  88
ENDBRANCH  55  80
BRANCH  67  92
ATOM     92  C   UNL A   1      46.945  27.279  33.823  1.00  0.00     0.058 A 
ATOM     93  C   UNL A   1      48.162  27.867  33.440  1.00  0.00     0.135 A 
ATOM     94  C   UNL A   1      46.972  26.351  34.877  1.00  0.00     0.135 A 
ATOM     95  F   UNL A   1      48.196  28.753  32.432  1.00  0.00    -0.206 F 
ATOM     96  C   UNL A   1      49.358  27.538  34.068  1.00  0.00     0.059 A 
ATOM     97  C   UNL A   1      48.152  26.028  35.539  1.00  0.00     0.059 A 
ATOM     98  F   UNL A   1      45.836  25.764  35.289  1.00  0.00    -0.206 F 
ATOM     99  C   UNL A   1      49.343  26.620  35.121  1.00  0.00     0.060 A 
BRANCH  99 100
ATOM    100  S   UNL A   1      50.896  26.238  35.957  1.00  0.00     0.124 S 
ATOM    101  O   UNL A   1      51.076  27.417  36.798  1.00  0.00    -0.237 OA
ATOM    102  O   UNL A   1      50.574  25.000  36.660  1.00  0.00    -0.237 OA
ATOM    103  O   UNL A   1      51.849  26.099  34.859  1.00  0.00    -0.744 OA
ENDBRANCH  99 100
ENDBRANCH  67  92
ENDBRANCH  41  42
ENDBRANCH  33  36
ENDBRANCH  31  32
ENDBRANCH  30  31
ENDBRANCH  29  30
ENDBRANCH   1  29
TORSDOF 21
ENDMDL
