MODEL 1
REMARK VINA RESULT:     -12.2      0.000      0.000
REMARK SMILES O=C(CCC(=O)N1Cc2[nH]cnc2C[C@H]1C(=O)NCc1ccccc1)NCCCCCCNC(=O)c1ccc(-c2c3nc(c(-c4c(F)cc(S(=O)(=O)[O-])cc4F)c4ccc([nH]4)c(-c4c(F)cc(S(=O)(=O)[O-])cc4F)c4nc(c(-c5c(F)cc(S(=O)(=O)[O-])cc5F)c5ccc2[nH]5)C=C4)C=C3)cc1
REMARK SMILES IDX 28 1 27 2 26 3 1 4 2 5 3 7 4 8 5 9 6 10 7 11 8 12 15 13 9 14
REMARK SMILES IDX 14 15 10 16 13 17 11 18 12 20 16 21 17 22 18 23 19 25 20 26
REMARK SMILES IDX 21 27 25 28 22 29 24 30 23 31 29 32 30 33 31 34 32 35 33 36
REMARK SMILES IDX 34 37 35 39 36 40 37 41 101 42 38 43 100 44 39 45 40 46
REMARK SMILES IDX 41 47 94 48 42 49 99 50 93 51 95 52 43 53 98 54 92 55 91 56
REMARK SMILES IDX 44 58 78 59 57 60 77 61 58 62 61 63 76 64 96 65 59 66 60 67
REMARK SMILES IDX 75 69 97 70 62 71 45 72 46 73 55 74 47 75 48 76 54 77 56 78
REMARK SMILES IDX 49 79 50 80 51 81 52 82 53 83 79 84 80 85 89 86 81 87 82 88
REMARK SMILES IDX 88 89 90 90 83 91 84 92 85 93 86 94 87 95 63 96 64 97 73 98
REMARK SMILES IDX 65 99 66 100 72 101 74 102 67 103 68 104 69 105 70 106
REMARK SMILES IDX 71 107
REMARK H PARENT 26 6 10 19 18 24 33 38 95 57 61 68
REMARK Flexibility Score: inf
ROOT
ATOM      1  C   UNL A   1      38.013  23.231  26.000  1.00  0.00     0.021 C 
ENDROOT
BRANCH   1   2
ATOM      2  C   UNL A   1      37.180  22.189  25.212  1.00  0.00     0.116 C 
BRANCH   2   3
ATOM      3  N   UNL A   1      35.750  22.437  25.004  1.00  0.00    -0.356 N 
ATOM      4  O   UNL A   1      35.186  20.201  25.053  1.00  0.00    -0.275 OA
ATOM      5  C   UNL A   1      34.834  21.378  25.056  1.00  0.00     0.220 C 
ATOM      6  H   UNL A   1      35.431  23.352  24.828  1.00  0.00     0.163 HD
BRANCH   5   7
ATOM      7  C   UNL A   1      33.350  21.769  25.272  1.00  0.00     0.110 C 
BRANCH   7   8
ATOM      8  C   UNL A   1      33.142  22.774  26.449  1.00  0.00     0.110 C 
BRANCH   8   9
ATOM      9  C   UNL A   1      31.920  23.747  26.432  1.00  0.00     0.224 C 
ATOM     10  O   UNL A   1      31.089  23.695  27.343  1.00  0.00    -0.275 OA
BRANCH   9  11
ATOM     11  N   UNL A   1      31.814  24.706  25.432  1.00  0.00    -0.324 N 
ATOM     12  C   UNL A   1      31.120  24.447  24.141  1.00  0.00     0.176 C 
ATOM     13  C   UNL A   1      32.584  25.945  25.505  1.00  0.00     0.180 C 
ATOM     14  C   UNL A   1      31.956  25.006  23.030  1.00  0.00     0.058 A 
ATOM     15  C   UNL A   1      33.732  25.864  24.505  1.00  0.00     0.093 C 
ATOM     16  N   UNL A   1      31.686  25.120  21.693  1.00  0.00    -0.347 N 
ATOM     17  C   UNL A   1      33.165  25.638  23.179  1.00  0.00     0.066 A 
ATOM     18  C   UNL A   1      32.757  25.765  21.116  1.00  0.00     0.197 A 
ATOM     19  H   UNL A   1      30.878  24.801  21.231  1.00  0.00     0.167 HD
ATOM     20  N   UNL A   1      33.664  26.102  22.005  1.00  0.00    -0.242 NA
BRANCH  13  21
ATOM     21  C   UNL A   1      31.806  27.179  26.005  1.00  0.00     0.243 C 
ATOM     22  O   UNL A   1      31.339  27.168  27.154  1.00  0.00    -0.273 OA
ATOM     23  N   UNL A   1      31.517  28.293  25.310  1.00  0.00    -0.350 N 
ATOM     24  H   UNL A   1      31.432  29.109  25.854  1.00  0.00     0.163 HD
BRANCH  23  25
ATOM     25  C   UNL A   1      31.313  28.484  23.902  1.00  0.00     0.151 C 
BRANCH  25  26
ATOM     26  C   UNL A   1      29.998  29.157  23.589  1.00  0.00    -0.029 A 
ATOM     27  C   UNL A   1      29.869  30.526  23.863  1.00  0.00     0.005 A 
ATOM     28  C   UNL A   1      28.896  28.476  23.044  1.00  0.00     0.005 A 
ATOM     29  C   UNL A   1      28.674  31.194  23.595  1.00  0.00     0.000 A 
ATOM     30  C   UNL A   1      27.706  29.146  22.767  1.00  0.00     0.000 A 
ATOM     31  C   UNL A   1      27.595  30.505  23.042  1.00  0.00     0.000 A 
ENDBRANCH  25  26
ENDBRANCH  23  25
ENDBRANCH  13  21
ENDBRANCH   9  11
ENDBRANCH   8   9
ENDBRANCH   7   8
ENDBRANCH   5   7
ENDBRANCH   2   3
ENDBRANCH   1   2
BRANCH   1  32
ATOM     32  C   UNL A   1      39.540  23.076  26.230  1.00  0.00     0.002 C 
BRANCH  32  33
ATOM     33  C   UNL A   1      40.031  22.039  27.259  1.00  0.00     0.002 C 
BRANCH  33  34
ATOM     34  C   UNL A   1      40.732  20.754  26.827  1.00  0.00     0.021 C 
BRANCH  34  35
ATOM     35  C   UNL A   1      42.174  20.577  27.294  1.00  0.00     0.116 C 
BRANCH  35  36
ATOM     36  N   UNL A   1      43.038  19.774  26.416  1.00  0.00    -0.352 N 
ATOM     37  C   UNL A   1      43.751  20.239  25.312  1.00  0.00     0.251 C 
ATOM     38  H   UNL A   1      43.120  18.817  26.627  1.00  0.00     0.163 HD
ATOM     39  O   UNL A   1      44.158  19.516  24.431  1.00  0.00    -0.269 OA
BRANCH  37  40
ATOM     40  C   UNL A   1      44.018  21.692  25.311  1.00  0.00     0.039 A 
ATOM     41  C   UNL A   1      43.061  22.600  24.853  1.00  0.00     0.014 A 
ATOM     42  C   UNL A   1      45.071  22.084  26.128  1.00  0.00     0.014 A 
ATOM     43  C   UNL A   1      43.085  23.904  25.353  1.00  0.00     0.010 A 
ATOM     44  C   UNL A   1      44.997  23.326  26.718  1.00  0.00     0.010 A 
ATOM     45  C   UNL A   1      44.014  24.255  26.346  1.00  0.00    -0.014 A 
BRANCH  45  46
ATOM     46  C   UNL A   1      43.870  25.513  27.102  1.00  0.00     0.031 A 
ATOM     47  C   UNL A   1      44.807  26.651  26.796  1.00  0.00     0.074 A 
ATOM     48  C   UNL A   1      42.788  25.805  27.858  1.00  0.00     0.049 A 
ATOM     49  N   UNL A   1      45.630  27.247  27.602  1.00  0.00    -0.248 NA
ATOM     50  C   UNL A   1      44.840  27.191  25.428  1.00  0.00     0.031 C 
ATOM     51  C   UNL A   1      41.575  25.010  28.087  1.00  0.00     0.029 A 
ATOM     52  N   UNL A   1      42.493  26.980  28.481  1.00  0.00    -0.354 N 
ATOM     53  C   UNL A   1      46.160  28.341  26.911  1.00  0.00     0.074 A 
ATOM     54  C   UNL A   1      45.720  28.191  25.547  1.00  0.00     0.031 C 
ATOM     55  C   UNL A   1      40.590  25.810  28.540  1.00  0.00     0.029 A 
ATOM     56  C   UNL A   1      41.163  27.106  28.840  1.00  0.00     0.049 A 
ATOM     57  H   UNL A   1      43.165  27.678  28.658  1.00  0.00     0.167 HD
ATOM     58  C   UNL A   1      46.793  29.376  27.543  1.00  0.00     0.037 A 
ATOM     59  C   UNL A   1      40.552  28.198  29.348  1.00  0.00     0.037 A 
ATOM     60  C   UNL A   1      47.113  29.052  28.910  1.00  0.00     0.049 A 
ATOM     61  C   UNL A   1      41.600  29.012  30.009  1.00  0.00     0.074 A 
ATOM     62  C   UNL A   1      47.841  28.056  29.533  1.00  0.00     0.029 A 
ATOM     63  N   UNL A   1      46.367  29.626  29.912  1.00  0.00    -0.354 N 
ATOM     64  N   UNL A   1      42.289  28.609  31.044  1.00  0.00    -0.248 NA
ATOM     65  C   UNL A   1      42.187  30.118  29.268  1.00  0.00     0.031 C 
ATOM     66  C   UNL A   1      47.093  27.739  30.706  1.00  0.00     0.029 A 
ATOM     67  C   UNL A   1      45.992  28.598  30.740  1.00  0.00     0.049 A 
ATOM     68  H   UNL A   1      46.147  30.580  30.014  1.00  0.00     0.167 HD
ATOM     69  C   UNL A   1      43.569  29.104  30.841  1.00  0.00     0.074 A 
ATOM     70  C   UNL A   1      43.412  30.118  29.800  1.00  0.00     0.031 C 
ATOM     71  C   UNL A   1      44.676  28.470  31.331  1.00  0.00     0.037 A 
BRANCH  58  72
ATOM     72  C   UNL A   1      46.894  30.801  27.040  1.00  0.00     0.058 A 
ATOM     73  C   UNL A   1      48.137  31.475  27.073  1.00  0.00     0.135 A 
ATOM     74  C   UNL A   1      45.772  31.618  26.793  1.00  0.00     0.135 A 
ATOM     75  F   UNL A   1      49.275  30.800  27.304  1.00  0.00    -0.206 F 
ATOM     76  C   UNL A   1      48.247  32.862  26.951  1.00  0.00     0.059 A 
ATOM     77  C   UNL A   1      45.863  32.999  26.616  1.00  0.00     0.059 A 
ATOM     78  F   UNL A   1      44.526  31.127  26.813  1.00  0.00    -0.206 F 
ATOM     79  C   UNL A   1      47.097  33.619  26.746  1.00  0.00     0.060 A 
BRANCH  79  80
ATOM     80  S   UNL A   1      47.213  35.419  26.727  1.00  0.00     0.124 S 
ATOM     81  O   UNL A   1      45.813  35.795  26.558  1.00  0.00    -0.237 OA
ATOM     82  O   UNL A   1      47.797  35.706  28.033  1.00  0.00    -0.237 OA
ATOM     83  O   UNL A   1      48.082  35.685  25.586  1.00  0.00    -0.744 OA
ENDBRANCH  79  80
ENDBRANCH  58  72
BRANCH  59  84
ATOM     84  C   UNL A   1      39.192  28.670  28.998  1.00  0.00     0.058 A 
ATOM     85  C   UNL A   1      38.170  28.744  29.956  1.00  0.00     0.135 A 
ATOM     86  C   UNL A   1      38.928  29.285  27.753  1.00  0.00     0.135 A 
ATOM     87  F   UNL A   1      38.351  28.212  31.174  1.00  0.00    -0.206 F 
ATOM     88  C   UNL A   1      36.966  29.410  29.705  1.00  0.00     0.059 A 
ATOM     89  C   UNL A   1      37.732  29.941  27.475  1.00  0.00     0.059 A 
ATOM     90  F   UNL A   1      39.863  29.338  26.791  1.00  0.00    -0.206 F 
ATOM     91  C   UNL A   1      36.763  30.019  28.465  1.00  0.00     0.060 A 
BRANCH  91  92
ATOM     92  S   UNL A   1      35.278  31.012  28.193  1.00  0.00     0.124 S 
ATOM     93  O   UNL A   1      34.436  30.091  27.437  1.00  0.00    -0.237 OA
ATOM     94  O   UNL A   1      34.847  31.298  29.558  1.00  0.00    -0.237 OA
ATOM     95  O   UNL A   1      35.774  32.164  27.445  1.00  0.00    -0.744 OA
ENDBRANCH  91  92
ENDBRANCH  59  84
BRANCH  71  96
ATOM     96  C   UNL A   1      44.507  27.355  32.337  1.00  0.00     0.058 A 
ATOM     97  C   UNL A   1      44.394  25.997  31.992  1.00  0.00     0.135 A 
ATOM     98  C   UNL A   1      44.672  27.647  33.701  1.00  0.00     0.135 A 
ATOM     99  F   UNL A   1      44.343  25.611  30.714  1.00  0.00    -0.206 F 
ATOM    100  C   UNL A   1      44.413  24.982  32.951  1.00  0.00     0.059 A 
ATOM    101  C   UNL A   1      44.725  26.649  34.674  1.00  0.00     0.059 A 
ATOM    102  F   UNL A   1      44.853  28.918  34.099  1.00  0.00    -0.206 F 
ATOM    103  C   UNL A   1      44.585  25.317  34.292  1.00  0.00     0.060 A 
BRANCH 103 104
ATOM    104  S   UNL A   1      44.719  23.992  35.512  1.00  0.00     0.124 S 
ATOM    105  O   UNL A   1      46.112  23.583  35.369  1.00  0.00    -0.237 OA
ATOM    106  O   UNL A   1      44.383  24.672  36.760  1.00  0.00    -0.237 OA
ATOM    107  O   UNL A   1      43.731  23.014  35.062  1.00  0.00    -0.744 OA
ENDBRANCH 103 104
ENDBRANCH  71  96
ENDBRANCH  45  46
ENDBRANCH  37  40
ENDBRANCH  35  36
ENDBRANCH  34  35
ENDBRANCH  33  34
ENDBRANCH  32  33
ENDBRANCH   1  32
TORSDOF 22
ENDMDL
MODEL 2
REMARK VINA RESULT:     -12.2      1.345      3.221
REMARK SMILES O=C(CCC(=O)N1Cc2[nH]cnc2C[C@H]1C(=O)NCc1ccccc1)NCCCCCCNC(=O)c1ccc(-c2c3nc(c(-c4c(F)cc(S(=O)(=O)[O-])cc4F)c4ccc([nH]4)c(-c4c(F)cc(S(=O)(=O)[O-])cc4F)c4nc(c(-c5c(F)cc(S(=O)(=O)[O-])cc5F)c5ccc2[nH]5)C=C4)C=C3)cc1
REMARK SMILES IDX 28 1 27 2 26 3 1 4 2 5 3 7 4 8 5 9 6 10 7 11 8 12 15 13 9 14
REMARK SMILES IDX 14 15 10 16 13 17 11 18 12 20 16 21 17 22 18 23 19 25 20 26
REMARK SMILES IDX 21 27 25 28 22 29 24 30 23 31 29 32 30 33 31 34 32 35 33 36
REMARK SMILES IDX 34 37 35 39 36 40 37 41 101 42 38 43 100 44 39 45 40 46
REMARK SMILES IDX 41 47 94 48 42 49 99 50 93 51 95 52 43 53 98 54 92 55 91 56
REMARK SMILES IDX 44 58 78 59 57 60 77 61 58 62 61 63 76 64 96 65 59 66 60 67
REMARK SMILES IDX 75 69 97 70 62 71 45 72 46 73 55 74 47 75 48 76 54 77 56 78
REMARK SMILES IDX 49 79 50 80 51 81 52 82 53 83 79 84 80 85 89 86 81 87 82 88
REMARK SMILES IDX 88 89 90 90 83 91 84 92 85 93 86 94 87 95 63 96 64 97 73 98
REMARK SMILES IDX 65 99 66 100 72 101 74 102 67 103 68 104 69 105 70 106
REMARK SMILES IDX 71 107
REMARK H PARENT 26 6 10 19 18 24 33 38 95 57 61 68
REMARK Flexibility Score: inf
ROOT
ATOM      1  C   UNL A   1      38.604  23.771  26.375  1.00  0.00     0.021 C 
ENDROOT
BRANCH   1   2
ATOM      2  C   UNL A   1      37.177  23.204  26.171  1.00  0.00     0.116 C 
BRANCH   2   3
ATOM      3  N   UNL A   1      36.333  23.779  25.118  1.00  0.00    -0.356 N 
ATOM      4  O   UNL A   1      36.883  22.164  23.566  1.00  0.00    -0.275 OA
ATOM      5  C   UNL A   1      36.175  23.111  23.896  1.00  0.00     0.220 C 
ATOM      6  H   UNL A   1      35.874  24.637  25.270  1.00  0.00     0.163 HD
BRANCH   5   7
ATOM      7  C   UNL A   1      34.955  23.536  23.040  1.00  0.00     0.110 C 
BRANCH   7   8
ATOM      8  C   UNL A   1      33.982  24.500  23.788  1.00  0.00     0.110 C 
BRANCH   8   9
ATOM      9  C   UNL A   1      33.356  25.714  23.030  1.00  0.00     0.224 C 
ATOM     10  O   UNL A   1      33.689  25.940  21.863  1.00  0.00    -0.275 OA
BRANCH   9  11
ATOM     11  N   UNL A   1      32.382  26.489  23.650  1.00  0.00    -0.324 N 
ATOM     12  C   UNL A   1      31.973  27.825  23.139  1.00  0.00     0.176 C 
ATOM     13  C   UNL A   1      31.878  26.130  24.973  1.00  0.00     0.180 C 
ATOM     14  C   UNL A   1      31.860  28.766  24.300  1.00  0.00     0.058 A 
ATOM     15  C   UNL A   1      32.473  27.090  25.997  1.00  0.00     0.093 C 
ATOM     16  N   UNL A   1      31.402  30.055  24.351  1.00  0.00    -0.347 N 
ATOM     17  C   UNL A   1      32.107  28.449  25.613  1.00  0.00     0.066 A 
ATOM     18  C   UNL A   1      31.444  30.449  25.669  1.00  0.00     0.197 A 
ATOM     19  H   UNL A   1      31.100  30.598  23.588  1.00  0.00     0.167 HD
ATOM     20  N   UNL A   1      31.858  29.482  26.458  1.00  0.00    -0.242 NA
BRANCH  13  21
ATOM     21  C   UNL A   1      30.520  25.400  24.987  1.00  0.00     0.243 C 
ATOM     22  O   UNL A   1      29.528  25.968  24.505  1.00  0.00    -0.273 OA
ATOM     23  N   UNL A   1      30.253  24.194  25.518  1.00  0.00    -0.350 N 
ATOM     24  H   UNL A   1      29.523  23.701  25.078  1.00  0.00     0.163 HD
BRANCH  23  25
ATOM     25  C   UNL A   1      30.860  23.508  26.623  1.00  0.00     0.151 C 
BRANCH  25  26
ATOM     26  C   UNL A   1      31.904  22.508  26.187  1.00  0.00    -0.029 A 
ATOM     27  C   UNL A   1      33.043  22.343  26.988  1.00  0.00     0.005 A 
ATOM     28  C   UNL A   1      31.794  21.742  25.015  1.00  0.00     0.005 A 
ATOM     29  C   UNL A   1      34.039  21.435  26.628  1.00  0.00     0.000 A 
ATOM     30  C   UNL A   1      32.784  20.827  24.661  1.00  0.00     0.000 A 
ATOM     31  C   UNL A   1      33.906  20.674  25.468  1.00  0.00     0.000 A 
ENDBRANCH  25  26
ENDBRANCH  23  25
ENDBRANCH  13  21
ENDBRANCH   9  11
ENDBRANCH   8   9
ENDBRANCH   7   8
ENDBRANCH   5   7
ENDBRANCH   2   3
ENDBRANCH   1   2
BRANCH   1  32
ATOM     32  C   UNL A   1      39.880  22.919  26.141  1.00  0.00     0.002 C 
BRANCH  32  33
ATOM     33  C   UNL A   1      40.140  21.708  27.057  1.00  0.00     0.002 C 
BRANCH  33  34
ATOM     34  C   UNL A   1      40.892  20.476  26.562  1.00  0.00     0.021 C 
BRANCH  34  35
ATOM     35  C   UNL A   1      42.371  20.389  26.932  1.00  0.00     0.116 C 
BRANCH  35  36
ATOM     36  N   UNL A   1      43.208  19.575  26.039  1.00  0.00    -0.352 N 
ATOM     37  C   UNL A   1      43.984  20.045  24.981  1.00  0.00     0.251 C 
ATOM     38  H   UNL A   1      43.221  18.605  26.204  1.00  0.00     0.163 HD
ATOM     39  O   UNL A   1      44.370  19.340  24.076  1.00  0.00    -0.269 OA
BRANCH  37  40
ATOM     40  C   UNL A   1      44.344  21.475  25.060  1.00  0.00     0.039 A 
ATOM     41  C   UNL A   1      43.482  22.463  24.580  1.00  0.00     0.014 A 
ATOM     42  C   UNL A   1      45.362  21.763  25.961  1.00  0.00     0.014 A 
ATOM     43  C   UNL A   1      43.555  23.742  25.137  1.00  0.00     0.010 A 
ATOM     44  C   UNL A   1      45.328  22.983  26.599  1.00  0.00     0.010 A 
ATOM     45  C   UNL A   1      44.435  23.990  26.203  1.00  0.00    -0.014 A 
BRANCH  45  46
ATOM     46  C   UNL A   1      44.321  25.225  27.003  1.00  0.00     0.031 A 
ATOM     47  C   UNL A   1      45.252  26.368  26.701  1.00  0.00     0.074 A 
ATOM     48  C   UNL A   1      43.265  25.497  27.802  1.00  0.00     0.049 A 
ATOM     49  N   UNL A   1      46.104  26.937  27.498  1.00  0.00    -0.248 NA
ATOM     50  C   UNL A   1      45.243  26.950  25.350  1.00  0.00     0.031 C 
ATOM     51  C   UNL A   1      42.058  24.698  28.046  1.00  0.00     0.029 A 
ATOM     52  N   UNL A   1      42.996  26.653  28.470  1.00  0.00    -0.354 N 
ATOM     53  C   UNL A   1      46.615  28.050  26.824  1.00  0.00     0.074 A 
ATOM     54  C   UNL A   1      46.130  27.944  25.470  1.00  0.00     0.031 C 
ATOM     55  C   UNL A   1      41.091  25.487  28.556  1.00  0.00     0.029 A 
ATOM     56  C   UNL A   1      41.680  26.771  28.877  1.00  0.00     0.049 A 
ATOM     57  H   UNL A   1      43.677  27.342  28.647  1.00  0.00     0.167 HD
ATOM     58  C   UNL A   1      47.273  29.062  27.466  1.00  0.00     0.037 A 
ATOM     59  C   UNL A   1      41.090  27.848  29.439  1.00  0.00     0.037 A 
ATOM     60  C   UNL A   1      47.636  28.695  28.811  1.00  0.00     0.049 A 
ATOM     61  C   UNL A   1      42.162  28.639  30.089  1.00  0.00     0.074 A 
ATOM     62  C   UNL A   1      48.381  27.679  29.379  1.00  0.00     0.029 A 
ATOM     63  N   UNL A   1      46.926  29.240  29.854  1.00  0.00    -0.354 N 
ATOM     64  N   UNL A   1      42.883  28.201  31.089  1.00  0.00    -0.248 NA
ATOM     65  C   UNL A   1      42.730  29.765  29.365  1.00  0.00     0.031 C 
ATOM     66  C   UNL A   1      47.670  27.328  30.566  1.00  0.00     0.029 A 
ATOM     67  C   UNL A   1      46.575  28.189  30.662  1.00  0.00     0.049 A 
ATOM     68  H   UNL A   1      46.713  30.192  29.994  1.00  0.00     0.167 HD
ATOM     69  C   UNL A   1      44.158  28.699  30.859  1.00  0.00     0.074 A 
ATOM     70  C   UNL A   1      43.971  29.745  29.855  1.00  0.00     0.031 C 
ATOM     71  C   UNL A   1      45.278  28.046  31.292  1.00  0.00     0.037 A 
BRANCH  58  72
ATOM     72  C   UNL A   1      47.363  30.503  27.004  1.00  0.00     0.058 A 
ATOM     73  C   UNL A   1      48.608  31.174  27.026  1.00  0.00     0.135 A 
ATOM     74  C   UNL A   1      46.236  31.328  26.811  1.00  0.00     0.135 A 
ATOM     75  F   UNL A   1      49.750  30.491  27.208  1.00  0.00    -0.206 F 
ATOM     76  C   UNL A   1      48.717  32.564  26.944  1.00  0.00     0.059 A 
ATOM     77  C   UNL A   1      46.325  32.712  26.674  1.00  0.00     0.059 A 
ATOM     78  F   UNL A   1      44.990  30.837  26.847  1.00  0.00    -0.206 F 
ATOM     79  C   UNL A   1      47.563  33.328  26.791  1.00  0.00     0.060 A 
BRANCH  79  80
ATOM     80  S   UNL A   1      47.681  35.128  26.824  1.00  0.00     0.124 S 
ATOM     81  O   UNL A   1      46.347  35.494  27.287  1.00  0.00    -0.237 OA
ATOM     82  O   UNL A   1      48.769  35.350  27.771  1.00  0.00    -0.237 OA
ATOM     83  O   UNL A   1      47.985  35.467  25.438  1.00  0.00    -0.744 OA
ENDBRANCH  79  80
ENDBRANCH  58  72
BRANCH  59  84
ATOM     84  C   UNL A   1      39.721  28.336  29.148  1.00  0.00     0.058 A 
ATOM     85  C   UNL A   1      38.714  28.324  30.124  1.00  0.00     0.135 A 
ATOM     86  C   UNL A   1      39.433  29.047  27.961  1.00  0.00     0.135 A 
ATOM     87  F   UNL A   1      38.918  27.698  31.293  1.00  0.00    -0.206 F 
ATOM     88  C   UNL A   1      37.501  28.998  29.947  1.00  0.00     0.059 A 
ATOM     89  C   UNL A   1      38.228  29.712  27.755  1.00  0.00     0.059 A 
ATOM     90  F   UNL A   1      40.352  29.184  26.992  1.00  0.00    -0.206 F 
ATOM     91  C   UNL A   1      37.274  29.703  28.763  1.00  0.00     0.060 A 
BRANCH  91  92
ATOM     92  S   UNL A   1      35.778  30.701  28.594  1.00  0.00     0.124 S 
ATOM     93  O   UNL A   1      36.197  31.709  27.626  1.00  0.00    -0.237 OA
ATOM     94  O   UNL A   1      34.808  29.720  28.118  1.00  0.00    -0.237 OA
ATOM     95  O   UNL A   1      35.546  31.194  29.949  1.00  0.00    -0.744 OA
ENDBRANCH  91  92
ENDBRANCH  59  84
BRANCH  71  96
ATOM     96  C   UNL A   1      45.138  26.901  32.268  1.00  0.00     0.058 A 
ATOM     97  C   UNL A   1      45.005  27.066  33.658  1.00  0.00     0.135 A 
ATOM     98  C   UNL A   1      44.923  25.608  31.764  1.00  0.00     0.135 A 
ATOM     99  F   UNL A   1      45.084  28.276  34.220  1.00  0.00    -0.206 F 
ATOM    100  C   UNL A   1      44.705  26.000  34.509  1.00  0.00     0.059 A 
ATOM    101  C   UNL A   1      44.592  24.533  32.590  1.00  0.00     0.059 A 
ATOM    102  F   UNL A   1      44.967  25.388  30.440  1.00  0.00    -0.206 F 
ATOM    103  C   UNL A   1      44.493  24.736  33.964  1.00  0.00     0.060 A 
BRANCH 103 104
ATOM    104  S   UNL A   1      43.998  23.387  35.059  1.00  0.00     0.124 S 
ATOM    105  O   UNL A   1      42.546  23.394  34.915  1.00  0.00    -0.237 OA
ATOM    106  O   UNL A   1      44.686  22.237  34.479  1.00  0.00    -0.237 OA
ATOM    107  O   UNL A   1      44.500  23.807  36.365  1.00  0.00    -0.744 OA
ENDBRANCH 103 104
ENDBRANCH  71  96
ENDBRANCH  45  46
ENDBRANCH  37  40
ENDBRANCH  35  36
ENDBRANCH  34  35
ENDBRANCH  33  34
ENDBRANCH  32  33
ENDBRANCH   1  32
TORSDOF 22
ENDMDL
MODEL 3
REMARK VINA RESULT:     -12.1      1.519      2.513
REMARK SMILES O=C(CCC(=O)N1Cc2[nH]cnc2C[C@H]1C(=O)NCc1ccccc1)NCCCCCCNC(=O)c1ccc(-c2c3nc(c(-c4c(F)cc(S(=O)(=O)[O-])cc4F)c4ccc([nH]4)c(-c4c(F)cc(S(=O)(=O)[O-])cc4F)c4nc(c(-c5c(F)cc(S(=O)(=O)[O-])cc5F)c5ccc2[nH]5)C=C4)C=C3)cc1
REMARK SMILES IDX 28 1 27 2 26 3 1 4 2 5 3 7 4 8 5 9 6 10 7 11 8 12 15 13 9 14
REMARK SMILES IDX 14 15 10 16 13 17 11 18 12 20 16 21 17 22 18 23 19 25 20 26
REMARK SMILES IDX 21 27 25 28 22 29 24 30 23 31 29 32 30 33 31 34 32 35 33 36
REMARK SMILES IDX 34 37 35 39 36 40 37 41 101 42 38 43 100 44 39 45 40 46
REMARK SMILES IDX 41 47 94 48 42 49 99 50 93 51 95 52 43 53 98 54 92 55 91 56
REMARK SMILES IDX 44 58 78 59 57 60 77 61 58 62 61 63 76 64 96 65 59 66 60 67
REMARK SMILES IDX 75 69 97 70 62 71 45 72 46 73 55 74 47 75 48 76 54 77 56 78
REMARK SMILES IDX 49 79 50 80 51 81 52 82 53 83 79 84 80 85 89 86 81 87 82 88
REMARK SMILES IDX 88 89 90 90 83 91 84 92 85 93 86 94 87 95 63 96 64 97 73 98
REMARK SMILES IDX 65 99 66 100 72 101 74 102 67 103 68 104 69 105 70 106
REMARK SMILES IDX 71 107
REMARK H PARENT 26 6 10 19 18 24 33 38 95 57 61 68
REMARK Flexibility Score: inf
ROOT
ATOM      1  C   UNL A   1      38.996  23.514  26.124  1.00  0.00     0.021 C 
ENDROOT
BRANCH   1   2
ATOM      2  C   UNL A   1      37.453  23.582  26.241  1.00  0.00     0.116 C 
BRANCH   2   3
ATOM      3  N   UNL A   1      36.674  24.011  25.075  1.00  0.00    -0.356 N 
ATOM      4  O   UNL A   1      36.600  21.904  24.141  1.00  0.00    -0.275 OA
ATOM      5  C   UNL A   1      36.208  23.068  24.150  1.00  0.00     0.220 C 
ATOM      6  H   UNL A   1      36.477  24.967  24.942  1.00  0.00     0.163 HD
BRANCH   5   7
ATOM      7  C   UNL A   1      35.051  23.531  23.228  1.00  0.00     0.110 C 
BRANCH   7   8
ATOM      8  C   UNL A   1      34.278  24.768  23.782  1.00  0.00     0.110 C 
BRANCH   8   9
ATOM      9  C   UNL A   1      33.809  24.788  25.272  1.00  0.00     0.224 C 
ATOM     10  O   UNL A   1      34.012  25.793  25.960  1.00  0.00    -0.275 OA
BRANCH   9  11
ATOM     11  N   UNL A   1      33.111  23.705  25.792  1.00  0.00    -0.324 N 
ATOM     12  C   UNL A   1      33.765  22.642  26.603  1.00  0.00     0.176 C 
ATOM     13  C   UNL A   1      31.740  23.432  25.369  1.00  0.00     0.180 C 
ATOM     14  C   UNL A   1      33.257  21.310  26.141  1.00  0.00     0.058 A 
ATOM     15  C   UNL A   1      31.751  22.234  24.425  1.00  0.00     0.093 C 
ATOM     16  N   UNL A   1      33.466  20.058  26.654  1.00  0.00    -0.347 N 
ATOM     17  C   UNL A   1      32.350  21.106  25.131  1.00  0.00     0.066 A 
ATOM     18  C   UNL A   1      32.720  19.180  25.902  1.00  0.00     0.197 A 
ATOM     19  H   UNL A   1      34.043  19.829  27.418  1.00  0.00     0.167 HD
ATOM     20  N   UNL A   1      32.022  19.798  24.976  1.00  0.00    -0.242 NA
BRANCH  13  21
ATOM     21  C   UNL A   1      30.642  23.902  26.344  1.00  0.00     0.243 C 
ATOM     22  O   UNL A   1      30.290  23.145  27.261  1.00  0.00    -0.273 OA
ATOM     23  N   UNL A   1      29.956  25.057  26.297  1.00  0.00    -0.350 N 
ATOM     24  H   UNL A   1      29.650  25.392  27.171  1.00  0.00     0.163 HD
BRANCH  23  25
ATOM     25  C   UNL A   1      29.597  25.882  25.178  1.00  0.00     0.151 C 
BRANCH  25  26
ATOM     26  C   UNL A   1      30.678  26.869  24.810  1.00  0.00    -0.029 A 
ATOM     27  C   UNL A   1      31.165  26.862  23.495  1.00  0.00     0.005 A 
ATOM     28  C   UNL A   1      31.225  27.788  25.721  1.00  0.00     0.005 A 
ATOM     29  C   UNL A   1      32.167  27.751  23.104  1.00  0.00     0.000 A 
ATOM     30  C   UNL A   1      32.218  28.683  25.327  1.00  0.00     0.000 A 
ATOM     31  C   UNL A   1      32.688  28.665  24.019  1.00  0.00     0.000 A 
ENDBRANCH  25  26
ENDBRANCH  23  25
ENDBRANCH  13  21
ENDBRANCH   9  11
ENDBRANCH   8   9
ENDBRANCH   7   8
ENDBRANCH   5   7
ENDBRANCH   2   3
ENDBRANCH   1   2
BRANCH   1  32
ATOM     32  C   UNL A   1      39.844  22.462  26.887  1.00  0.00     0.002 C 
BRANCH  32  33
ATOM     33  C   UNL A   1      39.983  21.049  26.289  1.00  0.00     0.002 C 
BRANCH  33  34
ATOM     34  C   UNL A   1      40.964  20.030  26.863  1.00  0.00     0.021 C 
BRANCH  34  35
ATOM     35  C   UNL A   1      42.433  20.443  26.892  1.00  0.00     0.116 C 
BRANCH  35  36
ATOM     36  N   UNL A   1      43.332  19.672  26.021  1.00  0.00    -0.352 N 
ATOM     37  C   UNL A   1      44.084  20.173  24.960  1.00  0.00     0.251 C 
ATOM     38  H   UNL A   1      43.410  18.708  26.205  1.00  0.00     0.163 HD
ATOM     39  O   UNL A   1      44.526  19.480  24.072  1.00  0.00    -0.269 OA
BRANCH  37  40
ATOM     40  C   UNL A   1      44.345  21.627  25.014  1.00  0.00     0.039 A 
ATOM     41  C   UNL A   1      43.370  22.548  24.627  1.00  0.00     0.014 A 
ATOM     42  C   UNL A   1      45.422  21.988  25.814  1.00  0.00     0.014 A 
ATOM     43  C   UNL A   1      43.403  23.829  25.183  1.00  0.00     0.010 A 
ATOM     44  C   UNL A   1      45.361  23.203  26.460  1.00  0.00     0.010 A 
ATOM     45  C   UNL A   1      44.362  24.142  26.161  1.00  0.00    -0.014 A 
BRANCH  45  46
ATOM     46  C   UNL A   1      44.237  25.364  26.976  1.00  0.00     0.031 A 
ATOM     47  C   UNL A   1      45.168  26.514  26.701  1.00  0.00     0.074 A 
ATOM     48  C   UNL A   1      43.172  25.623  27.768  1.00  0.00     0.049 A 
ATOM     49  N   UNL A   1      46.010  27.073  27.515  1.00  0.00    -0.248 NA
ATOM     50  C   UNL A   1      45.173  27.115  25.359  1.00  0.00     0.031 C 
ATOM     51  C   UNL A   1      41.964  24.818  27.988  1.00  0.00     0.029 A 
ATOM     52  N   UNL A   1      42.893  26.768  28.449  1.00  0.00    -0.354 N 
ATOM     53  C   UNL A   1      46.527  28.197  26.863  1.00  0.00     0.074 A 
ATOM     54  C   UNL A   1      46.057  28.109  25.502  1.00  0.00     0.031 C 
ATOM     55  C   UNL A   1      40.990  25.597  28.498  1.00  0.00     0.029 A 
ATOM     56  C   UNL A   1      41.572  26.879  28.843  1.00  0.00     0.049 A 
ATOM     57  H   UNL A   1      43.570  27.457  28.643  1.00  0.00     0.167 HD
ATOM     58  C   UNL A   1      47.175  29.201  27.526  1.00  0.00     0.037 A 
ATOM     59  C   UNL A   1      40.973  27.947  29.414  1.00  0.00     0.037 A 
ATOM     60  C   UNL A   1      47.524  28.816  28.870  1.00  0.00     0.049 A 
ATOM     61  C   UNL A   1      42.037  28.730  30.087  1.00  0.00     0.074 A 
ATOM     62  C   UNL A   1      48.265  27.793  29.431  1.00  0.00     0.029 A 
ATOM     63  N   UNL A   1      46.802  29.345  29.912  1.00  0.00    -0.354 N 
ATOM     64  N   UNL A   1      42.748  28.280  31.088  1.00  0.00    -0.248 NA
ATOM     65  C   UNL A   1      42.610  29.868  29.384  1.00  0.00     0.031 C 
ATOM     66  C   UNL A   1      47.542  27.424  30.605  1.00  0.00     0.029 A 
ATOM     67  C   UNL A   1      46.444  28.281  30.701  1.00  0.00     0.049 A 
ATOM     68  H   UNL A   1      46.585  30.294  30.063  1.00  0.00     0.167 HD
ATOM     69  C   UNL A   1      44.024  28.783  30.879  1.00  0.00     0.074 A 
ATOM     70  C   UNL A   1      43.846  29.843  29.888  1.00  0.00     0.031 C 
ATOM     71  C   UNL A   1      45.141  28.126  31.315  1.00  0.00     0.037 A 
BRANCH  58  72
ATOM     72  C   UNL A   1      47.267  30.648  27.085  1.00  0.00     0.058 A 
ATOM     73  C   UNL A   1      48.512  31.319  27.121  1.00  0.00     0.135 A 
ATOM     74  C   UNL A   1      46.141  31.476  26.901  1.00  0.00     0.135 A 
ATOM     75  F   UNL A   1      49.653  30.633  27.296  1.00  0.00    -0.206 F 
ATOM     76  C   UNL A   1      48.621  32.710  27.059  1.00  0.00     0.059 A 
ATOM     77  C   UNL A   1      46.230  32.863  26.784  1.00  0.00     0.059 A 
ATOM     78  F   UNL A   1      44.895  30.985  26.926  1.00  0.00    -0.206 F 
ATOM     79  C   UNL A   1      47.468  33.476  26.914  1.00  0.00     0.060 A 
BRANCH  79  80
ATOM     80  S   UNL A   1      47.586  35.275  26.974  1.00  0.00     0.124 S 
ATOM     81  O   UNL A   1      46.473  35.606  27.856  1.00  0.00    -0.237 OA
ATOM     82  O   UNL A   1      48.921  35.480  27.526  1.00  0.00    -0.237 OA
ATOM     83  O   UNL A   1      47.425  35.666  25.577  1.00  0.00    -0.744 OA
ENDBRANCH  79  80
ENDBRANCH  58  72
BRANCH  59  84
ATOM     84  C   UNL A   1      39.607  28.435  29.115  1.00  0.00     0.058 A 
ATOM     85  C   UNL A   1      38.609  28.473  30.099  1.00  0.00     0.135 A 
ATOM     86  C   UNL A   1      39.315  29.099  27.902  1.00  0.00     0.135 A 
ATOM     87  F   UNL A   1      38.817  27.894  31.291  1.00  0.00    -0.206 F 
ATOM     88  C   UNL A   1      37.401  29.152  29.904  1.00  0.00     0.059 A 
ATOM     89  C   UNL A   1      38.114  29.767  27.679  1.00  0.00     0.059 A 
ATOM     90  F   UNL A   1      40.226  29.187  26.920  1.00  0.00    -0.206 F 
ATOM     91  C   UNL A   1      37.170  29.809  28.695  1.00  0.00     0.060 A 
BRANCH  91  92
ATOM     92  S   UNL A   1      35.682  30.814  28.498  1.00  0.00     0.124 S 
ATOM     93  O   UNL A   1      35.352  31.138  29.882  1.00  0.00    -0.237 OA
ATOM     94  O   UNL A   1      36.166  31.922  27.680  1.00  0.00    -0.237 OA
ATOM     95  O   UNL A   1      34.749  29.910  27.828  1.00  0.00    -0.744 OA
ENDBRANCH  91  92
ENDBRANCH  59  84
BRANCH  71  96
ATOM     96  C   UNL A   1      44.992  26.968  32.274  1.00  0.00     0.058 A 
ATOM     97  C   UNL A   1      44.840  27.113  33.664  1.00  0.00     0.135 A 
ATOM     98  C   UNL A   1      44.789  25.681  31.749  1.00  0.00     0.135 A 
ATOM     99  F   UNL A   1      44.906  28.316  34.243  1.00  0.00    -0.206 F 
ATOM    100  C   UNL A   1      44.534  26.034  34.495  1.00  0.00     0.059 A 
ATOM    101  C   UNL A   1      44.452  24.594  32.556  1.00  0.00     0.059 A 
ATOM    102  F   UNL A   1      44.852  25.479  30.422  1.00  0.00    -0.206 F 
ATOM    103  C   UNL A   1      44.334  24.777  33.931  1.00  0.00     0.060 A 
BRANCH 103 104
ATOM    104  S   UNL A   1      43.831  23.411  35.000  1.00  0.00     0.124 S 
ATOM    105  O   UNL A   1      42.379  23.556  35.017  1.00  0.00    -0.237 OA
ATOM    106  O   UNL A   1      44.342  22.243  34.288  1.00  0.00    -0.237 OA
ATOM    107  O   UNL A   1      44.504  23.701  36.263  1.00  0.00    -0.744 OA
ENDBRANCH 103 104
ENDBRANCH  71  96
ENDBRANCH  45  46
ENDBRANCH  37  40
ENDBRANCH  35  36
ENDBRANCH  34  35
ENDBRANCH  33  34
ENDBRANCH  32  33
ENDBRANCH   1  32
TORSDOF 22
ENDMDL
