MODEL 1
REMARK VINA RESULT:     -12.1      0.000      0.000
REMARK SMILES O=C(NCCCCCCNC(=O)[C@@H]1CCCN1C(=O)[C@@H]1CCCN1C(=O)OCC1c2ccccc2-c2ccccc21)c1ccc(-c2c3nc(c(-c4c(F)cc(S(=O)(=O)[O-])cc4F)c4ccc([nH]4)c(-c4c(F)cc(S(=O)(=O)[O-])cc4F)c4nc(c(-c5c(F)cc(S(=O)(=O)[O-])cc5F)c5ccc2[nH]5)C=C4)C=C3)cc1
REMARK SMILES IDX 8 1 7 2 6 3 5 4 4 5 3 6 1 7 2 8 42 10 43 11 107 12 44 13
REMARK SMILES IDX 106 14 45 15 46 16 47 17 100 18 48 19 105 20 99 21 101 22
REMARK SMILES IDX 49 23 104 24 98 25 97 26 50 28 84 29 63 30 83 31 64 32 67 33
REMARK SMILES IDX 82 34 102 35 65 36 66 37 81 39 103 40 68 41 51 42 52 43
REMARK SMILES IDX 61 44 53 45 54 46 60 47 62 48 55 49 56 50 57 51 58 52 59 53
REMARK SMILES IDX 85 54 86 55 95 56 87 57 88 58 94 59 96 60 89 61 90 62 91 63
REMARK SMILES IDX 92 64 93 65 69 66 70 67 79 68 71 69 72 70 78 71 80 72 73 73
REMARK SMILES IDX 74 74 75 75 76 76 77 77 9 78 10 79 11 80 12 82 13 83 14 84
REMARK SMILES IDX 17 85 15 86 16 87 18 88 19 89 20 90 21 91 24 92 22 93 23 94
REMARK SMILES IDX 25 95 26 96 27 97 28 98 29 99 30 100 41 101 31 102 35 103
REMARK SMILES IDX 36 104 40 105 32 106 34 107 37 108 39 109 33 110 38 111
REMARK H PARENT 3 9 101 27 67 38 10 81
REMARK Flexibility Score: inf
ROOT
ATOM      1  C   UNL A   1      31.486  31.420  26.468  1.00  0.00     0.021 C 
ENDROOT
BRANCH   1   2
ATOM      2  C   UNL A   1      32.468  30.457  27.152  1.00  0.00     0.002 C 
BRANCH   2   3
ATOM      3  C   UNL A   1      33.841  31.032  27.524  1.00  0.00     0.002 C 
BRANCH   3   4
ATOM      4  C   UNL A   1      35.010  30.049  27.491  1.00  0.00     0.021 C 
BRANCH   4   5
ATOM      5  C   UNL A   1      35.582  29.673  28.849  1.00  0.00     0.116 C 
BRANCH   5   6
ATOM      6  N   UNL A   1      35.610  30.777  29.788  1.00  0.00    -0.352 N 
ATOM      7  O   UNL A   1      36.573  32.209  31.247  1.00  0.00    -0.269 OA
ATOM      8  C   UNL A   1      36.709  31.337  30.394  1.00  0.00     0.251 C 
ATOM      9  H   UNL A   1      34.739  31.173  30.017  1.00  0.00     0.163 HD
BRANCH   8  10
ATOM     10  C   UNL A   1      38.055  30.849  30.024  1.00  0.00     0.039 A 
ATOM     11  C   UNL A   1      38.427  30.759  28.680  1.00  0.00     0.014 A 
ATOM     12  C   UNL A   1      38.938  30.454  31.031  1.00  0.00     0.014 A 
ATOM     13  C   UNL A   1      39.636  30.168  28.338  1.00  0.00     0.010 A 
ATOM     14  C   UNL A   1      40.192  29.943  30.688  1.00  0.00     0.010 A 
ATOM     15  C   UNL A   1      40.546  29.788  29.339  1.00  0.00    -0.014 A 
BRANCH  15  16
ATOM     16  C   UNL A   1      41.911  29.359  28.945  1.00  0.00     0.031 A 
ATOM     17  C   UNL A   1      43.064  30.320  28.925  1.00  0.00     0.074 A 
ATOM     18  C   UNL A   1      42.086  28.067  28.601  1.00  0.00     0.049 A 
ATOM     19  N   UNL A   1      44.307  30.098  28.584  1.00  0.00    -0.248 NA
ATOM     20  C   UNL A   1      42.793  31.709  29.327  1.00  0.00     0.031 C 
ATOM     21  C   UNL A   1      41.023  27.055  28.565  1.00  0.00     0.029 A 
ATOM     22  N   UNL A   1      43.208  27.376  28.226  1.00  0.00    -0.354 N 
ATOM     23  C   UNL A   1      44.965  31.316  28.710  1.00  0.00     0.074 A 
ATOM     24  C   UNL A   1      43.979  32.281  29.147  1.00  0.00     0.031 C 
ATOM     25  C   UNL A   1      41.550  25.871  28.223  1.00  0.00     0.029 A 
ATOM     26  C   UNL A   1      42.968  26.052  27.943  1.00  0.00     0.049 A 
ATOM     27  H   UNL A   1      44.100  27.788  28.162  1.00  0.00     0.167 HD
ATOM     28  C   UNL A   1      46.270  31.594  28.480  1.00  0.00     0.037 A 
ATOM     29  C   UNL A   1      43.788  25.093  27.477  1.00  0.00     0.037 A 
ATOM     30  C   UNL A   1      47.241  30.612  28.061  1.00  0.00     0.049 A 
ATOM     31  C   UNL A   1      45.224  25.439  27.213  1.00  0.00     0.074 A 
ATOM     32  C   UNL A   1      48.600  30.781  27.860  1.00  0.00     0.029 A 
ATOM     33  N   UNL A   1      46.959  29.285  27.771  1.00  0.00    -0.354 N 
ATOM     34  N   UNL A   1      45.838  26.585  27.392  1.00  0.00    -0.248 NA
ATOM     35  C   UNL A   1      46.077  24.372  26.680  1.00  0.00     0.031 C 
ATOM     36  C   UNL A   1      49.129  29.573  27.396  1.00  0.00     0.029 A 
ATOM     37  C   UNL A   1      48.111  28.633  27.361  1.00  0.00     0.049 A 
ATOM     38  H   UNL A   1      46.070  28.866  27.845  1.00  0.00     0.167 HD
ATOM     39  C   UNL A   1      47.154  26.371  27.005  1.00  0.00     0.074 A 
ATOM     40  C   UNL A   1      47.252  24.981  26.610  1.00  0.00     0.031 C 
ATOM     41  C   UNL A   1      48.188  27.247  26.972  1.00  0.00     0.037 A 
BRANCH  28  42
ATOM     42  C   UNL A   1      46.746  33.010  28.657  1.00  0.00     0.058 A 
ATOM     43  C   UNL A   1      46.713  33.938  27.605  1.00  0.00     0.135 A 
ATOM     44  C   UNL A   1      47.135  33.472  29.926  1.00  0.00     0.135 A 
ATOM     45  F   UNL A   1      46.364  33.547  26.369  1.00  0.00    -0.206 F 
ATOM     46  C   UNL A   1      47.048  35.274  27.805  1.00  0.00     0.059 A 
ATOM     47  C   UNL A   1      47.452  34.809  30.153  1.00  0.00     0.059 A 
ATOM     48  F   UNL A   1      47.186  32.625  30.966  1.00  0.00    -0.206 F 
ATOM     49  C   UNL A   1      47.408  35.702  29.084  1.00  0.00     0.060 A 
BRANCH  49  50
ATOM     50  S   UNL A   1      47.784  37.450  29.335  1.00  0.00     0.124 S 
ATOM     51  O   UNL A   1      46.456  38.050  29.246  1.00  0.00    -0.237 OA
ATOM     52  O   UNL A   1      48.391  37.451  30.662  1.00  0.00    -0.237 OA
ATOM     53  O   UNL A   1      48.689  37.767  28.235  1.00  0.00    -0.744 OA
ENDBRANCH  49  50
ENDBRANCH  28  42
BRANCH  29  54
ATOM     54  C   UNL A   1      43.260  23.733  27.194  1.00  0.00     0.058 A 
ATOM     55  C   UNL A   1      43.131  22.776  28.210  1.00  0.00     0.135 A 
ATOM     56  C   UNL A   1      42.875  23.362  25.894  1.00  0.00     0.135 A 
ATOM     57  F   UNL A   1      43.485  23.082  29.468  1.00  0.00    -0.206 F 
ATOM     58  C   UNL A   1      42.672  21.490  27.945  1.00  0.00     0.059 A 
ATOM     59  C   UNL A   1      42.382  22.094  25.610  1.00  0.00     0.059 A 
ATOM     60  F   UNL A   1      42.956  24.248  24.889  1.00  0.00    -0.206 F 
ATOM     61  C   UNL A   1      42.304  21.158  26.639  1.00  0.00     0.060 A 
BRANCH  61  62
ATOM     62  S   UNL A   1      41.701  19.490  26.305  1.00  0.00     0.124 S 
ATOM     63  O   UNL A   1      42.477  19.132  25.124  1.00  0.00    -0.237 OA
ATOM     64  O   UNL A   1      42.046  18.785  27.535  1.00  0.00    -0.237 OA
ATOM     65  O   UNL A   1      40.271  19.690  26.086  1.00  0.00    -0.744 OA
ENDBRANCH  61  62
ENDBRANCH  29  54
BRANCH  41  66
ATOM     66  C   UNL A   1      49.516  26.717  26.512  1.00  0.00     0.058 A 
ATOM     67  C   UNL A   1      49.956  26.882  25.190  1.00  0.00     0.135 A 
ATOM     68  C   UNL A   1      50.371  26.063  27.414  1.00  0.00     0.135 A 
ATOM     69  F   UNL A   1      49.171  27.491  24.287  1.00  0.00    -0.206 F 
ATOM     70  C   UNL A   1      51.187  26.393  24.769  1.00  0.00     0.059 A 
ATOM     71  C   UNL A   1      51.620  25.592  27.022  1.00  0.00     0.059 A 
ATOM     72  F   UNL A   1      50.000  25.885  28.691  1.00  0.00    -0.206 F 
ATOM     73  C   UNL A   1      52.013  25.750  25.694  1.00  0.00     0.060 A 
BRANCH  73  74
ATOM     74  S   UNL A   1      53.620  25.142  25.141  1.00  0.00     0.124 S 
ATOM     75  O   UNL A   1      53.616  25.537  23.736  1.00  0.00    -0.237 OA
ATOM     76  O   UNL A   1      54.544  25.874  26.003  1.00  0.00    -0.237 OA
ATOM     77  O   UNL A   1      53.544  23.706  25.391  1.00  0.00    -0.744 OA
ENDBRANCH  73  74
ENDBRANCH  41  66
ENDBRANCH  15  16
ENDBRANCH   8  10
ENDBRANCH   5   6
ENDBRANCH   4   5
ENDBRANCH   3   4
ENDBRANCH   2   3
ENDBRANCH   1   2
BRANCH   1  78
ATOM     78  C   UNL A   1      31.022  30.974  25.090  1.00  0.00     0.116 C 
BRANCH  78  79
ATOM     79  N   UNL A   1      31.608  29.709  24.699  1.00  0.00    -0.354 N 
ATOM     80  C   UNL A   1      31.418  29.250  23.427  1.00  0.00     0.242 C 
ATOM     81  H   UNL A   1      32.137  29.185  25.344  1.00  0.00     0.163 HD
ATOM     82  O   UNL A   1      32.392  29.394  22.690  1.00  0.00    -0.273 OA
BRANCH  80  83
ATOM     83  C   UNL A   1      30.096  28.569  22.985  1.00  0.00     0.174 C 
ATOM     84  C   UNL A   1      28.886  29.498  23.195  1.00  0.00     0.037 C 
ATOM     85  N   UNL A   1      29.615  27.316  23.627  1.00  0.00    -0.329 N 
ATOM     86  C   UNL A   1      27.677  28.603  23.065  1.00  0.00     0.024 C 
ATOM     87  C   UNL A   1      28.154  27.283  23.621  1.00  0.00     0.120 C 
BRANCH  85  88
ATOM     88  C   UNL A   1      30.201  26.090  23.858  1.00  0.00     0.246 C 
ATOM     89  O   UNL A   1      29.506  25.064  23.726  1.00  0.00    -0.272 OA
BRANCH  88  90
ATOM     90  C   UNL A   1      31.598  25.869  24.450  1.00  0.00     0.178 C 
ATOM     91  C   UNL A   1      31.768  26.648  25.761  1.00  0.00     0.037 C 
ATOM     92  N   UNL A   1      32.821  26.104  23.717  1.00  0.00    -0.296 N 
ATOM     93  C   UNL A   1      33.274  26.850  25.931  1.00  0.00     0.024 C 
ATOM     94  C   UNL A   1      33.911  26.387  24.627  1.00  0.00     0.124 C 
BRANCH  92  95
ATOM     95  C   UNL A   1      33.090  25.612  22.464  1.00  0.00     0.410 C 
ATOM     96  O   UNL A   1      33.691  26.250  21.609  1.00  0.00    -0.224 OA
BRANCH  95  97
ATOM     97  O   UNL A   1      32.572  24.366  22.263  1.00  0.00    -0.448 OA
BRANCH  97  98
ATOM     98  C   UNL A   1      33.537  23.305  22.144  1.00  0.00     0.248 C 
BRANCH  98  99
ATOM     99  C   UNL A   1      33.823  22.506  23.438  1.00  0.00     0.088 C 
ATOM    100  C   UNL A   1      35.149  22.864  24.117  1.00  0.00    -0.029 A 
ATOM    101  C   UNL A   1      32.848  22.610  24.606  1.00  0.00    -0.029 A 
ATOM    102  C   UNL A   1      36.428  22.848  23.580  1.00  0.00     0.005 A 
ATOM    103  C   UNL A   1      34.943  23.115  25.490  1.00  0.00    -0.014 A 
ATOM    104  C   UNL A   1      33.540  22.953  25.791  1.00  0.00    -0.014 A 
ATOM    105  C   UNL A   1      31.487  22.353  24.637  1.00  0.00     0.005 A 
ATOM    106  C   UNL A   1      37.506  23.125  24.427  1.00  0.00     0.000 A 
ATOM    107  C   UNL A   1      36.011  23.408  26.325  1.00  0.00     0.009 A 
ATOM    108  C   UNL A   1      32.876  23.052  27.004  1.00  0.00     0.009 A 
ATOM    109  C   UNL A   1      30.812  22.472  25.855  1.00  0.00     0.000 A 
ATOM    110  C   UNL A   1      37.298  23.413  25.784  1.00  0.00     0.001 A 
ATOM    111  C   UNL A   1      31.503  22.805  27.029  1.00  0.00     0.001 A 
ENDBRANCH  98  99
ENDBRANCH  97  98
ENDBRANCH  95  97
ENDBRANCH  92  95
ENDBRANCH  88  90
ENDBRANCH  85  88
ENDBRANCH  80  83
ENDBRANCH  78  79
ENDBRANCH   1  78
TORSDOF 22
ENDMDL
MODEL 2
REMARK VINA RESULT:     -11.9      6.051     11.465
REMARK SMILES O=C(NCCCCCCNC(=O)[C@@H]1CCCN1C(=O)[C@@H]1CCCN1C(=O)OCC1c2ccccc2-c2ccccc21)c1ccc(-c2c3nc(c(-c4c(F)cc(S(=O)(=O)[O-])cc4F)c4ccc([nH]4)c(-c4c(F)cc(S(=O)(=O)[O-])cc4F)c4nc(c(-c5c(F)cc(S(=O)(=O)[O-])cc5F)c5ccc2[nH]5)C=C4)C=C3)cc1
REMARK SMILES IDX 8 1 7 2 6 3 5 4 4 5 3 6 1 7 2 8 42 10 43 11 107 12 44 13
REMARK SMILES IDX 106 14 45 15 46 16 47 17 100 18 48 19 105 20 99 21 101 22
REMARK SMILES IDX 49 23 104 24 98 25 97 26 50 28 84 29 63 30 83 31 64 32 67 33
REMARK SMILES IDX 82 34 102 35 65 36 66 37 81 39 103 40 68 41 51 42 52 43
REMARK SMILES IDX 61 44 53 45 54 46 60 47 62 48 55 49 56 50 57 51 58 52 59 53
REMARK SMILES IDX 85 54 86 55 95 56 87 57 88 58 94 59 96 60 89 61 90 62 91 63
REMARK SMILES IDX 92 64 93 65 69 66 70 67 79 68 71 69 72 70 78 71 80 72 73 73
REMARK SMILES IDX 74 74 75 75 76 76 77 77 9 78 10 79 11 80 12 82 13 83 14 84
REMARK SMILES IDX 17 85 15 86 16 87 18 88 19 89 20 90 21 91 24 92 22 93 23 94
REMARK SMILES IDX 25 95 26 96 27 97 28 98 29 99 30 100 41 101 31 102 35 103
REMARK SMILES IDX 36 104 40 105 32 106 34 107 37 108 39 109 33 110 38 111
REMARK H PARENT 3 9 101 27 67 38 10 81
REMARK Flexibility Score: inf
ROOT
ATOM      1  C   UNL A   1      38.356  22.412  25.831  1.00  0.00     0.021 C 
ENDROOT
BRANCH   1   2
ATOM      2  C   UNL A   1      39.405  21.291  25.841  1.00  0.00     0.002 C 
BRANCH   2   3
ATOM      3  C   UNL A   1      40.389  21.286  27.017  1.00  0.00     0.002 C 
BRANCH   3   4
ATOM      4  C   UNL A   1      40.482  22.584  27.819  1.00  0.00     0.021 C 
BRANCH   4   5
ATOM      5  C   UNL A   1      41.724  23.422  27.558  1.00  0.00     0.116 C 
BRANCH   5   6
ATOM      6  N   UNL A   1      41.676  24.145  26.302  1.00  0.00    -0.352 N 
ATOM      7  O   UNL A   1      41.295  25.933  24.975  1.00  0.00    -0.269 OA
ATOM      8  C   UNL A   1      41.396  25.476  26.108  1.00  0.00     0.251 C 
ATOM      9  H   UNL A   1      41.870  23.620  25.492  1.00  0.00     0.163 HD
BRANCH   8  10
ATOM     10  C   UNL A   1      41.186  26.340  27.290  1.00  0.00     0.039 A 
ATOM     11  C   UNL A   1      42.103  27.350  27.598  1.00  0.00     0.014 A 
ATOM     12  C   UNL A   1      40.077  26.118  28.109  1.00  0.00     0.014 A 
ATOM     13  C   UNL A   1      41.973  28.060  28.784  1.00  0.00     0.010 A 
ATOM     14  C   UNL A   1      39.899  26.896  29.256  1.00  0.00     0.010 A 
ATOM     15  C   UNL A   1      40.851  27.865  29.606  1.00  0.00    -0.014 A 
BRANCH  15  16
ATOM     16  C   UNL A   1      40.630  28.784  30.750  1.00  0.00     0.031 A 
ATOM     17  C   UNL A   1      39.549  29.826  30.728  1.00  0.00     0.074 A 
ATOM     18  C   UNL A   1      41.439  28.654  31.822  1.00  0.00     0.049 A 
ATOM     19  N   UNL A   1      39.249  30.712  31.643  1.00  0.00    -0.248 NA
ATOM     20  C   UNL A   1      38.701  29.894  29.528  1.00  0.00     0.031 C 
ATOM     21  C   UNL A   1      42.536  27.686  31.934  1.00  0.00     0.029 A 
ATOM     22  N   UNL A   1      41.467  29.320  33.018  1.00  0.00    -0.354 N 
ATOM     23  C   UNL A   1      38.195  31.456  31.127  1.00  0.00     0.074 A 
ATOM     24  C   UNL A   1      37.913  30.925  29.809  1.00  0.00     0.031 C 
ATOM     25  C   UNL A   1      43.105  27.799  33.142  1.00  0.00     0.029 A 
ATOM     26  C   UNL A   1      42.466  28.892  33.861  1.00  0.00     0.049 A 
ATOM     27  H   UNL A   1      40.834  30.037  33.253  1.00  0.00     0.167 HD
ATOM     28  C   UNL A   1      37.530  32.484  31.706  1.00  0.00     0.037 A 
ATOM     29  C   UNL A   1      42.850  29.349  35.066  1.00  0.00     0.037 A 
ATOM     30  C   UNL A   1      37.816  32.985  33.028  1.00  0.00     0.049 A 
ATOM     31  C   UNL A   1      42.105  30.503  35.670  1.00  0.00     0.074 A 
ATOM     32  C   UNL A   1      37.159  33.983  33.727  1.00  0.00     0.029 A 
ATOM     33  N   UNL A   1      38.843  32.537  33.846  1.00  0.00    -0.354 N 
ATOM     34  N   UNL A   1      41.074  31.156  35.189  1.00  0.00    -0.248 NA
ATOM     35  C   UNL A   1      42.574  30.988  36.973  1.00  0.00     0.031 C 
ATOM     36  C   UNL A   1      37.822  34.177  34.943  1.00  0.00     0.029 A 
ATOM     37  C   UNL A   1      38.859  33.261  35.028  1.00  0.00     0.049 A 
ATOM     38  H   UNL A   1      39.470  31.812  33.620  1.00  0.00     0.167 HD
ATOM     39  C   UNL A   1      40.763  32.122  36.138  1.00  0.00     0.074 A 
ATOM     40  C   UNL A   1      41.698  31.948  37.231  1.00  0.00     0.031 C 
ATOM     41  C   UNL A   1      39.798  33.072  36.105  1.00  0.00     0.037 A 
BRANCH  28  42
ATOM     42  C   UNL A   1      36.433  33.159  30.928  1.00  0.00     0.058 A 
ATOM     43  C   UNL A   1      35.078  32.918  31.201  1.00  0.00     0.135 A 
ATOM     44  C   UNL A   1      36.745  34.141  29.973  1.00  0.00     0.135 A 
ATOM     45  F   UNL A   1      34.723  31.980  32.093  1.00  0.00    -0.206 F 
ATOM     46  C   UNL A   1      34.070  33.630  30.555  1.00  0.00     0.059 A 
ATOM     47  C   UNL A   1      35.754  34.880  29.332  1.00  0.00     0.059 A 
ATOM     48  F   UNL A   1      38.025  34.408  29.673  1.00  0.00    -0.206 F 
ATOM     49  C   UNL A   1      34.418  34.615  29.629  1.00  0.00     0.060 A 
BRANCH  49  50
ATOM     50  S   UNL A   1      33.099  35.566  28.844  1.00  0.00     0.124 S 
ATOM     51  O   UNL A   1      32.420  36.134  30.004  1.00  0.00    -0.237 OA
ATOM     52  O   UNL A   1      33.844  36.512  28.020  1.00  0.00    -0.237 OA
ATOM     53  O   UNL A   1      32.343  34.558  28.107  1.00  0.00    -0.744 OA
ENDBRANCH  49  50
ENDBRANCH  28  42
BRANCH  29  54
ATOM     54  C   UNL A   1      44.018  28.742  35.756  1.00  0.00     0.058 A 
ATOM     55  C   UNL A   1      43.859  27.679  36.656  1.00  0.00     0.135 A 
ATOM     56  C   UNL A   1      45.320  29.217  35.529  1.00  0.00     0.135 A 
ATOM     57  F   UNL A   1      42.635  27.189  36.906  1.00  0.00    -0.206 F 
ATOM     58  C   UNL A   1      44.944  27.130  37.333  1.00  0.00     0.059 A 
ATOM     59  C   UNL A   1      46.424  28.664  36.168  1.00  0.00     0.059 A 
ATOM     60  F   UNL A   1      45.530  30.218  34.659  1.00  0.00    -0.206 F 
ATOM     61  C   UNL A   1      46.223  27.633  37.084  1.00  0.00     0.060 A 
BRANCH  61  62
ATOM     62  S   UNL A   1      47.625  26.910  37.959  1.00  0.00     0.124 S 
ATOM     63  O   UNL A   1      48.221  26.082  36.918  1.00  0.00    -0.237 OA
ATOM     64  O   UNL A   1      48.387  28.091  38.351  1.00  0.00    -0.237 OA
ATOM     65  O   UNL A   1      46.995  26.186  39.060  1.00  0.00    -0.744 OA
ENDBRANCH  61  62
ENDBRANCH  29  54
BRANCH  41  66
ATOM     66  C   UNL A   1      39.693  33.979  37.298  1.00  0.00     0.058 A 
ATOM     67  C   UNL A   1      40.403  35.187  37.367  1.00  0.00     0.135 A 
ATOM     68  C   UNL A   1      38.849  33.648  38.370  1.00  0.00     0.135 A 
ATOM     69  F   UNL A   1      41.231  35.543  36.373  1.00  0.00    -0.206 F 
ATOM     70  C   UNL A   1      40.301  36.025  38.472  1.00  0.00     0.059 A 
ATOM     71  C   UNL A   1      38.709  34.486  39.472  1.00  0.00     0.059 A 
ATOM     72  F   UNL A   1      38.143  32.507  38.350  1.00  0.00    -0.206 F 
ATOM     73  C   UNL A   1      39.449  35.667  39.519  1.00  0.00     0.060 A 
BRANCH  73  74
ATOM     74  S   UNL A   1      39.306  36.776  40.935  1.00  0.00     0.124 S 
ATOM     75  O   UNL A   1      38.600  35.935  41.897  1.00  0.00    -0.237 OA
ATOM     76  O   UNL A   1      40.702  37.064  41.249  1.00  0.00    -0.237 OA
ATOM     77  O   UNL A   1      38.543  37.903  40.408  1.00  0.00    -0.744 OA
ENDBRANCH  73  74
ENDBRANCH  41  66
ENDBRANCH  15  16
ENDBRANCH   8  10
ENDBRANCH   5   6
ENDBRANCH   4   5
ENDBRANCH   3   4
ENDBRANCH   2   3
ENDBRANCH   1   2
BRANCH   1  78
ATOM     78  C   UNL A   1      36.934  21.944  25.561  1.00  0.00     0.116 C 
BRANCH  78  79
ATOM     79  N   UNL A   1      35.957  22.978  25.830  1.00  0.00    -0.354 N 
ATOM     80  C   UNL A   1      34.760  22.636  26.391  1.00  0.00     0.242 C 
ATOM     81  H   UNL A   1      36.154  23.917  25.609  1.00  0.00     0.163 HD
ATOM     82  O   UNL A   1      34.674  22.897  27.589  1.00  0.00    -0.273 OA
BRANCH  80  83
ATOM     83  C   UNL A   1      33.607  22.014  25.560  1.00  0.00     0.174 C 
ATOM     84  C   UNL A   1      33.411  20.524  25.894  1.00  0.00     0.037 C 
ATOM     85  N   UNL A   1      33.655  21.975  24.073  1.00  0.00    -0.329 N 
ATOM     86  C   UNL A   1      32.531  19.986  24.790  1.00  0.00     0.024 C 
ATOM     87  C   UNL A   1      32.948  20.793  23.584  1.00  0.00     0.120 C 
BRANCH  85  88
ATOM     88  C   UNL A   1      33.866  22.938  23.111  1.00  0.00     0.246 C 
ATOM     89  O   UNL A   1      35.038  23.207  22.785  1.00  0.00    -0.272 OA
BRANCH  88  90
ATOM     90  C   UNL A   1      32.790  23.860  22.523  1.00  0.00     0.178 C 
ATOM     91  C   UNL A   1      33.209  24.382  21.143  1.00  0.00     0.037 C 
ATOM     92  N   UNL A   1      32.266  25.016  23.215  1.00  0.00    -0.296 N 
ATOM     93  C   UNL A   1      32.425  25.678  20.935  1.00  0.00     0.024 C 
ATOM     94  C   UNL A   1      31.755  25.984  22.268  1.00  0.00     0.124 C 
BRANCH  92  95
ATOM     95  C   UNL A   1      31.797  25.011  24.505  1.00  0.00     0.410 C 
ATOM     96  O   UNL A   1      30.736  24.492  24.830  1.00  0.00    -0.224 OA
BRANCH  95  97
ATOM     97  O   UNL A   1      32.611  25.687  25.366  1.00  0.00    -0.448 OA
BRANCH  97  98
ATOM     98  C   UNL A   1      32.024  26.841  25.996  1.00  0.00     0.248 C 
BRANCH  98  99
ATOM     99  C   UNL A   1      32.530  28.213  25.493  1.00  0.00     0.088 C 
ATOM    100  C   UNL A   1      31.421  29.151  25.004  1.00  0.00    -0.029 A 
ATOM    101  C   UNL A   1      33.292  29.122  26.453  1.00  0.00    -0.029 A 
ATOM    102  C   UNL A   1      30.458  28.919  24.032  1.00  0.00     0.005 A 
ATOM    103  C   UNL A   1      31.558  30.423  25.598  1.00  0.00    -0.014 A 
ATOM    104  C   UNL A   1      32.704  30.409  26.477  1.00  0.00    -0.014 A 
ATOM    105  C   UNL A   1      34.441  28.861  27.181  1.00  0.00     0.005 A 
ATOM    106  C   UNL A   1      29.603  29.968  23.684  1.00  0.00     0.000 A 
ATOM    107  C   UNL A   1      30.698  31.458  25.265  1.00  0.00     0.009 A 
ATOM    108  C   UNL A   1      33.254  31.432  27.235  1.00  0.00     0.009 A 
ATOM    109  C   UNL A   1      34.984  29.885  27.961  1.00  0.00     0.000 A 
ATOM    110  C   UNL A   1      29.714  31.223  24.303  1.00  0.00     0.001 A 
ATOM    111  C   UNL A   1      34.404  31.161  27.977  1.00  0.00     0.001 A 
ENDBRANCH  98  99
ENDBRANCH  97  98
ENDBRANCH  95  97
ENDBRANCH  92  95
ENDBRANCH  88  90
ENDBRANCH  85  88
ENDBRANCH  80  83
ENDBRANCH  78  79
ENDBRANCH   1  78
TORSDOF 22
ENDMDL
MODEL 3
REMARK VINA RESULT:     -11.8      1.406      2.336
REMARK SMILES O=C(NCCCCCCNC(=O)[C@@H]1CCCN1C(=O)[C@@H]1CCCN1C(=O)OCC1c2ccccc2-c2ccccc21)c1ccc(-c2c3nc(c(-c4c(F)cc(S(=O)(=O)[O-])cc4F)c4ccc([nH]4)c(-c4c(F)cc(S(=O)(=O)[O-])cc4F)c4nc(c(-c5c(F)cc(S(=O)(=O)[O-])cc5F)c5ccc2[nH]5)C=C4)C=C3)cc1
REMARK SMILES IDX 8 1 7 2 6 3 5 4 4 5 3 6 1 7 2 8 42 10 43 11 107 12 44 13
REMARK SMILES IDX 106 14 45 15 46 16 47 17 100 18 48 19 105 20 99 21 101 22
REMARK SMILES IDX 49 23 104 24 98 25 97 26 50 28 84 29 63 30 83 31 64 32 67 33
REMARK SMILES IDX 82 34 102 35 65 36 66 37 81 39 103 40 68 41 51 42 52 43
REMARK SMILES IDX 61 44 53 45 54 46 60 47 62 48 55 49 56 50 57 51 58 52 59 53
REMARK SMILES IDX 85 54 86 55 95 56 87 57 88 58 94 59 96 60 89 61 90 62 91 63
REMARK SMILES IDX 92 64 93 65 69 66 70 67 79 68 71 69 72 70 78 71 80 72 73 73
REMARK SMILES IDX 74 74 75 75 76 76 77 77 9 78 10 79 11 80 12 82 13 83 14 84
REMARK SMILES IDX 17 85 15 86 16 87 18 88 19 89 20 90 21 91 24 92 22 93 23 94
REMARK SMILES IDX 25 95 26 96 27 97 28 98 29 99 30 100 41 101 31 102 35 103
REMARK SMILES IDX 36 104 40 105 32 106 34 107 37 108 39 109 33 110 38 111
REMARK H PARENT 3 9 101 27 67 38 10 81
REMARK Flexibility Score: inf
ROOT
ATOM      1  C   UNL A   1      33.108  29.357  25.382  1.00  0.00     0.021 C 
ENDROOT
BRANCH   1   2
ATOM      2  C   UNL A   1      33.651  28.839  26.722  1.00  0.00     0.002 C 
BRANCH   2   3
ATOM      3  C   UNL A   1      34.853  29.589  27.308  1.00  0.00     0.002 C 
BRANCH   3   4
ATOM      4  C   UNL A   1      34.609  31.045  27.701  1.00  0.00     0.021 C 
BRANCH   4   5
ATOM      5  C   UNL A   1      35.669  31.664  28.598  1.00  0.00     0.116 C 
BRANCH   5   6
ATOM      6  N   UNL A   1      35.444  31.415  30.009  1.00  0.00    -0.352 N 
ATOM      7  O   UNL A   1      35.936  30.585  32.052  1.00  0.00    -0.269 OA
ATOM      8  C   UNL A   1      36.299  30.818  30.904  1.00  0.00     0.251 C 
ATOM      9  H   UNL A   1      34.577  31.711  30.369  1.00  0.00     0.163 HD
BRANCH   8  10
ATOM     10  C   UNL A   1      37.653  30.433  30.450  1.00  0.00     0.039 A 
ATOM     11  C   UNL A   1      37.965  30.428  29.087  1.00  0.00     0.014 A 
ATOM     12  C   UNL A   1      38.606  30.051  31.395  1.00  0.00     0.014 A 
ATOM     13  C   UNL A   1      39.189  29.931  28.663  1.00  0.00     0.010 A 
ATOM     14  C   UNL A   1      39.871  29.638  30.971  1.00  0.00     0.010 A 
ATOM     15  C   UNL A   1      40.168  29.565  29.602  1.00  0.00    -0.014 A 
BRANCH  15  16
ATOM     16  C   UNL A   1      41.537  29.243  29.126  1.00  0.00     0.031 A 
ATOM     17  C   UNL A   1      42.617  30.283  29.069  1.00  0.00     0.074 A 
ATOM     18  C   UNL A   1      41.782  27.974  28.741  1.00  0.00     0.049 A 
ATOM     19  N   UNL A   1      43.853  30.157  28.658  1.00  0.00    -0.248 NA
ATOM     20  C   UNL A   1      42.273  31.640  29.521  1.00  0.00     0.031 C 
ATOM     21  C   UNL A   1      40.792  26.891  28.735  1.00  0.00     0.029 A 
ATOM     22  N   UNL A   1      42.927  27.372  28.289  1.00  0.00    -0.354 N 
ATOM     23  C   UNL A   1      44.430  31.415  28.780  1.00  0.00     0.074 A 
ATOM     24  C   UNL A   1      43.404  32.299  29.293  1.00  0.00     0.031 C 
ATOM     25  C   UNL A   1      41.379  25.755  28.336  1.00  0.00     0.029 A 
ATOM     26  C   UNL A   1      42.764  26.041  27.986  1.00  0.00     0.049 A 
ATOM     27  H   UNL A   1      43.783  27.847  28.189  1.00  0.00     0.167 HD
ATOM     28  C   UNL A   1      45.699  31.789  28.489  1.00  0.00     0.037 A 
ATOM     29  C   UNL A   1      43.622  25.152  27.453  1.00  0.00     0.037 A 
ATOM     30  C   UNL A   1      46.711  30.887  27.995  1.00  0.00     0.049 A 
ATOM     31  C   UNL A   1      45.014  25.605  27.123  1.00  0.00     0.074 A 
ATOM     32  C   UNL A   1      48.042  31.156  27.727  1.00  0.00     0.029 A 
ATOM     33  N   UNL A   1      46.506  29.550  27.687  1.00  0.00    -0.354 N 
ATOM     34  N   UNL A   1      45.556  26.787  27.299  1.00  0.00    -0.248 NA
ATOM     35  C   UNL A   1      45.909  24.612  26.519  1.00  0.00     0.031 C 
ATOM     36  C   UNL A   1      48.627  29.999  27.205  1.00  0.00     0.029 A 
ATOM     37  C   UNL A   1      47.677  28.990  27.200  1.00  0.00     0.049 A 
ATOM     38  H   UNL A   1      45.654  29.069  27.797  1.00  0.00     0.167 HD
ATOM     39  C   UNL A   1      46.861  26.675  26.838  1.00  0.00     0.074 A 
ATOM     40  C   UNL A   1      47.034  25.304  26.402  1.00  0.00     0.031 C 
ATOM     41  C   UNL A   1      47.828  27.622  26.772  1.00  0.00     0.037 A 
BRANCH  28  42
ATOM     42  C   UNL A   1      46.084  33.231  28.677  1.00  0.00     0.058 A 
ATOM     43  C   UNL A   1      46.695  33.686  29.855  1.00  0.00     0.135 A 
ATOM     44  C   UNL A   1      45.938  34.146  27.619  1.00  0.00     0.135 A 
ATOM     45  F   UNL A   1      46.846  32.859  30.901  1.00  0.00    -0.206 F 
ATOM     46  C   UNL A   1      47.151  34.996  29.977  1.00  0.00     0.059 A 
ATOM     47  C   UNL A   1      46.406  35.453  27.712  1.00  0.00     0.059 A 
ATOM     48  F   UNL A   1      45.357  33.762  26.471  1.00  0.00    -0.206 F 
ATOM     49  C   UNL A   1      47.010  35.870  28.897  1.00  0.00     0.060 A 
BRANCH  49  50
ATOM     50  S   UNL A   1      47.658  37.548  29.055  1.00  0.00     0.124 S 
ATOM     51  O   UNL A   1      47.452  37.807  30.477  1.00  0.00    -0.237 OA
ATOM     52  O   UNL A   1      49.046  37.386  28.635  1.00  0.00    -0.237 OA
ATOM     53  O   UNL A   1      46.818  38.326  28.149  1.00  0.00    -0.744 OA
ENDBRANCH  49  50
ENDBRANCH  28  42
BRANCH  29  54
ATOM     54  C   UNL A   1      43.175  23.765  27.163  1.00  0.00     0.058 A 
ATOM     55  C   UNL A   1      43.174  22.779  28.159  1.00  0.00     0.135 A 
ATOM     56  C   UNL A   1      42.741  23.398  25.879  1.00  0.00     0.135 A 
ATOM     57  F   UNL A   1      43.579  23.080  29.402  1.00  0.00    -0.206 F 
ATOM     58  C   UNL A   1      42.792  21.469  27.885  1.00  0.00     0.059 A 
ATOM     59  C   UNL A   1      42.323  22.105  25.588  1.00  0.00     0.059 A 
ATOM     60  F   UNL A   1      42.701  24.311  24.895  1.00  0.00    -0.206 F 
ATOM     61  C   UNL A   1      42.371  21.142  26.595  1.00  0.00     0.060 A 
BRANCH  61  62
ATOM     62  S   UNL A   1      41.868  19.443  26.250  1.00  0.00     0.124 S 
ATOM     63  O   UNL A   1      42.274  18.766  27.476  1.00  0.00    -0.237 OA
ATOM     64  O   UNL A   1      40.431  19.584  26.043  1.00  0.00    -0.237 OA
ATOM     65  O   UNL A   1      42.636  19.104  25.055  1.00  0.00    -0.744 OA
ENDBRANCH  61  62
ENDBRANCH  29  54
BRANCH  41  66
ATOM     66  C   UNL A   1      49.163  27.197  26.230  1.00  0.00     0.058 A 
ATOM     67  C   UNL A   1      49.415  27.148  24.851  1.00  0.00     0.135 A 
ATOM     68  C   UNL A   1      50.212  26.865  27.103  1.00  0.00     0.135 A 
ATOM     69  F   UNL A   1      48.442  27.447  23.975  1.00  0.00    -0.206 F 
ATOM     70  C   UNL A   1      50.652  26.758  24.353  1.00  0.00     0.059 A 
ATOM     71  C   UNL A   1      51.467  26.500  26.627  1.00  0.00     0.059 A 
ATOM     72  F   UNL A   1      50.025  26.902  28.431  1.00  0.00    -0.206 F 
ATOM     73  C   UNL A   1      51.673  26.436  25.250  1.00  0.00     0.060 A 
BRANCH  73  74
ATOM     74  S   UNL A   1      53.283  25.956  24.591  1.00  0.00     0.124 S 
ATOM     75  O   UNL A   1      53.245  26.551  23.259  1.00  0.00    -0.237 OA
ATOM     76  O   UNL A   1      54.206  26.576  25.537  1.00  0.00    -0.237 OA
ATOM     77  O   UNL A   1      53.244  24.497  24.628  1.00  0.00    -0.744 OA
ENDBRANCH  73  74
ENDBRANCH  41  66
ENDBRANCH  15  16
ENDBRANCH   8  10
ENDBRANCH   5   6
ENDBRANCH   4   5
ENDBRANCH   3   4
ENDBRANCH   2   3
ENDBRANCH   1   2
BRANCH   1  78
ATOM     78  C   UNL A   1      33.724  28.700  24.156  1.00  0.00     0.116 C 
BRANCH  78  79
ATOM     79  N   UNL A   1      33.109  27.425  23.851  1.00  0.00    -0.354 N 
ATOM     80  C   UNL A   1      32.497  27.250  22.643  1.00  0.00     0.242 C 
ATOM     81  H   UNL A   1      33.132  26.692  24.509  1.00  0.00     0.163 HD
ATOM     82  O   UNL A   1      33.154  26.595  21.837  1.00  0.00    -0.273 OA
BRANCH  80  83
ATOM     83  C   UNL A   1      31.076  27.800  22.352  1.00  0.00     0.174 C 
ATOM     84  C   UNL A   1      31.088  29.331  22.182  1.00  0.00     0.037 C 
ATOM     85  N   UNL A   1      29.961  27.624  23.321  1.00  0.00    -0.329 N 
ATOM     86  C   UNL A   1      29.638  29.746  22.261  1.00  0.00     0.024 C 
ATOM     87  C   UNL A   1      29.040  28.756  23.231  1.00  0.00     0.120 C 
BRANCH  85  88
ATOM     88  C   UNL A   1      29.433  26.523  23.961  1.00  0.00     0.246 C 
ATOM     89  O   UNL A   1      28.216  26.288  23.833  1.00  0.00    -0.272 OA
BRANCH  88  90
ATOM     90  C   UNL A   1      30.170  25.649  24.983  1.00  0.00     0.178 C 
ATOM     91  C   UNL A   1      30.660  26.488  26.170  1.00  0.00     0.037 C 
ATOM     92  N   UNL A   1      31.286  24.797  24.643  1.00  0.00    -0.296 N 
ATOM     93  C   UNL A   1      31.829  25.709  26.774  1.00  0.00     0.024 C 
ATOM     94  C   UNL A   1      32.123  24.572  25.804  1.00  0.00     0.124 C 
BRANCH  92  95
ATOM     95  C   UNL A   1      31.297  23.893  23.611  1.00  0.00     0.410 C 
ATOM     96  O   UNL A   1      30.277  23.417  23.127  1.00  0.00    -0.224 OA
BRANCH  95  97
ATOM     97  O   UNL A   1      32.558  23.547  23.224  1.00  0.00    -0.448 OA
BRANCH  97  98
ATOM     98  C   UNL A   1      32.811  22.133  23.129  1.00  0.00     0.248 C 
BRANCH  98  99
ATOM     99  C   UNL A   1      33.500  21.489  24.355  1.00  0.00     0.088 C 
ATOM    100  C   UNL A   1      33.566  19.958  24.307  1.00  0.00    -0.029 A 
ATOM    101  C   UNL A   1      34.951  21.843  24.664  1.00  0.00    -0.029 A 
ATOM    102  C   UNL A   1      32.526  19.052  24.157  1.00  0.00     0.005 A 
ATOM    103  C   UNL A   1      34.879  19.516  24.574  1.00  0.00    -0.014 A 
ATOM    104  C   UNL A   1      35.724  20.665  24.799  1.00  0.00    -0.014 A 
ATOM    105  C   UNL A   1      35.523  23.086  24.879  1.00  0.00     0.005 A 
ATOM    106  C   UNL A   1      32.820  17.688  24.239  1.00  0.00     0.000 A 
ATOM    107  C   UNL A   1      35.172  18.163  24.637  1.00  0.00     0.009 A 
ATOM    108  C   UNL A   1      37.067  20.727  25.137  1.00  0.00     0.009 A 
ATOM    109  C   UNL A   1      36.881  23.151  25.200  1.00  0.00     0.000 A 
ATOM    110  C   UNL A   1      34.132  17.247  24.465  1.00  0.00     0.001 A 
ATOM    111  C   UNL A   1      37.642  21.982  25.341  1.00  0.00     0.001 A 
ENDBRANCH  98  99
ENDBRANCH  97  98
ENDBRANCH  95  97
ENDBRANCH  92  95
ENDBRANCH  88  90
ENDBRANCH  85  88
ENDBRANCH  80  83
ENDBRANCH  78  79
ENDBRANCH   1  78
TORSDOF 22
ENDMDL
