MODEL 1
REMARK VINA RESULT:     -11.8      0.000      0.000
REMARK SMILES O=C(NCCCCCCNC(=O)c1cnccc1C(=O)Nc1ccc(Cl)c(Cl)c1)c1ccc(-c2c3nc(c(-c4c(F)cc(S(=O)(=O)[O-])cc4F)c4ccc([nH]4)c(-c4c(F)cc(S(=O)(=O)[O-])cc4F)c4nc(c(-c5c(F)cc(S(=O)(=O)[O-])cc5F)c5ccc2[nH]5)C=C4)C=C3)cc1
REMARK SMILES IDX 6 1 5 2 4 3 3 4 1 5 2 6 30 8 31 9 95 10 32 11 94 12 33 13
REMARK SMILES IDX 34 14 35 15 88 16 36 17 93 18 87 19 89 20 37 21 92 22 86 23
REMARK SMILES IDX 85 24 38 26 72 27 51 28 71 29 52 30 55 31 70 32 90 33 53 34
REMARK SMILES IDX 54 35 69 37 91 38 56 39 39 40 40 41 49 42 41 43 42 44 48 45
REMARK SMILES IDX 50 46 43 47 44 48 45 49 46 50 47 51 73 52 74 53 83 54 75 55
REMARK SMILES IDX 76 56 82 57 84 58 77 59 78 60 79 61 80 62 81 63 57 64 58 65
REMARK SMILES IDX 67 66 59 67 60 68 66 69 68 70 61 71 62 72 63 73 64 74 65 75
REMARK SMILES IDX 7 76 8 77 9 78 10 79 11 80 12 82 13 83 14 84 18 85 15 86
REMARK SMILES IDX 17 87 16 88 19 89 20 90 21 91 22 93 23 94 29 95 24 96 27 97
REMARK SMILES IDX 25 98 28 99 26 100
REMARK H PARENT 3 7 89 25 55 36 10 81 21 92
REMARK Flexibility Score: inf
ROOT
ATOM      1  C   UNL A   1      37.096  22.838  24.812  1.00  0.00     0.002 C 
ENDROOT
BRANCH   1   2
ATOM      2  C   UNL A   1      37.210  24.081  25.687  1.00  0.00     0.021 C 
BRANCH   2   3
ATOM      3  C   UNL A   1      38.347  24.068  26.696  1.00  0.00     0.116 C 
BRANCH   3   4
ATOM      4  N   UNL A   1      39.669  24.167  26.099  1.00  0.00    -0.352 N 
ATOM      5  O   UNL A   1      41.706  25.097  25.765  1.00  0.00    -0.269 OA
ATOM      6  C   UNL A   1      40.656  25.080  26.398  1.00  0.00     0.251 C 
ATOM      7  H   UNL A   1      39.882  23.506  25.401  1.00  0.00     0.163 HD
BRANCH   6   8
ATOM      8  C   UNL A   1      40.404  26.071  27.468  1.00  0.00     0.039 A 
ATOM      9  C   UNL A   1      41.104  27.280  27.483  1.00  0.00     0.014 A 
ATOM     10  C   UNL A   1      39.524  25.750  28.505  1.00  0.00     0.014 A 
ATOM     11  C   UNL A   1      41.050  28.088  28.612  1.00  0.00     0.010 A 
ATOM     12  C   UNL A   1      39.401  26.613  29.598  1.00  0.00     0.010 A 
ATOM     13  C   UNL A   1      40.194  27.769  29.679  1.00  0.00    -0.014 A 
BRANCH  13  14
ATOM     14  C   UNL A   1      40.116  28.690  30.843  1.00  0.00     0.031 A 
ATOM     15  C   UNL A   1      41.067  28.572  32.003  1.00  0.00     0.074 A 
ATOM     16  C   UNL A   1      39.196  29.675  30.818  1.00  0.00     0.049 A 
ATOM     17  N   UNL A   1      41.149  29.316  33.077  1.00  0.00    -0.248 NA
ATOM     18  C   UNL A   1      42.049  27.477  31.959  1.00  0.00     0.031 C 
ATOM     19  C   UNL A   1      38.215  29.881  29.748  1.00  0.00     0.029 A 
ATOM     20  N   UNL A   1      38.951  30.700  31.693  1.00  0.00    -0.354 N 
ATOM     21  C   UNL A   1      42.164  28.764  33.851  1.00  0.00     0.074 A 
ATOM     22  C   UNL A   1      42.662  27.614  33.127  1.00  0.00     0.031 C 
ATOM     23  C   UNL A   1      37.521  30.999  29.997  1.00  0.00     0.029 A 
ATOM     24  C   UNL A   1      37.958  31.552  31.273  1.00  0.00     0.049 A 
ATOM     25  H   UNL A   1      39.439  30.815  32.540  1.00  0.00     0.167 HD
ATOM     26  C   UNL A   1      42.636  29.182  35.051  1.00  0.00     0.037 A 
ATOM     27  C   UNL A   1      37.445  32.652  31.854  1.00  0.00     0.037 A 
ATOM     28  C   UNL A   1      42.151  30.346  35.751  1.00  0.00     0.049 A 
ATOM     29  C   UNL A   1      37.987  33.094  33.179  1.00  0.00     0.074 A 
ATOM     30  C   UNL A   1      42.586  30.872  36.955  1.00  0.00     0.029 A 
ATOM     31  N   UNL A   1      41.120  31.165  35.309  1.00  0.00    -0.354 N 
ATOM     32  N   UNL A   1      38.956  32.566  33.889  1.00  0.00    -0.248 NA
ATOM     33  C   UNL A   1      37.362  34.275  33.790  1.00  0.00     0.031 C 
ATOM     34  C   UNL A   1      41.797  31.988  37.258  1.00  0.00     0.029 A 
ATOM     35  C   UNL A   1      40.895  32.180  36.224  1.00  0.00     0.049 A 
ATOM     36  H   UNL A   1      40.623  31.041  34.469  1.00  0.00     0.167 HD
ATOM     37  C   UNL A   1      39.063  33.354  35.028  1.00  0.00     0.074 A 
ATOM     38  C   UNL A   1      38.074  34.406  34.901  1.00  0.00     0.031 C 
ATOM     39  C   UNL A   1      39.902  33.215  36.084  1.00  0.00     0.037 A 
BRANCH  26  40
ATOM     40  C   UNL A   1      43.719  28.364  35.699  1.00  0.00     0.058 A 
ATOM     41  C   UNL A   1      43.428  27.312  36.580  1.00  0.00     0.135 A 
ATOM     42  C   UNL A   1      45.072  28.617  35.409  1.00  0.00     0.135 A 
ATOM     43  F   UNL A   1      42.155  27.034  36.903  1.00  0.00    -0.206 F 
ATOM     44  C   UNL A   1      44.437  26.559  37.175  1.00  0.00     0.059 A 
ATOM     45  C   UNL A   1      46.096  27.863  35.975  1.00  0.00     0.059 A 
ATOM     46  F   UNL A   1      45.408  29.610  34.570  1.00  0.00    -0.206 F 
ATOM     47  C   UNL A   1      45.769  26.846  36.871  1.00  0.00     0.060 A 
BRANCH  47  48
ATOM     48  S   UNL A   1      47.069  25.872  37.659  1.00  0.00     0.124 S 
ATOM     49  O   UNL A   1      48.232  26.239  36.857  1.00  0.00    -0.237 OA
ATOM     50  O   UNL A   1      47.058  26.378  39.027  1.00  0.00    -0.237 OA
ATOM     51  O   UNL A   1      46.607  24.496  37.499  1.00  0.00    -0.744 OA
ENDBRANCH  47  48
ENDBRANCH  26  40
BRANCH  27  52
ATOM     52  C   UNL A   1      36.363  33.405  31.170  1.00  0.00     0.058 A 
ATOM     53  C   UNL A   1      36.632  34.176  30.030  1.00  0.00     0.135 A 
ATOM     54  C   UNL A   1      35.033  33.329  31.613  1.00  0.00     0.135 A 
ATOM     55  F   UNL A   1      37.889  34.280  29.572  1.00  0.00    -0.206 F 
ATOM     56  C   UNL A   1      35.621  34.848  29.353  1.00  0.00     0.059 A 
ATOM     57  C   UNL A   1      34.002  33.971  30.938  1.00  0.00     0.059 A 
ATOM     58  F   UNL A   1      34.724  32.587  32.688  1.00  0.00    -0.206 F 
ATOM     59  C   UNL A   1      34.307  34.736  29.812  1.00  0.00     0.060 A 
BRANCH  59  60
ATOM     60  S   UNL A   1      32.988  35.552  28.887  1.00  0.00     0.124 S 
ATOM     61  O   UNL A   1      32.164  36.087  29.965  1.00  0.00    -0.237 OA
ATOM     62  O   UNL A   1      33.725  36.534  28.099  1.00  0.00    -0.237 OA
ATOM     63  O   UNL A   1      32.396  34.460  28.119  1.00  0.00    -0.744 OA
ENDBRANCH  59  60
ENDBRANCH  27  52
BRANCH  39  64
ATOM     64  C   UNL A   1      39.791  34.242  37.174  1.00  0.00     0.058 A 
ATOM     65  C   UNL A   1      39.011  34.015  38.318  1.00  0.00     0.135 A 
ATOM     66  C   UNL A   1      40.483  35.459  37.079  1.00  0.00     0.135 A 
ATOM     67  F   UNL A   1      38.322  32.871  38.451  1.00  0.00    -0.206 F 
ATOM     68  C   UNL A   1      38.898  34.973  39.320  1.00  0.00     0.059 A 
ATOM     69  C   UNL A   1      40.403  36.421  38.078  1.00  0.00     0.059 A 
ATOM     70  F   UNL A   1      41.248  35.720  36.006  1.00  0.00    -0.206 F 
ATOM     71  C   UNL A   1      39.596  36.176  39.189  1.00  0.00     0.060 A 
BRANCH  71  72
ATOM     72  S   UNL A   1      39.455  37.410  40.499  1.00  0.00     0.124 S 
ATOM     73  O   UNL A   1      38.466  38.322  39.936  1.00  0.00    -0.237 OA
ATOM     74  O   UNL A   1      39.006  36.612  41.637  1.00  0.00    -0.237 OA
ATOM     75  O   UNL A   1      40.810  37.940  40.610  1.00  0.00    -0.744 OA
ENDBRANCH  71  72
ENDBRANCH  39  64
ENDBRANCH  13  14
ENDBRANCH   6   8
ENDBRANCH   3   4
ENDBRANCH   2   3
ENDBRANCH   1   2
BRANCH   1  76
ATOM     76  C   UNL A   1      35.689  22.485  24.322  1.00  0.00     0.002 C 
BRANCH  76  77
ATOM     77  C   UNL A   1      35.164  23.314  23.139  1.00  0.00     0.021 C 
BRANCH  77  78
ATOM     78  C   UNL A   1      34.070  24.316  23.501  1.00  0.00     0.116 C 
BRANCH  78  79
ATOM     79  N   UNL A   1      33.345  24.740  22.320  1.00  0.00    -0.352 N 
ATOM     80  C   UNL A   1      32.516  25.805  22.138  1.00  0.00     0.253 C 
ATOM     81  H   UNL A   1      33.471  24.170  21.527  1.00  0.00     0.163 HD
ATOM     82  O   UNL A   1      31.834  25.866  21.115  1.00  0.00    -0.269 OA
BRANCH  80  83
ATOM     83  C   UNL A   1      32.347  26.853  23.149  1.00  0.00     0.070 A 
ATOM     84  C   UNL A   1      33.399  27.769  23.188  1.00  0.00     0.125 A 
ATOM     85  C   UNL A   1      31.314  27.013  24.075  1.00  0.00     0.056 A 
ATOM     86  N   UNL A   1      33.459  28.846  24.008  1.00  0.00    -0.264 NA
ATOM     87  C   UNL A   1      31.352  28.145  24.915  1.00  0.00     0.035 A 
ATOM     88  C   UNL A   1      32.419  29.022  24.841  1.00  0.00     0.112 A 
BRANCH  85  89
ATOM     89  C   UNL A   1      30.082  26.197  24.221  1.00  0.00     0.256 C 
ATOM     90  O   UNL A   1      29.045  26.670  23.747  1.00  0.00    -0.269 OA
ATOM     91  N   UNL A   1      29.991  24.936  24.752  1.00  0.00    -0.322 N 
ATOM     92  H   UNL A   1      29.120  24.510  24.579  1.00  0.00     0.170 HD
BRANCH  91  93
ATOM     93  C   UNL A   1      30.860  24.123  25.480  1.00  0.00     0.043 A 
ATOM     94  C   UNL A   1      31.562  24.543  26.605  1.00  0.00     0.028 A 
ATOM     95  C   UNL A   1      31.038  22.820  25.001  1.00  0.00     0.048 A 
ATOM     96  C   UNL A   1      32.530  23.702  27.169  1.00  0.00     0.024 A 
ATOM     97  C   UNL A   1      32.033  21.999  25.533  1.00  0.00     0.061 A 
ATOM     98  C   UNL A   1      32.795  22.446  26.613  1.00  0.00     0.059 A 
ATOM     99  Cl  UNL A   1      32.300  20.473  24.766  1.00  0.00    -0.083 Cl
ATOM    100  Cl  UNL A   1      34.073  21.507  27.293  1.00  0.00    -0.083 Cl
ENDBRANCH  91  93
ENDBRANCH  85  89
ENDBRANCH  80  83
ENDBRANCH  78  79
ENDBRANCH  77  78
ENDBRANCH  76  77
ENDBRANCH   1  76
TORSDOF 18
ENDMDL
MODEL 2
REMARK VINA RESULT:     -11.5      6.717     11.919
REMARK SMILES O=C(NCCCCCCNC(=O)c1cnccc1C(=O)Nc1ccc(Cl)c(Cl)c1)c1ccc(-c2c3nc(c(-c4c(F)cc(S(=O)(=O)[O-])cc4F)c4ccc([nH]4)c(-c4c(F)cc(S(=O)(=O)[O-])cc4F)c4nc(c(-c5c(F)cc(S(=O)(=O)[O-])cc5F)c5ccc2[nH]5)C=C4)C=C3)cc1
REMARK SMILES IDX 6 1 5 2 4 3 3 4 1 5 2 6 30 8 31 9 95 10 32 11 94 12 33 13
REMARK SMILES IDX 34 14 35 15 88 16 36 17 93 18 87 19 89 20 37 21 92 22 86 23
REMARK SMILES IDX 85 24 38 26 72 27 51 28 71 29 52 30 55 31 70 32 90 33 53 34
REMARK SMILES IDX 54 35 69 37 91 38 56 39 39 40 40 41 49 42 41 43 42 44 48 45
REMARK SMILES IDX 50 46 43 47 44 48 45 49 46 50 47 51 73 52 74 53 83 54 75 55
REMARK SMILES IDX 76 56 82 57 84 58 77 59 78 60 79 61 80 62 81 63 57 64 58 65
REMARK SMILES IDX 67 66 59 67 60 68 66 69 68 70 61 71 62 72 63 73 64 74 65 75
REMARK SMILES IDX 7 76 8 77 9 78 10 79 11 80 12 82 13 83 14 84 18 85 15 86
REMARK SMILES IDX 17 87 16 88 19 89 20 90 21 91 22 93 23 94 29 95 24 96 27 97
REMARK SMILES IDX 25 98 28 99 26 100
REMARK H PARENT 3 7 89 25 55 36 10 81 21 92
REMARK Flexibility Score: inf
ROOT
ATOM      1  C   UNL A   1      33.407  30.010  26.779  1.00  0.00     0.002 C 
ENDROOT
BRANCH   1   2
ATOM      2  C   UNL A   1      34.284  30.933  27.619  1.00  0.00     0.021 C 
BRANCH   2   3
ATOM      3  C   UNL A   1      35.368  30.245  28.431  1.00  0.00     0.116 C 
BRANCH   3   4
ATOM      4  N   UNL A   1      35.442  30.686  29.814  1.00  0.00    -0.352 N 
ATOM      5  O   UNL A   1      36.435  30.965  31.831  1.00  0.00    -0.269 OA
ATOM      6  C   UNL A   1      36.529  30.620  30.657  1.00  0.00     0.251 C 
ATOM      7  H   UNL A   1      34.620  31.077  30.191  1.00  0.00     0.163 HD
BRANCH   6   8
ATOM      8  C   UNL A   1      37.802  30.080  30.130  1.00  0.00     0.039 A 
ATOM      9  C   UNL A   1      38.722  29.482  30.995  1.00  0.00     0.014 A 
ATOM     10  C   UNL A   1      38.111  30.250  28.778  1.00  0.00     0.014 A 
ATOM     11  C   UNL A   1      40.007  29.207  30.545  1.00  0.00     0.010 A 
ATOM     12  C   UNL A   1      39.375  29.884  28.307  1.00  0.00     0.010 A 
ATOM     13  C   UNL A   1      40.348  29.397  29.195  1.00  0.00    -0.014 A 
BRANCH  13  14
ATOM     14  C   UNL A   1      41.713  29.032  28.736  1.00  0.00     0.031 A 
ATOM     15  C   UNL A   1      42.847  30.020  28.784  1.00  0.00     0.074 A 
ATOM     16  C   UNL A   1      41.930  27.771  28.314  1.00  0.00     0.049 A 
ATOM     17  N   UNL A   1      44.101  29.847  28.450  1.00  0.00    -0.248 NA
ATOM     18  C   UNL A   1      42.538  31.376  29.262  1.00  0.00     0.031 C 
ATOM     19  C   UNL A   1      40.902  26.730  28.217  1.00  0.00     0.029 A 
ATOM     20  N   UNL A   1      43.079  27.139  27.918  1.00  0.00    -0.354 N 
ATOM     21  C   UNL A   1      44.724  31.075  28.644  1.00  0.00     0.074 A 
ATOM     22  C   UNL A   1      43.705  31.990  29.115  1.00  0.00     0.031 C 
ATOM     23  C   UNL A   1      41.478  25.576  27.853  1.00  0.00     0.029 A 
ATOM     24  C   UNL A   1      42.899  25.809  27.625  1.00  0.00     0.049 A 
ATOM     25  H   UNL A   1      43.949  27.594  27.849  1.00  0.00     0.167 HD
ATOM     26  C   UNL A   1      46.024  31.405  28.449  1.00  0.00     0.037 A 
ATOM     27  C   UNL A   1      43.776  24.877  27.209  1.00  0.00     0.037 A 
ATOM     28  C   UNL A   1      47.037  30.480  28.005  1.00  0.00     0.049 A 
ATOM     29  C   UNL A   1      45.208  25.268  27.005  1.00  0.00     0.074 A 
ATOM     30  C   UNL A   1      48.388  30.708  27.809  1.00  0.00     0.029 A 
ATOM     31  N   UNL A   1      46.808  29.148  27.686  1.00  0.00    -0.354 N 
ATOM     32  N   UNL A   1      45.780  26.432  27.206  1.00  0.00    -0.248 NA
ATOM     33  C   UNL A   1      46.115  24.225  26.507  1.00  0.00     0.031 C 
ATOM     34  C   UNL A   1      48.970  29.524  27.341  1.00  0.00     0.029 A 
ATOM     35  C   UNL A   1      47.989  28.547  27.280  1.00  0.00     0.049 A 
ATOM     36  H   UNL A   1      45.935  28.697  27.740  1.00  0.00     0.167 HD
ATOM     37  C   UNL A   1      47.116  26.261  26.867  1.00  0.00     0.074 A 
ATOM     38  C   UNL A   1      47.270  24.875  26.467  1.00  0.00     0.031 C 
ATOM     39  C   UNL A   1      48.122  27.169  26.880  1.00  0.00     0.037 A 
BRANCH  26  40
ATOM     40  C   UNL A   1      46.426  32.835  28.692  1.00  0.00     0.058 A 
ATOM     41  C   UNL A   1      46.393  33.798  27.673  1.00  0.00     0.135 A 
ATOM     42  C   UNL A   1      46.822  33.254  29.974  1.00  0.00     0.135 A 
ATOM     43  F   UNL A   1      46.035  33.451  26.426  1.00  0.00    -0.206 F 
ATOM     44  C   UNL A   1      46.766  35.120  27.906  1.00  0.00     0.059 A 
ATOM     45  C   UNL A   1      47.177  34.574  30.236  1.00  0.00     0.059 A 
ATOM     46  F   UNL A   1      46.868  32.375  30.987  1.00  0.00    -0.206 F 
ATOM     47  C   UNL A   1      47.163  35.496  29.190  1.00  0.00     0.060 A 
BRANCH  47  48
ATOM     48  S   UNL A   1      47.657  37.209  29.479  1.00  0.00     0.124 S 
ATOM     49  O   UNL A   1      47.037  37.475  30.773  1.00  0.00    -0.237 OA
ATOM     50  O   UNL A   1      49.113  37.122  29.481  1.00  0.00    -0.237 OA
ATOM     51  O   UNL A   1      47.077  37.926  28.346  1.00  0.00    -0.744 OA
ENDBRANCH  47  48
ENDBRANCH  26  40
BRANCH  27  52
ATOM     52  C   UNL A   1      43.311  23.488  26.969  1.00  0.00     0.058 A 
ATOM     53  C   UNL A   1      43.170  22.991  25.665  1.00  0.00     0.135 A 
ATOM     54  C   UNL A   1      43.046  22.615  28.036  1.00  0.00     0.135 A 
ATOM     55  F   UNL A   1      43.411  23.789  24.614  1.00  0.00    -0.206 F 
ATOM     56  C   UNL A   1      42.781  21.677  25.427  1.00  0.00     0.059 A 
ATOM     57  C   UNL A   1      42.679  21.292  27.823  1.00  0.00     0.059 A 
ATOM     58  F   UNL A   1      43.185  23.041  29.302  1.00  0.00    -0.206 F 
ATOM     59  C   UNL A   1      42.542  20.834  26.513  1.00  0.00     0.060 A 
BRANCH  59  60
ATOM     60  S   UNL A   1      42.106  19.110  26.198  1.00  0.00     0.124 S 
ATOM     61  O   UNL A   1      42.325  18.509  27.508  1.00  0.00    -0.237 OA
ATOM     62  O   UNL A   1      40.715  19.216  25.768  1.00  0.00    -0.237 OA
ATOM     63  O   UNL A   1      43.047  18.715  25.154  1.00  0.00    -0.744 OA
ENDBRANCH  59  60
ENDBRANCH  27  52
BRANCH  39  64
ATOM     64  C   UNL A   1      49.480  26.679  26.468  1.00  0.00     0.058 A 
ATOM     65  C   UNL A   1      49.940  26.822  25.149  1.00  0.00     0.135 A 
ATOM     66  C   UNL A   1      50.334  26.076  27.403  1.00  0.00     0.135 A 
ATOM     67  F   UNL A   1      49.156  27.383  24.216  1.00  0.00    -0.206 F 
ATOM     68  C   UNL A   1      51.193  26.354  24.766  1.00  0.00     0.059 A 
ATOM     69  C   UNL A   1      51.599  25.623  27.047  1.00  0.00     0.059 A 
ATOM     70  F   UNL A   1      49.942  25.925  28.678  1.00  0.00    -0.206 F 
ATOM     71  C   UNL A   1      52.014  25.753  25.722  1.00  0.00     0.060 A 
BRANCH  71  72
ATOM     72  S   UNL A   1      53.644  25.161  25.219  1.00  0.00     0.124 S 
ATOM     73  O   UNL A   1      53.708  25.620  23.836  1.00  0.00    -0.237 OA
ATOM     74  O   UNL A   1      54.531  25.844  26.156  1.00  0.00    -0.237 OA
ATOM     75  O   UNL A   1      53.548  23.715  25.398  1.00  0.00    -0.744 OA
ENDBRANCH  71  72
ENDBRANCH  39  64
ENDBRANCH  13  14
ENDBRANCH   6   8
ENDBRANCH   3   4
ENDBRANCH   2   3
ENDBRANCH   1   2
BRANCH   1  76
ATOM     76  C   UNL A   1      33.851  28.547  26.700  1.00  0.00     0.002 C 
BRANCH  76  77
ATOM     77  C   UNL A   1      32.809  27.562  26.147  1.00  0.00     0.021 C 
BRANCH  77  78
ATOM     78  C   UNL A   1      33.298  26.120  26.029  1.00  0.00     0.116 C 
BRANCH  78  79
ATOM     79  N   UNL A   1      32.248  25.186  26.384  1.00  0.00    -0.352 N 
ATOM     80  C   UNL A   1      32.187  23.835  26.223  1.00  0.00     0.253 C 
ATOM     81  H   UNL A   1      31.457  25.591  26.808  1.00  0.00     0.163 HD
ATOM     82  O   UNL A   1      31.115  23.258  26.401  1.00  0.00    -0.269 OA
BRANCH  80  83
ATOM     83  C   UNL A   1      33.335  23.044  25.772  1.00  0.00     0.070 A 
ATOM     84  C   UNL A   1      34.410  23.059  26.662  1.00  0.00     0.125 A 
ATOM     85  C   UNL A   1      33.492  22.336  24.578  1.00  0.00     0.056 A 
ATOM     86  N   UNL A   1      35.568  22.378  26.489  1.00  0.00    -0.264 NA
ATOM     87  C   UNL A   1      34.682  21.602  24.400  1.00  0.00     0.035 A 
ATOM     88  C   UNL A   1      35.670  21.644  25.368  1.00  0.00     0.112 A 
BRANCH  85  89
ATOM     89  C   UNL A   1      32.500  22.147  23.490  1.00  0.00     0.256 C 
ATOM     90  O   UNL A   1      32.128  20.989  23.276  1.00  0.00    -0.269 OA
ATOM     91  N   UNL A   1      31.890  23.130  22.755  1.00  0.00    -0.322 N 
ATOM     92  H   UNL A   1      31.133  22.796  22.222  1.00  0.00     0.170 HD
BRANCH  91  93
ATOM     93  C   UNL A   1      32.104  24.500  22.598  1.00  0.00     0.043 A 
ATOM     94  C   UNL A   1      33.328  25.063  22.254  1.00  0.00     0.028 A 
ATOM     95  C   UNL A   1      31.005  25.331  22.843  1.00  0.00     0.048 A 
ATOM     96  C   UNL A   1      33.479  26.456  22.278  1.00  0.00     0.024 A 
ATOM     97  C   UNL A   1      31.165  26.716  22.913  1.00  0.00     0.061 A 
ATOM     98  C   UNL A   1      32.411  27.282  22.644  1.00  0.00     0.059 A 
ATOM     99  Cl  UNL A   1      29.794  27.653  23.393  1.00  0.00    -0.083 Cl
ATOM    100  Cl  UNL A   1      32.696  28.980  22.757  1.00  0.00    -0.083 Cl
ENDBRANCH  91  93
ENDBRANCH  85  89
ENDBRANCH  80  83
ENDBRANCH  78  79
ENDBRANCH  77  78
ENDBRANCH  76  77
ENDBRANCH   1  76
TORSDOF 18
ENDMDL
MODEL 3
REMARK VINA RESULT:     -11.5      1.689      3.080
REMARK SMILES O=C(NCCCCCCNC(=O)c1cnccc1C(=O)Nc1ccc(Cl)c(Cl)c1)c1ccc(-c2c3nc(c(-c4c(F)cc(S(=O)(=O)[O-])cc4F)c4ccc([nH]4)c(-c4c(F)cc(S(=O)(=O)[O-])cc4F)c4nc(c(-c5c(F)cc(S(=O)(=O)[O-])cc5F)c5ccc2[nH]5)C=C4)C=C3)cc1
REMARK SMILES IDX 6 1 5 2 4 3 3 4 1 5 2 6 30 8 31 9 95 10 32 11 94 12 33 13
REMARK SMILES IDX 34 14 35 15 88 16 36 17 93 18 87 19 89 20 37 21 92 22 86 23
REMARK SMILES IDX 85 24 38 26 72 27 51 28 71 29 52 30 55 31 70 32 90 33 53 34
REMARK SMILES IDX 54 35 69 37 91 38 56 39 39 40 40 41 49 42 41 43 42 44 48 45
REMARK SMILES IDX 50 46 43 47 44 48 45 49 46 50 47 51 73 52 74 53 83 54 75 55
REMARK SMILES IDX 76 56 82 57 84 58 77 59 78 60 79 61 80 62 81 63 57 64 58 65
REMARK SMILES IDX 67 66 59 67 60 68 66 69 68 70 61 71 62 72 63 73 64 74 65 75
REMARK SMILES IDX 7 76 8 77 9 78 10 79 11 80 12 82 13 83 14 84 18 85 15 86
REMARK SMILES IDX 17 87 16 88 19 89 20 90 21 91 22 93 23 94 29 95 24 96 27 97
REMARK SMILES IDX 25 98 28 99 26 100
REMARK H PARENT 3 7 89 25 55 36 10 81 21 92
REMARK Flexibility Score: inf
ROOT
ATOM      1  C   UNL A   1      38.819  22.425  26.097  1.00  0.00     0.002 C 
ENDROOT
BRANCH   1   2
ATOM      2  C   UNL A   1      40.027  22.040  26.943  1.00  0.00     0.021 C 
BRANCH   2   3
ATOM      3  C   UNL A   1      41.008  23.164  27.233  1.00  0.00     0.116 C 
BRANCH   3   4
ATOM      4  N   UNL A   1      41.319  23.990  26.078  1.00  0.00    -0.352 N 
ATOM      5  O   UNL A   1      41.704  25.939  24.991  1.00  0.00    -0.269 OA
ATOM      6  C   UNL A   1      41.517  25.353  26.052  1.00  0.00     0.251 C 
ATOM      7  H   UNL A   1      41.398  23.521  25.215  1.00  0.00     0.163 HD
BRANCH   6   8
ATOM      8  C   UNL A   1      41.451  26.102  27.326  1.00  0.00     0.039 A 
ATOM      9  C   UNL A   1      40.398  25.880  28.217  1.00  0.00     0.014 A 
ATOM     10  C   UNL A   1      42.403  27.091  27.589  1.00  0.00     0.014 A 
ATOM     11  C   UNL A   1      40.205  26.754  29.280  1.00  0.00     0.010 A 
ATOM     12  C   UNL A   1      42.256  27.909  28.713  1.00  0.00     0.010 A 
ATOM     13  C   UNL A   1      41.134  27.773  29.546  1.00  0.00    -0.014 A 
BRANCH  13  14
ATOM     14  C   UNL A   1      40.927  28.649  30.729  1.00  0.00     0.031 A 
ATOM     15  C   UNL A   1      41.846  28.592  31.919  1.00  0.00     0.074 A 
ATOM     16  C   UNL A   1      39.914  29.538  30.695  1.00  0.00     0.049 A 
ATOM     17  N   UNL A   1      41.817  29.310  33.013  1.00  0.00    -0.248 NA
ATOM     18  C   UNL A   1      42.932  27.601  31.882  1.00  0.00     0.031 C 
ATOM     19  C   UNL A   1      38.954  29.676  29.597  1.00  0.00     0.029 A 
ATOM     20  N   UNL A   1      39.539  30.509  31.586  1.00  0.00    -0.354 N 
ATOM     21  C   UNL A   1      42.856  28.840  33.809  1.00  0.00     0.074 A 
ATOM     22  C   UNL A   1      43.490  27.765  33.075  1.00  0.00     0.031 C 
ATOM     23  C   UNL A   1      38.143  30.713  29.848  1.00  0.00     0.029 A 
ATOM     24  C   UNL A   1      38.480  31.270  31.152  1.00  0.00     0.049 A 
ATOM     25  H   UNL A   1      39.985  30.648  32.453  1.00  0.00     0.167 HD
ATOM     26  C   UNL A   1      43.244  29.268  35.035  1.00  0.00     0.037 A 
ATOM     27  C   UNL A   1      37.842  32.297  31.741  1.00  0.00     0.037 A 
ATOM     28  C   UNL A   1      42.623  30.358  35.746  1.00  0.00     0.049 A 
ATOM     29  C   UNL A   1      38.293  32.753  33.096  1.00  0.00     0.074 A 
ATOM     30  C   UNL A   1      42.963  30.890  36.977  1.00  0.00     0.029 A 
ATOM     31  N   UNL A   1      41.530  31.083  35.288  1.00  0.00    -0.354 N 
ATOM     32  N   UNL A   1      39.286  32.304  33.826  1.00  0.00    -0.248 NA
ATOM     33  C   UNL A   1      37.533  33.848  33.713  1.00  0.00     0.031 C 
ATOM     34  C   UNL A   1      42.057  31.914  37.279  1.00  0.00     0.029 A 
ATOM     35  C   UNL A   1      41.175  32.045  36.219  1.00  0.00     0.049 A 
ATOM     36  H   UNL A   1      41.076  30.935  34.428  1.00  0.00     0.167 HD
ATOM     37  C   UNL A   1      39.276  33.065  34.987  1.00  0.00     0.074 A 
ATOM     38  C   UNL A   1      38.191  34.018  34.852  1.00  0.00     0.031 C 
ATOM     39  C   UNL A   1      40.088  32.981  36.069  1.00  0.00     0.037 A 
BRANCH  26  40
ATOM     40  C   UNL A   1      44.381  28.543  35.701  1.00  0.00     0.058 A 
ATOM     41  C   UNL A   1      45.718  28.923  35.509  1.00  0.00     0.135 A 
ATOM     42  C   UNL A   1      44.127  27.468  36.570  1.00  0.00     0.135 A 
ATOM     43  F   UNL A   1      46.021  29.935  34.680  1.00  0.00    -0.206 F 
ATOM     44  C   UNL A   1      46.765  28.247  36.131  1.00  0.00     0.059 A 
ATOM     45  C   UNL A   1      45.156  26.792  37.220  1.00  0.00     0.059 A 
ATOM     46  F   UNL A   1      42.866  27.064  36.793  1.00  0.00    -0.206 F 
ATOM     47  C   UNL A   1      46.474  27.178  36.980  1.00  0.00     0.060 A 
BRANCH  47  48
ATOM     48  S   UNL A   1      47.840  26.300  37.770  1.00  0.00     0.124 S 
ATOM     49  O   UNL A   1      47.142  25.176  38.387  1.00  0.00    -0.237 OA
ATOM     50  O   UNL A   1      48.698  25.967  36.637  1.00  0.00    -0.237 OA
ATOM     51  O   UNL A   1      48.386  27.285  38.698  1.00  0.00    -0.744 OA
ENDBRANCH  47  48
ENDBRANCH  26  40
BRANCH  27  52
ATOM     52  C   UNL A   1      36.713  32.958  31.038  1.00  0.00     0.058 A 
ATOM     53  C   UNL A   1      35.390  32.764  31.459  1.00  0.00     0.135 A 
ATOM     54  C   UNL A   1      36.939  33.834  29.965  1.00  0.00     0.135 A 
ATOM     55  F   UNL A   1      35.126  31.934  32.480  1.00  0.00    -0.206 F 
ATOM     56  C   UNL A   1      34.328  33.414  30.839  1.00  0.00     0.059 A 
ATOM     57  C   UNL A   1      35.897  34.513  29.345  1.00  0.00     0.059 A 
ATOM     58  F   UNL A   1      38.191  34.066  29.539  1.00  0.00    -0.206 F 
ATOM     59  C   UNL A   1      34.592  34.290  29.786  1.00  0.00     0.060 A 
BRANCH  59  60
ATOM     60  S   UNL A   1      33.217  35.185  29.032  1.00  0.00     0.124 S 
ATOM     61  O   UNL A   1      32.366  35.440  30.188  1.00  0.00    -0.237 OA
ATOM     62  O   UNL A   1      33.883  36.352  28.460  1.00  0.00    -0.237 OA
ATOM     63  O   UNL A   1      32.693  34.232  28.058  1.00  0.00    -0.744 OA
ENDBRANCH  59  60
ENDBRANCH  27  52
BRANCH  39  64
ATOM     64  C   UNL A   1      39.840  33.961  37.179  1.00  0.00     0.058 A 
ATOM     65  C   UNL A   1      38.979  33.656  38.246  1.00  0.00     0.135 A 
ATOM     66  C   UNL A   1      40.480  35.209  37.184  1.00  0.00     0.135 A 
ATOM     67  F   UNL A   1      38.336  32.479  38.282  1.00  0.00    -0.206 F 
ATOM     68  C   UNL A   1      38.740  34.571  39.266  1.00  0.00     0.059 A 
ATOM     69  C   UNL A   1      40.272  36.129  38.205  1.00  0.00     0.059 A 
ATOM     70  F   UNL A   1      41.318  35.543  36.189  1.00  0.00    -0.206 F 
ATOM     71  C   UNL A   1      39.388  35.807  39.234  1.00  0.00     0.060 A 
BRANCH  71  72
ATOM     72  S   UNL A   1      39.082  36.984  40.569  1.00  0.00     0.124 S 
ATOM     73  O   UNL A   1      38.430  36.137  41.561  1.00  0.00    -0.237 OA
ATOM     74  O   UNL A   1      40.428  37.436  40.907  1.00  0.00    -0.237 OA
ATOM     75  O   UNL A   1      38.229  37.990  39.942  1.00  0.00    -0.744 OA
ENDBRANCH  71  72
ENDBRANCH  39  64
ENDBRANCH  13  14
ENDBRANCH   6   8
ENDBRANCH   3   4
ENDBRANCH   2   3
ENDBRANCH   1   2
BRANCH   1  76
ATOM     76  C   UNL A   1      38.119  21.280  25.360  1.00  0.00     0.002 C 
BRANCH  76  77
ATOM     77  C   UNL A   1      36.939  21.685  24.462  1.00  0.00     0.021 C 
BRANCH  77  78
ATOM     78  C   UNL A   1      36.750  23.191  24.301  1.00  0.00     0.116 C 
BRANCH  78  79
ATOM     79  N   UNL A   1      35.965  23.734  25.392  1.00  0.00    -0.352 N 
ATOM     80  C   UNL A   1      34.653  23.545  25.706  1.00  0.00     0.253 C 
ATOM     81  H   UNL A   1      36.457  24.332  26.001  1.00  0.00     0.163 HD
ATOM     82  O   UNL A   1      34.130  24.267  26.554  1.00  0.00    -0.269 OA
BRANCH  80  83
ATOM     83  C   UNL A   1      33.814  22.558  25.019  1.00  0.00     0.070 A 
ATOM     84  C   UNL A   1      33.462  21.470  25.818  1.00  0.00     0.125 A 
ATOM     85  C   UNL A   1      33.377  22.558  23.692  1.00  0.00     0.056 A 
ATOM     86  N   UNL A   1      32.665  20.447  25.425  1.00  0.00    -0.264 NA
ATOM     87  C   UNL A   1      32.525  21.513  23.281  1.00  0.00     0.035 A 
ATOM     88  C   UNL A   1      32.195  20.503  24.167  1.00  0.00     0.112 A 
BRANCH  85  89
ATOM     89  C   UNL A   1      33.593  23.600  22.658  1.00  0.00     0.256 C 
ATOM     90  O   UNL A   1      34.070  23.223  21.583  1.00  0.00    -0.269 OA
ATOM     91  N   UNL A   1      33.240  24.923  22.739  1.00  0.00    -0.322 N 
ATOM     92  H   UNL A   1      33.303  25.390  21.874  1.00  0.00     0.170 HD
BRANCH  91  93
ATOM     93  C   UNL A   1      32.811  25.752  23.775  1.00  0.00     0.043 A 
ATOM     94  C   UNL A   1      33.570  26.785  24.314  1.00  0.00     0.028 A 
ATOM     95  C   UNL A   1      31.545  25.476  24.306  1.00  0.00     0.048 A 
ATOM     96  C   UNL A   1      33.114  27.454  25.457  1.00  0.00     0.024 A 
ATOM     97  C   UNL A   1      31.111  26.109  25.471  1.00  0.00     0.061 A 
ATOM     98  C   UNL A   1      31.905  27.093  26.060  1.00  0.00     0.059 A 
ATOM     99  Cl  UNL A   1      29.613  25.582  26.153  1.00  0.00    -0.083 Cl
ATOM    100  Cl  UNL A   1      31.457  27.886  27.525  1.00  0.00    -0.083 Cl
ENDBRANCH  91  93
ENDBRANCH  85  89
ENDBRANCH  80  83
ENDBRANCH  78  79
ENDBRANCH  77  78
ENDBRANCH  76  77
ENDBRANCH   1  76
TORSDOF 18
ENDMDL
