MODEL 1
REMARK VINA RESULT:     -12.4      0.000      0.000
REMARK SMILES Cc1cc2c(c(C)c1Cl)C=C(C(=O)NCCCCCCNC(=O)c1ccc(-c3c4nc(c(-c5c(F)cc(S(=O)(=O)[O-])cc5F)c5ccc([nH]5)c(-c5c(F)cc(S(=O)(=O)[O-])cc5F)c5nc(c(-c6c(F)cc(S(=O)(=O)[O-])cc6F)c6ccc3[nH]6)C=C5)C=C4)cc1)[C@@H](C(F)(F)F)O2
REMARK SMILES IDX 18 1 17 2 16 3 15 4 14 5 12 6 13 7 11 9 1 10 2 11 3 12 8 13
REMARK SMILES IDX 4 14 6 15 9 16 5 17 95 18 7 19 10 20 90 21 91 22 92 23 93 24
REMARK SMILES IDX 94 25 19 26 20 27 21 28 22 29 23 31 24 32 25 33 89 34 26 35
REMARK SMILES IDX 88 36 27 37 28 38 29 39 82 40 30 41 87 42 81 43 83 44 31 45
REMARK SMILES IDX 86 46 80 47 79 48 32 50 66 51 45 52 65 53 46 54 49 55 64 56
REMARK SMILES IDX 84 57 47 58 48 59 63 61 85 62 50 63 33 64 34 65 43 66 35 67
REMARK SMILES IDX 36 68 42 69 44 70 37 71 38 72 39 73 40 74 41 75 67 76 68 77
REMARK SMILES IDX 77 78 69 79 70 80 76 81 78 82 71 83 72 84 73 85 74 86 75 87
REMARK SMILES IDX 51 88 52 89 61 90 53 91 54 92 60 93 62 94 55 95 56 96 57 97
REMARK SMILES IDX 58 98 59 99
REMARK H PARENT 14 8 21 30 83 49 49 60
REMARK Flexibility Score: inf
ROOT
ATOM      1  C   UNL A   1      36.086  24.026  25.496  1.00  0.00     0.002 C 
ENDROOT
BRANCH   1   2
ATOM      2  C   UNL A   1      34.945  23.305  26.227  1.00  0.00     0.002 C 
BRANCH   2   3
ATOM      3  C   UNL A   1      33.578  23.988  26.128  1.00  0.00     0.021 C 
BRANCH   3   4
ATOM      4  C   UNL A   1      32.718  23.470  24.981  1.00  0.00     0.116 C 
BRANCH   4   5
ATOM      5  N   UNL A   1      33.163  23.992  23.700  1.00  0.00    -0.352 N 
ATOM      6  C   UNL A   1      33.146  25.183  23.057  1.00  0.00     0.251 C 
ATOM      7  O   UNL A   1      33.673  25.183  21.939  1.00  0.00    -0.270 OA
ATOM      8  H   UNL A   1      33.593  23.294  23.156  1.00  0.00     0.163 HD
BRANCH   6   9
ATOM      9  C   UNL A   1      32.552  26.445  23.592  1.00  0.00     0.067 C 
ATOM     10  C   UNL A   1      31.135  32.079  26.531  1.00  0.00     0.046 C 
ATOM     11  C   UNL A   1      31.763  30.806  26.035  1.00  0.00    -0.028 A 
ATOM     12  C   UNL A   1      31.108  30.096  25.027  1.00  0.00     0.052 A 
ATOM     13  C   UNL A   1      32.962  30.284  26.563  1.00  0.00     0.047 A 
ATOM     14  C   UNL A   1      31.633  28.901  24.549  1.00  0.00     0.128 A 
ATOM     15  C   UNL A   1      33.516  29.075  26.072  1.00  0.00    -0.021 A 
ATOM     16  Cl  UNL A   1      33.749  31.166  27.839  1.00  0.00    -0.084 Cl
ATOM     17  C   UNL A   1      32.831  28.382  25.044  1.00  0.00     0.022 A 
ATOM     18  O   UNL A   1      30.913  28.321  23.549  1.00  0.00    -0.475 OA
ATOM     19  C   UNL A   1      34.807  28.510  26.617  1.00  0.00     0.047 C 
ATOM     20  C   UNL A   1      33.334  27.146  24.434  1.00  0.00     0.026 C 
ATOM     21  C   UNL A   1      31.166  26.923  23.277  1.00  0.00     0.314 C 
BRANCH  21  22
ATOM     22  C   UNL A   1      30.073  26.069  23.943  1.00  0.00     0.429 C 
ATOM     23  F   UNL A   1      30.359  25.867  25.253  1.00  0.00    -0.167 F 
ATOM     24  F   UNL A   1      28.855  26.658  23.905  1.00  0.00    -0.167 F 
ATOM     25  F   UNL A   1      29.941  24.856  23.361  1.00  0.00    -0.167 F 
ENDBRANCH  21  22
ENDBRANCH   6   9
ENDBRANCH   4   5
ENDBRANCH   3   4
ENDBRANCH   2   3
ENDBRANCH   1   2
BRANCH   1  26
ATOM     26  C   UNL A   1      37.477  23.416  25.692  1.00  0.00     0.021 C 
BRANCH  26  27
ATOM     27  C   UNL A   1      38.425  24.265  26.531  1.00  0.00     0.116 C 
BRANCH  27  28
ATOM     28  N   UNL A   1      39.792  24.184  26.043  1.00  0.00    -0.352 N 
ATOM     29  C   UNL A   1      40.868  24.970  26.362  1.00  0.00     0.251 C 
ATOM     30  H   UNL A   1      39.968  23.467  25.393  1.00  0.00     0.163 HD
ATOM     31  O   UNL A   1      41.895  24.911  25.690  1.00  0.00    -0.269 OA
BRANCH  29  32
ATOM     32  C   UNL A   1      40.779  25.893  27.511  1.00  0.00     0.039 A 
ATOM     33  C   UNL A   1      41.670  26.964  27.592  1.00  0.00     0.014 A 
ATOM     34  C   UNL A   1      39.815  25.697  28.506  1.00  0.00     0.014 A 
ATOM     35  C   UNL A   1      41.565  27.867  28.651  1.00  0.00     0.010 A 
ATOM     36  C   UNL A   1      39.665  26.637  29.519  1.00  0.00     0.010 A 
ATOM     37  C   UNL A   1      40.546  27.724  29.608  1.00  0.00    -0.014 A 
BRANCH  37  38
ATOM     38  C   UNL A   1      40.412  28.690  30.726  1.00  0.00     0.031 A 
ATOM     39  C   UNL A   1      41.308  28.571  31.928  1.00  0.00     0.074 A 
ATOM     40  C   UNL A   1      39.467  29.648  30.670  1.00  0.00     0.049 A 
ATOM     41  N   UNL A   1      41.328  29.298  33.015  1.00  0.00    -0.248 NA
ATOM     42  C   UNL A   1      42.297  27.482  31.918  1.00  0.00     0.031 C 
ATOM     43  C   UNL A   1      38.519  29.836  29.569  1.00  0.00     0.029 A 
ATOM     44  N   UNL A   1      39.148  30.646  31.555  1.00  0.00    -0.354 N 
ATOM     45  C   UNL A   1      42.329  28.758  33.812  1.00  0.00     0.074 A 
ATOM     46  C   UNL A   1      42.847  27.601  33.117  1.00  0.00     0.031 C 
ATOM     47  C   UNL A   1      37.751  30.907  29.829  1.00  0.00     0.029 A 
ATOM     48  C   UNL A   1      38.125  31.459  31.128  1.00  0.00     0.049 A 
ATOM     49  H   UNL A   1      39.609  30.769  32.416  1.00  0.00     0.167 HD
ATOM     50  C   UNL A   1      42.797  29.206  35.001  1.00  0.00     0.037 A 
ATOM     51  C   UNL A   1      37.554  32.528  31.716  1.00  0.00     0.037 A 
ATOM     52  C   UNL A   1      42.289  30.370  35.677  1.00  0.00     0.049 A 
ATOM     53  C   UNL A   1      38.069  32.987  33.054  1.00  0.00     0.074 A 
ATOM     54  C   UNL A   1      42.718  30.929  36.867  1.00  0.00     0.029 A 
ATOM     55  N   UNL A   1      41.240  31.156  35.220  1.00  0.00    -0.354 N 
ATOM     56  N   UNL A   1      39.049  32.492  33.773  1.00  0.00    -0.248 NA
ATOM     57  C   UNL A   1      37.405  34.148  33.662  1.00  0.00     0.031 C 
ATOM     58  C   UNL A   1      41.900  32.025  37.154  1.00  0.00     0.029 A 
ATOM     59  C   UNL A   1      40.993  32.181  36.118  1.00  0.00     0.049 A 
ATOM     60  H   UNL A   1      40.745  31.007  34.382  1.00  0.00     0.167 HD
ATOM     61  C   UNL A   1      39.132  33.293  34.907  1.00  0.00     0.074 A 
ATOM     62  C   UNL A   1      38.113  34.313  34.771  1.00  0.00     0.031 C 
ATOM     63  C   UNL A   1      39.974  33.191  35.965  1.00  0.00     0.037 A 
BRANCH  50  64
ATOM     64  C   UNL A   1      43.927  28.446  35.638  1.00  0.00     0.058 A 
ATOM     65  C   UNL A   1      43.687  27.394  36.537  1.00  0.00     0.135 A 
ATOM     66  C   UNL A   1      45.262  28.738  35.315  1.00  0.00     0.135 A 
ATOM     67  F   UNL A   1      42.430  27.084  36.896  1.00  0.00    -0.206 F 
ATOM     68  C   UNL A   1      44.729  26.673  37.108  1.00  0.00     0.059 A 
ATOM     69  C   UNL A   1      46.320  28.011  35.853  1.00  0.00     0.059 A 
ATOM     70  F   UNL A   1      45.548  29.736  34.464  1.00  0.00    -0.206 F 
ATOM     71  C   UNL A   1      46.043  26.986  36.757  1.00  0.00     0.060 A 
BRANCH  71  72
ATOM     72  S   UNL A   1      47.382  26.027  37.497  1.00  0.00     0.124 S 
ATOM     73  O   UNL A   1      46.990  26.018  38.903  1.00  0.00    -0.237 OA
ATOM     74  O   UNL A   1      47.269  24.750  36.800  1.00  0.00    -0.237 OA
ATOM     75  O   UNL A   1      48.574  26.806  37.185  1.00  0.00    -0.744 OA
ENDBRANCH  71  72
ENDBRANCH  50  64
BRANCH  51  76
ATOM     76  C   UNL A   1      36.457  33.257  31.025  1.00  0.00     0.058 A 
ATOM     77  C   UNL A   1      35.134  33.166  31.484  1.00  0.00     0.135 A 
ATOM     78  C   UNL A   1      36.709  34.080  29.916  1.00  0.00     0.135 A 
ATOM     79  F   UNL A   1      34.842  32.386  32.535  1.00  0.00    -0.206 F 
ATOM     80  C   UNL A   1      34.099  33.857  30.863  1.00  0.00     0.059 A 
ATOM     81  C   UNL A   1      35.693  34.801  29.294  1.00  0.00     0.059 A 
ATOM     82  F   UNL A   1      37.959  34.215  29.448  1.00  0.00    -0.206 F 
ATOM     83  C   UNL A   1      34.390  34.678  29.773  1.00  0.00     0.060 A 
BRANCH  83  84
ATOM     84  S   UNL A   1      33.044  35.613  29.013  1.00  0.00     0.124 S 
ATOM     85  O   UNL A   1      32.448  34.613  28.136  1.00  0.00    -0.237 OA
ATOM     86  O   UNL A   1      32.250  35.999  30.176  1.00  0.00    -0.237 OA
ATOM     87  O   UNL A   1      33.734  36.711  28.343  1.00  0.00    -0.744 OA
ENDBRANCH  83  84
ENDBRANCH  51  76
BRANCH  63  88
ATOM     88  C   UNL A   1      39.846  34.212  37.060  1.00  0.00     0.058 A 
ATOM     89  C   UNL A   1      40.335  35.518  36.904  1.00  0.00     0.135 A 
ATOM     90  C   UNL A   1      39.149  33.909  38.240  1.00  0.00     0.135 A 
ATOM     91  F   UNL A   1      41.014  35.857  35.796  1.00  0.00    -0.206 F 
ATOM     92  C   UNL A   1      40.147  36.485  37.885  1.00  0.00     0.059 A 
ATOM     93  C   UNL A   1      38.925  34.867  39.223  1.00  0.00     0.059 A 
ATOM     94  F   UNL A   1      38.651  32.676  38.434  1.00  0.00    -0.206 F 
ATOM     95  C   UNL A   1      39.433  36.152  39.038  1.00  0.00     0.060 A 
BRANCH  95  96
ATOM     96  S   UNL A   1      39.150  37.436  40.275  1.00  0.00     0.124 S 
ATOM     97  O   UNL A   1      38.549  36.669  41.362  1.00  0.00    -0.237 OA
ATOM     98  O   UNL A   1      40.499  37.934  40.521  1.00  0.00    -0.237 OA
ATOM     99  O   UNL A   1      38.255  38.370  39.600  1.00  0.00    -0.744 OA
ENDBRANCH  95  96
ENDBRANCH  63  88
ENDBRANCH  37  38
ENDBRANCH  29  32
ENDBRANCH  27  28
ENDBRANCH  26  27
ENDBRANCH   1  26
TORSDOF 17
ENDMDL
MODEL 2
REMARK VINA RESULT:     -11.9      6.697     11.634
REMARK SMILES Cc1cc2c(c(C)c1Cl)C=C(C(=O)NCCCCCCNC(=O)c1ccc(-c3c4nc(c(-c5c(F)cc(S(=O)(=O)[O-])cc5F)c5ccc([nH]5)c(-c5c(F)cc(S(=O)(=O)[O-])cc5F)c5nc(c(-c6c(F)cc(S(=O)(=O)[O-])cc6F)c6ccc3[nH]6)C=C5)C=C4)cc1)[C@@H](C(F)(F)F)O2
REMARK SMILES IDX 18 1 17 2 16 3 15 4 14 5 12 6 13 7 11 9 1 10 2 11 3 12 8 13
REMARK SMILES IDX 4 14 6 15 9 16 5 17 95 18 7 19 10 20 90 21 91 22 92 23 93 24
REMARK SMILES IDX 94 25 19 26 20 27 21 28 22 29 23 31 24 32 25 33 89 34 26 35
REMARK SMILES IDX 88 36 27 37 28 38 29 39 82 40 30 41 87 42 81 43 83 44 31 45
REMARK SMILES IDX 86 46 80 47 79 48 32 50 66 51 45 52 65 53 46 54 49 55 64 56
REMARK SMILES IDX 84 57 47 58 48 59 63 61 85 62 50 63 33 64 34 65 43 66 35 67
REMARK SMILES IDX 36 68 42 69 44 70 37 71 38 72 39 73 40 74 41 75 67 76 68 77
REMARK SMILES IDX 77 78 69 79 70 80 76 81 78 82 71 83 72 84 73 85 74 86 75 87
REMARK SMILES IDX 51 88 52 89 61 90 53 91 54 92 60 93 62 94 55 95 56 96 57 97
REMARK SMILES IDX 58 98 59 99
REMARK H PARENT 14 8 21 30 83 49 49 60
REMARK Flexibility Score: inf
ROOT
ATOM      1  C   UNL A   1      36.080  32.803  28.016  1.00  0.00     0.002 C 
ENDROOT
BRANCH   1   2
ATOM      2  C   UNL A   1      34.763  32.023  28.127  1.00  0.00     0.002 C 
BRANCH   2   3
ATOM      3  C   UNL A   1      34.888  30.510  27.930  1.00  0.00     0.021 C 
BRANCH   3   4
ATOM      4  C   UNL A   1      33.904  29.943  26.913  1.00  0.00     0.116 C 
BRANCH   4   5
ATOM      5  N   UNL A   1      32.773  29.303  27.562  1.00  0.00    -0.352 N 
ATOM      6  C   UNL A   1      31.934  28.274  27.300  1.00  0.00     0.251 C 
ATOM      7  O   UNL A   1      31.087  28.052  28.173  1.00  0.00    -0.270 OA
ATOM      8  H   UNL A   1      32.562  29.731  28.422  1.00  0.00     0.163 HD
BRANCH   6   9
ATOM      9  C   UNL A   1      31.966  27.423  26.072  1.00  0.00     0.067 C 
ATOM     10  C   UNL A   1      33.136  23.133  21.317  1.00  0.00     0.046 C 
ATOM     11  C   UNL A   1      33.154  23.981  22.559  1.00  0.00    -0.028 A 
ATOM     12  C   UNL A   1      32.078  24.840  22.788  1.00  0.00     0.052 A 
ATOM     13  C   UNL A   1      34.221  23.968  23.481  1.00  0.00     0.047 A 
ATOM     14  C   UNL A   1      32.057  25.663  23.908  1.00  0.00     0.128 A 
ATOM     15  C   UNL A   1      34.203  24.790  24.636  1.00  0.00    -0.021 A 
ATOM     16  Cl  UNL A   1      35.568  22.914  23.165  1.00  0.00    -0.084 Cl
ATOM     17  C   UNL A   1      33.094  25.646  24.843  1.00  0.00     0.022 A 
ATOM     18  O   UNL A   1      30.941  26.433  24.029  1.00  0.00    -0.475 OA
ATOM     19  C   UNL A   1      35.331  24.780  25.641  1.00  0.00     0.047 C 
ATOM     20  C   UNL A   1      32.951  26.507  26.023  1.00  0.00     0.026 C 
ATOM     21  C   UNL A   1      31.014  27.568  24.923  1.00  0.00     0.314 C 
BRANCH  21  22
ATOM     22  C   UNL A   1      31.257  28.847  24.103  1.00  0.00     0.429 C 
ATOM     23  F   UNL A   1      32.549  29.244  24.211  1.00  0.00    -0.167 F 
ATOM     24  F   UNL A   1      31.020  28.672  22.781  1.00  0.00    -0.167 F 
ATOM     25  F   UNL A   1      30.478  29.875  24.509  1.00  0.00    -0.167 F 
ENDBRANCH  21  22
ENDBRANCH   6   9
ENDBRANCH   4   5
ENDBRANCH   3   4
ENDBRANCH   2   3
ENDBRANCH   1   2
BRANCH   1  26
ATOM     26  C   UNL A   1      36.341  33.808  29.142  1.00  0.00     0.021 C 
BRANCH  26  27
ATOM     27  C   UNL A   1      37.220  33.278  30.269  1.00  0.00     0.116 C 
BRANCH  27  28
ATOM     28  N   UNL A   1      36.572  32.195  30.991  1.00  0.00    -0.352 N 
ATOM     29  C   UNL A   1      36.920  30.870  31.049  1.00  0.00     0.251 C 
ATOM     30  H   UNL A   1      35.775  32.448  31.508  1.00  0.00     0.163 HD
ATOM     31  O   UNL A   1      36.137  30.049  31.519  1.00  0.00    -0.269 OA
BRANCH  29  32
ATOM     32  C   UNL A   1      38.234  30.440  30.534  1.00  0.00     0.039 A 
ATOM     33  C   UNL A   1      38.409  30.295  29.158  1.00  0.00     0.014 A 
ATOM     34  C   UNL A   1      39.291  30.181  31.415  1.00  0.00     0.014 A 
ATOM     35  C   UNL A   1      39.661  29.932  28.658  1.00  0.00     0.010 A 
ATOM     36  C   UNL A   1      40.555  29.891  30.912  1.00  0.00     0.010 A 
ATOM     37  C   UNL A   1      40.748  29.752  29.530  1.00  0.00    -0.014 A 
BRANCH  37  38
ATOM     38  C   UNL A   1      42.089  29.386  29.009  1.00  0.00     0.031 A 
ATOM     39  C   UNL A   1      42.352  27.981  28.542  1.00  0.00     0.074 A 
ATOM     40  C   UNL A   1      43.070  30.309  28.987  1.00  0.00     0.049 A 
ATOM     41  N   UNL A   1      43.459  27.461  28.080  1.00  0.00    -0.248 NA
ATOM     42  C   UNL A   1      41.231  27.031  28.623  1.00  0.00     0.031 C 
ATOM     43  C   UNL A   1      42.938  31.693  29.447  1.00  0.00     0.029 A 
ATOM     44  N   UNL A   1      44.370  30.225  28.557  1.00  0.00    -0.354 N 
ATOM     45  C   UNL A   1      43.168  26.129  27.814  1.00  0.00     0.074 A 
ATOM     46  C   UNL A   1      41.802  25.902  28.229  1.00  0.00     0.031 C 
ATOM     47  C   UNL A   1      44.100  32.337  29.241  1.00  0.00     0.029 A 
ATOM     48  C   UNL A   1      45.067  31.405  28.669  1.00  0.00     0.049 A 
ATOM     49  H   UNL A   1      44.767  29.397  28.201  1.00  0.00     0.167 HD
ATOM     50  C   UNL A   1      43.958  25.189  27.244  1.00  0.00     0.037 A 
ATOM     51  C   UNL A   1      46.341  31.701  28.346  1.00  0.00     0.037 A 
ATOM     52  C   UNL A   1      45.310  25.428  26.815  1.00  0.00     0.049 A 
ATOM     53  C   UNL A   1      47.211  30.630  27.745  1.00  0.00     0.074 A 
ATOM     54  C   UNL A   1      46.182  24.553  26.193  1.00  0.00     0.029 A 
ATOM     55  N   UNL A   1      45.986  26.631  26.962  1.00  0.00    -0.354 N 
ATOM     56  N   UNL A   1      46.904  29.387  27.457  1.00  0.00    -0.248 NA
ATOM     57  C   UNL A   1      48.596  30.997  27.425  1.00  0.00     0.031 C 
ATOM     58  C   UNL A   1      47.400  25.212  26.005  1.00  0.00     0.029 A 
ATOM     59  C   UNL A   1      47.273  26.514  26.464  1.00  0.00     0.049 A 
ATOM     60  H   UNL A   1      45.607  27.447  27.362  1.00  0.00     0.167 HD
ATOM     61  C   UNL A   1      48.052  28.831  26.901  1.00  0.00     0.074 A 
ATOM     62  C   UNL A   1      49.053  29.877  26.882  1.00  0.00     0.031 C 
ATOM     63  C   UNL A   1      48.257  27.568  26.451  1.00  0.00     0.037 A 
BRANCH  50  64
ATOM     64  C   UNL A   1      43.373  23.819  27.033  1.00  0.00     0.058 A 
ATOM     65  C   UNL A   1      43.243  22.907  28.092  1.00  0.00     0.135 A 
ATOM     66  C   UNL A   1      42.895  23.429  25.771  1.00  0.00     0.135 A 
ATOM     67  F   UNL A   1      43.699  23.222  29.315  1.00  0.00    -0.206 F 
ATOM     68  C   UNL A   1      42.679  21.650  27.905  1.00  0.00     0.059 A 
ATOM     69  C   UNL A   1      42.301  22.186  25.567  1.00  0.00     0.059 A 
ATOM     70  F   UNL A   1      42.998  24.260  24.722  1.00  0.00    -0.206 F 
ATOM     71  C   UNL A   1      42.208  21.300  26.639  1.00  0.00     0.060 A 
BRANCH  71  72
ATOM     72  S   UNL A   1      41.465  19.669  26.421  1.00  0.00     0.124 S 
ATOM     73  O   UNL A   1      41.706  19.062  27.726  1.00  0.00    -0.237 OA
ATOM     74  O   UNL A   1      40.074  20.000  26.124  1.00  0.00    -0.237 OA
ATOM     75  O   UNL A   1      42.220  19.094  25.314  1.00  0.00    -0.744 OA
ENDBRANCH  71  72
ENDBRANCH  50  64
BRANCH  51  76
ATOM     76  C   UNL A   1      46.857  33.081  28.553  1.00  0.00     0.058 A 
ATOM     77  C   UNL A   1      47.457  33.449  29.766  1.00  0.00     0.135 A 
ATOM     78  C   UNL A   1      46.788  34.049  27.539  1.00  0.00     0.135 A 
ATOM     79  F   UNL A   1      47.541  32.562  30.769  1.00  0.00    -0.206 F 
ATOM     80  C   UNL A   1      47.964  34.728  29.971  1.00  0.00     0.059 A 
ATOM     81  C   UNL A   1      47.310  35.327  27.710  1.00  0.00     0.059 A 
ATOM     82  F   UNL A   1      46.236  33.743  26.354  1.00  0.00    -0.206 F 
ATOM     83  C   UNL A   1      47.891  35.659  28.933  1.00  0.00     0.060 A 
BRANCH  83  84
ATOM     84  S   UNL A   1      48.605  37.298  29.193  1.00  0.00     0.124 S 
ATOM     85  O   UNL A   1      48.531  37.425  30.643  1.00  0.00    -0.237 OA
ATOM     86  O   UNL A   1      49.943  37.139  28.631  1.00  0.00    -0.237 OA
ATOM     87  O   UNL A   1      47.717  38.175  28.436  1.00  0.00    -0.744 OA
ENDBRANCH  83  84
ENDBRANCH  51  76
BRANCH  63  88
ATOM     88  C   UNL A   1      49.611  27.241  25.885  1.00  0.00     0.058 A 
ATOM     89  C   UNL A   1      50.663  26.813  26.706  1.00  0.00     0.135 A 
ATOM     90  C   UNL A   1      49.829  27.271  24.498  1.00  0.00     0.135 A 
ATOM     91  F   UNL A   1      50.508  26.773  28.040  1.00  0.00    -0.206 F 
ATOM     92  C   UNL A   1      51.892  26.436  26.174  1.00  0.00     0.059 A 
ATOM     93  C   UNL A   1      51.040  26.872  23.941  1.00  0.00     0.059 A 
ATOM     94  F   UNL A   1      48.850  27.663  23.667  1.00  0.00    -0.206 F 
ATOM     95  C   UNL A   1      52.067  26.460  24.790  1.00  0.00     0.060 A 
BRANCH  95  96
ATOM     96  S   UNL A   1      53.649  25.912  24.113  1.00  0.00     0.124 S 
ATOM     97  O   UNL A   1      54.590  26.746  24.854  1.00  0.00    -0.237 OA
ATOM     98  O   UNL A   1      53.656  24.493  24.451  1.00  0.00    -0.237 OA
ATOM     99  O   UNL A   1      53.534  26.212  22.689  1.00  0.00    -0.744 OA
ENDBRANCH  95  96
ENDBRANCH  63  88
ENDBRANCH  37  38
ENDBRANCH  29  32
ENDBRANCH  27  28
ENDBRANCH  26  27
ENDBRANCH   1  26
TORSDOF 17
ENDMDL
MODEL 3
REMARK VINA RESULT:     -11.8      6.640     12.047
REMARK SMILES Cc1cc2c(c(C)c1Cl)C=C(C(=O)NCCCCCCNC(=O)c1ccc(-c3c4nc(c(-c5c(F)cc(S(=O)(=O)[O-])cc5F)c5ccc([nH]5)c(-c5c(F)cc(S(=O)(=O)[O-])cc5F)c5nc(c(-c6c(F)cc(S(=O)(=O)[O-])cc6F)c6ccc3[nH]6)C=C5)C=C4)cc1)[C@@H](C(F)(F)F)O2
REMARK SMILES IDX 18 1 17 2 16 3 15 4 14 5 12 6 13 7 11 9 1 10 2 11 3 12 8 13
REMARK SMILES IDX 4 14 6 15 9 16 5 17 95 18 7 19 10 20 90 21 91 22 92 23 93 24
REMARK SMILES IDX 94 25 19 26 20 27 21 28 22 29 23 31 24 32 25 33 89 34 26 35
REMARK SMILES IDX 88 36 27 37 28 38 29 39 82 40 30 41 87 42 81 43 83 44 31 45
REMARK SMILES IDX 86 46 80 47 79 48 32 50 66 51 45 52 65 53 46 54 49 55 64 56
REMARK SMILES IDX 84 57 47 58 48 59 63 61 85 62 50 63 33 64 34 65 43 66 35 67
REMARK SMILES IDX 36 68 42 69 44 70 37 71 38 72 39 73 40 74 41 75 67 76 68 77
REMARK SMILES IDX 77 78 69 79 70 80 76 81 78 82 71 83 72 84 73 85 74 86 75 87
REMARK SMILES IDX 51 88 52 89 61 90 53 91 54 92 60 93 62 94 55 95 56 96 57 97
REMARK SMILES IDX 58 98 59 99
REMARK H PARENT 14 8 21 30 83 49 49 60
REMARK Flexibility Score: inf
ROOT
ATOM      1  C   UNL A   1      34.377  32.485  28.398  1.00  0.00     0.002 C 
ENDROOT
BRANCH   1   2
ATOM      2  C   UNL A   1      34.005  31.205  27.638  1.00  0.00     0.002 C 
BRANCH   2   3
ATOM      3  C   UNL A   1      32.699  31.282  26.841  1.00  0.00     0.021 C 
BRANCH   3   4
ATOM      4  C   UNL A   1      32.303  29.962  26.190  1.00  0.00     0.116 C 
BRANCH   4   5
ATOM      5  N   UNL A   1      31.259  30.147  25.197  1.00  0.00    -0.352 N 
ATOM      6  C   UNL A   1      30.742  29.447  24.160  1.00  0.00     0.251 C 
ATOM      7  O   UNL A   1      29.808  29.999  23.568  1.00  0.00    -0.270 OA
ATOM      8  H   UNL A   1      30.806  31.014  25.308  1.00  0.00     0.163 HD
BRANCH   6   9
ATOM      9  C   UNL A   1      31.211  28.103  23.707  1.00  0.00     0.067 C 
ATOM     10  C   UNL A   1      32.522  21.799  22.740  1.00  0.00     0.046 C 
ATOM     11  C   UNL A   1      32.045  23.133  23.245  1.00  0.00    -0.028 A 
ATOM     12  C   UNL A   1      32.282  24.260  22.457  1.00  0.00     0.052 A 
ATOM     13  C   UNL A   1      31.400  23.298  24.488  1.00  0.00     0.047 A 
ATOM     14  C   UNL A   1      31.884  25.520  22.888  1.00  0.00     0.128 A 
ATOM     15  C   UNL A   1      30.973  24.575  24.931  1.00  0.00    -0.021 A 
ATOM     16  Cl  UNL A   1      31.139  21.886  25.471  1.00  0.00    -0.084 Cl
ATOM     17  C   UNL A   1      31.222  25.698  24.105  1.00  0.00     0.022 A 
ATOM     18  O   UNL A   1      32.150  26.532  22.016  1.00  0.00    -0.475 OA
ATOM     19  C   UNL A   1      30.268  24.767  26.253  1.00  0.00     0.047 C 
ATOM     20  C   UNL A   1      30.789  27.058  24.444  1.00  0.00     0.026 C 
ATOM     21  C   UNL A   1      32.126  27.880  22.541  1.00  0.00     0.314 C 
BRANCH  21  22
ATOM     22  C   UNL A   1      33.568  28.344  22.815  1.00  0.00     0.429 C 
ATOM     23  F   UNL A   1      34.071  27.717  23.906  1.00  0.00    -0.167 F 
ATOM     24  F   UNL A   1      34.409  28.066  21.791  1.00  0.00    -0.167 F 
ATOM     25  F   UNL A   1      33.646  29.676  23.036  1.00  0.00    -0.167 F 
ENDBRANCH  21  22
ENDBRANCH   6   9
ENDBRANCH   4   5
ENDBRANCH   3   4
ENDBRANCH   2   3
ENDBRANCH   1   2
BRANCH   1  26
ATOM     26  C   UNL A   1      35.785  33.022  28.124  1.00  0.00     0.021 C 
BRANCH  26  27
ATOM     27  C   UNL A   1      36.741  32.919  29.307  1.00  0.00     0.116 C 
BRANCH  27  28
ATOM     28  N   UNL A   1      36.223  32.039  30.341  1.00  0.00    -0.352 N 
ATOM     29  C   UNL A   1      36.659  30.793  30.710  1.00  0.00     0.251 C 
ATOM     30  H   UNL A   1      35.452  32.384  30.845  1.00  0.00     0.163 HD
ATOM     31  O   UNL A   1      35.970  30.092  31.446  1.00  0.00    -0.269 OA
BRANCH  29  32
ATOM     32  C   UNL A   1      37.956  30.299  30.207  1.00  0.00     0.039 A 
ATOM     33  C   UNL A   1      38.127  30.117  28.834  1.00  0.00     0.014 A 
ATOM     34  C   UNL A   1      39.001  30.017  31.094  1.00  0.00     0.014 A 
ATOM     35  C   UNL A   1      39.363  29.693  28.345  1.00  0.00     0.010 A 
ATOM     36  C   UNL A   1      40.252  29.666  30.600  1.00  0.00     0.010 A 
ATOM     37  C   UNL A   1      40.442  29.488  29.222  1.00  0.00    -0.014 A 
BRANCH  37  38
ATOM     38  C   UNL A   1      41.767  29.058  28.712  1.00  0.00     0.031 A 
ATOM     39  C   UNL A   1      42.891  30.052  28.618  1.00  0.00     0.074 A 
ATOM     40  C   UNL A   1      41.945  27.785  28.310  1.00  0.00     0.049 A 
ATOM     41  N   UNL A   1      44.109  29.878  28.177  1.00  0.00    -0.248 NA
ATOM     42  C   UNL A   1      42.604  31.427  29.057  1.00  0.00     0.031 C 
ATOM     43  C   UNL A   1      40.916  26.742  28.324  1.00  0.00     0.029 A 
ATOM     44  N   UNL A   1      43.055  27.148  27.814  1.00  0.00    -0.354 N 
ATOM     45  C   UNL A   1      44.732  31.115  28.287  1.00  0.00     0.074 A 
ATOM     46  C   UNL A   1      43.739  32.048  28.772  1.00  0.00     0.031 C 
ATOM     47  C   UNL A   1      41.453  25.589  27.892  1.00  0.00     0.029 A 
ATOM     48  C   UNL A   1      42.851  25.817  27.537  1.00  0.00     0.049 A 
ATOM     49  H   UNL A   1      43.916  27.602  27.669  1.00  0.00     0.167 HD
ATOM     50  C   UNL A   1      46.023  31.437  28.040  1.00  0.00     0.037 A 
ATOM     51  C   UNL A   1      43.696  24.885  27.054  1.00  0.00     0.037 A 
ATOM     52  C   UNL A   1      47.010  30.498  27.577  1.00  0.00     0.049 A 
ATOM     53  C   UNL A   1      45.118  25.275  26.753  1.00  0.00     0.074 A 
ATOM     54  C   UNL A   1      48.354  30.715  27.331  1.00  0.00     0.029 A 
ATOM     55  N   UNL A   1      46.761  29.163  27.292  1.00  0.00    -0.354 N 
ATOM     56  N   UNL A   1      45.703  26.440  26.909  1.00  0.00    -0.248 NA
ATOM     57  C   UNL A   1      45.997  24.229  26.214  1.00  0.00     0.031 C 
ATOM     58  C   UNL A   1      48.907  29.523  26.853  1.00  0.00     0.029 A 
ATOM     59  C   UNL A   1      47.920  28.550  26.849  1.00  0.00     0.049 A 
ATOM     60  H   UNL A   1      45.887  28.718  27.389  1.00  0.00     0.167 HD
ATOM     61  C   UNL A   1      47.022  26.260  26.507  1.00  0.00     0.074 A 
ATOM     62  C   UNL A   1      47.152  24.873  26.114  1.00  0.00     0.031 C 
ATOM     63  C   UNL A   1      48.032  27.164  26.464  1.00  0.00     0.037 A 
BRANCH  50  64
ATOM     64  C   UNL A   1      46.448  32.859  28.283  1.00  0.00     0.058 A 
ATOM     65  C   UNL A   1      46.949  33.270  29.529  1.00  0.00     0.135 A 
ATOM     66  C   UNL A   1      46.401  33.810  27.251  1.00  0.00     0.135 A 
ATOM     67  F   UNL A   1      47.000  32.407  30.556  1.00  0.00    -0.206 F 
ATOM     68  C   UNL A   1      47.366  34.578  29.749  1.00  0.00     0.059 A 
ATOM     69  C   UNL A   1      46.840  35.117  27.441  1.00  0.00     0.059 A 
ATOM     70  F   UNL A   1      45.927  33.471  26.041  1.00  0.00    -0.206 F 
ATOM     71  C   UNL A   1      47.312  35.493  28.698  1.00  0.00     0.060 A 
BRANCH  71  72
ATOM     72  S   UNL A   1      47.875  37.182  29.001  1.00  0.00     0.124 S 
ATOM     73  O   UNL A   1      47.278  37.894  27.875  1.00  0.00    -0.237 OA
ATOM     74  O   UNL A   1      47.297  37.471  30.310  1.00  0.00    -0.237 OA
ATOM     75  O   UNL A   1      49.329  37.069  28.970  1.00  0.00    -0.744 OA
ENDBRANCH  71  72
ENDBRANCH  50  64
BRANCH  51  76
ATOM     76  C   UNL A   1      43.226  23.487  26.858  1.00  0.00     0.058 A 
ATOM     77  C   UNL A   1      42.968  22.990  25.573  1.00  0.00     0.135 A 
ATOM     78  C   UNL A   1      43.053  22.614  27.944  1.00  0.00     0.135 A 
ATOM     79  F   UNL A   1      43.111  23.787  24.504  1.00  0.00    -0.206 F 
ATOM     80  C   UNL A   1      42.549  21.679  25.369  1.00  0.00     0.059 A 
ATOM     81  C   UNL A   1      42.658  21.292  27.763  1.00  0.00     0.059 A 
ATOM     82  F   UNL A   1      43.301  23.037  29.194  1.00  0.00    -0.206 F 
ATOM     83  C   UNL A   1      42.403  20.836  26.471  1.00  0.00     0.060 A 
BRANCH  83  84
ATOM     84  S   UNL A   1      41.913  19.120  26.186  1.00  0.00     0.124 S 
ATOM     85  O   UNL A   1      40.482  19.259  25.944  1.00  0.00    -0.237 OA
ATOM     86  O   UNL A   1      42.727  18.761  25.029  1.00  0.00    -0.237 OA
ATOM     87  O   UNL A   1      42.281  18.455  27.433  1.00  0.00    -0.744 OA
ENDBRANCH  83  84
ENDBRANCH  51  76
BRANCH  63  88
ATOM     88  C   UNL A   1      49.376  26.686  25.989  1.00  0.00     0.058 A 
ATOM     89  C   UNL A   1      49.804  26.899  24.671  1.00  0.00     0.135 A 
ATOM     90  C   UNL A   1      50.278  26.090  26.884  1.00  0.00     0.135 A 
ATOM     91  F   UNL A   1      48.977  27.459  23.773  1.00  0.00    -0.206 F 
ATOM     92  C   UNL A   1      51.077  26.527  24.252  1.00  0.00     0.059 A 
ATOM     93  C   UNL A   1      51.566  25.735  26.496  1.00  0.00     0.059 A 
ATOM     94  F   UNL A   1      49.921  25.874  28.161  1.00  0.00    -0.206 F 
ATOM     95  C   UNL A   1      51.954  25.953  25.175  1.00  0.00     0.060 A 
BRANCH  95  96
ATOM     96  S   UNL A   1      53.622  25.529  24.629  1.00  0.00     0.124 S 
ATOM     97  O   UNL A   1      53.616  26.026  23.256  1.00  0.00    -0.237 OA
ATOM     98  O   UNL A   1      54.454  26.273  25.568  1.00  0.00    -0.237 OA
ATOM     99  O   UNL A   1      53.669  24.078  24.770  1.00  0.00    -0.744 OA
ENDBRANCH  95  96
ENDBRANCH  63  88
ENDBRANCH  37  38
ENDBRANCH  29  32
ENDBRANCH  27  28
ENDBRANCH  26  27
ENDBRANCH   1  26
TORSDOF 17
ENDMDL
