MODEL 1
REMARK VINA RESULT:     -14.8      0.000      0.000
REMARK SMILES Cc1ccc([C@@H](C)Nc2ccc(N)cc2C(=O)NCCCCCCNC(=O)c2ccc(-c3c4nc(c(-c5c(F)cc(S(=O)(=O)[O-])cc5F)c5ccc([nH]5)c(-c5c(F)cc(S(=O)(=O)[O-])cc5F)c5nc(c(-c6c(F)cc(S(=O)(=O)[O-])cc6F)c6ccc3[nH]6)C=C5)C=C4)cc2)cc1F
REMARK SMILES IDX 21 1 20 2 19 3 18 4 16 5 17 6 15 8 9 9 10 10 11 11 14 12
REMARK SMILES IDX 12 13 8 14 6 16 7 17 5 18 1 19 2 20 3 21 95 22 4 23 94 24
REMARK SMILES IDX 96 25 13 26 22 29 23 30 24 31 25 32 26 33 27 35 28 36 29 37
REMARK SMILES IDX 93 38 30 39 92 40 31 41 32 42 33 43 86 44 34 45 91 46 85 47
REMARK SMILES IDX 87 48 35 49 90 50 84 51 83 52 36 54 70 55 49 56 69 57 50 58
REMARK SMILES IDX 53 59 68 60 88 61 51 62 52 63 67 65 89 66 54 67 37 68 38 69
REMARK SMILES IDX 47 70 39 71 40 72 46 73 48 74 41 75 42 76 43 77 44 78 45 79
REMARK SMILES IDX 71 80 72 81 81 82 73 83 74 84 80 85 82 86 75 87 76 88 77 89
REMARK SMILES IDX 78 90 79 91 55 92 56 93 65 94 57 95 58 96 64 97 66 98 59 99
REMARK SMILES IDX 60 100 61 101 62 102 63 103
REMARK H PARENT 18 7 8 15 13 27 13 28 25 34 87 53 53 64
REMARK Flexibility Score: inf
ROOT
ATOM      1  C   UNL A   1      31.385  28.593  25.960  1.00  0.00     0.002 C 
ENDROOT
BRANCH   1   2
ATOM      2  C   UNL A   1      31.200  26.417  26.208  1.00  0.00     0.021 C 
BRANCH   2   3
ATOM      3  C   UNL A   1      32.205  25.014  26.089  1.00  0.00     0.116 C 
BRANCH   3   4
ATOM      4  N   UNL A   1      32.152  23.954  27.088  1.00  0.00    -0.352 N 
ATOM      5  C   UNL A   1      32.960  22.857  27.274  1.00  0.00     0.253 C 
ATOM      6  O   UNL A   1      32.824  22.167  28.284  1.00  0.00    -0.269 OA
ATOM      7  H   UNL A   1      31.416  24.036  27.737  1.00  0.00     0.163 HD
BRANCH   5   8
ATOM      8  C   UNL A   1      33.866  22.410  26.195  1.00  0.00     0.065 A 
ATOM      9  C   UNL A   1      33.500  21.571  25.138  1.00  0.00     0.048 A 
ATOM     10  C   UNL A   1      34.547  20.773  24.632  1.00  0.00     0.028 A 
ATOM     11  C   UNL A   1      35.884  20.928  25.043  1.00  0.00     0.027 A 
ATOM     12  C   UNL A   1      35.222  22.683  26.488  1.00  0.00     0.041 A 
ATOM     13  C   UNL A   1      36.248  21.964  25.892  1.00  0.00     0.032 A 
BRANCH   9  14
ATOM     14  N   UNL A   1      32.250  21.435  24.556  1.00  0.00    -0.378 N 
ATOM     15  H   UNL A   1      31.611  20.919  25.100  1.00  0.00     0.161 HD
BRANCH  14  16
ATOM     16  C   UNL A   1      31.694  21.912  23.277  1.00  0.00     0.106 C 
ATOM     17  C   UNL A   1      32.004  21.016  22.085  1.00  0.00     0.036 C 
BRANCH  16  18
ATOM     18  C   UNL A   1      31.811  23.428  23.151  1.00  0.00    -0.023 A 
ATOM     19  C   UNL A   1      32.658  28.430  22.451  1.00  0.00     0.047 C 
ATOM     20  C   UNL A   1      32.375  26.971  22.602  1.00  0.00    -0.015 A 
ATOM     21  C   UNL A   1      33.763  25.822  22.578  1.00  0.00     0.007 A 
ATOM     22  C   UNL A   1      30.708  26.360  22.916  1.00  0.00     0.126 A 
ATOM     23  C   UNL A   1      33.477  24.060  22.833  1.00  0.00     0.006 A 
ATOM     24  C   UNL A   1      30.425  24.595  23.218  1.00  0.00     0.045 A 
ATOM     25  F   UNL A   1      29.669  27.203  22.882  1.00  0.00    -0.207 F 
ENDBRANCH  16  18
ENDBRANCH  14  16
ENDBRANCH   9  14
BRANCH  13  26
ATOM     26  N   UNL A   1      37.561  22.148  26.293  1.00  0.00    -0.399 N 
ATOM     27  H   UNL A   1      37.828  22.984  26.739  1.00  0.00     0.156 HD
ATOM     28  H   UNL A   1      38.228  21.441  26.132  1.00  0.00     0.156 HD
ENDBRANCH  13  26
ENDBRANCH   5   8
ENDBRANCH   3   4
ENDBRANCH   2   3
ENDBRANCH   1   2
BRANCH   1  29
ATOM     29  C   UNL A   1      32.524  29.841  26.243  1.00  0.00     0.002 C 
BRANCH  29  30
ATOM     30  C   UNL A   1      33.536  29.925  27.402  1.00  0.00     0.021 C 
BRANCH  30  31
ATOM     31  C   UNL A   1      34.995  29.601  27.143  1.00  0.00     0.116 C 
BRANCH  31  32
ATOM     32  N   UNL A   1      35.945  30.612  27.567  1.00  0.00    -0.352 N 
ATOM     33  C   UNL A   1      36.557  30.376  28.796  1.00  0.00     0.251 C 
ATOM     34  H   UNL A   1      36.143  31.409  27.023  1.00  0.00     0.163 HD
ATOM     35  O   UNL A   1      36.006  30.596  29.868  1.00  0.00    -0.269 OA
BRANCH  33  36
ATOM     36  C   UNL A   1      37.775  29.524  28.711  1.00  0.00     0.039 A 
ATOM     37  C   UNL A   1      38.666  29.638  27.634  1.00  0.00     0.014 A 
ATOM     38  C   UNL A   1      38.101  28.744  29.826  1.00  0.00     0.014 A 
ATOM     39  C   UNL A   1      39.881  28.962  27.675  1.00  0.00     0.010 A 
ATOM     40  C   UNL A   1      39.326  28.171  29.918  1.00  0.00     0.010 A 
ATOM     41  C   UNL A   1      40.182  28.236  28.824  1.00  0.00    -0.014 A 
BRANCH  41  42
ATOM     42  C   UNL A   1      41.421  27.541  29.079  1.00  0.00     0.031 A 
ATOM     43  C   UNL A   1      41.488  26.143  28.643  1.00  0.00     0.074 A 
ATOM     44  C   UNL A   1      42.433  28.353  29.455  1.00  0.00     0.049 A 
ATOM     45  N   UNL A   1      42.250  25.258  29.165  1.00  0.00    -0.248 NA
ATOM     46  C   UNL A   1      40.616  25.590  27.599  1.00  0.00     0.031 C 
ATOM     47  C   UNL A   1      43.872  28.184  29.456  1.00  0.00     0.029 A 
ATOM     48  N   UNL A   1      42.256  29.591  30.083  1.00  0.00    -0.354 N 
ATOM     49  C   UNL A   1      42.291  24.207  28.269  1.00  0.00     0.074 A 
ATOM     50  C   UNL A   1      41.108  24.352  27.464  1.00  0.00     0.031 C 
ATOM     51  C   UNL A   1      44.404  29.069  30.329  1.00  0.00     0.029 A 
ATOM     52  C   UNL A   1      43.303  29.752  30.997  1.00  0.00     0.049 A 
ATOM     53  H   UNL A   1      41.528  30.231  29.913  1.00  0.00     0.167 HD
ATOM     54  C   UNL A   1      43.457  23.507  28.164  1.00  0.00     0.037 A 
ATOM     55  C   UNL A   1      42.968  29.637  32.322  1.00  0.00     0.037 A 
ATOM     56  C   UNL A   1      44.443  24.105  29.073  1.00  0.00     0.049 A 
ATOM     57  C   UNL A   1      43.416  28.313  32.908  1.00  0.00     0.074 A 
ATOM     58  C   UNL A   1      45.448  25.040  28.901  1.00  0.00     0.029 A 
ATOM     59  N   UNL A   1      44.197  24.061  30.428  1.00  0.00    -0.354 N 
ATOM     60  N   UNL A   1      43.848  27.302  32.202  1.00  0.00    -0.248 NA
ATOM     61  C   UNL A   1      43.402  28.020  34.337  1.00  0.00     0.031 C 
ATOM     62  C   UNL A   1      45.772  25.576  30.185  1.00  0.00     0.029 A 
ATOM     63  C   UNL A   1      44.959  24.971  31.127  1.00  0.00     0.049 A 
ATOM     64  H   UNL A   1      43.550  23.448  30.847  1.00  0.00     0.167 HD
ATOM     65  C   UNL A   1      44.187  26.263  33.022  1.00  0.00     0.074 A 
ATOM     66  C   UNL A   1      43.838  26.748  34.351  1.00  0.00     0.031 C 
ATOM     67  C   UNL A   1      44.732  25.096  32.560  1.00  0.00     0.037 A 
BRANCH  54  68
ATOM     68  C   UNL A   1      43.848  22.495  27.107  1.00  0.00     0.058 A 
ATOM     69  C   UNL A   1      43.057  21.334  26.944  1.00  0.00     0.135 A 
ATOM     70  C   UNL A   1      44.938  22.587  26.217  1.00  0.00     0.135 A 
ATOM     71  F   UNL A   1      41.957  21.120  27.680  1.00  0.00    -0.206 F 
ATOM     72  C   UNL A   1      43.339  20.335  26.018  1.00  0.00     0.059 A 
ATOM     73  C   UNL A   1      45.253  21.584  25.286  1.00  0.00     0.059 A 
ATOM     74  F   UNL A   1      45.728  23.666  26.172  1.00  0.00    -0.206 F 
ATOM     75  C   UNL A   1      44.443  20.463  25.192  1.00  0.00     0.060 A 
BRANCH  75  76
ATOM     76  S   UNL A   1      44.751  19.162  23.986  1.00  0.00     0.124 S 
ATOM     77  O   UNL A   1      43.777  18.148  24.378  1.00  0.00    -0.237 OA
ATOM     78  O   UNL A   1      44.483  19.846  22.725  1.00  0.00    -0.237 OA
ATOM     79  O   UNL A   1      46.148  18.805  24.218  1.00  0.00    -0.744 OA
ENDBRANCH  75  76
ENDBRANCH  54  68
BRANCH  55  80
ATOM     80  C   UNL A   1      41.662  30.340  32.605  1.00  0.00     0.058 A 
ATOM     81  C   UNL A   1      40.559  29.515  32.923  1.00  0.00     0.135 A 
ATOM     82  C   UNL A   1      41.639  31.651  33.109  1.00  0.00     0.135 A 
ATOM     83  F   UNL A   1      40.498  28.264  32.436  1.00  0.00    -0.206 F 
ATOM     84  C   UNL A   1      39.615  29.883  33.879  1.00  0.00     0.059 A 
ATOM     85  C   UNL A   1      40.684  32.048  34.053  1.00  0.00     0.059 A 
ATOM     86  F   UNL A   1      42.635  32.502  32.821  1.00  0.00    -0.206 F 
ATOM     87  C   UNL A   1      39.737  31.123  34.499  1.00  0.00     0.060 A 
BRANCH  87  88
ATOM     88  S   UNL A   1      38.735  31.437  35.975  1.00  0.00     0.124 S 
ATOM     89  O   UNL A   1      38.719  30.129  36.622  1.00  0.00    -0.237 OA
ATOM     90  O   UNL A   1      39.515  32.465  36.664  1.00  0.00    -0.237 OA
ATOM     91  O   UNL A   1      37.458  31.876  35.426  1.00  0.00    -0.744 OA
ENDBRANCH  87  88
ENDBRANCH  55  80
BRANCH  67  92
ATOM     92  C   UNL A   1      45.074  23.937  33.458  1.00  0.00     0.058 A 
ATOM     93  C   UNL A   1      44.095  23.062  33.949  1.00  0.00     0.135 A 
ATOM     94  C   UNL A   1      46.393  23.696  33.914  1.00  0.00     0.135 A 
ATOM     95  F   UNL A   1      42.791  23.290  33.728  1.00  0.00    -0.206 F 
ATOM     96  C   UNL A   1      44.422  21.933  34.694  1.00  0.00     0.059 A 
ATOM     97  C   UNL A   1      46.730  22.623  34.723  1.00  0.00     0.059 A 
ATOM     98  F   UNL A   1      47.432  24.465  33.567  1.00  0.00    -0.206 F 
ATOM     99  C   UNL A   1      45.747  21.712  35.058  1.00  0.00     0.060 A 
BRANCH  99 100
ATOM    100  S   UNL A   1      46.178  20.233  35.978  1.00  0.00     0.124 S 
ATOM    101  O   UNL A   1      45.603  20.506  37.291  1.00  0.00    -0.237 OA
ATOM    102  O   UNL A   1      45.506  19.202  35.192  1.00  0.00    -0.237 OA
ATOM    103  O   UNL A   1      47.636  20.211  35.927  1.00  0.00    -0.744 OA
ENDBRANCH  99 100
ENDBRANCH  67  92
ENDBRANCH  41  42
ENDBRANCH  33  36
ENDBRANCH  31  32
ENDBRANCH  30  31
ENDBRANCH  29  30
ENDBRANCH   1  29
TORSDOF 20
ENDMDL
MODEL 2
REMARK VINA RESULT:     -14.8      5.016     11.372
REMARK SMILES Cc1ccc([C@@H](C)Nc2ccc(N)cc2C(=O)NCCCCCCNC(=O)c2ccc(-c3c4nc(c(-c5c(F)cc(S(=O)(=O)[O-])cc5F)c5ccc([nH]5)c(-c5c(F)cc(S(=O)(=O)[O-])cc5F)c5nc(c(-c6c(F)cc(S(=O)(=O)[O-])cc6F)c6ccc3[nH]6)C=C5)C=C4)cc2)cc1F
REMARK SMILES IDX 21 1 20 2 19 3 18 4 16 5 17 6 15 8 9 9 10 10 11 11 14 12
REMARK SMILES IDX 12 13 8 14 6 16 7 17 5 18 1 19 2 20 3 21 95 22 4 23 94 24
REMARK SMILES IDX 96 25 13 26 22 29 23 30 24 31 25 32 26 33 27 35 28 36 29 37
REMARK SMILES IDX 93 38 30 39 92 40 31 41 32 42 33 43 86 44 34 45 91 46 85 47
REMARK SMILES IDX 87 48 35 49 90 50 84 51 83 52 36 54 70 55 49 56 69 57 50 58
REMARK SMILES IDX 53 59 68 60 88 61 51 62 52 63 67 65 89 66 54 67 37 68 38 69
REMARK SMILES IDX 47 70 39 71 40 72 46 73 48 74 41 75 42 76 43 77 44 78 45 79
REMARK SMILES IDX 71 80 72 81 81 82 73 83 74 84 80 85 82 86 75 87 76 88 77 89
REMARK SMILES IDX 78 90 79 91 55 92 56 93 65 94 57 95 58 96 64 97 66 98 59 99
REMARK SMILES IDX 60 100 61 101 62 102 63 103
REMARK H PARENT 18 7 8 15 13 27 13 28 25 34 87 53 53 64
REMARK Flexibility Score: inf
ROOT
ATOM      1  C   UNL A   1      35.123  23.160  23.525  1.00  0.00     0.002 C 
ENDROOT
BRANCH   1   2
ATOM      2  C   UNL A   1      33.796  24.595  22.520  1.00  0.00     0.021 C 
BRANCH   2   3
ATOM      3  C   UNL A   1      33.271  26.230  22.724  1.00  0.00     0.116 C 
BRANCH   3   4
ATOM      4  N   UNL A   1      31.856  26.581  22.721  1.00  0.00    -0.352 N 
ATOM      5  C   UNL A   1      31.131  27.389  23.564  1.00  0.00     0.253 C 
ATOM      6  O   UNL A   1      29.966  27.670  23.284  1.00  0.00    -0.269 OA
ATOM      7  H   UNL A   1      31.332  26.171  21.995  1.00  0.00     0.163 HD
BRANCH   5   8
ATOM      8  C   UNL A   1      31.685  27.778  24.878  1.00  0.00     0.065 A 
ATOM      9  C   UNL A   1      31.786  26.932  25.987  1.00  0.00     0.048 A 
ATOM     10  C   UNL A   1      31.710  27.587  27.233  1.00  0.00     0.028 A 
ATOM     11  C   UNL A   1      31.701  28.990  27.354  1.00  0.00     0.027 A 
ATOM     12  C   UNL A   1      31.844  29.178  24.998  1.00  0.00     0.041 A 
ATOM     13  C   UNL A   1      31.884  29.796  26.239  1.00  0.00     0.032 A 
BRANCH   9  14
ATOM     14  N   UNL A   1      31.938  25.555  25.993  1.00  0.00    -0.378 N 
ATOM     15  H   UNL A   1      32.845  25.255  26.233  1.00  0.00     0.161 HD
BRANCH  14  16
ATOM     16  C   UNL A   1      31.001  24.453  25.708  1.00  0.00     0.106 C 
ATOM     17  C   UNL A   1      29.803  24.390  26.648  1.00  0.00     0.036 C 
BRANCH  16  18
ATOM     18  C   UNL A   1      31.744  23.178  25.322  1.00  0.00    -0.023 A 
ATOM     19  C   UNL A   1      34.319  18.818  24.550  1.00  0.00     0.047 C 
ATOM     20  C   UNL A   1      33.513  20.056  24.776  1.00  0.00    -0.015 A 
ATOM     21  C   UNL A   1      33.821  21.019  26.268  1.00  0.00     0.007 A 
ATOM     22  C   UNL A   1      32.337  20.655  23.547  1.00  0.00     0.126 A 
ATOM     23  C   UNL A   1      32.927  22.561  26.545  1.00  0.00     0.006 A 
ATOM     24  C   UNL A   1      31.471  22.227  23.802  1.00  0.00     0.045 A 
ATOM     25  F   UNL A   1      32.068  19.916  22.464  1.00  0.00    -0.207 F 
ENDBRANCH  16  18
ENDBRANCH  14  16
ENDBRANCH   9  14
BRANCH  13  26
ATOM     26  N   UNL A   1      31.899  31.178  26.336  1.00  0.00    -0.399 N 
ATOM     27  H   UNL A   1      32.468  31.709  25.733  1.00  0.00     0.156 HD
ATOM     28  H   UNL A   1      31.341  31.630  27.011  1.00  0.00     0.156 HD
ENDBRANCH  13  26
ENDBRANCH   5   8
ENDBRANCH   3   4
ENDBRANCH   2   3
ENDBRANCH   1   2
BRANCH   1  29
ATOM     29  C   UNL A   1      36.790  22.943  23.857  1.00  0.00     0.002 C 
BRANCH  29  30
ATOM     30  C   UNL A   1      37.440  22.743  25.239  1.00  0.00     0.021 C 
BRANCH  30  31
ATOM     31  C   UNL A   1      37.788  23.954  26.083  1.00  0.00     0.116 C 
BRANCH  31  32
ATOM     32  N   UNL A   1      38.867  23.765  27.033  1.00  0.00    -0.352 N 
ATOM     33  C   UNL A   1      39.939  24.645  26.900  1.00  0.00     0.251 C 
ATOM     34  H   UNL A   1      38.843  23.065  27.725  1.00  0.00     0.163 HD
ATOM     35  O   UNL A   1      40.808  24.511  26.046  1.00  0.00    -0.269 OA
BRANCH  33  36
ATOM     36  C   UNL A   1      39.761  25.930  27.629  1.00  0.00     0.039 A 
ATOM     37  C   UNL A   1      39.310  25.954  28.957  1.00  0.00     0.014 A 
ATOM     38  C   UNL A   1      40.234  27.096  27.017  1.00  0.00     0.014 A 
ATOM     39  C   UNL A   1      39.328  27.151  29.666  1.00  0.00     0.010 A 
ATOM     40  C   UNL A   1      40.355  28.239  27.736  1.00  0.00     0.010 A 
ATOM     41  C   UNL A   1      39.852  28.274  29.031  1.00  0.00    -0.014 A 
BRANCH  41  42
ATOM     42  C   UNL A   1      40.025  29.574  29.632  1.00  0.00     0.031 A 
ATOM     43  C   UNL A   1      38.920  30.523  29.469  1.00  0.00     0.074 A 
ATOM     44  C   UNL A   1      41.077  29.647  30.478  1.00  0.00     0.049 A 
ATOM     45  N   UNL A   1      39.050  31.795  29.493  1.00  0.00    -0.248 NA
ATOM     46  C   UNL A   1      37.545  30.103  29.176  1.00  0.00     0.031 C 
ATOM     47  C   UNL A   1      41.413  30.572  31.542  1.00  0.00     0.029 A 
ATOM     48  N   UNL A   1      42.206  28.824  30.401  1.00  0.00    -0.354 N 
ATOM     49  C   UNL A   1      37.780  32.309  29.670  1.00  0.00     0.074 A 
ATOM     50  C   UNL A   1      36.888  31.269  29.231  1.00  0.00     0.031 C 
ATOM     51  C   UNL A   1      42.743  30.493  31.770  1.00  0.00     0.029 A 
ATOM     52  C   UNL A   1      43.313  29.594  30.773  1.00  0.00     0.049 A 
ATOM     53  H   UNL A   1      42.219  27.877  30.133  1.00  0.00     0.167 HD
ATOM     54  C   UNL A   1      37.653  33.450  30.407  1.00  0.00     0.037 A 
ATOM     55  C   UNL A   1      44.166  29.950  29.760  1.00  0.00     0.037 A 
ATOM     56  C   UNL A   1      38.984  33.853  30.875  1.00  0.00     0.049 A 
ATOM     57  C   UNL A   1      44.003  31.404  29.364  1.00  0.00     0.074 A 
ATOM     58  C   UNL A   1      39.681  33.640  32.051  1.00  0.00     0.029 A 
ATOM     59  N   UNL A   1      39.927  34.215  29.938  1.00  0.00    -0.354 N 
ATOM     60  N   UNL A   1      43.018  32.169  29.756  1.00  0.00    -0.248 NA
ATOM     61  C   UNL A   1      44.932  32.108  28.488  1.00  0.00     0.031 C 
ATOM     62  C   UNL A   1      41.068  33.853  31.783  1.00  0.00     0.029 A 
ATOM     63  C   UNL A   1      41.207  34.185  30.447  1.00  0.00     0.049 A 
ATOM     64  H   UNL A   1      39.710  34.466  29.011  1.00  0.00     0.167 HD
ATOM     65  C   UNL A   1      43.163  33.425  29.240  1.00  0.00     0.074 A 
ATOM     66  C   UNL A   1      44.354  33.320  28.408  1.00  0.00     0.031 C 
ATOM     67  C   UNL A   1      42.311  34.456  29.537  1.00  0.00     0.037 A 
BRANCH  54  68
ATOM     68  C   UNL A   1      36.385  34.073  30.955  1.00  0.00     0.058 A 
ATOM     69  C   UNL A   1      35.401  34.533  30.049  1.00  0.00     0.135 A 
ATOM     70  C   UNL A   1      36.047  34.235  32.314  1.00  0.00     0.135 A 
ATOM     71  F   UNL A   1      35.548  34.407  28.723  1.00  0.00    -0.206 F 
ATOM     72  C   UNL A   1      34.212  35.137  30.447  1.00  0.00     0.059 A 
ATOM     73  C   UNL A   1      34.862  34.856  32.740  1.00  0.00     0.059 A 
ATOM     74  F   UNL A   1      36.823  33.766  33.298  1.00  0.00    -0.206 F 
ATOM     75  C   UNL A   1      33.948  35.300  31.796  1.00  0.00     0.060 A 
BRANCH  75  76
ATOM     76  S   UNL A   1      32.383  36.056  32.266  1.00  0.00     0.124 S 
ATOM     77  O   UNL A   1      31.956  36.674  31.014  1.00  0.00    -0.237 OA
ATOM     78  O   UNL A   1      31.606  34.901  32.701  1.00  0.00    -0.237 OA
ATOM     79  O   UNL A   1      32.759  36.990  33.323  1.00  0.00    -0.744 OA
ENDBRANCH  75  76
ENDBRANCH  54  68
BRANCH  55  80
ATOM     80  C   UNL A   1      44.390  28.791  28.819  1.00  0.00     0.058 A 
ATOM     81  C   UNL A   1      43.878  28.935  27.510  1.00  0.00     0.135 A 
ATOM     82  C   UNL A   1      45.488  27.928  28.980  1.00  0.00     0.135 A 
ATOM     83  F   UNL A   1      42.802  29.710  27.295  1.00  0.00    -0.206 F 
ATOM     84  C   UNL A   1      44.559  28.451  26.395  1.00  0.00     0.059 A 
ATOM     85  C   UNL A   1      46.173  27.413  27.872  1.00  0.00     0.059 A 
ATOM     86  F   UNL A   1      46.007  27.716  30.198  1.00  0.00    -0.206 F 
ATOM     87  C   UNL A   1      45.753  27.761  26.586  1.00  0.00     0.060 A 
BRANCH  87  88
ATOM     88  S   UNL A   1      46.799  27.459  25.138  1.00  0.00     0.124 S 
ATOM     89  O   UNL A   1      46.575  28.658  24.338  1.00  0.00    -0.237 OA
ATOM     90  O   UNL A   1      48.129  27.349  25.738  1.00  0.00    -0.237 OA
ATOM     91  O   UNL A   1      46.255  26.227  24.583  1.00  0.00    -0.744 OA
ENDBRANCH  87  88
ENDBRANCH  55  80
BRANCH  67  92
ATOM     92  C   UNL A   1      42.449  35.833  28.943  1.00  0.00     0.058 A 
ATOM     93  C   UNL A   1      43.229  36.828  29.547  1.00  0.00     0.135 A 
ATOM     94  C   UNL A   1      41.750  36.227  27.776  1.00  0.00     0.135 A 
ATOM     95  F   UNL A   1      43.799  36.628  30.746  1.00  0.00    -0.206 F 
ATOM     96  C   UNL A   1      43.440  38.065  28.945  1.00  0.00     0.059 A 
ATOM     97  C   UNL A   1      41.881  37.482  27.204  1.00  0.00     0.059 A 
ATOM     98  F   UNL A   1      40.934  35.404  27.107  1.00  0.00    -0.206 F 
ATOM     99  C   UNL A   1      42.775  38.374  27.762  1.00  0.00     0.060 A 
BRANCH  99 100
ATOM    100  S   UNL A   1      43.081  39.950  26.960  1.00  0.00     0.124 S 
ATOM    101  O   UNL A   1      44.345  39.707  26.272  1.00  0.00    -0.237 OA
ATOM    102  O   UNL A   1      41.905  40.068  26.105  1.00  0.00    -0.237 OA
ATOM    103  O   UNL A   1      43.147  40.892  28.072  1.00  0.00    -0.744 OA
ENDBRANCH  99 100
ENDBRANCH  67  92
ENDBRANCH  41  42
ENDBRANCH  33  36
ENDBRANCH  31  32
ENDBRANCH  30  31
ENDBRANCH  29  30
ENDBRANCH   1  29
TORSDOF 20
ENDMDL
MODEL 3
REMARK VINA RESULT:     -14.6      2.427      3.435
REMARK SMILES Cc1ccc([C@@H](C)Nc2ccc(N)cc2C(=O)NCCCCCCNC(=O)c2ccc(-c3c4nc(c(-c5c(F)cc(S(=O)(=O)[O-])cc5F)c5ccc([nH]5)c(-c5c(F)cc(S(=O)(=O)[O-])cc5F)c5nc(c(-c6c(F)cc(S(=O)(=O)[O-])cc6F)c6ccc3[nH]6)C=C5)C=C4)cc2)cc1F
REMARK SMILES IDX 21 1 20 2 19 3 18 4 16 5 17 6 15 8 9 9 10 10 11 11 14 12
REMARK SMILES IDX 12 13 8 14 6 16 7 17 5 18 1 19 2 20 3 21 95 22 4 23 94 24
REMARK SMILES IDX 96 25 13 26 22 29 23 30 24 31 25 32 26 33 27 35 28 36 29 37
REMARK SMILES IDX 93 38 30 39 92 40 31 41 32 42 33 43 86 44 34 45 91 46 85 47
REMARK SMILES IDX 87 48 35 49 90 50 84 51 83 52 36 54 70 55 49 56 69 57 50 58
REMARK SMILES IDX 53 59 68 60 88 61 51 62 52 63 67 65 89 66 54 67 37 68 38 69
REMARK SMILES IDX 47 70 39 71 40 72 46 73 48 74 41 75 42 76 43 77 44 78 45 79
REMARK SMILES IDX 71 80 72 81 81 82 73 83 74 84 80 85 82 86 75 87 76 88 77 89
REMARK SMILES IDX 78 90 79 91 55 92 56 93 65 94 57 95 58 96 64 97 66 98 59 99
REMARK SMILES IDX 60 100 61 101 62 102 63 103
REMARK H PARENT 18 7 8 15 13 27 13 28 25 34 87 53 53 64
REMARK Flexibility Score: inf
ROOT
ATOM      1  C   UNL A   1      32.056  24.998  26.545  1.00  0.00     0.002 C 
ENDROOT
BRANCH   1   2
ATOM      2  C   UNL A   1      32.454  22.962  27.272  1.00  0.00     0.021 C 
BRANCH   2   3
ATOM      3  C   UNL A   1      33.817  21.984  27.690  1.00  0.00     0.116 C 
BRANCH   3   4
ATOM      4  N   UNL A   1      35.113  22.171  27.050  1.00  0.00    -0.352 N 
ATOM      5  C   UNL A   1      35.511  21.957  25.752  1.00  0.00     0.253 C 
ATOM      6  O   UNL A   1      36.625  22.330  25.387  1.00  0.00    -0.269 OA
ATOM      7  H   UNL A   1      35.822  22.507  27.645  1.00  0.00     0.163 HD
BRANCH   5   8
ATOM      8  C   UNL A   1      34.680  21.135  24.846  1.00  0.00     0.065 A 
ATOM      9  C   UNL A   1      33.559  21.596  24.148  1.00  0.00     0.048 A 
ATOM     10  C   UNL A   1      32.581  20.612  23.894  1.00  0.00     0.028 A 
ATOM     11  C   UNL A   1      32.788  19.248  24.170  1.00  0.00     0.027 A 
ATOM     12  C   UNL A   1      34.958  19.754  24.971  1.00  0.00     0.041 A 
ATOM     13  C   UNL A   1      34.025  18.794  24.606  1.00  0.00     0.032 A 
BRANCH   9  14
ATOM     14  N   UNL A   1      33.308  22.883  23.701  1.00  0.00    -0.378 N 
ATOM     15  H   UNL A   1      33.693  23.586  24.273  1.00  0.00     0.161 HD
BRANCH  14  16
ATOM     16  C   UNL A   1      32.572  23.401  22.533  1.00  0.00     0.106 C 
ATOM     17  C   UNL A   1      33.283  23.195  21.202  1.00  0.00     0.036 C 
BRANCH  16  18
ATOM     18  C   UNL A   1      31.897  24.732  22.847  1.00  0.00    -0.023 A 
ATOM     19  C   UNL A   1      29.947  29.420  23.521  1.00  0.00     0.047 C 
ATOM     20  C   UNL A   1      30.469  28.040  23.283  1.00  0.00    -0.015 A 
ATOM     21  C   UNL A   1      32.138  27.857  22.627  1.00  0.00     0.007 A 
ATOM     22  C   UNL A   1      29.517  26.579  23.737  1.00  0.00     0.126 A 
ATOM     23  C   UNL A   1      32.838  26.211  22.395  1.00  0.00     0.006 A 
ATOM     24  C   UNL A   1      30.235  24.925  23.547  1.00  0.00     0.045 A 
ATOM     25  F   UNL A   1      28.259  26.710  24.174  1.00  0.00    -0.207 F 
ENDBRANCH  16  18
ENDBRANCH  14  16
ENDBRANCH   9  14
BRANCH  13  26
ATOM     26  N   UNL A   1      34.258  17.453  24.865  1.00  0.00    -0.399 N 
ATOM     27  H   UNL A   1      33.501  16.839  24.999  1.00  0.00     0.156 HD
ATOM     28  H   UNL A   1      35.182  17.115  24.916  1.00  0.00     0.156 HD
ENDBRANCH  13  26
ENDBRANCH   5   8
ENDBRANCH   3   4
ENDBRANCH   2   3
ENDBRANCH   1   2
BRANCH   1  29
ATOM     29  C   UNL A   1      32.919  26.392  26.050  1.00  0.00     0.002 C 
BRANCH  29  30
ATOM     30  C   UNL A   1      32.532  27.861  26.308  1.00  0.00     0.021 C 
BRANCH  30  31
ATOM     31  C   UNL A   1      33.334  28.681  27.300  1.00  0.00     0.116 C 
BRANCH  31  32
ATOM     32  N   UNL A   1      34.055  29.808  26.740  1.00  0.00    -0.352 N 
ATOM     33  C   UNL A   1      34.451  30.778  27.659  1.00  0.00     0.251 C 
ATOM     34  H   UNL A   1      34.252  29.882  25.778  1.00  0.00     0.163 HD
ATOM     35  O   UNL A   1      33.686  31.624  28.106  1.00  0.00    -0.269 OA
BRANCH  33  36
ATOM     36  C   UNL A   1      35.759  30.494  28.311  1.00  0.00     0.039 A 
ATOM     37  C   UNL A   1      35.840  29.684  29.453  1.00  0.00     0.014 A 
ATOM     38  C   UNL A   1      36.919  30.904  27.645  1.00  0.00     0.014 A 
ATOM     39  C   UNL A   1      37.087  29.291  29.929  1.00  0.00     0.010 A 
ATOM     40  C   UNL A   1      38.129  30.436  28.040  1.00  0.00     0.010 A 
ATOM     41  C   UNL A   1      38.211  29.683  29.206  1.00  0.00    -0.014 A 
BRANCH  41  42
ATOM     42  C   UNL A   1      39.572  29.305  29.500  1.00  0.00     0.031 A 
ATOM     43  C   UNL A   1      39.973  27.950  29.113  1.00  0.00     0.074 A 
ATOM     44  C   UNL A   1      40.358  30.343  29.861  1.00  0.00     0.049 A 
ATOM     45  N   UNL A   1      40.909  27.284  29.675  1.00  0.00    -0.248 NA
ATOM     46  C   UNL A   1      39.275  27.177  28.078  1.00  0.00     0.031 C 
ATOM     47  C   UNL A   1      41.797  30.516  29.887  1.00  0.00     0.029 A 
ATOM     48  N   UNL A   1      39.884  31.524  30.444  1.00  0.00    -0.354 N 
ATOM     49  C   UNL A   1      41.213  26.246  28.816  1.00  0.00     0.074 A 
ATOM     50  C   UNL A   1      40.046  26.085  27.991  1.00  0.00     0.031 C 
ATOM     51  C   UNL A   1      42.089  31.527  30.735  1.00  0.00     0.029 A 
ATOM     52  C   UNL A   1      40.845  31.953  31.366  1.00  0.00     0.049 A 
ATOM     53  H   UNL A   1      39.030  31.970  30.243  1.00  0.00     0.167 HD
ATOM     54  C   UNL A   1      42.513  25.835  28.750  1.00  0.00     0.037 A 
ATOM     55  C   UNL A   1      40.519  31.803  32.689  1.00  0.00     0.037 A 
ATOM     56  C   UNL A   1      43.312  26.675  29.651  1.00  0.00     0.049 A 
ATOM     57  C   UNL A   1      41.252  30.639  33.326  1.00  0.00     0.074 A 
ATOM     58  C   UNL A   1      44.074  27.813  29.459  1.00  0.00     0.029 A 
ATOM     59  N   UNL A   1      43.056  26.615  31.003  1.00  0.00    -0.354 N 
ATOM     60  N   UNL A   1      41.923  29.737  32.661  1.00  0.00    -0.248 NA
ATOM     61  C   UNL A   1      41.278  30.395  34.764  1.00  0.00     0.031 C 
ATOM     62  C   UNL A   1      44.238  28.449  30.729  1.00  0.00     0.029 A 
ATOM     63  C   UNL A   1      43.570  27.699  31.680  1.00  0.00     0.049 A 
ATOM     64  H   UNL A   1      42.562  25.881  31.435  1.00  0.00     0.167 HD
ATOM     65  C   UNL A   1      42.478  28.832  33.520  1.00  0.00     0.074 A 
ATOM     66  C   UNL A   1      41.999  29.260  34.827  1.00  0.00     0.031 C 
ATOM     67  C   UNL A   1      43.291  27.810  33.105  1.00  0.00     0.037 A 
BRANCH  54  68
ATOM     68  C   UNL A   1      43.151  24.912  27.734  1.00  0.00     0.058 A 
ATOM     69  C   UNL A   1      42.955  23.517  27.858  1.00  0.00     0.135 A 
ATOM     70  C   UNL A   1      43.931  25.294  26.622  1.00  0.00     0.135 A 
ATOM     71  F   UNL A   1      42.198  22.994  28.833  1.00  0.00    -0.206 F 
ATOM     72  C   UNL A   1      43.512  22.581  26.991  1.00  0.00     0.059 A 
ATOM     73  C   UNL A   1      44.517  24.369  25.743  1.00  0.00     0.059 A 
ATOM     74  F   UNL A   1      44.130  26.578  26.304  1.00  0.00    -0.206 F 
ATOM     75  C   UNL A   1      44.297  23.013  25.935  1.00  0.00     0.060 A 
BRANCH  75  76
ATOM     76  S   UNL A   1      44.970  21.771  24.819  1.00  0.00     0.124 S 
ATOM     77  O   UNL A   1      44.372  20.543  25.334  1.00  0.00    -0.237 OA
ATOM     78  O   UNL A   1      44.474  22.224  23.524  1.00  0.00    -0.237 OA
ATOM     79  O   UNL A   1      46.413  21.886  25.010  1.00  0.00    -0.744 OA
ENDBRANCH  75  76
ENDBRANCH  54  68
BRANCH  55  80
ATOM     80  C   UNL A   1      39.080  32.188  32.931  1.00  0.00     0.058 A 
ATOM     81  C   UNL A   1      38.768  33.563  32.819  1.00  0.00     0.135 A 
ATOM     82  C   UNL A   1      38.036  31.279  32.689  1.00  0.00     0.135 A 
ATOM     83  F   UNL A   1      39.709  34.485  33.080  1.00  0.00    -0.206 F 
ATOM     84  C   UNL A   1      37.568  34.003  32.264  1.00  0.00     0.059 A 
ATOM     85  C   UNL A   1      36.814  31.705  32.153  1.00  0.00     0.059 A 
ATOM     86  F   UNL A   1      38.248  29.961  32.809  1.00  0.00    -0.206 F 
ATOM     87  C   UNL A   1      36.631  33.058  31.857  1.00  0.00     0.060 A 
BRANCH  87  88
ATOM     88  S   UNL A   1      35.254  33.618  30.822  1.00  0.00     0.124 S 
ATOM     89  O   UNL A   1      34.291  32.532  30.972  1.00  0.00    -0.237 OA
ATOM     90  O   UNL A   1      34.879  34.878  31.465  1.00  0.00    -0.237 OA
ATOM     91  O   UNL A   1      35.856  33.739  29.500  1.00  0.00    -0.744 OA
ENDBRANCH  87  88
ENDBRANCH  55  80
BRANCH  67  92
ATOM     92  C   UNL A   1      43.875  26.791  34.047  1.00  0.00     0.058 A 
ATOM     93  C   UNL A   1      43.078  25.851  34.713  1.00  0.00     0.135 A 
ATOM     94  C   UNL A   1      45.255  26.761  34.366  1.00  0.00     0.135 A 
ATOM     95  F   UNL A   1      41.740  25.893  34.625  1.00  0.00    -0.206 F 
ATOM     96  C   UNL A   1      43.629  24.845  35.502  1.00  0.00     0.059 A 
ATOM     97  C   UNL A   1      45.814  25.818  35.214  1.00  0.00     0.059 A 
ATOM     98  F   UNL A   1      46.139  27.618  33.844  1.00  0.00    -0.206 F 
ATOM     99  C   UNL A   1      45.001  24.827  35.729  1.00  0.00     0.060 A 
BRANCH  99 100
ATOM    100  S   UNL A   1      45.719  23.504  36.707  1.00  0.00     0.124 S 
ATOM    101  O   UNL A   1      47.149  23.695  36.485  1.00  0.00    -0.237 OA
ATOM    102  O   UNL A   1      45.233  23.839  38.042  1.00  0.00    -0.237 OA
ATOM    103  O   UNL A   1      45.153  22.296  36.117  1.00  0.00    -0.744 OA
ENDBRANCH  99 100
ENDBRANCH  67  92
ENDBRANCH  41  42
ENDBRANCH  33  36
ENDBRANCH  31  32
ENDBRANCH  30  31
ENDBRANCH  29  30
ENDBRANCH   1  29
TORSDOF 20
ENDMDL
