MODEL 1
REMARK VINA RESULT:     -13.0      0.000      0.000
REMARK SMILES C[C@H](NS(=O)(=O)c1ccc(-c2cc(-c3ccccc3)c3cc([N+](=O)[O-])ccc3n2)cc1)C(=O)NCCCCCCNC(=O)c1ccc(-c2c3nc(c(-c4c(F)cc(S(=O)(=O)[O-])cc4F)c4ccc([nH]4)c(-c4c(F)cc(S(=O)(=O)[O-])cc4F)c4nc(c(-c5c(F)cc(S(=O)(=O)[O-])cc5F)c5ccc2[nH]5)C=C4)C=C3)cc1
REMARK SMILES IDX 36 1 35 2 34 3 32 4 33 5 2 7 1 8 3 9 4 11 5 12 6 13 7 14
REMARK SMILES IDX 8 15 31 16 9 17 30 18 10 19 11 20 12 21 29 22 13 23 28 24
REMARK SMILES IDX 20 25 27 26 21 27 26 28 22 29 14 30 15 31 19 32 16 33 18 34
REMARK SMILES IDX 17 35 23 36 24 37 25 38 37 39 38 40 39 41 40 42 41 43 42 44
REMARK SMILES IDX 43 46 44 47 45 48 109 49 46 50 108 51 47 52 48 53 49 54
REMARK SMILES IDX 102 55 50 56 107 57 101 58 103 59 51 60 106 61 100 62 99 63
REMARK SMILES IDX 52 65 86 66 65 67 85 68 66 69 69 70 84 71 104 72 67 73 68 74
REMARK SMILES IDX 83 76 105 77 70 78 53 79 54 80 63 81 55 82 56 83 62 84 64 85
REMARK SMILES IDX 57 86 58 87 59 88 60 89 61 90 87 91 88 92 97 93 89 94 90 95
REMARK SMILES IDX 96 96 98 97 91 98 92 99 93 100 94 101 95 102 71 103 72 104
REMARK SMILES IDX 81 105 73 106 74 107 80 108 82 109 75 110 76 111 77 112
REMARK SMILES IDX 78 113 79 114
REMARK H PARENT 34 6 3 10 41 45 103 64 69 75
REMARK Flexibility Score: inf
ROOT
ATOM      1  C   UNL A   1      36.613  22.074  24.798  1.00  0.00     0.021 C 
ENDROOT
BRANCH   1   2
ATOM      2  C   UNL A   1      35.747  21.048  25.519  1.00  0.00     0.116 C 
BRANCH   2   3
ATOM      3  N   UNL A   1      35.301  20.039  24.588  1.00  0.00    -0.355 N 
ATOM      4  C   UNL A   1      34.232  19.207  24.659  1.00  0.00     0.237 C 
ATOM      5  O   UNL A   1      34.187  18.303  23.819  1.00  0.00    -0.273 OA
ATOM      6  H   UNL A   1      35.857  19.939  23.782  1.00  0.00     0.163 HD
BRANCH   4   7
ATOM      7  C   UNL A   1      33.108  19.407  25.692  1.00  0.00     0.155 C 
ATOM      8  C   UNL A   1      32.545  18.060  26.129  1.00  0.00     0.036 C 
BRANCH   7   9
ATOM      9  N   UNL A   1      32.093  20.379  25.283  1.00  0.00    -0.199 NA
ATOM     10  H   UNL A   1      31.192  19.955  25.508  1.00  0.00     0.142 HD
BRANCH   9  11
ATOM     11  S   UNL A   1      32.024  21.945  25.880  1.00  0.00     0.241 S 
ATOM     12  O   UNL A   1      30.621  22.263  25.987  1.00  0.00    -0.207 OA
ATOM     13  O   UNL A   1      32.905  22.018  27.027  1.00  0.00    -0.207 OA
BRANCH  11  14
ATOM     14  C   UNL A   1      32.709  22.986  24.601  1.00  0.00     0.082 A 
ATOM     15  C   UNL A   1      33.402  24.152  24.934  1.00  0.00     0.022 A 
ATOM     16  C   UNL A   1      32.561  22.632  23.257  1.00  0.00     0.022 A 
ATOM     17  C   UNL A   1      33.731  25.077  23.927  1.00  0.00     0.012 A 
ATOM     18  C   UNL A   1      32.935  23.537  22.254  1.00  0.00     0.012 A 
ATOM     19  C   UNL A   1      33.354  24.850  22.586  1.00  0.00     0.000 A 
BRANCH  19  20
ATOM     20  C   UNL A   1      32.744  26.008  21.809  1.00  0.00     0.072 A 
ATOM     21  C   UNL A   1      31.381  26.309  21.845  1.00  0.00     0.038 A 
ATOM     22  N   UNL A   1      33.595  27.050  21.998  1.00  0.00    -0.248 NA
ATOM     23  C   UNL A   1      31.007  27.406  22.624  1.00  0.00    -0.007 A 
ATOM     24  C   UNL A   1      33.296  27.817  23.048  1.00  0.00     0.072 A 
ATOM     25  C   UNL A   1      31.990  27.857  23.515  1.00  0.00     0.015 A 
ATOM     26  C   UNL A   1      34.269  28.458  23.792  1.00  0.00     0.036 A 
ATOM     27  C   UNL A   1      31.706  28.260  24.836  1.00  0.00     0.096 A 
ATOM     28  C   UNL A   1      34.006  28.888  25.102  1.00  0.00     0.088 A 
ATOM     29  C   UNL A   1      32.742  28.686  25.651  1.00  0.00     0.270 A 
BRANCH  23  30
ATOM     30  C   UNL A   1      29.762  28.204  22.569  1.00  0.00    -0.018 A 
ATOM     31  C   UNL A   1      29.862  29.517  22.026  1.00  0.00     0.009 A 
ATOM     32  C   UNL A   1      28.531  27.824  23.096  1.00  0.00     0.009 A 
ATOM     33  C   UNL A   1      28.848  30.457  22.143  1.00  0.00     0.001 A 
ATOM     34  C   UNL A   1      27.488  28.763  23.180  1.00  0.00     0.001 A 
ATOM     35  C   UNL A   1      27.659  30.080  22.740  1.00  0.00     0.000 A 
ENDBRANCH  23  30
BRANCH  29  36
ATOM     36  N   UNL A   1      32.521  28.811  27.095  1.00  0.00     0.062 N 
ATOM     37  O   UNL A   1      31.393  28.540  27.529  1.00  0.00    -0.258 OA
ATOM     38  O   UNL A   1      33.489  29.134  27.795  1.00  0.00    -0.258 OA
ENDBRANCH  29  36
ENDBRANCH  19  20
ENDBRANCH  11  14
ENDBRANCH   9  11
ENDBRANCH   7   9
ENDBRANCH   4   7
ENDBRANCH   2   3
ENDBRANCH   1   2
BRANCH   1  39
ATOM     39  C   UNL A   1      37.820  22.567  25.608  1.00  0.00     0.002 C 
BRANCH  39  40
ATOM     40  C   UNL A   1      38.960  21.555  25.763  1.00  0.00     0.002 C 
BRANCH  40  41
ATOM     41  C   UNL A   1      39.968  21.883  26.867  1.00  0.00     0.021 C 
BRANCH  41  42
ATOM     42  C   UNL A   1      40.213  23.371  27.078  1.00  0.00     0.116 C 
BRANCH  42  43
ATOM     43  N   UNL A   1      41.145  23.913  26.104  1.00  0.00    -0.352 N 
ATOM     44  C   UNL A   1      41.619  25.196  25.991  1.00  0.00     0.251 C 
ATOM     45  H   UNL A   1      41.482  23.274  25.435  1.00  0.00     0.163 HD
ATOM     46  O   UNL A   1      42.240  25.538  24.989  1.00  0.00    -0.269 OA
BRANCH  44  47
ATOM     47  C   UNL A   1      41.353  26.164  27.075  1.00  0.00     0.039 A 
ATOM     48  C   UNL A   1      40.403  25.849  28.048  1.00  0.00     0.014 A 
ATOM     49  C   UNL A   1      42.055  27.373  27.138  1.00  0.00     0.014 A 
ATOM     50  C   UNL A   1      40.195  26.725  29.114  1.00  0.00     0.010 A 
ATOM     51  C   UNL A   1      41.904  28.203  28.244  1.00  0.00     0.010 A 
ATOM     52  C   UNL A   1      40.966  27.893  29.239  1.00  0.00    -0.014 A 
BRANCH  52  53
ATOM     53  C   UNL A   1      40.802  28.801  30.403  1.00  0.00     0.031 A 
ATOM     54  C   UNL A   1      41.660  28.622  31.627  1.00  0.00     0.074 A 
ATOM     55  C   UNL A   1      39.843  29.746  30.380  1.00  0.00     0.049 A 
ATOM     56  N   UNL A   1      41.632  29.279  32.758  1.00  0.00    -0.248 NA
ATOM     57  C   UNL A   1      42.663  27.546  31.584  1.00  0.00     0.031 C 
ATOM     58  C   UNL A   1      38.917  29.984  29.270  1.00  0.00     0.029 A 
ATOM     59  N   UNL A   1      39.480  30.680  31.319  1.00  0.00    -0.354 N 
ATOM     60  C   UNL A   1      42.601  28.690  33.561  1.00  0.00     0.074 A 
ATOM     61  C   UNL A   1      43.157  27.586  32.812  1.00  0.00     0.031 C 
ATOM     62  C   UNL A   1      38.112  31.012  29.581  1.00  0.00     0.029 A 
ATOM     63  C   UNL A   1      38.431  31.479  30.926  1.00  0.00     0.049 A 
ATOM     64  H   UNL A   1      39.928  30.770  32.190  1.00  0.00     0.167 HD
ATOM     65  C   UNL A   1      43.008  29.054  34.801  1.00  0.00     0.037 A 
ATOM     66  C   UNL A   1      37.792  32.468  31.580  1.00  0.00     0.037 A 
ATOM     67  C   UNL A   1      42.456  30.165  35.534  1.00  0.00     0.049 A 
ATOM     68  C   UNL A   1      38.250  32.846  32.963  1.00  0.00     0.074 A 
ATOM     69  C   UNL A   1      42.835  30.651  36.773  1.00  0.00     0.029 A 
ATOM     70  N   UNL A   1      41.402  30.956  35.099  1.00  0.00    -0.354 N 
ATOM     71  N   UNL A   1      39.217  32.325  33.682  1.00  0.00    -0.248 NA
ATOM     72  C   UNL A   1      37.538  33.949  33.621  1.00  0.00     0.031 C 
ATOM     73  C   UNL A   1      41.971  31.697  37.114  1.00  0.00     0.029 A 
ATOM     74  C   UNL A   1      41.097  31.908  36.059  1.00  0.00     0.049 A 
ATOM     75  H   UNL A   1      40.938  30.856  34.237  1.00  0.00     0.167 HD
ATOM     76  C   UNL A   1      39.248  33.055  34.865  1.00  0.00     0.074 A 
ATOM     77  C   UNL A   1      38.211  34.062  34.759  1.00  0.00     0.031 C 
ATOM     78  C   UNL A   1      40.064  32.908  35.939  1.00  0.00     0.037 A 
BRANCH  65  79
ATOM     79  C   UNL A   1      44.099  28.239  35.446  1.00  0.00     0.058 A 
ATOM     80  C   UNL A   1      43.812  27.166  36.308  1.00  0.00     0.135 A 
ATOM     81  C   UNL A   1      45.450  28.517  35.181  1.00  0.00     0.135 A 
ATOM     82  F   UNL A   1      42.540  26.862  36.609  1.00  0.00    -0.206 F 
ATOM     83  C   UNL A   1      44.823  26.427  36.912  1.00  0.00     0.059 A 
ATOM     84  C   UNL A   1      46.477  27.767  35.748  1.00  0.00     0.059 A 
ATOM     85  F   UNL A   1      45.785  29.529  34.364  1.00  0.00    -0.206 F 
ATOM     86  C   UNL A   1      46.154  26.736  36.627  1.00  0.00     0.060 A 
BRANCH  86  87
ATOM     87  S   UNL A   1      47.451  25.770  37.426  1.00  0.00     0.124 S 
ATOM     88  O   UNL A   1      46.870  24.431  37.409  1.00  0.00    -0.237 OA
ATOM     89  O   UNL A   1      48.589  25.977  36.534  1.00  0.00    -0.237 OA
ATOM     90  O   UNL A   1      47.572  26.384  38.744  1.00  0.00    -0.744 OA
ENDBRANCH  86  87
ENDBRANCH  65  79
BRANCH  66  91
ATOM     91  C   UNL A   1      36.665  33.183  30.922  1.00  0.00     0.058 A 
ATOM     92  C   UNL A   1      36.898  34.112  29.896  1.00  0.00     0.135 A 
ATOM     93  C   UNL A   1      35.332  32.932  31.284  1.00  0.00     0.135 A 
ATOM     94  F   UNL A   1      38.153  34.391  29.516  1.00  0.00    -0.206 F 
ATOM     95  C   UNL A   1      35.852  34.774  29.261  1.00  0.00     0.059 A 
ATOM     96  C   UNL A   1      34.269  33.560  30.645  1.00  0.00     0.059 A 
ATOM     97  F   UNL A   1      35.054  32.040  32.249  1.00  0.00    -0.206 F 
ATOM     98  C   UNL A   1      34.539  34.486  29.639  1.00  0.00     0.060 A 
BRANCH  98  99
ATOM     99  S   UNL A   1      33.189  35.307  28.766  1.00  0.00     0.124 S 
ATOM    100  O   UNL A   1      32.607  34.202  28.015  1.00  0.00    -0.237 OA
ATOM    101  O   UNL A   1      32.384  35.825  29.868  1.00  0.00    -0.237 OA
ATOM    102  O   UNL A   1      33.871  36.322  27.968  1.00  0.00    -0.744 OA
ENDBRANCH  98  99
ENDBRANCH  66  91
BRANCH  78 103
ATOM    103  C   UNL A   1      39.898  33.881  37.075  1.00  0.00     0.058 A 
ATOM    104  C   UNL A   1      40.584  35.106  37.112  1.00  0.00     0.135 A 
ATOM    105  C   UNL A   1      38.993  33.607  38.115  1.00  0.00     0.135 A 
ATOM    106  F   UNL A   1      41.465  35.416  36.148  1.00  0.00    -0.206 F 
ATOM    107  C   UNL A   1      40.397  36.012  38.151  1.00  0.00     0.059 A 
ATOM    108  C   UNL A   1      38.767  34.513  39.146  1.00  0.00     0.059 A 
ATOM    109  F   UNL A   1      38.302  32.456  38.124  1.00  0.00    -0.206 F 
ATOM    110  C   UNL A   1      39.482  35.708  39.162  1.00  0.00     0.060 A 
BRANCH 110 111
ATOM    111  S   UNL A   1      39.223  36.911  40.483  1.00  0.00     0.124 S 
ATOM    112  O   UNL A   1      40.595  37.236  40.859  1.00  0.00    -0.237 OA
ATOM    113  O   UNL A   1      38.485  37.969  39.800  1.00  0.00    -0.237 OA
ATOM    114  O   UNL A   1      38.460  36.165  41.479  1.00  0.00    -0.744 OA
ENDBRANCH 110 111
ENDBRANCH  78 103
ENDBRANCH  52  53
ENDBRANCH  44  47
ENDBRANCH  42  43
ENDBRANCH  41  42
ENDBRANCH  40  41
ENDBRANCH  39  40
ENDBRANCH   1  39
TORSDOF 22
ENDMDL
MODEL 2
REMARK VINA RESULT:     -12.9      1.690      3.149
REMARK SMILES C[C@H](NS(=O)(=O)c1ccc(-c2cc(-c3ccccc3)c3cc([N+](=O)[O-])ccc3n2)cc1)C(=O)NCCCCCCNC(=O)c1ccc(-c2c3nc(c(-c4c(F)cc(S(=O)(=O)[O-])cc4F)c4ccc([nH]4)c(-c4c(F)cc(S(=O)(=O)[O-])cc4F)c4nc(c(-c5c(F)cc(S(=O)(=O)[O-])cc5F)c5ccc2[nH]5)C=C4)C=C3)cc1
REMARK SMILES IDX 36 1 35 2 34 3 32 4 33 5 2 7 1 8 3 9 4 11 5 12 6 13 7 14
REMARK SMILES IDX 8 15 31 16 9 17 30 18 10 19 11 20 12 21 29 22 13 23 28 24
REMARK SMILES IDX 20 25 27 26 21 27 26 28 22 29 14 30 15 31 19 32 16 33 18 34
REMARK SMILES IDX 17 35 23 36 24 37 25 38 37 39 38 40 39 41 40 42 41 43 42 44
REMARK SMILES IDX 43 46 44 47 45 48 109 49 46 50 108 51 47 52 48 53 49 54
REMARK SMILES IDX 102 55 50 56 107 57 101 58 103 59 51 60 106 61 100 62 99 63
REMARK SMILES IDX 52 65 86 66 65 67 85 68 66 69 69 70 84 71 104 72 67 73 68 74
REMARK SMILES IDX 83 76 105 77 70 78 53 79 54 80 63 81 55 82 56 83 62 84 64 85
REMARK SMILES IDX 57 86 58 87 59 88 60 89 61 90 87 91 88 92 97 93 89 94 90 95
REMARK SMILES IDX 96 96 98 97 91 98 92 99 93 100 94 101 95 102 71 103 72 104
REMARK SMILES IDX 81 105 73 106 74 107 80 108 82 109 75 110 76 111 77 112
REMARK SMILES IDX 78 113 79 114
REMARK H PARENT 34 6 3 10 41 45 103 64 69 75
REMARK Flexibility Score: inf
ROOT
ATOM      1  C   UNL A   1      40.737  21.672  26.167  1.00  0.00     0.021 C 
ENDROOT
BRANCH   1   2
ATOM      2  C   UNL A   1      39.652  22.408  26.944  1.00  0.00     0.116 C 
BRANCH   2   3
ATOM      3  N   UNL A   1      38.859  23.210  26.043  1.00  0.00    -0.355 N 
ATOM      4  C   UNL A   1      37.702  22.906  25.404  1.00  0.00     0.237 C 
ATOM      5  O   UNL A   1      37.332  23.704  24.537  1.00  0.00    -0.273 OA
ATOM      6  H   UNL A   1      39.212  24.112  25.866  1.00  0.00     0.163 HD
BRANCH   4   7
ATOM      7  C   UNL A   1      36.866  21.667  25.771  1.00  0.00     0.155 C 
ATOM      8  C   UNL A   1      37.193  20.511  24.834  1.00  0.00     0.036 C 
BRANCH   7   9
ATOM      9  N   UNL A   1      35.435  21.939  25.916  1.00  0.00    -0.199 NA
ATOM     10  H   UNL A   1      35.360  22.932  26.139  1.00  0.00     0.142 HD
BRANCH   9  11
ATOM     11  S   UNL A   1      34.317  21.656  24.698  1.00  0.00     0.241 S 
ATOM     12  O   UNL A   1      34.803  22.373  23.545  1.00  0.00    -0.207 OA
ATOM     13  O   UNL A   1      34.067  20.231  24.652  1.00  0.00    -0.207 OA
BRANCH  11  14
ATOM     14  C   UNL A   1      32.809  22.456  25.224  1.00  0.00     0.082 A 
ATOM     15  C   UNL A   1      31.945  23.023  24.284  1.00  0.00     0.022 A 
ATOM     16  C   UNL A   1      32.483  22.511  26.582  1.00  0.00     0.022 A 
ATOM     17  C   UNL A   1      30.891  23.847  24.717  1.00  0.00     0.012 A 
ATOM     18  C   UNL A   1      31.401  23.295  27.006  1.00  0.00     0.012 A 
ATOM     19  C   UNL A   1      30.706  24.122  26.089  1.00  0.00     0.000 A 
BRANCH  19  20
ATOM     20  C   UNL A   1      30.431  25.563  26.498  1.00  0.00     0.072 A 
ATOM     21  C   UNL A   1      31.405  26.388  27.062  1.00  0.00     0.038 A 
ATOM     22  N   UNL A   1      29.713  26.092  25.473  1.00  0.00    -0.248 NA
ATOM     23  C   UNL A   1      31.963  27.354  26.222  1.00  0.00    -0.007 A 
ATOM     24  C   UNL A   1      30.455  26.679  24.532  1.00  0.00     0.072 A 
ATOM     25  C   UNL A   1      31.715  27.160  24.856  1.00  0.00     0.015 A 
ATOM     26  C   UNL A   1      30.082  26.687  23.201  1.00  0.00     0.036 A 
ATOM     27  C   UNL A   1      32.691  27.362  23.860  1.00  0.00     0.096 A 
ATOM     28  C   UNL A   1      31.030  26.907  22.190  1.00  0.00     0.088 A 
ATOM     29  C   UNL A   1      32.360  27.139  22.533  1.00  0.00     0.270 A 
BRANCH  23  30
ATOM     30  C   UNL A   1      32.694  28.589  26.583  1.00  0.00    -0.018 A 
ATOM     31  C   UNL A   1      34.080  28.453  26.879  1.00  0.00     0.009 A 
ATOM     32  C   UNL A   1      32.124  29.846  26.760  1.00  0.00     0.009 A 
ATOM     33  C   UNL A   1      34.824  29.464  27.470  1.00  0.00     0.001 A 
ATOM     34  C   UNL A   1      32.886  30.885  27.322  1.00  0.00     0.001 A 
ATOM     35  C   UNL A   1      34.217  30.684  27.709  1.00  0.00     0.000 A 
ENDBRANCH  23  30
BRANCH  29  36
ATOM     36  N   UNL A   1      33.423  27.043  21.529  1.00  0.00     0.062 N 
ATOM     37  O   UNL A   1      34.353  27.859  21.597  1.00  0.00    -0.258 OA
ATOM     38  O   UNL A   1      33.349  26.123  20.704  1.00  0.00    -0.258 OA
ENDBRANCH  29  36
ENDBRANCH  19  20
ENDBRANCH  11  14
ENDBRANCH   9  11
ENDBRANCH   7   9
ENDBRANCH   4   7
ENDBRANCH   2   3
ENDBRANCH   1   2
BRANCH   1  39
ATOM     39  C   UNL A   1      41.867  21.105  27.037  1.00  0.00     0.002 C 
BRANCH  39  40
ATOM     40  C   UNL A   1      42.474  22.088  28.044  1.00  0.00     0.002 C 
BRANCH  40  41
ATOM     41  C   UNL A   1      43.772  22.757  27.589  1.00  0.00     0.021 C 
BRANCH  41  42
ATOM     42  C   UNL A   1      43.648  24.247  27.298  1.00  0.00     0.116 C 
BRANCH  42  43
ATOM     43  N   UNL A   1      42.820  24.507  26.132  1.00  0.00    -0.352 N 
ATOM     44  C   UNL A   1      41.747  25.354  26.014  1.00  0.00     0.251 C 
ATOM     45  H   UNL A   1      43.060  24.008  25.319  1.00  0.00     0.163 HD
ATOM     46  O   UNL A   1      41.029  25.304  25.020  1.00  0.00    -0.269 OA
BRANCH  44  47
ATOM     47  C   UNL A   1      41.454  26.309  27.103  1.00  0.00     0.039 A 
ATOM     48  C   UNL A   1      40.532  25.952  28.088  1.00  0.00     0.014 A 
ATOM     49  C   UNL A   1      42.102  27.548  27.158  1.00  0.00     0.014 A 
ATOM     50  C   UNL A   1      40.300  26.816  29.158  1.00  0.00     0.010 A 
ATOM     51  C   UNL A   1      41.930  28.369  28.267  1.00  0.00     0.010 A 
ATOM     52  C   UNL A   1      41.021  28.017  29.275  1.00  0.00    -0.014 A 
BRANCH  52  53
ATOM     53  C   UNL A   1      40.833  28.915  30.442  1.00  0.00     0.031 A 
ATOM     54  C   UNL A   1      41.675  28.737  31.676  1.00  0.00     0.074 A 
ATOM     55  C   UNL A   1      39.865  29.852  30.413  1.00  0.00     0.049 A 
ATOM     56  N   UNL A   1      41.626  29.385  32.811  1.00  0.00    -0.248 NA
ATOM     57  C   UNL A   1      42.689  27.670  31.640  1.00  0.00     0.031 C 
ATOM     58  C   UNL A   1      38.951  30.089  29.292  1.00  0.00     0.029 A 
ATOM     59  N   UNL A   1      39.481  30.776  31.353  1.00  0.00    -0.354 N 
ATOM     60  C   UNL A   1      42.590  28.801  33.624  1.00  0.00     0.074 A 
ATOM     61  C   UNL A   1      43.166  27.706  32.875  1.00  0.00     0.031 C 
ATOM     62  C   UNL A   1      38.133  31.106  29.599  1.00  0.00     0.029 A 
ATOM     63  C   UNL A   1      38.430  31.567  30.951  1.00  0.00     0.049 A 
ATOM     64  H   UNL A   1      39.916  30.864  32.230  1.00  0.00     0.167 HD
ATOM     65  C   UNL A   1      42.977  29.160  34.871  1.00  0.00     0.037 A 
ATOM     66  C   UNL A   1      37.772  32.547  31.603  1.00  0.00     0.037 A 
ATOM     67  C   UNL A   1      42.405  30.261  35.604  1.00  0.00     0.049 A 
ATOM     68  C   UNL A   1      38.209  32.919  32.994  1.00  0.00     0.074 A 
ATOM     69  C   UNL A   1      42.762  30.742  36.851  1.00  0.00     0.029 A 
ATOM     70  N   UNL A   1      41.349  31.045  35.160  1.00  0.00    -0.354 N 
ATOM     71  N   UNL A   1      39.171  32.402  33.723  1.00  0.00    -0.248 NA
ATOM     72  C   UNL A   1      37.477  34.011  33.650  1.00  0.00     0.031 C 
ATOM     73  C   UNL A   1      41.885  31.778  37.187  1.00  0.00     0.029 A 
ATOM     74  C   UNL A   1      41.023  31.988  36.122  1.00  0.00     0.049 A 
ATOM     75  H   UNL A   1      40.898  30.946  34.291  1.00  0.00     0.167 HD
ATOM     76  C   UNL A   1      39.179  33.125  34.911  1.00  0.00     0.074 A 
ATOM     77  C   UNL A   1      38.134  34.123  34.797  1.00  0.00     0.031 C 
ATOM     78  C   UNL A   1      39.982  32.979  35.995  1.00  0.00     0.037 A 
BRANCH  65  79
ATOM     79  C   UNL A   1      44.067  28.351  35.525  1.00  0.00     0.058 A 
ATOM     80  C   UNL A   1      45.426  28.666  35.360  1.00  0.00     0.135 A 
ATOM     81  C   UNL A   1      43.748  27.257  36.348  1.00  0.00     0.135 A 
ATOM     82  F   UNL A   1      45.792  29.692  34.575  1.00  0.00    -0.206 F 
ATOM     83  C   UNL A   1      46.428  27.906  35.954  1.00  0.00     0.059 A 
ATOM     84  C   UNL A   1      44.734  26.504  36.979  1.00  0.00     0.059 A 
ATOM     85  F   UNL A   1      42.466  26.909  36.543  1.00  0.00    -0.206 F 
ATOM     86  C   UNL A   1      46.072  26.825  36.761  1.00  0.00     0.060 A 
BRANCH  86  87
ATOM     87  S   UNL A   1      47.386  25.847  37.517  1.00  0.00     0.124 S 
ATOM     88  O   UNL A   1      46.871  25.662  38.870  1.00  0.00    -0.237 OA
ATOM     89  O   UNL A   1      47.407  24.652  36.679  1.00  0.00    -0.237 OA
ATOM     90  O   UNL A   1      48.560  26.708  37.406  1.00  0.00    -0.744 OA
ENDBRANCH  86  87
ENDBRANCH  65  79
BRANCH  66  91
ATOM     91  C   UNL A   1      36.647  33.255  30.934  1.00  0.00     0.058 A 
ATOM     92  C   UNL A   1      36.887  34.256  29.981  1.00  0.00     0.135 A 
ATOM     93  C   UNL A   1      35.312  32.927  31.213  1.00  0.00     0.135 A 
ATOM     94  F   UNL A   1      38.146  34.610  29.682  1.00  0.00    -0.206 F 
ATOM     95  C   UNL A   1      35.845  34.914  29.336  1.00  0.00     0.059 A 
ATOM     96  C   UNL A   1      34.253  33.551  30.562  1.00  0.00     0.059 A 
ATOM     97  F   UNL A   1      35.027  31.965  32.106  1.00  0.00    -0.206 F 
ATOM     98  C   UNL A   1      34.530  34.549  29.629  1.00  0.00     0.060 A 
BRANCH  98  99
ATOM     99  S   UNL A   1      33.187  35.368  28.742  1.00  0.00     0.124 S 
ATOM    100  O   UNL A   1      32.426  35.958  29.836  1.00  0.00    -0.237 OA
ATOM    101  O   UNL A   1      33.914  36.306  27.890  1.00  0.00    -0.237 OA
ATOM    102  O   UNL A   1      32.532  34.271  28.036  1.00  0.00    -0.744 OA
ENDBRANCH  98  99
ENDBRANCH  66  91
BRANCH  78 103
ATOM    103  C   UNL A   1      39.792  33.943  37.135  1.00  0.00     0.058 A 
ATOM    104  C   UNL A   1      40.302  35.250  37.097  1.00  0.00     0.135 A 
ATOM    105  C   UNL A   1      39.035  33.569  38.259  1.00  0.00     0.135 A 
ATOM    106  F   UNL A   1      41.037  35.658  36.050  1.00  0.00    -0.206 F 
ATOM    107  C   UNL A   1      40.091  36.143  38.143  1.00  0.00     0.059 A 
ATOM    108  C   UNL A   1      38.785  34.456  39.300  1.00  0.00     0.059 A 
ATOM    109  F   UNL A   1      38.514  32.334  38.343  1.00  0.00    -0.206 F 
ATOM    110  C   UNL A   1      39.327  35.737  39.239  1.00  0.00     0.060 A 
BRANCH 110 111
ATOM    111  S   UNL A   1      39.031  36.919  40.571  1.00  0.00     0.124 S 
ATOM    112  O   UNL A   1      38.102  36.180  41.419  1.00  0.00    -0.237 OA
ATOM    113  O   UNL A   1      40.371  37.114  41.118  1.00  0.00    -0.237 OA
ATOM    114  O   UNL A   1      38.466  38.075  39.882  1.00  0.00    -0.744 OA
ENDBRANCH 110 111
ENDBRANCH  78 103
ENDBRANCH  52  53
ENDBRANCH  44  47
ENDBRANCH  42  43
ENDBRANCH  41  42
ENDBRANCH  40  41
ENDBRANCH  39  40
ENDBRANCH   1  39
TORSDOF 22
ENDMDL
MODEL 3
REMARK VINA RESULT:     -12.9      1.319      2.363
REMARK SMILES C[C@H](NS(=O)(=O)c1ccc(-c2cc(-c3ccccc3)c3cc([N+](=O)[O-])ccc3n2)cc1)C(=O)NCCCCCCNC(=O)c1ccc(-c2c3nc(c(-c4c(F)cc(S(=O)(=O)[O-])cc4F)c4ccc([nH]4)c(-c4c(F)cc(S(=O)(=O)[O-])cc4F)c4nc(c(-c5c(F)cc(S(=O)(=O)[O-])cc5F)c5ccc2[nH]5)C=C4)C=C3)cc1
REMARK SMILES IDX 36 1 35 2 34 3 32 4 33 5 2 7 1 8 3 9 4 11 5 12 6 13 7 14
REMARK SMILES IDX 8 15 31 16 9 17 30 18 10 19 11 20 12 21 29 22 13 23 28 24
REMARK SMILES IDX 20 25 27 26 21 27 26 28 22 29 14 30 15 31 19 32 16 33 18 34
REMARK SMILES IDX 17 35 23 36 24 37 25 38 37 39 38 40 39 41 40 42 41 43 42 44
REMARK SMILES IDX 43 46 44 47 45 48 109 49 46 50 108 51 47 52 48 53 49 54
REMARK SMILES IDX 102 55 50 56 107 57 101 58 103 59 51 60 106 61 100 62 99 63
REMARK SMILES IDX 52 65 86 66 65 67 85 68 66 69 69 70 84 71 104 72 67 73 68 74
REMARK SMILES IDX 83 76 105 77 70 78 53 79 54 80 63 81 55 82 56 83 62 84 64 85
REMARK SMILES IDX 57 86 58 87 59 88 60 89 61 90 87 91 88 92 97 93 89 94 90 95
REMARK SMILES IDX 96 96 98 97 91 98 92 99 93 100 94 101 95 102 71 103 72 104
REMARK SMILES IDX 81 105 73 106 74 107 80 108 82 109 75 110 76 111 77 112
REMARK SMILES IDX 78 113 79 114
REMARK H PARENT 34 6 3 10 41 45 103 64 69 75
REMARK Flexibility Score: inf
ROOT
ATOM      1  C   UNL A   1      40.918  20.622  26.765  1.00  0.00     0.021 C 
ENDROOT
BRANCH   1   2
ATOM      2  C   UNL A   1      39.624  21.132  26.143  1.00  0.00     0.116 C 
BRANCH   2   3
ATOM      3  N   UNL A   1      39.323  22.452  26.644  1.00  0.00    -0.355 N 
ATOM      4  C   UNL A   1      38.268  23.261  26.375  1.00  0.00     0.237 C 
ATOM      5  O   UNL A   1      38.351  24.422  26.787  1.00  0.00    -0.273 OA
ATOM      6  H   UNL A   1      39.984  22.820  27.273  1.00  0.00     0.163 HD
BRANCH   4   7
ATOM      7  C   UNL A   1      37.012  22.751  25.645  1.00  0.00     0.155 C 
ATOM      8  C   UNL A   1      36.901  23.398  24.270  1.00  0.00     0.036 C 
BRANCH   7   9
ATOM      9  N   UNL A   1      35.790  22.824  26.446  1.00  0.00    -0.199 NA
ATOM     10  H   UNL A   1      35.320  23.684  26.162  1.00  0.00     0.142 HD
BRANCH   9  11
ATOM     11  S   UNL A   1      34.610  21.632  26.436  1.00  0.00     0.241 S 
ATOM     12  O   UNL A   1      35.114  20.588  25.577  1.00  0.00    -0.207 OA
ATOM     13  O   UNL A   1      34.240  21.367  27.811  1.00  0.00    -0.207 OA
BRANCH  11  14
ATOM     14  C   UNL A   1      33.194  22.353  25.621  1.00  0.00     0.082 A 
ATOM     15  C   UNL A   1      32.651  21.752  24.483  1.00  0.00     0.022 A 
ATOM     16  C   UNL A   1      32.616  23.521  26.126  1.00  0.00     0.022 A 
ATOM     17  C   UNL A   1      31.695  22.444  23.720  1.00  0.00     0.012 A 
ATOM     18  C   UNL A   1      31.627  24.184  25.386  1.00  0.00     0.012 A 
ATOM     19  C   UNL A   1      31.288  23.747  24.081  1.00  0.00     0.000 A 
BRANCH  19  20
ATOM     20  C   UNL A   1      31.197  24.797  22.981  1.00  0.00     0.072 A 
ATOM     21  C   UNL A   1      30.083  25.622  22.815  1.00  0.00     0.038 A 
ATOM     22  N   UNL A   1      32.408  25.411  22.974  1.00  0.00    -0.248 NA
ATOM     23  C   UNL A   1      30.218  26.942  23.250  1.00  0.00    -0.007 A 
ATOM     24  C   UNL A   1      32.480  26.486  23.761  1.00  0.00     0.072 A 
ATOM     25  C   UNL A   1      31.321  27.177  24.082  1.00  0.00     0.015 A 
ATOM     26  C   UNL A   1      33.649  26.851  24.403  1.00  0.00     0.036 A 
ATOM     27  C   UNL A   1      31.263  28.002  25.224  1.00  0.00     0.096 A 
ATOM     28  C   UNL A   1      33.621  27.687  25.529  1.00  0.00     0.088 A 
ATOM     29  C   UNL A   1      32.401  28.173  25.995  1.00  0.00     0.270 A 
BRANCH  23  30
ATOM     30  C   UNL A   1      29.416  28.130  22.880  1.00  0.00    -0.018 A 
ATOM     31  C   UNL A   1      30.116  29.220  22.290  1.00  0.00     0.009 A 
ATOM     32  C   UNL A   1      28.064  28.313  23.154  1.00  0.00     0.009 A 
ATOM     33  C   UNL A   1      29.549  30.476  22.128  1.00  0.00     0.001 A 
ATOM     34  C   UNL A   1      27.476  29.574  22.954  1.00  0.00     0.001 A 
ATOM     35  C   UNL A   1      28.224  30.658  22.479  1.00  0.00     0.000 A 
ENDBRANCH  23  30
BRANCH  29  36
ATOM     36  N   UNL A   1      32.287  28.762  27.332  1.00  0.00     0.062 N 
ATOM     37  O   UNL A   1      32.780  29.885  27.509  1.00  0.00    -0.258 OA
ATOM     38  O   UNL A   1      31.665  28.119  28.188  1.00  0.00    -0.258 OA
ENDBRANCH  29  36
ENDBRANCH  19  20
ENDBRANCH  11  14
ENDBRANCH   9  11
ENDBRANCH   7   9
ENDBRANCH   4   7
ENDBRANCH   2   3
ENDBRANCH   1   2
BRANCH   1  39
ATOM     39  C   UNL A   1      41.742  21.697  27.486  1.00  0.00     0.002 C 
BRANCH  39  40
ATOM     40  C   UNL A   1      43.055  22.086  26.798  1.00  0.00     0.002 C 
BRANCH  40  41
ATOM     41  C   UNL A   1      43.943  23.043  27.596  1.00  0.00     0.021 C 
BRANCH  41  42
ATOM     42  C   UNL A   1      44.330  24.315  26.852  1.00  0.00     0.116 C 
BRANCH  42  43
ATOM     43  N   UNL A   1      43.343  24.681  25.851  1.00  0.00    -0.352 N 
ATOM     44  C   UNL A   1      42.255  25.507  25.980  1.00  0.00     0.251 C 
ATOM     45  H   UNL A   1      43.472  24.284  24.959  1.00  0.00     0.163 HD
ATOM     46  O   UNL A   1      41.404  25.550  25.097  1.00  0.00    -0.269 OA
BRANCH  44  47
ATOM     47  C   UNL A   1      42.107  26.325  27.203  1.00  0.00     0.039 A 
ATOM     48  C   UNL A   1      42.792  27.537  27.294  1.00  0.00     0.014 A 
ATOM     49  C   UNL A   1      41.280  25.900  28.248  1.00  0.00     0.014 A 
ATOM     50  C   UNL A   1      42.606  28.349  28.414  1.00  0.00     0.010 A 
ATOM     51  C   UNL A   1      41.033  26.748  29.322  1.00  0.00     0.010 A 
ATOM     52  C   UNL A   1      41.700  27.977  29.422  1.00  0.00    -0.014 A 
BRANCH  52  53
ATOM     53  C   UNL A   1      41.441  28.863  30.586  1.00  0.00     0.031 A 
ATOM     54  C   UNL A   1      42.274  28.734  31.833  1.00  0.00     0.074 A 
ATOM     55  C   UNL A   1      40.420  29.740  30.541  1.00  0.00     0.049 A 
ATOM     56  N   UNL A   1      42.170  29.378  32.966  1.00  0.00    -0.248 NA
ATOM     57  C   UNL A   1      43.350  27.729  31.812  1.00  0.00     0.031 C 
ATOM     58  C   UNL A   1      39.511  29.922  29.407  1.00  0.00     0.029 A 
ATOM     59  N   UNL A   1      39.967  30.639  31.474  1.00  0.00    -0.354 N 
ATOM     60  C   UNL A   1      43.155  28.852  33.793  1.00  0.00     0.074 A 
ATOM     61  C   UNL A   1      43.806  27.794  33.054  1.00  0.00     0.031 C 
ATOM     62  C   UNL A   1      38.629  30.889  29.700  1.00  0.00     0.029 A 
ATOM     63  C   UNL A   1      38.877  31.367  31.057  1.00  0.00     0.049 A 
ATOM     64  H   UNL A   1      40.384  30.753  32.359  1.00  0.00     0.167 HD
ATOM     65  C   UNL A   1      43.500  29.233  35.046  1.00  0.00     0.037 A 
ATOM     66  C   UNL A   1      38.153  32.305  31.698  1.00  0.00     0.037 A 
ATOM     67  C   UNL A   1      42.853  30.298  35.770  1.00  0.00     0.049 A 
ATOM     68  C   UNL A   1      38.546  32.703  33.095  1.00  0.00     0.074 A 
ATOM     69  C   UNL A   1      43.162  30.799  37.021  1.00  0.00     0.029 A 
ATOM     70  N   UNL A   1      41.759  31.018  35.309  1.00  0.00    -0.354 N 
ATOM     71  N   UNL A   1      39.526  32.244  33.839  1.00  0.00    -0.248 NA
ATOM     72  C   UNL A   1      37.741  33.748  33.740  1.00  0.00     0.031 C 
ATOM     73  C   UNL A   1      42.219  31.781  37.343  1.00  0.00     0.029 A 
ATOM     74  C   UNL A   1      41.363  31.939  36.265  1.00  0.00     0.049 A 
ATOM     75  H   UNL A   1      41.328  30.892  34.434  1.00  0.00     0.167 HD
ATOM     76  C   UNL A   1      39.473  32.966  35.026  1.00  0.00     0.074 A 
ATOM     77  C   UNL A   1      38.372  33.899  34.896  1.00  0.00     0.031 C 
ATOM     78  C   UNL A   1      40.266  32.867  36.122  1.00  0.00     0.037 A 
BRANCH  65  79
ATOM     79  C   UNL A   1      44.626  28.490  35.717  1.00  0.00     0.058 A 
ATOM     80  C   UNL A   1      45.939  28.991  35.735  1.00  0.00     0.135 A 
ATOM     81  C   UNL A   1      44.387  27.270  36.372  1.00  0.00     0.135 A 
ATOM     82  F   UNL A   1      46.231  30.145  35.114  1.00  0.00    -0.206 F 
ATOM     83  C   UNL A   1      46.978  28.293  36.342  1.00  0.00     0.059 A 
ATOM     84  C   UNL A   1      45.404  26.572  37.016  1.00  0.00     0.059 A 
ATOM     85  F   UNL A   1      43.151  26.743  36.389  1.00  0.00    -0.206 F 
ATOM     86  C   UNL A   1      46.700  27.082  36.979  1.00  0.00     0.060 A 
BRANCH  86  87
ATOM     87  S   UNL A   1      48.061  26.188  37.756  1.00  0.00     0.124 S 
ATOM     88  O   UNL A   1      47.754  24.810  37.385  1.00  0.00    -0.237 OA
ATOM     89  O   UNL A   1      49.230  26.773  37.106  1.00  0.00    -0.237 OA
ATOM     90  O   UNL A   1      47.912  26.503  39.174  1.00  0.00    -0.744 OA
ENDBRANCH  86  87
ENDBRANCH  65  79
BRANCH  66  91
ATOM     91  C   UNL A   1      36.998  32.945  31.012  1.00  0.00     0.058 A 
ATOM     92  C   UNL A   1      37.194  33.872  29.978  1.00  0.00     0.135 A 
ATOM     93  C   UNL A   1      35.676  32.623  31.357  1.00  0.00     0.135 A 
ATOM     94  F   UNL A   1      38.438  34.219  29.614  1.00  0.00    -0.206 F 
ATOM     95  C   UNL A   1      36.123  34.466  29.317  1.00  0.00     0.059 A 
ATOM     96  C   UNL A   1      34.589  33.181  30.692  1.00  0.00     0.059 A 
ATOM     97  F   UNL A   1      35.433  31.729  32.329  1.00  0.00    -0.206 F 
ATOM     98  C   UNL A   1      34.823  34.108  29.678  1.00  0.00     0.060 A 
BRANCH  98  99
ATOM     99  S   UNL A   1      33.443  34.839  28.772  1.00  0.00     0.124 S 
ATOM    100  O   UNL A   1      32.453  35.009  29.828  1.00  0.00    -0.237 OA
ATOM    101  O   UNL A   1      34.038  36.066  28.250  1.00  0.00    -0.237 OA
ATOM    102  O   UNL A   1      33.127  33.829  27.767  1.00  0.00    -0.744 OA
ENDBRANCH  98  99
ENDBRANCH  66  91
BRANCH  78 103
ATOM    103  C   UNL A   1      40.002  33.817  37.259  1.00  0.00     0.058 A 
ATOM    104  C   UNL A   1      40.535  35.116  37.281  1.00  0.00     0.135 A 
ATOM    105  C   UNL A   1      39.155  33.440  38.315  1.00  0.00     0.135 A 
ATOM    106  F   UNL A   1      41.355  35.527  36.302  1.00  0.00    -0.206 F 
ATOM    107  C   UNL A   1      40.256  35.998  38.321  1.00  0.00     0.059 A 
ATOM    108  C   UNL A   1      38.837  34.316  39.347  1.00  0.00     0.059 A 
ATOM    109  F   UNL A   1      38.610  32.213  38.338  1.00  0.00    -0.206 F 
ATOM    110  C   UNL A   1      39.402  35.589  39.348  1.00  0.00     0.060 A 
BRANCH 110 111
ATOM    111  S   UNL A   1      39.020  36.757  40.671  1.00  0.00     0.124 S 
ATOM    112  O   UNL A   1      37.966  36.051  41.391  1.00  0.00    -0.237 OA
ATOM    113  O   UNL A   1      40.299  36.868  41.366  1.00  0.00    -0.237 OA
ATOM    114  O   UNL A   1      38.595  37.956  39.955  1.00  0.00    -0.744 OA
ENDBRANCH 110 111
ENDBRANCH  78 103
ENDBRANCH  52  53
ENDBRANCH  44  47
ENDBRANCH  42  43
ENDBRANCH  41  42
ENDBRANCH  40  41
ENDBRANCH  39  40
ENDBRANCH   1  39
TORSDOF 22
ENDMDL
