MODEL 1
REMARK VINA RESULT:     -10.6      0.000      0.000
REMARK SMILES Cc1ccc(NC(=O)c2cccn2CC(=O)NCCCCCCNC(=O)c2ccc(-c3c4nc(c(-c5c(F)cc(S(=O)(=O)[O-])cc5F)c5ccc([nH]5)c(-c5c(F)cc(S(=O)(=O)[O-])cc5F)c5nc(c(-c6c(F)cc(S(=O)(=O)[O-])cc6F)c6ccc3[nH]6)C=C5)C=C4)cc2)cc1
REMARK SMILES IDX 20 1 19 2 18 3 17 4 15 5 16 6 14 8 13 9 9 10 10 11 11 12
REMARK SMILES IDX 12 13 7 14 6 15 8 17 5 18 1 19 2 20 3 21 94 22 4 23 93 24
REMARK SMILES IDX 21 25 22 26 23 27 24 28 25 29 26 31 27 32 28 33 92 34 29 35
REMARK SMILES IDX 91 36 30 37 31 38 32 39 85 40 33 41 90 42 84 43 86 44 34 45
REMARK SMILES IDX 89 46 83 47 82 48 35 50 69 51 48 52 68 53 49 54 52 55 67 56
REMARK SMILES IDX 87 57 50 58 51 59 66 61 88 62 53 63 36 64 37 65 46 66 38 67
REMARK SMILES IDX 39 68 45 69 47 70 40 71 41 72 42 73 43 74 44 75 70 76 71 77
REMARK SMILES IDX 80 78 72 79 73 80 79 81 81 82 74 83 75 84 76 85 77 86 78 87
REMARK SMILES IDX 54 88 55 89 64 90 56 91 57 92 63 93 65 94 58 95 59 96 60 97
REMARK SMILES IDX 61 98 62 99
REMARK H PARENT 17 7 6 16 24 30 86 49 52 60
REMARK Flexibility Score: inf
ROOT
ATOM      1  C   UNL A   1      33.218  21.704  25.274  1.00  0.00     0.002 C 
ENDROOT
BRANCH   1   2
ATOM      2  C   UNL A   1      32.956  21.128  23.874  1.00  0.00     0.021 C 
BRANCH   2   3
ATOM      3  C   UNL A   1      32.519  22.096  22.768  1.00  0.00     0.116 C 
BRANCH   3   4
ATOM      4  N   UNL A   1      33.396  23.253  22.644  1.00  0.00    -0.355 N 
ATOM      5  C   UNL A   1      33.095  24.573  22.451  1.00  0.00     0.239 C 
ATOM      6  O   UNL A   1      34.031  25.379  22.408  1.00  0.00    -0.273 OA
ATOM      7  H   UNL A   1      34.358  23.052  22.710  1.00  0.00     0.163 HD
BRANCH   5   8
ATOM      8  C   UNL A   1      31.659  25.054  22.363  1.00  0.00     0.222 C 
BRANCH   8   9
ATOM      9  N   UNL A   1      31.077  25.456  23.639  1.00  0.00    -0.334 N 
ATOM     10  C   UNL A   1      30.599  26.717  23.954  1.00  0.00     0.107 A 
ATOM     11  C   UNL A   1      29.918  26.594  25.160  1.00  0.00     0.033 A 
ATOM     12  C   UNL A   1      30.131  25.285  25.651  1.00  0.00     0.020 A 
ATOM     13  C   UNL A   1      30.842  24.603  24.691  1.00  0.00     0.087 A 
BRANCH  10  14
ATOM     14  C   UNL A   1      30.758  27.896  23.144  1.00  0.00     0.272 C 
ATOM     15  N   UNL A   1      31.493  28.974  23.573  1.00  0.00    -0.321 N 
ATOM     16  H   UNL A   1      31.415  29.753  22.977  1.00  0.00     0.170 HD
ATOM     17  O   UNL A   1      30.267  27.966  22.001  1.00  0.00    -0.267 OA
BRANCH  15  18
ATOM     18  C   UNL A   1      32.336  29.208  24.683  1.00  0.00     0.041 A 
ATOM     19  C   UNL A   1      35.079  29.699  28.007  1.00  0.00     0.044 C 
ATOM     20  C   UNL A   1      34.133  29.490  26.860  1.00  0.00    -0.051 A 
ATOM     21  C   UNL A   1      32.955  30.230  26.806  1.00  0.00     0.005 A 
ATOM     22  C   UNL A   1      34.407  28.594  25.825  1.00  0.00     0.005 A 
ATOM     23  C   UNL A   1      32.067  30.078  25.736  1.00  0.00     0.026 A 
ATOM     24  C   UNL A   1      33.517  28.457  24.748  1.00  0.00     0.026 A 
ENDBRANCH  15  18
ENDBRANCH  10  14
ENDBRANCH   8   9
ENDBRANCH   5   8
ENDBRANCH   3   4
ENDBRANCH   2   3
ENDBRANCH   1   2
BRANCH   1  25
ATOM     25  C   UNL A   1      34.691  21.816  25.718  1.00  0.00     0.002 C 
BRANCH  25  26
ATOM     26  C   UNL A   1      35.771  20.958  25.002  1.00  0.00     0.021 C 
BRANCH  26  27
ATOM     27  C   UNL A   1      37.225  21.504  24.802  1.00  0.00     0.116 C 
BRANCH  27  28
ATOM     28  N   UNL A   1      38.161  21.304  25.929  1.00  0.00    -0.352 N 
ATOM     29  C   UNL A   1      39.371  21.983  26.126  1.00  0.00     0.251 C 
ATOM     30  H   UNL A   1      37.911  20.631  26.602  1.00  0.00     0.163 HD
ATOM     31  O   UNL A   1      40.407  21.394  25.807  1.00  0.00    -0.269 OA
BRANCH  29  32
ATOM     32  C   UNL A   1      39.486  23.322  26.866  1.00  0.00     0.039 A 
ATOM     33  C   UNL A   1      40.645  23.611  27.639  1.00  0.00     0.014 A 
ATOM     34  C   UNL A   1      38.508  24.300  26.889  1.00  0.00     0.014 A 
ATOM     35  C   UNL A   1      40.875  24.870  28.315  1.00  0.00     0.010 A 
ATOM     36  C   UNL A   1      38.712  25.520  27.619  1.00  0.00     0.010 A 
ATOM     37  C   UNL A   1      39.923  25.894  28.292  1.00  0.00    -0.014 A 
BRANCH  37  38
ATOM     38  C   UNL A   1      40.266  27.417  28.387  1.00  0.00     0.031 A 
ATOM     39  C   UNL A   1      40.401  27.784  29.790  1.00  0.00     0.074 A 
ATOM     40  C   UNL A   1      40.983  28.364  27.674  1.00  0.00     0.049 A 
ATOM     41  N   UNL A   1      41.425  27.284  30.378  1.00  0.00    -0.248 NA
ATOM     42  C   UNL A   1      39.616  28.704  30.583  1.00  0.00     0.031 C 
ATOM     43  C   UNL A   1      41.278  28.369  26.250  1.00  0.00     0.029 A 
ATOM     44  N   UNL A   1      41.757  29.507  28.160  1.00  0.00    -0.354 N 
ATOM     45  C   UNL A   1      41.627  27.995  31.496  1.00  0.00     0.074 A 
ATOM     46  C   UNL A   1      40.421  28.798  31.657  1.00  0.00     0.031 C 
ATOM     47  C   UNL A   1      42.193  29.326  25.975  1.00  0.00     0.029 A 
ATOM     48  C   UNL A   1      42.686  30.000  27.214  1.00  0.00     0.049 A 
ATOM     49  H   UNL A   1      41.643  29.894  29.058  1.00  0.00     0.167 HD
ATOM     50  C   UNL A   1      42.862  27.905  32.045  1.00  0.00     0.037 A 
ATOM     51  C   UNL A   1      44.010  30.432  27.316  1.00  0.00     0.037 A 
ATOM     52  C   UNL A   1      43.818  27.018  31.339  1.00  0.00     0.049 A 
ATOM     53  C   UNL A   1      44.667  29.144  26.980  1.00  0.00     0.074 A 
ATOM     54  C   UNL A   1      44.719  26.037  31.705  1.00  0.00     0.029 A 
ATOM     55  N   UNL A   1      43.899  27.035  29.942  1.00  0.00    -0.354 N 
ATOM     56  N   UNL A   1      44.523  28.174  27.820  1.00  0.00    -0.248 NA
ATOM     57  C   UNL A   1      45.477  28.853  25.816  1.00  0.00     0.031 C 
ATOM     58  C   UNL A   1      45.244  25.423  30.512  1.00  0.00     0.029 A 
ATOM     59  C   UNL A   1      44.683  26.021  29.393  1.00  0.00     0.049 A 
ATOM     60  H   UNL A   1      43.439  27.708  29.391  1.00  0.00     0.167 HD
ATOM     61  C   UNL A   1      45.112  27.080  27.288  1.00  0.00     0.074 A 
ATOM     62  C   UNL A   1      45.723  27.554  26.053  1.00  0.00     0.031 C 
ATOM     63  C   UNL A   1      44.877  25.895  27.910  1.00  0.00     0.037 A 
BRANCH  50  64
ATOM     64  C   UNL A   1      43.163  28.835  33.161  1.00  0.00     0.058 A 
ATOM     65  C   UNL A   1      43.026  30.217  32.981  1.00  0.00     0.135 A 
ATOM     66  C   UNL A   1      43.438  28.377  34.464  1.00  0.00     0.135 A 
ATOM     67  F   UNL A   1      42.754  30.717  31.767  1.00  0.00    -0.206 F 
ATOM     68  C   UNL A   1      43.105  31.103  34.052  1.00  0.00     0.059 A 
ATOM     69  C   UNL A   1      43.474  29.236  35.554  1.00  0.00     0.059 A 
ATOM     70  F   UNL A   1      43.613  27.066  34.708  1.00  0.00    -0.206 F 
ATOM     71  C   UNL A   1      43.310  30.600  35.338  1.00  0.00     0.060 A 
BRANCH  71  72
ATOM     72  S   UNL A   1      43.318  31.726  36.747  1.00  0.00     0.124 S 
ATOM     73  O   UNL A   1      44.689  31.588  37.224  1.00  0.00    -0.237 OA
ATOM     74  O   UNL A   1      42.968  33.003  36.137  1.00  0.00    -0.237 OA
ATOM     75  O   UNL A   1      42.294  31.166  37.626  1.00  0.00    -0.744 OA
ENDBRANCH  71  72
ENDBRANCH  50  64
BRANCH  51  76
ATOM     76  C   UNL A   1      44.984  31.221  28.240  1.00  0.00     0.058 A 
ATOM     77  C   UNL A   1      45.908  32.138  27.700  1.00  0.00     0.135 A 
ATOM     78  C   UNL A   1      45.301  30.834  29.582  1.00  0.00     0.135 A 
ATOM     79  F   UNL A   1      45.787  32.521  26.419  1.00  0.00    -0.206 F 
ATOM     80  C   UNL A   1      47.043  32.608  28.414  1.00  0.00     0.059 A 
ATOM     81  C   UNL A   1      46.425  31.271  30.300  1.00  0.00     0.059 A 
ATOM     82  F   UNL A   1      44.584  29.925  30.251  1.00  0.00    -0.206 F 
ATOM     83  C   UNL A   1      47.307  32.151  29.709  1.00  0.00     0.060 A 
BRANCH  83  84
ATOM     84  S   UNL A   1      48.826  32.632  30.583  1.00  0.00     0.124 S 
ATOM     85  O   UNL A   1      48.704  31.889  31.835  1.00  0.00    -0.237 OA
ATOM     86  O   UNL A   1      49.870  32.169  29.678  1.00  0.00    -0.237 OA
ATOM     87  O   UNL A   1      48.708  34.082  30.722  1.00  0.00    -0.744 OA
ENDBRANCH  83  84
ENDBRANCH  51  76
BRANCH  63  88
ATOM     88  C   UNL A   1      44.827  24.600  27.116  1.00  0.00     0.058 A 
ATOM     89  C   UNL A   1      45.842  23.605  27.110  1.00  0.00     0.135 A 
ATOM     90  C   UNL A   1      43.803  24.368  26.179  1.00  0.00     0.135 A 
ATOM     91  F   UNL A   1      47.029  23.778  27.704  1.00  0.00    -0.206 F 
ATOM     92  C   UNL A   1      45.745  22.405  26.409  1.00  0.00     0.059 A 
ATOM     93  C   UNL A   1      43.706  23.192  25.426  1.00  0.00     0.059 A 
ATOM     94  F   UNL A   1      42.885  25.306  25.906  1.00  0.00    -0.206 F 
ATOM     95  C   UNL A   1      44.656  22.193  25.586  1.00  0.00     0.060 A 
BRANCH  95  96
ATOM     96  S   UNL A   1      44.548  20.639  24.686  1.00  0.00     0.124 S 
ATOM     97  O   UNL A   1      45.762  19.945  25.117  1.00  0.00    -0.237 OA
ATOM     98  O   UNL A   1      43.296  20.089  25.199  1.00  0.00    -0.237 OA
ATOM     99  O   UNL A   1      44.530  21.053  23.292  1.00  0.00    -0.744 OA
ENDBRANCH  95  96
ENDBRANCH  63  88
ENDBRANCH  37  38
ENDBRANCH  29  32
ENDBRANCH  27  28
ENDBRANCH  26  27
ENDBRANCH  25  26
ENDBRANCH   1  25
TORSDOF 19
ENDMDL
MODEL 2
REMARK VINA RESULT:     -10.3      1.760      2.882
REMARK SMILES Cc1ccc(NC(=O)c2cccn2CC(=O)NCCCCCCNC(=O)c2ccc(-c3c4nc(c(-c5c(F)cc(S(=O)(=O)[O-])cc5F)c5ccc([nH]5)c(-c5c(F)cc(S(=O)(=O)[O-])cc5F)c5nc(c(-c6c(F)cc(S(=O)(=O)[O-])cc6F)c6ccc3[nH]6)C=C5)C=C4)cc2)cc1
REMARK SMILES IDX 20 1 19 2 18 3 17 4 15 5 16 6 14 8 13 9 9 10 10 11 11 12
REMARK SMILES IDX 12 13 7 14 6 15 8 17 5 18 1 19 2 20 3 21 94 22 4 23 93 24
REMARK SMILES IDX 21 25 22 26 23 27 24 28 25 29 26 31 27 32 28 33 92 34 29 35
REMARK SMILES IDX 91 36 30 37 31 38 32 39 85 40 33 41 90 42 84 43 86 44 34 45
REMARK SMILES IDX 89 46 83 47 82 48 35 50 69 51 48 52 68 53 49 54 52 55 67 56
REMARK SMILES IDX 87 57 50 58 51 59 66 61 88 62 53 63 36 64 37 65 46 66 38 67
REMARK SMILES IDX 39 68 45 69 47 70 40 71 41 72 42 73 43 74 44 75 70 76 71 77
REMARK SMILES IDX 80 78 72 79 73 80 79 81 81 82 74 83 75 84 76 85 77 86 78 87
REMARK SMILES IDX 54 88 55 89 64 90 56 91 57 92 63 93 65 94 58 95 59 96 60 97
REMARK SMILES IDX 61 98 62 99
REMARK H PARENT 17 7 6 16 24 30 86 49 52 60
REMARK Flexibility Score: inf
ROOT
ATOM      1  C   UNL A   1      33.018  23.184  22.880  1.00  0.00     0.002 C 
ENDROOT
BRANCH   1   2
ATOM      2  C   UNL A   1      33.003  24.062  21.620  1.00  0.00     0.021 C 
BRANCH   2   3
ATOM      3  C   UNL A   1      32.118  25.315  21.626  1.00  0.00     0.116 C 
BRANCH   3   4
ATOM      4  N   UNL A   1      32.866  26.542  21.391  1.00  0.00    -0.355 N 
ATOM      5  C   UNL A   1      33.579  27.322  22.260  1.00  0.00     0.239 C 
ATOM      6  O   UNL A   1      34.159  28.314  21.804  1.00  0.00    -0.273 OA
ATOM      7  H   UNL A   1      32.857  26.861  20.459  1.00  0.00     0.163 HD
BRANCH   5   8
ATOM      8  C   UNL A   1      33.721  26.951  23.724  1.00  0.00     0.222 C 
BRANCH   8   9
ATOM      9  N   UNL A   1      33.046  27.858  24.646  1.00  0.00    -0.334 N 
ATOM     10  C   UNL A   1      31.769  27.697  25.158  1.00  0.00     0.107 A 
ATOM     11  C   UNL A   1      31.625  28.640  26.169  1.00  0.00     0.033 A 
ATOM     12  C   UNL A   1      32.763  29.480  26.151  1.00  0.00     0.020 A 
ATOM     13  C   UNL A   1      33.626  28.971  25.207  1.00  0.00     0.087 A 
BRANCH  10  14
ATOM     14  C   UNL A   1      30.818  26.706  24.730  1.00  0.00     0.272 C 
ATOM     15  N   UNL A   1      29.774  27.018  23.895  1.00  0.00    -0.321 N 
ATOM     16  H   UNL A   1      29.135  26.278  23.785  1.00  0.00     0.170 HD
ATOM     17  O   UNL A   1      30.931  25.512  25.070  1.00  0.00    -0.267 OA
BRANCH  15  18
ATOM     18  C   UNL A   1      29.417  28.171  23.159  1.00  0.00     0.041 A 
ATOM     19  C   UNL A   1      28.043  31.643  20.952  1.00  0.00     0.044 C 
ATOM     20  C   UNL A   1      28.488  30.422  21.703  1.00  0.00    -0.051 A 
ATOM     21  C   UNL A   1      29.826  30.043  21.655  1.00  0.00     0.005 A 
ATOM     22  C   UNL A   1      27.606  29.661  22.473  1.00  0.00     0.005 A 
ATOM     23  C   UNL A   1      30.276  28.925  22.366  1.00  0.00     0.026 A 
ATOM     24  C   UNL A   1      28.068  28.549  23.194  1.00  0.00     0.026 A 
ENDBRANCH  15  18
ENDBRANCH  10  14
ENDBRANCH   8   9
ENDBRANCH   5   8
ENDBRANCH   3   4
ENDBRANCH   2   3
ENDBRANCH   1   2
BRANCH   1  25
ATOM     25  C   UNL A   1      34.191  23.390  23.861  1.00  0.00     0.002 C 
BRANCH  25  26
ATOM     26  C   UNL A   1      35.052  22.170  24.289  1.00  0.00     0.021 C 
BRANCH  26  27
ATOM     27  C   UNL A   1      35.246  21.817  25.802  1.00  0.00     0.116 C 
BRANCH  27  28
ATOM     28  N   UNL A   1      36.603  21.391  26.205  1.00  0.00    -0.352 N 
ATOM     29  C   UNL A   1      37.810  21.931  25.740  1.00  0.00     0.251 C 
ATOM     30  H   UNL A   1      36.665  20.659  26.860  1.00  0.00     0.163 HD
ATOM     31  O   UNL A   1      38.410  21.303  24.863  1.00  0.00    -0.269 OA
BRANCH  29  32
ATOM     32  C   UNL A   1      38.500  23.147  26.373  1.00  0.00     0.039 A 
ATOM     33  C   UNL A   1      39.920  23.212  26.425  1.00  0.00     0.014 A 
ATOM     34  C   UNL A   1      37.842  24.211  26.965  1.00  0.00     0.014 A 
ATOM     35  C   UNL A   1      40.661  24.344  26.939  1.00  0.00     0.010 A 
ATOM     36  C   UNL A   1      38.584  25.300  27.536  1.00  0.00     0.010 A 
ATOM     37  C   UNL A   1      40.009  25.457  27.480  1.00  0.00    -0.014 A 
BRANCH  37  38
ATOM     38  C   UNL A   1      40.584  26.911  27.456  1.00  0.00     0.031 A 
ATOM     39  C   UNL A   1      40.684  27.401  28.825  1.00  0.00     0.074 A 
ATOM     40  C   UNL A   1      41.487  27.657  26.717  1.00  0.00     0.049 A 
ATOM     41  N   UNL A   1      41.574  26.817  29.538  1.00  0.00    -0.248 NA
ATOM     42  C   UNL A   1      40.006  28.509  29.460  1.00  0.00     0.031 C 
ATOM     43  C   UNL A   1      41.871  27.464  25.328  1.00  0.00     0.029 A 
ATOM     44  N   UNL A   1      42.401  28.713  27.153  1.00  0.00    -0.354 N 
ATOM     45  C   UNL A   1      41.815  27.604  30.596  1.00  0.00     0.074 A 
ATOM     46  C   UNL A   1      40.744  28.594  30.582  1.00  0.00     0.031 C 
ATOM     47  C   UNL A   1      42.943  28.237  25.038  1.00  0.00     0.029 A 
ATOM     48  C   UNL A   1      43.456  28.956  26.243  1.00  0.00     0.049 A 
ATOM     49  H   UNL A   1      42.291  29.207  27.997  1.00  0.00     0.167 HD
ATOM     50  C   UNL A   1      42.981  27.386  31.250  1.00  0.00     0.037 A 
ATOM     51  C   UNL A   1      44.823  29.190  26.409  1.00  0.00     0.037 A 
ATOM     52  C   UNL A   1      43.827  26.294  30.710  1.00  0.00     0.049 A 
ATOM     53  C   UNL A   1      45.286  27.788  26.252  1.00  0.00     0.074 A 
ATOM     54  C   UNL A   1      44.534  25.232  31.240  1.00  0.00     0.029 A 
ATOM     55  N   UNL A   1      44.000  26.149  29.329  1.00  0.00    -0.354 N 
ATOM     56  N   UNL A   1      44.934  26.947  27.166  1.00  0.00    -0.248 NA
ATOM     57  C   UNL A   1      46.113  27.255  25.191  1.00  0.00     0.031 C 
ATOM     58  C   UNL A   1      45.031  24.421  30.158  1.00  0.00     0.029 A 
ATOM     59  C   UNL A   1      44.646  24.974  28.945  1.00  0.00     0.049 A 
ATOM     60  H   UNL A   1      43.690  26.822  28.681  1.00  0.00     0.167 HD
ATOM     61  C   UNL A   1      45.375  25.725  26.790  1.00  0.00     0.074 A 
ATOM     62  C   UNL A   1      46.132  25.966  25.570  1.00  0.00     0.031 C 
ATOM     63  C   UNL A   1      44.913  24.663  27.501  1.00  0.00     0.037 A 
BRANCH  50  64
ATOM     64  C   UNL A   1      43.354  28.373  32.292  1.00  0.00     0.058 A 
ATOM     65  C   UNL A   1      44.342  29.331  32.033  1.00  0.00     0.135 A 
ATOM     66  C   UNL A   1      42.638  28.493  33.499  1.00  0.00     0.135 A 
ATOM     67  F   UNL A   1      45.053  29.279  30.897  1.00  0.00    -0.206 F 
ATOM     68  C   UNL A   1      44.577  30.391  32.904  1.00  0.00     0.059 A 
ATOM     69  C   UNL A   1      42.822  29.567  34.361  1.00  0.00     0.059 A 
ATOM     70  F   UNL A   1      41.695  27.594  33.831  1.00  0.00    -0.206 F 
ATOM     71  C   UNL A   1      43.797  30.510  34.057  1.00  0.00     0.060 A 
BRANCH  71  72
ATOM     72  S   UNL A   1      44.024  31.930  35.146  1.00  0.00     0.124 S 
ATOM     73  O   UNL A   1      45.182  31.516  35.929  1.00  0.00    -0.237 OA
ATOM     74  O   UNL A   1      44.234  33.024  34.205  1.00  0.00    -0.237 OA
ATOM     75  O   UNL A   1      42.763  31.990  35.881  1.00  0.00    -0.744 OA
ENDBRANCH  71  72
ENDBRANCH  50  64
BRANCH  51  76
ATOM     76  C   UNL A   1      45.848  29.916  27.330  1.00  0.00     0.058 A 
ATOM     77  C   UNL A   1      45.415  30.832  28.309  1.00  0.00     0.135 A 
ATOM     78  C   UNL A   1      47.245  30.032  27.035  1.00  0.00     0.135 A 
ATOM     79  F   UNL A   1      44.111  30.899  28.623  1.00  0.00    -0.206 F 
ATOM     80  C   UNL A   1      46.279  31.782  28.920  1.00  0.00     0.059 A 
ATOM     81  C   UNL A   1      48.112  30.972  27.611  1.00  0.00     0.059 A 
ATOM     82  F   UNL A   1      47.837  29.296  26.089  1.00  0.00    -0.206 F 
ATOM     83  C   UNL A   1      47.624  31.860  28.547  1.00  0.00     0.060 A 
BRANCH  83  84
ATOM     84  S   UNL A   1      48.709  33.157  29.214  1.00  0.00     0.124 S 
ATOM     85  O   UNL A   1      49.529  32.409  30.164  1.00  0.00    -0.237 OA
ATOM     86  O   UNL A   1      49.403  33.629  28.023  1.00  0.00    -0.237 OA
ATOM     87  O   UNL A   1      47.785  34.110  29.825  1.00  0.00    -0.744 OA
ENDBRANCH  83  84
ENDBRANCH  51  76
BRANCH  63  88
ATOM     88  C   UNL A   1      44.709  23.313  26.833  1.00  0.00     0.058 A 
ATOM     89  C   UNL A   1      43.594  22.458  27.042  1.00  0.00     0.135 A 
ATOM     90  C   UNL A   1      45.729  22.734  26.055  1.00  0.00     0.135 A 
ATOM     91  F   UNL A   1      42.663  22.697  27.973  1.00  0.00    -0.206 F 
ATOM     92  C   UNL A   1      43.412  21.248  26.376  1.00  0.00     0.059 A 
ATOM     93  C   UNL A   1      45.593  21.497  25.414  1.00  0.00     0.059 A 
ATOM     94  F   UNL A   1      46.931  23.315  25.938  1.00  0.00    -0.206 F 
ATOM     95  C   UNL A   1      44.409  20.784  25.540  1.00  0.00     0.060 A 
BRANCH  95  96
ATOM     96  S   UNL A   1      44.159  19.217  24.692  1.00  0.00     0.124 S 
ATOM     97  O   UNL A   1      44.459  19.563  23.302  1.00  0.00    -0.237 OA
ATOM     98  O   UNL A   1      45.146  18.365  25.352  1.00  0.00    -0.237 OA
ATOM     99  O   UNL A   1      42.767  18.898  24.967  1.00  0.00    -0.744 OA
ENDBRANCH  95  96
ENDBRANCH  63  88
ENDBRANCH  37  38
ENDBRANCH  29  32
ENDBRANCH  27  28
ENDBRANCH  26  27
ENDBRANCH  25  26
ENDBRANCH   1  25
TORSDOF 19
ENDMDL
MODEL 3
REMARK VINA RESULT:     -10.2      4.341      8.355
REMARK SMILES Cc1ccc(NC(=O)c2cccn2CC(=O)NCCCCCCNC(=O)c2ccc(-c3c4nc(c(-c5c(F)cc(S(=O)(=O)[O-])cc5F)c5ccc([nH]5)c(-c5c(F)cc(S(=O)(=O)[O-])cc5F)c5nc(c(-c6c(F)cc(S(=O)(=O)[O-])cc6F)c6ccc3[nH]6)C=C5)C=C4)cc2)cc1
REMARK SMILES IDX 20 1 19 2 18 3 17 4 15 5 16 6 14 8 13 9 9 10 10 11 11 12
REMARK SMILES IDX 12 13 7 14 6 15 8 17 5 18 1 19 2 20 3 21 94 22 4 23 93 24
REMARK SMILES IDX 21 25 22 26 23 27 24 28 25 29 26 31 27 32 28 33 92 34 29 35
REMARK SMILES IDX 91 36 30 37 31 38 32 39 85 40 33 41 90 42 84 43 86 44 34 45
REMARK SMILES IDX 89 46 83 47 82 48 35 50 69 51 48 52 68 53 49 54 52 55 67 56
REMARK SMILES IDX 87 57 50 58 51 59 66 61 88 62 53 63 36 64 37 65 46 66 38 67
REMARK SMILES IDX 39 68 45 69 47 70 40 71 41 72 42 73 43 74 44 75 70 76 71 77
REMARK SMILES IDX 80 78 72 79 73 80 79 81 81 82 74 83 75 84 76 85 77 86 78 87
REMARK SMILES IDX 54 88 55 89 64 90 56 91 57 92 63 93 65 94 58 95 59 96 60 97
REMARK SMILES IDX 61 98 62 99
REMARK H PARENT 17 7 6 16 24 30 86 49 52 60
REMARK Flexibility Score: inf
ROOT
ATOM      1  C   UNL A   1      39.338  24.486  27.689  1.00  0.00     0.002 C 
ENDROOT
BRANCH   1   2
ATOM      2  C   UNL A   1      38.830  24.267  26.255  1.00  0.00     0.021 C 
BRANCH   2   3
ATOM      3  C   UNL A   1      37.374  23.822  26.068  1.00  0.00     0.116 C 
BRANCH   3   4
ATOM      4  N   UNL A   1      37.112  23.274  24.744  1.00  0.00    -0.355 N 
ATOM      5  C   UNL A   1      36.054  23.472  23.900  1.00  0.00     0.239 C 
ATOM      6  O   UNL A   1      36.078  22.907  22.801  1.00  0.00    -0.273 OA
ATOM      7  H   UNL A   1      37.807  22.665  24.403  1.00  0.00     0.163 HD
BRANCH   5   8
ATOM      8  C   UNL A   1      34.917  24.408  24.260  1.00  0.00     0.222 C 
BRANCH   8   9
ATOM      9  N   UNL A   1      33.837  23.785  25.018  1.00  0.00    -0.334 N 
ATOM     10  C   UNL A   1      32.754  23.106  24.485  1.00  0.00     0.107 A 
ATOM     11  C   UNL A   1      32.119  22.474  25.548  1.00  0.00     0.033 A 
ATOM     12  C   UNL A   1      32.729  22.912  26.746  1.00  0.00     0.020 A 
ATOM     13  C   UNL A   1      33.789  23.714  26.390  1.00  0.00     0.087 A 
BRANCH  10  14
ATOM     14  C   UNL A   1      32.409  23.051  23.089  1.00  0.00     0.272 C 
ATOM     15  N   UNL A   1      31.822  24.114  22.448  1.00  0.00    -0.321 N 
ATOM     16  H   UNL A   1      31.528  23.897  21.534  1.00  0.00     0.170 HD
ATOM     17  O   UNL A   1      32.668  22.048  22.397  1.00  0.00    -0.267 OA
BRANCH  15  18
ATOM     18  C   UNL A   1      31.547  25.452  22.814  1.00  0.00     0.041 A 
ATOM     19  C   UNL A   1      30.459  29.461  24.059  1.00  0.00     0.044 C 
ATOM     20  C   UNL A   1      30.797  28.066  23.622  1.00  0.00    -0.051 A 
ATOM     21  C   UNL A   1      31.862  27.867  22.748  1.00  0.00     0.005 A 
ATOM     22  C   UNL A   1      30.095  26.952  24.084  1.00  0.00     0.005 A 
ATOM     23  C   UNL A   1      32.219  26.576  22.343  1.00  0.00     0.026 A 
ATOM     24  C   UNL A   1      30.468  25.659  23.684  1.00  0.00     0.026 A 
ENDBRANCH  15  18
ENDBRANCH  10  14
ENDBRANCH   8   9
ENDBRANCH   5   8
ENDBRANCH   3   4
ENDBRANCH   2   3
ENDBRANCH   1   2
BRANCH   1  25
ATOM     25  C   UNL A   1      40.852  24.304  27.928  1.00  0.00     0.002 C 
BRANCH  25  26
ATOM     26  C   UNL A   1      41.780  23.975  26.726  1.00  0.00     0.021 C 
BRANCH  26  27
ATOM     27  C   UNL A   1      41.782  24.875  25.445  1.00  0.00     0.116 C 
BRANCH  27  28
ATOM     28  N   UNL A   1      42.742  25.999  25.437  1.00  0.00    -0.352 N 
ATOM     29  C   UNL A   1      42.416  27.362  25.479  1.00  0.00     0.251 C 
ATOM     30  H   UNL A   1      43.698  25.769  25.396  1.00  0.00     0.163 HD
ATOM     31  O   UNL A   1      42.439  27.981  24.412  1.00  0.00    -0.269 OA
BRANCH  29  32
ATOM     32  C   UNL A   1      42.208  28.149  26.780  1.00  0.00     0.039 A 
ATOM     33  C   UNL A   1      41.325  27.652  27.778  1.00  0.00     0.014 A 
ATOM     34  C   UNL A   1      42.790  29.371  27.067  1.00  0.00     0.014 A 
ATOM     35  C   UNL A   1      41.115  28.286  29.062  1.00  0.00     0.010 A 
ATOM     36  C   UNL A   1      42.525  30.030  28.315  1.00  0.00     0.010 A 
ATOM     37  C   UNL A   1      41.748  29.488  29.393  1.00  0.00    -0.014 A 
BRANCH  37  38
ATOM     38  C   UNL A   1      42.127  29.911  30.851  1.00  0.00     0.031 A 
ATOM     39  C   UNL A   1      42.961  31.105  30.795  1.00  0.00     0.074 A 
ATOM     40  C   UNL A   1      41.558  29.903  32.114  1.00  0.00     0.049 A 
ATOM     41  N   UNL A   1      42.354  32.163  30.402  1.00  0.00    -0.248 NA
ATOM     42  C   UNL A   1      44.333  31.292  31.212  1.00  0.00     0.031 C 
ATOM     43  C   UNL A   1      40.538  28.999  32.622  1.00  0.00     0.029 A 
ATOM     44  N   UNL A   1      41.697  30.867  33.205  1.00  0.00    -0.354 N 
ATOM     45  C   UNL A   1      43.107  33.211  30.766  1.00  0.00     0.074 A 
ATOM     46  C   UNL A   1      44.386  32.636  31.166  1.00  0.00     0.031 C 
ATOM     47  C   UNL A   1      40.075  29.454  33.809  1.00  0.00     0.029 A 
ATOM     48  C   UNL A   1      40.669  30.776  34.172  1.00  0.00     0.049 A 
ATOM     49  H   UNL A   1      42.436  31.516  33.261  1.00  0.00     0.167 HD
ATOM     50  C   UNL A   1      42.479  34.410  30.813  1.00  0.00     0.037 A 
ATOM     51  C   UNL A   1      39.920  31.734  34.859  1.00  0.00     0.037 A 
ATOM     52  C   UNL A   1      41.043  34.400  30.442  1.00  0.00     0.049 A 
ATOM     53  C   UNL A   1      38.761  31.782  33.932  1.00  0.00     0.074 A 
ATOM     54  C   UNL A   1      40.218  35.169  29.644  1.00  0.00     0.029 A 
ATOM     55  N   UNL A   1      40.200  33.382  30.902  1.00  0.00    -0.354 N 
ATOM     56  N   UNL A   1      38.974  32.251  32.748  1.00  0.00    -0.248 NA
ATOM     57  C   UNL A   1      37.399  31.381  34.213  1.00  0.00     0.031 C 
ATOM     58  C   UNL A   1      38.927  34.536  29.568  1.00  0.00     0.029 A 
ATOM     59  C   UNL A   1      38.931  33.373  30.323  1.00  0.00     0.049 A 
ATOM     60  H   UNL A   1      40.481  32.725  31.579  1.00  0.00     0.167 HD
ATOM     61  C   UNL A   1      37.827  32.124  32.044  1.00  0.00     0.074 A 
ATOM     62  C   UNL A   1      36.861  31.607  33.003  1.00  0.00     0.031 C 
ATOM     63  C   UNL A   1      37.903  32.348  30.706  1.00  0.00     0.037 A 
BRANCH  50  64
ATOM     64  C   UNL A   1      43.241  35.537  31.404  1.00  0.00     0.058 A 
ATOM     65  C   UNL A   1      44.118  36.286  30.610  1.00  0.00     0.135 A 
ATOM     66  C   UNL A   1      43.003  35.995  32.714  1.00  0.00     0.135 A 
ATOM     67  F   UNL A   1      44.380  35.909  29.350  1.00  0.00    -0.206 F 
ATOM     68  C   UNL A   1      44.694  37.466  31.073  1.00  0.00     0.059 A 
ATOM     69  C   UNL A   1      43.528  37.193  33.182  1.00  0.00     0.059 A 
ATOM     70  F   UNL A   1      42.197  35.312  33.545  1.00  0.00    -0.206 F 
ATOM     71  C   UNL A   1      44.377  37.920  32.355  1.00  0.00     0.060 A 
BRANCH  71  72
ATOM     72  S   UNL A   1      45.039  39.496  32.933  1.00  0.00     0.124 S 
ATOM     73  O   UNL A   1      46.462  39.195  33.034  1.00  0.00    -0.237 OA
ATOM     74  O   UNL A   1      44.643  40.416  31.875  1.00  0.00    -0.237 OA
ATOM     75  O   UNL A   1      44.353  39.697  34.207  1.00  0.00    -0.744 OA
ENDBRANCH  71  72
ENDBRANCH  50  64
BRANCH  51  76
ATOM     76  C   UNL A   1      40.028  33.130  35.539  1.00  0.00     0.058 A 
ATOM     77  C   UNL A   1      41.285  33.690  35.840  1.00  0.00     0.135 A 
ATOM     78  C   UNL A   1      38.952  33.760  36.245  1.00  0.00     0.135 A 
ATOM     79  F   UNL A   1      42.395  33.142  35.320  1.00  0.00    -0.206 F 
ATOM     80  C   UNL A   1      41.459  34.757  36.764  1.00  0.00     0.059 A 
ATOM     81  C   UNL A   1      39.102  34.802  37.173  1.00  0.00     0.059 A 
ATOM     82  F   UNL A   1      37.688  33.335  36.146  1.00  0.00    -0.206 F 
ATOM     83  C   UNL A   1      40.362  35.292  37.445  1.00  0.00     0.060 A 
BRANCH  83  84
ATOM     84  S   UNL A   1      40.581  36.559  38.730  1.00  0.00     0.124 S 
ATOM     85  O   UNL A   1      39.340  37.323  38.618  1.00  0.00    -0.237 OA
ATOM     86  O   UNL A   1      40.718  35.759  39.940  1.00  0.00    -0.237 OA
ATOM     87  O   UNL A   1      41.780  37.282  38.312  1.00  0.00    -0.744 OA
ENDBRANCH  83  84
ENDBRANCH  51  76
BRANCH  63  88
ATOM     88  C   UNL A   1      37.000  31.596  29.742  1.00  0.00     0.058 A 
ATOM     89  C   UNL A   1      37.137  30.225  29.394  1.00  0.00     0.135 A 
ATOM     90  C   UNL A   1      36.029  32.277  28.984  1.00  0.00     0.135 A 
ATOM     91  F   UNL A   1      38.181  29.481  29.779  1.00  0.00    -0.206 F 
ATOM     92  C   UNL A   1      36.263  29.552  28.543  1.00  0.00     0.059 A 
ATOM     93  C   UNL A   1      35.169  31.634  28.086  1.00  0.00     0.059 A 
ATOM     94  F   UNL A   1      35.919  33.612  29.034  1.00  0.00    -0.206 F 
ATOM     95  C   UNL A   1      35.260  30.261  27.911  1.00  0.00     0.060 A 
BRANCH  95  96
ATOM     96  S   UNL A   1      34.143  29.376  26.813  1.00  0.00     0.124 S 
ATOM     97  O   UNL A   1      33.325  30.457  26.262  1.00  0.00    -0.237 OA
ATOM     98  O   UNL A   1      35.079  28.759  25.876  1.00  0.00    -0.237 OA
ATOM     99  O   UNL A   1      33.446  28.460  27.702  1.00  0.00    -0.744 OA
ENDBRANCH  95  96
ENDBRANCH  63  88
ENDBRANCH  37  38
ENDBRANCH  29  32
ENDBRANCH  27  28
ENDBRANCH  26  27
ENDBRANCH  25  26
ENDBRANCH   1  25
TORSDOF 19
ENDMDL
