MODEL 1
REMARK VINA RESULT:     -12.3      0.000      0.000
REMARK SMILES C[C@@H](Oc1ccc(-c2ccccc2)cc1)C(=O)N1CCC[C@H](C(=O)NCCCCCCNC(=O)c2ccc(-c3c4nc(c(-c5c(F)cc(S(=O)(=O)[O-])cc5F)c5ccc([nH]5)c(-c5c(F)cc(S(=O)(=O)[O-])cc5F)c5nc(c(-c6c(F)cc(S(=O)(=O)[O-])cc6F)c6ccc3[nH]6)C=C5)C=C4)cc2)C1
REMARK SMILES IDX 27 1 26 2 25 3 23 4 24 5 22 7 18 8 19 9 101 10 20 11 21 12
REMARK SMILES IDX 16 13 17 14 2 15 1 16 3 17 4 18 5 19 15 20 6 21 14 22 7 23
REMARK SMILES IDX 8 24 9 25 13 26 10 27 12 28 11 29 28 30 29 31 30 32 31 33
REMARK SMILES IDX 32 34 33 35 34 37 35 38 36 39 100 40 37 41 99 42 38 43 39 44
REMARK SMILES IDX 40 45 93 46 41 47 98 48 92 49 94 50 42 51 97 52 91 53 90 54
REMARK SMILES IDX 43 56 77 57 56 58 76 59 57 60 60 61 75 62 95 63 58 64 59 65
REMARK SMILES IDX 74 67 96 68 61 69 44 70 45 71 54 72 46 73 47 74 53 75 55 76
REMARK SMILES IDX 48 77 49 78 50 79 51 80 52 81 78 82 79 83 88 84 80 85 81 86
REMARK SMILES IDX 87 87 89 88 82 89 83 90 84 91 85 92 86 93 62 94 63 95 72 96
REMARK SMILES IDX 64 97 65 98 71 99 73 100 66 101 67 102 68 103 69 104 70 105
REMARK H PARENT 25 6 32 36 94 55 60 66
REMARK Flexibility Score: inf
ROOT
ATOM      1  C   UNL A   1      34.773  30.746  27.814  1.00  0.00     0.021 C 
ENDROOT
BRANCH   1   2
ATOM      2  C   UNL A   1      33.628  30.059  27.076  1.00  0.00     0.116 C 
BRANCH   2   3
ATOM      3  N   UNL A   1      33.960  29.659  25.728  1.00  0.00    -0.356 N 
ATOM      4  C   UNL A   1      33.181  29.212  24.710  1.00  0.00     0.224 C 
ATOM      5  O   UNL A   1      33.722  29.167  23.596  1.00  0.00    -0.275 OA
ATOM      6  H   UNL A   1      34.918  29.719  25.510  1.00  0.00     0.163 HD
BRANCH   4   7
ATOM      7  C   UNL A   1      31.717  28.765  24.844  1.00  0.00     0.098 C 
ATOM      8  N   UNL A   1      31.183  26.943  23.241  1.00  0.00    -0.339 N 
ATOM      9  C   UNL A   1      30.088  27.697  22.629  1.00  0.00     0.119 C 
ATOM     10  C   UNL A   1      31.465  27.272  24.629  1.00  0.00     0.133 C 
ATOM     11  C   UNL A   1      30.201  29.213  22.794  1.00  0.00     0.022 C 
ATOM     12  C   UNL A   1      30.683  29.667  24.169  1.00  0.00     0.017 C 
BRANCH   8  13
ATOM     13  C   UNL A   1      31.833  25.966  22.489  1.00  0.00     0.263 C 
ATOM     14  O   UNL A   1      31.722  25.951  21.257  1.00  0.00    -0.271 OA
BRANCH  13  15
ATOM     15  C   UNL A   1      32.643  24.849  23.183  1.00  0.00     0.259 C 
ATOM     16  C   UNL A   1      33.975  25.277  23.792  1.00  0.00     0.064 C 
BRANCH  15  17
ATOM     17  O   UNL A   1      31.757  24.303  24.170  1.00  0.00    -0.481 OA
BRANCH  17  18
ATOM     18  C   UNL A   1      31.804  22.940  24.239  1.00  0.00     0.120 A 
ATOM     19  C   UNL A   1      31.839  22.284  25.467  1.00  0.00     0.047 A 
ATOM     20  C   UNL A   1      31.998  22.236  23.058  1.00  0.00     0.047 A 
ATOM     21  C   UNL A   1      32.103  20.907  25.510  1.00  0.00     0.012 A 
ATOM     22  C   UNL A   1      32.248  20.868  23.103  1.00  0.00     0.012 A 
ATOM     23  C   UNL A   1      32.346  20.185  24.328  1.00  0.00    -0.018 A 
BRANCH  23  24
ATOM     24  C   UNL A   1      32.779  18.777  24.338  1.00  0.00    -0.018 A 
ATOM     25  C   UNL A   1      33.321  18.149  23.209  1.00  0.00     0.009 A 
ATOM     26  C   UNL A   1      32.666  18.021  25.522  1.00  0.00     0.009 A 
ATOM     27  C   UNL A   1      33.759  16.822  23.270  1.00  0.00     0.001 A 
ATOM     28  C   UNL A   1      33.103  16.698  25.586  1.00  0.00     0.001 A 
ATOM     29  C   UNL A   1      33.655  16.099  24.459  1.00  0.00     0.000 A 
ENDBRANCH  23  24
ENDBRANCH  17  18
ENDBRANCH  15  17
ENDBRANCH  13  15
ENDBRANCH   8  13
ENDBRANCH   4   7
ENDBRANCH   2   3
ENDBRANCH   1   2
BRANCH   1  30
ATOM     30  C   UNL A   1      34.630  32.265  27.911  1.00  0.00     0.002 C 
BRANCH  30  31
ATOM     31  C   UNL A   1      35.948  33.049  28.009  1.00  0.00     0.002 C 
BRANCH  31  32
ATOM     32  C   UNL A   1      36.102  33.950  29.237  1.00  0.00     0.021 C 
BRANCH  32  33
ATOM     33  C   UNL A   1      36.955  33.369  30.363  1.00  0.00     0.116 C 
BRANCH  33  34
ATOM     34  N   UNL A   1      36.347  32.190  30.959  1.00  0.00    -0.352 N 
ATOM     35  C   UNL A   1      36.757  30.881  30.939  1.00  0.00     0.251 C 
ATOM     36  H   UNL A   1      35.512  32.357  31.453  1.00  0.00     0.163 HD
ATOM     37  O   UNL A   1      35.993  29.997  31.316  1.00  0.00    -0.269 OA
BRANCH  35  38
ATOM     38  C   UNL A   1      38.112  30.537  30.460  1.00  0.00     0.039 A 
ATOM     39  C   UNL A   1      39.137  30.366  31.394  1.00  0.00     0.014 A 
ATOM     40  C   UNL A   1      38.376  30.409  29.094  1.00  0.00     0.014 A 
ATOM     41  C   UNL A   1      40.415  30.008  30.959  1.00  0.00     0.010 A 
ATOM     42  C   UNL A   1      39.631  29.983  28.669  1.00  0.00     0.010 A 
ATOM     43  C   UNL A   1      40.665  29.782  29.597  1.00  0.00    -0.014 A 
BRANCH  43  44
ATOM     44  C   UNL A   1      41.997  29.329  29.124  1.00  0.00     0.031 A 
ATOM     45  C   UNL A   1      43.138  30.305  29.024  1.00  0.00     0.074 A 
ATOM     46  C   UNL A   1      42.161  28.052  28.725  1.00  0.00     0.049 A 
ATOM     47  N   UNL A   1      44.352  30.115  28.577  1.00  0.00    -0.248 NA
ATOM     48  C   UNL A   1      42.870  31.686  29.460  1.00  0.00     0.031 C 
ATOM     49  C   UNL A   1      41.115  27.026  28.728  1.00  0.00     0.029 A 
ATOM     50  N   UNL A   1      43.261  27.400  28.230  1.00  0.00    -0.354 N 
ATOM     51  C   UNL A   1      44.988  31.347  28.666  1.00  0.00     0.074 A 
ATOM     52  C   UNL A   1      44.010  32.291  29.158  1.00  0.00     0.031 C 
ATOM     53  C   UNL A   1      41.630  25.870  28.279  1.00  0.00     0.029 A 
ATOM     54  C   UNL A   1      43.028  26.080  27.918  1.00  0.00     0.049 A 
ATOM     55  H   UNL A   1      44.135  27.835  28.108  1.00  0.00     0.167 HD
ATOM     56  C   UNL A   1      46.276  31.656  28.384  1.00  0.00     0.037 A 
ATOM     57  C   UNL A   1      43.845  25.147  27.391  1.00  0.00     0.037 A 
ATOM     58  C   UNL A   1      47.247  30.703  27.913  1.00  0.00     0.049 A 
ATOM     59  C   UNL A   1      45.271  25.517  27.083  1.00  0.00     0.074 A 
ATOM     60  C   UNL A   1      48.591  30.903  27.649  1.00  0.00     0.029 A 
ATOM     61  N   UNL A   1      46.979  29.371  27.631  1.00  0.00    -0.354 N 
ATOM     62  N   UNL A   1      45.875  26.672  27.234  1.00  0.00    -0.248 NA
ATOM     63  C   UNL A   1      46.131  24.456  26.540  1.00  0.00     0.031 C 
ATOM     64  C   UNL A   1      49.124  29.705  27.164  1.00  0.00     0.029 A 
ATOM     65  C   UNL A   1      48.127  28.742  27.178  1.00  0.00     0.049 A 
ATOM     66  H   UNL A   1      46.102  28.937  27.738  1.00  0.00     0.167 HD
ATOM     67  C   UNL A   1      47.192  26.469  26.838  1.00  0.00     0.074 A 
ATOM     68  C   UNL A   1      47.299  25.078  26.446  1.00  0.00     0.031 C 
ATOM     69  C   UNL A   1      48.220  27.353  26.804  1.00  0.00     0.037 A 
BRANCH  56  70
ATOM     70  C   UNL A   1      46.713  33.084  28.579  1.00  0.00     0.058 A 
ATOM     71  C   UNL A   1      47.230  33.537  29.804  1.00  0.00     0.135 A 
ATOM     72  C   UNL A   1      46.649  34.003  27.519  1.00  0.00     0.135 A 
ATOM     73  F   UNL A   1      47.302  32.706  30.856  1.00  0.00    -0.206 F 
ATOM     74  C   UNL A   1      47.639  34.855  29.980  1.00  0.00     0.059 A 
ATOM     75  C   UNL A   1      47.080  35.319  27.663  1.00  0.00     0.059 A 
ATOM     76  F   UNL A   1      46.163  33.626  26.326  1.00  0.00    -0.206 F 
ATOM     77  C   UNL A   1      47.560  35.738  28.903  1.00  0.00     0.060 A 
BRANCH  77  78
ATOM     78  S   UNL A   1      48.100  37.444  29.148  1.00  0.00     0.124 S 
ATOM     79  O   UNL A   1      47.218  38.162  28.235  1.00  0.00    -0.237 OA
ATOM     80  O   UNL A   1      47.845  37.651  30.569  1.00  0.00    -0.237 OA
ATOM     81  O   UNL A   1      49.509  37.413  28.765  1.00  0.00    -0.744 OA
ENDBRANCH  77  78
ENDBRANCH  56  70
BRANCH  57  82
ATOM     82  C   UNL A   1      43.340  23.770  27.145  1.00  0.00     0.058 A 
ATOM     83  C   UNL A   1      42.958  23.359  25.859  1.00  0.00     0.135 A 
ATOM     84  C   UNL A   1      43.244  22.831  28.185  1.00  0.00     0.135 A 
ATOM     85  F   UNL A   1      43.026  24.221  24.833  1.00  0.00    -0.206 F 
ATOM     86  C   UNL A   1      42.482  22.076  25.615  1.00  0.00     0.059 A 
ATOM     87  C   UNL A   1      42.797  21.533  27.960  1.00  0.00     0.059 A 
ATOM     88  F   UNL A   1      43.614  23.168  29.430  1.00  0.00    -0.206 F 
ATOM     89  C   UNL A   1      42.408  21.168  26.672  1.00  0.00     0.060 A 
BRANCH  89  90
ATOM     90  S   UNL A   1      41.829  19.490  26.334  1.00  0.00     0.124 S 
ATOM     91  O   UNL A   1      42.231  18.792  27.549  1.00  0.00    -0.237 OA
ATOM     92  O   UNL A   1      40.395  19.692  26.157  1.00  0.00    -0.237 OA
ATOM     93  O   UNL A   1      42.558  19.121  25.124  1.00  0.00    -0.744 OA
ENDBRANCH  89  90
ENDBRANCH  57  82
BRANCH  69  94
ATOM     94  C   UNL A   1      49.566  26.838  26.371  1.00  0.00     0.058 A 
ATOM     95  C   UNL A   1      50.005  26.935  25.042  1.00  0.00     0.135 A 
ATOM     96  C   UNL A   1      50.453  26.299  27.317  1.00  0.00     0.135 A 
ATOM     97  F   UNL A   1      49.193  27.437  24.098  1.00  0.00    -0.206 F 
ATOM     98  C   UNL A   1      51.269  26.500  24.662  1.00  0.00     0.059 A 
ATOM     99  C   UNL A   1      51.733  25.883  26.965  1.00  0.00     0.059 A 
ATOM    100  F   UNL A   1      50.087  26.192  28.604  1.00  0.00    -0.206 F 
ATOM    101  C   UNL A   1      52.129  25.979  25.632  1.00  0.00     0.060 A 
BRANCH 101 102
ATOM    102  S   UNL A   1      53.784  25.460  25.133  1.00  0.00     0.124 S 
ATOM    103  O   UNL A   1      54.483  25.434  26.414  1.00  0.00    -0.237 OA
ATOM    104  O   UNL A   1      53.532  24.158  24.522  1.00  0.00    -0.237 OA
ATOM    105  O   UNL A   1      54.206  26.508  24.209  1.00  0.00    -0.744 OA
ENDBRANCH 101 102
ENDBRANCH  69  94
ENDBRANCH  43  44
ENDBRANCH  35  38
ENDBRANCH  33  34
ENDBRANCH  32  33
ENDBRANCH  31  32
ENDBRANCH  30  31
ENDBRANCH   1  30
TORSDOF 21
ENDMDL
MODEL 2
REMARK VINA RESULT:     -12.1      6.201     12.213
REMARK SMILES C[C@@H](Oc1ccc(-c2ccccc2)cc1)C(=O)N1CCC[C@H](C(=O)NCCCCCCNC(=O)c2ccc(-c3c4nc(c(-c5c(F)cc(S(=O)(=O)[O-])cc5F)c5ccc([nH]5)c(-c5c(F)cc(S(=O)(=O)[O-])cc5F)c5nc(c(-c6c(F)cc(S(=O)(=O)[O-])cc6F)c6ccc3[nH]6)C=C5)C=C4)cc2)C1
REMARK SMILES IDX 27 1 26 2 25 3 23 4 24 5 22 7 18 8 19 9 101 10 20 11 21 12
REMARK SMILES IDX 16 13 17 14 2 15 1 16 3 17 4 18 5 19 15 20 6 21 14 22 7 23
REMARK SMILES IDX 8 24 9 25 13 26 10 27 12 28 11 29 28 30 29 31 30 32 31 33
REMARK SMILES IDX 32 34 33 35 34 37 35 38 36 39 100 40 37 41 99 42 38 43 39 44
REMARK SMILES IDX 40 45 93 46 41 47 98 48 92 49 94 50 42 51 97 52 91 53 90 54
REMARK SMILES IDX 43 56 77 57 56 58 76 59 57 60 60 61 75 62 95 63 58 64 59 65
REMARK SMILES IDX 74 67 96 68 61 69 44 70 45 71 54 72 46 73 47 74 53 75 55 76
REMARK SMILES IDX 48 77 49 78 50 79 51 80 52 81 78 82 79 83 88 84 80 85 81 86
REMARK SMILES IDX 87 87 89 88 82 89 83 90 84 91 85 92 86 93 62 94 63 95 72 96
REMARK SMILES IDX 64 97 65 98 71 99 73 100 66 101 67 102 68 103 69 104 70 105
REMARK H PARENT 25 6 32 36 94 55 60 66
REMARK Flexibility Score: inf
ROOT
ATOM      1  C   UNL A   1      39.009  23.617  26.692  1.00  0.00     0.021 C 
ENDROOT
BRANCH   1   2
ATOM      2  C   UNL A   1      37.598  23.650  26.113  1.00  0.00     0.116 C 
BRANCH   2   3
ATOM      3  N   UNL A   1      37.540  23.370  24.697  1.00  0.00    -0.356 N 
ATOM      4  C   UNL A   1      36.574  22.796  23.936  1.00  0.00     0.224 C 
ATOM      5  O   UNL A   1      36.717  22.900  22.710  1.00  0.00    -0.275 OA
ATOM      6  H   UNL A   1      38.343  23.641  24.195  1.00  0.00     0.163 HD
BRANCH   4   7
ATOM      7  C   UNL A   1      35.350  22.041  24.479  1.00  0.00     0.098 C 
ATOM      8  N   UNL A   1      33.344  23.505  24.544  1.00  0.00    -0.339 N 
ATOM      9  C   UNL A   1      33.142  23.297  25.978  1.00  0.00     0.119 C 
ATOM     10  C   UNL A   1      34.011  22.418  23.845  1.00  0.00     0.133 C 
ATOM     11  C   UNL A   1      34.405  22.886  26.736  1.00  0.00     0.022 C 
ATOM     12  C   UNL A   1      35.289  21.883  25.999  1.00  0.00     0.017 C 
BRANCH   8  13
ATOM     13  C   UNL A   1      32.864  24.674  23.957  1.00  0.00     0.263 C 
ATOM     14  O   UNL A   1      33.613  25.646  23.800  1.00  0.00    -0.271 OA
BRANCH  13  15
ATOM     15  C   UNL A   1      31.377  24.801  23.557  1.00  0.00     0.259 C 
ATOM     16  C   UNL A   1      30.679  23.498  23.179  1.00  0.00     0.064 C 
BRANCH  15  17
ATOM     17  O   UNL A   1      30.743  25.441  24.673  1.00  0.00    -0.481 OA
BRANCH  17  18
ATOM     18  C   UNL A   1      30.190  26.649  24.356  1.00  0.00     0.120 A 
ATOM     19  C   UNL A   1      28.884  26.737  23.881  1.00  0.00     0.047 A 
ATOM     20  C   UNL A   1      31.021  27.762  24.349  1.00  0.00     0.047 A 
ATOM     21  C   UNL A   1      28.416  27.955  23.363  1.00  0.00     0.012 A 
ATOM     22  C   UNL A   1      30.549  28.971  23.845  1.00  0.00     0.012 A 
ATOM     23  C   UNL A   1      29.255  29.081  23.306  1.00  0.00    -0.018 A 
BRANCH  23  24
ATOM     24  C   UNL A   1      28.858  30.328  22.631  1.00  0.00    -0.018 A 
ATOM     25  C   UNL A   1      28.480  30.365  21.282  1.00  0.00     0.009 A 
ATOM     26  C   UNL A   1      28.835  31.537  23.355  1.00  0.00     0.009 A 
ATOM     27  C   UNL A   1      28.069  31.564  20.688  1.00  0.00     0.001 A 
ATOM     28  C   UNL A   1      28.424  32.732  22.765  1.00  0.00     0.001 A 
ATOM     29  C   UNL A   1      28.036  32.744  21.430  1.00  0.00     0.000 A 
ENDBRANCH  23  24
ENDBRANCH  17  18
ENDBRANCH  15  17
ENDBRANCH  13  15
ENDBRANCH   8  13
ENDBRANCH   4   7
ENDBRANCH   2   3
ENDBRANCH   1   2
BRANCH   1  30
ATOM     30  C   UNL A   1      39.706  22.263  26.556  1.00  0.00     0.002 C 
BRANCH  30  31
ATOM     31  C   UNL A   1      40.704  21.919  27.671  1.00  0.00     0.002 C 
BRANCH  31  32
ATOM     32  C   UNL A   1      42.183  21.928  27.274  1.00  0.00     0.021 C 
BRANCH  32  33
ATOM     33  C   UNL A   1      42.886  23.275  27.424  1.00  0.00     0.116 C 
BRANCH  33  34
ATOM     34  N   UNL A   1      42.749  24.100  26.235  1.00  0.00    -0.352 N 
ATOM     35  C   UNL A   1      42.292  25.387  26.102  1.00  0.00     0.251 C 
ATOM     36  H   UNL A   1      43.028  23.669  25.395  1.00  0.00     0.163 HD
ATOM     37  O   UNL A   1      42.047  25.835  24.986  1.00  0.00    -0.269 OA
BRANCH  35  38
ATOM     38  C   UNL A   1      42.089  26.227  27.300  1.00  0.00     0.039 A 
ATOM     39  C   UNL A   1      42.904  27.346  27.488  1.00  0.00     0.014 A 
ATOM     40  C   UNL A   1      41.115  25.899  28.247  1.00  0.00     0.014 A 
ATOM     41  C   UNL A   1      42.703  28.169  28.598  1.00  0.00     0.010 A 
ATOM     42  C   UNL A   1      40.869  26.759  29.313  1.00  0.00     0.010 A 
ATOM     43  C   UNL A   1      41.663  27.901  29.502  1.00  0.00    -0.014 A 
BRANCH  43  44
ATOM     44  C   UNL A   1      41.387  28.806  30.646  1.00  0.00     0.031 A 
ATOM     45  C   UNL A   1      42.190  28.692  31.913  1.00  0.00     0.074 A 
ATOM     46  C   UNL A   1      40.370  29.686  30.565  1.00  0.00     0.049 A 
ATOM     47  N   UNL A   1      42.057  29.347  33.038  1.00  0.00    -0.248 NA
ATOM     48  C   UNL A   1      43.269  27.690  31.928  1.00  0.00     0.031 C 
ATOM     49  C   UNL A   1      39.488  29.854  29.407  1.00  0.00     0.029 A 
ATOM     50  N   UNL A   1      39.896  30.599  31.474  1.00  0.00    -0.354 N 
ATOM     51  C   UNL A   1      43.022  28.833  33.894  1.00  0.00     0.074 A 
ATOM     52  C   UNL A   1      43.699  27.773  33.179  1.00  0.00     0.031 C 
ATOM     53  C   UNL A   1      38.597  30.824  29.667  1.00  0.00     0.029 A 
ATOM     54  C   UNL A   1      38.816  31.320  31.021  1.00  0.00     0.049 A 
ATOM     55  H   UNL A   1      40.292  30.725  32.366  1.00  0.00     0.167 HD
ATOM     56  C   UNL A   1      43.331  29.223  35.154  1.00  0.00     0.037 A 
ATOM     57  C   UNL A   1      38.078  32.268  31.632  1.00  0.00     0.037 A 
ATOM     58  C   UNL A   1      42.664  30.293  35.849  1.00  0.00     0.049 A 
ATOM     59  C   UNL A   1      38.438  32.682  33.034  1.00  0.00     0.074 A 
ATOM     60  C   UNL A   1      42.936  30.804  37.107  1.00  0.00     0.029 A 
ATOM     61  N   UNL A   1      41.589  31.016  35.350  1.00  0.00    -0.354 N 
ATOM     62  N   UNL A   1      39.397  32.230  33.807  1.00  0.00    -0.248 NA
ATOM     63  C   UNL A   1      37.623  33.742  33.644  1.00  0.00     0.031 C 
ATOM     64  C   UNL A   1      41.997  31.801  37.386  1.00  0.00     0.029 A 
ATOM     65  C   UNL A   1      41.174  31.953  36.281  1.00  0.00     0.049 A 
ATOM     66  H   UNL A   1      41.182  30.881  34.463  1.00  0.00     0.167 HD
ATOM     67  C   UNL A   1      39.322  32.971  34.981  1.00  0.00     0.074 A 
ATOM     68  C   UNL A   1      38.228  33.906  34.814  1.00  0.00     0.031 C 
ATOM     69  C   UNL A   1      40.091  32.887  36.095  1.00  0.00     0.037 A 
BRANCH  56  70
ATOM     70  C   UNL A   1      44.440  28.493  35.862  1.00  0.00     0.058 A 
ATOM     71  C   UNL A   1      45.780  28.901  35.754  1.00  0.00     0.135 A 
ATOM     72  C   UNL A   1      44.158  27.394  36.690  1.00  0.00     0.135 A 
ATOM     73  F   UNL A   1      46.109  29.937  34.966  1.00  0.00    -0.206 F 
ATOM     74  C   UNL A   1      46.803  28.228  36.415  1.00  0.00     0.059 A 
ATOM     75  C   UNL A   1      45.162  26.724  37.385  1.00  0.00     0.059 A 
ATOM     76  F   UNL A   1      42.897  26.959  36.831  1.00  0.00    -0.206 F 
ATOM     77  C   UNL A   1      46.483  27.141  37.228  1.00  0.00     0.060 A 
BRANCH  77  78
ATOM     78  S   UNL A   1      47.823  26.283  38.083  1.00  0.00     0.124 S 
ATOM     79  O   UNL A   1      47.236  26.069  39.402  1.00  0.00    -0.237 OA
ATOM     80  O   UNL A   1      47.998  25.087  37.267  1.00  0.00    -0.237 OA
ATOM     81  O   UNL A   1      48.925  27.239  38.034  1.00  0.00    -0.744 OA
ENDBRANCH  77  78
ENDBRANCH  56  70
BRANCH  57  82
ATOM     82  C   UNL A   1      36.941  32.904  30.913  1.00  0.00     0.058 A 
ATOM     83  C   UNL A   1      35.613  32.616  31.263  1.00  0.00     0.135 A 
ATOM     84  C   UNL A   1      37.158  33.823  29.875  1.00  0.00     0.135 A 
ATOM     85  F   UNL A   1      35.354  31.739  32.245  1.00  0.00    -0.206 F 
ATOM     86  C   UNL A   1      34.541  33.201  30.598  1.00  0.00     0.059 A 
ATOM     87  C   UNL A   1      36.102  34.442  29.213  1.00  0.00     0.059 A 
ATOM     88  F   UNL A   1      38.409  34.146  29.513  1.00  0.00    -0.206 F 
ATOM     89  C   UNL A   1      34.796  34.116  29.576  1.00  0.00     0.060 A 
BRANCH  89  90
ATOM     90  S   UNL A   1      33.395  34.903  28.749  1.00  0.00     0.124 S 
ATOM     91  O   UNL A   1      33.139  33.972  27.657  1.00  0.00    -0.237 OA
ATOM     92  O   UNL A   1      32.393  34.936  29.809  1.00  0.00    -0.237 OA
ATOM     93  O   UNL A   1      33.926  36.204  28.356  1.00  0.00    -0.744 OA
ENDBRANCH  89  90
ENDBRANCH  57  82
BRANCH  69  94
ATOM     94  C   UNL A   1      39.812  33.859  37.208  1.00  0.00     0.058 A 
ATOM     95  C   UNL A   1      38.908  33.565  38.240  1.00  0.00     0.135 A 
ATOM     96  C   UNL A   1      40.510  35.076  37.274  1.00  0.00     0.135 A 
ATOM     97  F   UNL A   1      38.211  32.419  38.221  1.00  0.00    -0.206 F 
ATOM     98  C   UNL A   1      38.693  34.452  39.290  1.00  0.00     0.059 A 
ATOM     99  C   UNL A   1      40.332  35.965  38.329  1.00  0.00     0.059 A 
ATOM    100  F   UNL A   1      41.393  35.403  36.316  1.00  0.00    -0.206 F 
ATOM    101  C   UNL A   1      39.414  35.648  39.328  1.00  0.00     0.060 A 
BRANCH 101 102
ATOM    102  S   UNL A   1      39.158  36.768  40.720  1.00  0.00     0.124 S 
ATOM    103  O   UNL A   1      38.342  37.813  40.111  1.00  0.00    -0.237 OA
ATOM    104  O   UNL A   1      38.476  35.914  41.687  1.00  0.00    -0.237 OA
ATOM    105  O   UNL A   1      40.513  37.166  41.091  1.00  0.00    -0.744 OA
ENDBRANCH 101 102
ENDBRANCH  69  94
ENDBRANCH  43  44
ENDBRANCH  35  38
ENDBRANCH  33  34
ENDBRANCH  32  33
ENDBRANCH  31  32
ENDBRANCH  30  31
ENDBRANCH   1  30
TORSDOF 21
ENDMDL
MODEL 3
REMARK VINA RESULT:     -12.1      6.099     11.290
REMARK SMILES C[C@@H](Oc1ccc(-c2ccccc2)cc1)C(=O)N1CCC[C@H](C(=O)NCCCCCCNC(=O)c2ccc(-c3c4nc(c(-c5c(F)cc(S(=O)(=O)[O-])cc5F)c5ccc([nH]5)c(-c5c(F)cc(S(=O)(=O)[O-])cc5F)c5nc(c(-c6c(F)cc(S(=O)(=O)[O-])cc6F)c6ccc3[nH]6)C=C5)C=C4)cc2)C1
REMARK SMILES IDX 27 1 26 2 25 3 23 4 24 5 22 7 18 8 19 9 101 10 20 11 21 12
REMARK SMILES IDX 16 13 17 14 2 15 1 16 3 17 4 18 5 19 15 20 6 21 14 22 7 23
REMARK SMILES IDX 8 24 9 25 13 26 10 27 12 28 11 29 28 30 29 31 30 32 31 33
REMARK SMILES IDX 32 34 33 35 34 37 35 38 36 39 100 40 37 41 99 42 38 43 39 44
REMARK SMILES IDX 40 45 93 46 41 47 98 48 92 49 94 50 42 51 97 52 91 53 90 54
REMARK SMILES IDX 43 56 77 57 56 58 76 59 57 60 60 61 75 62 95 63 58 64 59 65
REMARK SMILES IDX 74 67 96 68 61 69 44 70 45 71 54 72 46 73 47 74 53 75 55 76
REMARK SMILES IDX 48 77 49 78 50 79 51 80 52 81 78 82 79 83 88 84 80 85 81 86
REMARK SMILES IDX 87 87 89 88 82 89 83 90 84 91 85 92 86 93 62 94 63 95 72 96
REMARK SMILES IDX 64 97 65 98 71 99 73 100 66 101 67 102 68 103 69 104 70 105
REMARK H PARENT 25 6 32 36 94 55 60 66
REMARK Flexibility Score: inf
ROOT
ATOM      1  C   UNL A   1      35.948  22.580  23.718  1.00  0.00     0.021 C 
ENDROOT
BRANCH   1   2
ATOM      2  C   UNL A   1      35.413  23.965  24.070  1.00  0.00     0.116 C 
BRANCH   2   3
ATOM      3  N   UNL A   1      34.401  24.450  23.160  1.00  0.00    -0.356 N 
ATOM      4  C   UNL A   1      33.768  25.648  23.081  1.00  0.00     0.224 C 
ATOM      5  O   UNL A   1      33.113  25.846  22.048  1.00  0.00    -0.275 OA
ATOM      6  H   UNL A   1      34.121  23.797  22.479  1.00  0.00     0.163 HD
BRANCH   4   7
ATOM      7  C   UNL A   1      33.803  26.742  24.160  1.00  0.00     0.098 C 
ATOM      8  N   UNL A   1      31.867  26.544  25.704  1.00  0.00    -0.339 N 
ATOM      9  C   UNL A   1      31.410  27.907  25.433  1.00  0.00     0.119 C 
ATOM     10  C   UNL A   1      33.294  26.320  25.539  1.00  0.00     0.133 C 
ATOM     11  C   UNL A   1      31.874  28.467  24.088  1.00  0.00     0.022 C 
ATOM     12  C   UNL A   1      33.315  28.123  23.720  1.00  0.00     0.017 C 
BRANCH   8  13
ATOM     13  C   UNL A   1      30.939  25.593  26.127  1.00  0.00     0.263 C 
ATOM     14  O   UNL A   1      29.813  25.944  26.500  1.00  0.00    -0.271 OA
BRANCH  13  15
ATOM     15  C   UNL A   1      31.324  24.099  26.204  1.00  0.00     0.259 C 
ATOM     16  C   UNL A   1      30.272  23.174  26.810  1.00  0.00     0.064 C 
BRANCH  15  17
ATOM     17  O   UNL A   1      31.649  23.727  24.858  1.00  0.00    -0.481 OA
BRANCH  17  18
ATOM     18  C   UNL A   1      32.223  22.492  24.765  1.00  0.00     0.120 A 
ATOM     19  C   UNL A   1      32.028  21.692  23.642  1.00  0.00     0.047 A 
ATOM     20  C   UNL A   1      32.855  21.983  25.892  1.00  0.00     0.047 A 
ATOM     21  C   UNL A   1      32.446  20.353  23.664  1.00  0.00     0.012 A 
ATOM     22  C   UNL A   1      33.280  20.658  25.906  1.00  0.00     0.012 A 
ATOM     23  C   UNL A   1      33.048  19.807  24.811  1.00  0.00    -0.018 A 
BRANCH  23  24
ATOM     24  C   UNL A   1      33.359  18.372  24.932  1.00  0.00    -0.018 A 
ATOM     25  C   UNL A   1      32.576  17.495  25.694  1.00  0.00     0.009 A 
ATOM     26  C   UNL A   1      34.473  17.840  24.251  1.00  0.00     0.009 A 
ATOM     27  C   UNL A   1      32.882  16.130  25.751  1.00  0.00     0.001 A 
ATOM     28  C   UNL A   1      34.778  16.480  24.305  1.00  0.00     0.001 A 
ATOM     29  C   UNL A   1      33.978  15.623  25.053  1.00  0.00     0.000 A 
ENDBRANCH  23  24
ENDBRANCH  17  18
ENDBRANCH  15  17
ENDBRANCH  13  15
ENDBRANCH   8  13
ENDBRANCH   4   7
ENDBRANCH   2   3
ENDBRANCH   1   2
BRANCH   1  30
ATOM     30  C   UNL A   1      36.704  21.896  24.856  1.00  0.00     0.002 C 
BRANCH  30  31
ATOM     31  C   UNL A   1      37.597  22.814  25.703  1.00  0.00     0.002 C 
BRANCH  31  32
ATOM     32  C   UNL A   1      38.948  22.231  26.126  1.00  0.00     0.021 C 
BRANCH  32  33
ATOM     33  C   UNL A   1      39.854  23.188  26.897  1.00  0.00     0.116 C 
BRANCH  33  34
ATOM     34  N   UNL A   1      41.026  23.574  26.126  1.00  0.00    -0.352 N 
ATOM     35  C   UNL A   1      41.740  24.745  26.134  1.00  0.00     0.251 C 
ATOM     36  H   UNL A   1      41.358  22.888  25.503  1.00  0.00     0.163 HD
ATOM     37  O   UNL A   1      42.567  24.961  25.254  1.00  0.00    -0.269 OA
BRANCH  35  38
ATOM     38  C   UNL A   1      41.508  25.746  27.196  1.00  0.00     0.039 A 
ATOM     39  C   UNL A   1      40.465  25.541  28.103  1.00  0.00     0.014 A 
ATOM     40  C   UNL A   1      42.301  26.894  27.284  1.00  0.00     0.014 A 
ATOM     41  C   UNL A   1      40.254  26.461  29.133  1.00  0.00     0.010 A 
ATOM     42  C   UNL A   1      42.135  27.770  28.352  1.00  0.00     0.010 A 
ATOM     43  C   UNL A   1      41.107  27.565  29.285  1.00  0.00    -0.014 A 
BRANCH  43  44
ATOM     44  C   UNL A   1      40.944  28.512  30.418  1.00  0.00     0.031 A 
ATOM     45  C   UNL A   1      41.796  28.374  31.650  1.00  0.00     0.074 A 
ATOM     46  C   UNL A   1      39.983  29.454  30.360  1.00  0.00     0.049 A 
ATOM     47  N   UNL A   1      41.758  29.061  32.762  1.00  0.00    -0.248 NA
ATOM     48  C   UNL A   1      42.808  27.304  31.641  1.00  0.00     0.031 C 
ATOM     49  C   UNL A   1      39.060  29.653  29.239  1.00  0.00     0.029 A 
ATOM     50  N   UNL A   1      39.612  30.416  31.266  1.00  0.00    -0.354 N 
ATOM     51  C   UNL A   1      42.728  28.504  33.586  1.00  0.00     0.074 A 
ATOM     52  C   UNL A   1      43.301  27.387  32.869  1.00  0.00     0.031 C 
ATOM     53  C   UNL A   1      38.247  30.685  29.514  1.00  0.00     0.029 A 
ATOM     54  C   UNL A   1      38.560  31.196  30.844  1.00  0.00     0.049 A 
ATOM     55  H   UNL A   1      40.056  30.536  32.135  1.00  0.00     0.167 HD
ATOM     56  C   UNL A   1      43.119  28.902  34.820  1.00  0.00     0.037 A 
ATOM     57  C   UNL A   1      37.914  32.203  31.464  1.00  0.00     0.037 A 
ATOM     58  C   UNL A   1      42.556  30.028  35.518  1.00  0.00     0.049 A 
ATOM     59  C   UNL A   1      38.366  32.625  32.837  1.00  0.00     0.074 A 
ATOM     60  C   UNL A   1      42.919  30.548  36.748  1.00  0.00     0.029 A 
ATOM     61  N   UNL A   1      41.508  30.808  35.049  1.00  0.00    -0.354 N 
ATOM     62  N   UNL A   1      39.329  32.128  33.577  1.00  0.00    -0.248 NA
ATOM     63  C   UNL A   1      37.650  33.749  33.456  1.00  0.00     0.031 C 
ATOM     64  C   UNL A   1      42.060  31.611  37.045  1.00  0.00     0.029 A 
ATOM     65  C   UNL A   1      41.198  31.792  35.974  1.00  0.00     0.049 A 
ATOM     66  H   UNL A   1      41.052  30.681  34.186  1.00  0.00     0.167 HD
ATOM     67  C   UNL A   1      39.357  32.899  34.734  1.00  0.00     0.074 A 
ATOM     68  C   UNL A   1      38.318  33.899  34.592  1.00  0.00     0.031 C 
ATOM     69  C   UNL A   1      40.170  32.790  35.813  1.00  0.00     0.037 A 
BRANCH  56  70
ATOM     70  C   UNL A   1      44.212  28.116  35.497  1.00  0.00     0.058 A 
ATOM     71  C   UNL A   1      45.567  28.442  35.328  1.00  0.00     0.135 A 
ATOM     72  C   UNL A   1      43.899  27.048  36.353  1.00  0.00     0.135 A 
ATOM     73  F   UNL A   1      45.926  29.445  34.510  1.00  0.00    -0.206 F 
ATOM     74  C   UNL A   1      46.575  27.718  35.959  1.00  0.00     0.059 A 
ATOM     75  C   UNL A   1      44.889  26.330  37.019  1.00  0.00     0.059 A 
ATOM     76  F   UNL A   1      42.621  26.693  36.552  1.00  0.00    -0.206 F 
ATOM     77  C   UNL A   1      46.225  26.664  36.803  1.00  0.00     0.060 A 
BRANCH  77  78
ATOM     78  S   UNL A   1      47.545  25.740  37.618  1.00  0.00     0.124 S 
ATOM     79  O   UNL A   1      47.003  24.385  37.604  1.00  0.00    -0.237 OA
ATOM     80  O   UNL A   1      48.682  25.976  36.735  1.00  0.00    -0.237 OA
ATOM     81  O   UNL A   1      47.636  26.366  38.933  1.00  0.00    -0.744 OA
ENDBRANCH  77  78
ENDBRANCH  56  70
BRANCH  57  82
ATOM     82  C   UNL A   1      36.788  32.896  30.781  1.00  0.00     0.058 A 
ATOM     83  C   UNL A   1      35.458  32.651  31.152  1.00  0.00     0.135 A 
ATOM     84  C   UNL A   1      37.019  33.828  29.757  1.00  0.00     0.135 A 
ATOM     85  F   UNL A   1      35.185  31.765  32.122  1.00  0.00    -0.206 F 
ATOM     86  C   UNL A   1      34.396  33.289  30.521  1.00  0.00     0.059 A 
ATOM     87  C   UNL A   1      35.974  34.500  29.129  1.00  0.00     0.059 A 
ATOM     88  F   UNL A   1      38.274  34.112  29.376  1.00  0.00    -0.206 F 
ATOM     89  C   UNL A   1      34.664  34.215  29.512  1.00  0.00     0.060 A 
BRANCH  89  90
ATOM     90  S   UNL A   1      33.279  35.070  28.730  1.00  0.00     0.124 S 
ATOM     91  O   UNL A   1      33.963  36.131  28.000  1.00  0.00    -0.237 OA
ATOM     92  O   UNL A   1      32.687  34.013  27.916  1.00  0.00    -0.237 OA
ATOM     93  O   UNL A   1      32.469  35.506  29.864  1.00  0.00    -0.744 OA
ENDBRANCH  89  90
ENDBRANCH  57  82
BRANCH  69  94
ATOM     94  C   UNL A   1      40.006  33.803  36.913  1.00  0.00     0.058 A 
ATOM     95  C   UNL A   1      40.653  35.048  36.876  1.00  0.00     0.135 A 
ATOM     96  C   UNL A   1      39.138  33.547  37.987  1.00  0.00     0.135 A 
ATOM     97  F   UNL A   1      41.499  35.340  35.876  1.00  0.00    -0.206 F 
ATOM     98  C   UNL A   1      40.459  35.996  37.874  1.00  0.00     0.059 A 
ATOM     99  C   UNL A   1      38.906  34.491  38.981  1.00  0.00     0.059 A 
ATOM    100  F   UNL A   1      38.487  32.375  38.065  1.00  0.00    -0.206 F 
ATOM    101  C   UNL A   1      39.579  35.711  38.920  1.00  0.00     0.060 A 
BRANCH 101 102
ATOM    102  S   UNL A   1      39.300  36.968  40.185  1.00  0.00     0.124 S 
ATOM    103  O   UNL A   1      40.667  37.306  40.571  1.00  0.00    -0.237 OA
ATOM    104  O   UNL A   1      38.577  37.999  39.446  1.00  0.00    -0.237 OA
ATOM    105  O   UNL A   1      38.517  36.267  41.197  1.00  0.00    -0.744 OA
ENDBRANCH 101 102
ENDBRANCH  69  94
ENDBRANCH  43  44
ENDBRANCH  35  38
ENDBRANCH  33  34
ENDBRANCH  32  33
ENDBRANCH  31  32
ENDBRANCH  30  31
ENDBRANCH   1  30
TORSDOF 21
ENDMDL
