MODEL 1
REMARK VINA RESULT:     -11.0      0.000      0.000
REMARK SMILES COCc1cc(C)nc(N/N=C\c2ccc(-c3cccc(C(=O)NCCCCCCNC(=O)c4ccc(-c5c6nc(c(-c7c(F)cc(S(=O)(=O)[O-])cc7F)c7ccc([nH]7)c(-c7c(F)cc(S(=O)(=O)[O-])cc7F)c7nc(c(-c8c(F)cc(S(=O)(=O)[O-])cc8F)c8ccc5[nH]8)C=C7)C=C6)cc4)c3)o2)c1C#N
REMARK SMILES IDX 26 1 25 2 24 3 22 4 23 5 21 7 17 8 18 9 100 10 19 11 20 12
REMARK SMILES IDX 16 13 13 14 14 15 101 16 15 17 12 18 11 19 10 20 9 22 4 23
REMARK SMILES IDX 5 24 102 25 6 26 7 27 8 28 3 29 2 30 1 31 103 32 104 33
REMARK SMILES IDX 27 34 28 35 29 36 30 37 31 38 32 39 33 41 34 42 35 43 99 44
REMARK SMILES IDX 36 45 98 46 37 47 38 48 39 49 92 50 40 51 97 52 91 53 93 54
REMARK SMILES IDX 41 55 96 56 90 57 89 58 42 60 76 61 55 62 75 63 56 64 59 65
REMARK SMILES IDX 74 66 94 67 57 68 58 69 73 71 95 72 60 73 43 74 44 75 53 76
REMARK SMILES IDX 45 77 46 78 52 79 54 80 47 81 48 82 49 83 50 84 51 85 77 86
REMARK SMILES IDX 78 87 87 88 79 89 80 90 86 91 88 92 81 93 82 94 83 95 84 96
REMARK SMILES IDX 85 97 61 98 62 99 71 100 63 101 64 102 70 103 72 104 65 105
REMARK SMILES IDX 66 106 67 107 68 108 69 109
REMARK H PARENT 24 6 10 21 31 40 93 59 59 70
REMARK Flexibility Score: inf
ROOT
ATOM      1  C   UNL A   1      41.750  20.436  26.752  1.00  0.00     0.021 C 
ENDROOT
BRANCH   1   2
ATOM      2  C   UNL A   1      40.271  20.322  26.349  1.00  0.00     0.116 C 
BRANCH   2   3
ATOM      3  N   UNL A   1      39.659  21.621  26.111  1.00  0.00    -0.352 N 
ATOM      4  C   UNL A   1      38.394  22.060  25.787  1.00  0.00     0.251 C 
ATOM      5  O   UNL A   1      38.204  23.276  25.797  1.00  0.00    -0.269 OA
ATOM      6  H   UNL A   1      40.301  22.362  26.202  1.00  0.00     0.163 HD
BRANCH   4   7
ATOM      7  C   UNL A   1      37.270  21.163  25.395  1.00  0.00     0.040 A 
ATOM      8  C   UNL A   1      34.857  20.774  25.121  1.00  0.00     0.018 A 
ATOM      9  C   UNL A   1      35.110  19.441  24.798  1.00  0.00     0.012 A 
ATOM     10  C   UNL A   1      35.951  21.584  25.417  1.00  0.00     0.025 A 
ATOM     11  C   UNL A   1      36.435  18.978  24.734  1.00  0.00     0.002 A 
ATOM     12  C   UNL A   1      37.509  19.834  25.033  1.00  0.00     0.014 A 
BRANCH   8  13
ATOM     13  C   UNL A   1      33.566  21.459  25.035  1.00  0.00     0.134 A 
ATOM     14  C   UNL A   1      31.996  22.779  25.797  1.00  0.00     0.147 A 
ATOM     15  C   UNL A   1      31.403  22.032  24.804  1.00  0.00     0.053 A 
ATOM     16  O   UNL A   1      33.336  22.499  25.876  1.00  0.00    -0.455 OA
ATOM     17  C   UNL A   1      32.412  21.180  24.315  1.00  0.00     0.051 A 
BRANCH  14  18
ATOM     18  C   UNL A   1      31.471  23.674  26.776  1.00  0.00     0.180 C 
ATOM     19  N   UNL A   1      31.660  24.953  26.917  1.00  0.00    -0.178 NA
BRANCH  19  20
ATOM     20  N   UNL A   1      32.436  25.705  26.077  1.00  0.00    -0.260 N 
ATOM     21  H   UNL A   1      33.310  25.330  25.824  1.00  0.00     0.192 HD
BRANCH  20  22
ATOM     22  C   UNL A   1      32.096  26.986  25.529  1.00  0.00     0.164 A 
ATOM     23  C   UNL A   1      30.818  28.271  23.883  1.00  0.00     0.001 A 
ATOM     24  C   UNL A   1      31.131  29.417  24.604  1.00  0.00     0.031 A 
ATOM     25  C   UNL A   1      31.353  27.046  24.328  1.00  0.00     0.102 A 
ATOM     26  C   UNL A   1      31.862  29.307  25.765  1.00  0.00     0.040 A 
ATOM     27  C   UNL A   1      31.934  30.519  26.640  1.00  0.00     0.067 C 
ATOM     28  N   UNL A   1      32.351  28.127  26.220  1.00  0.00    -0.233 NA
BRANCH  23  29
ATOM     29  C   UNL A   1      29.898  28.389  22.685  1.00  0.00     0.196 C 
BRANCH  29  30
ATOM     30  O   UNL A   1      28.930  29.436  22.856  1.00  0.00    -0.380 OA
ATOM     31  C   UNL A   1      28.623  30.129  21.648  1.00  0.00     0.195 C 
ENDBRANCH  29  30
ENDBRANCH  23  29
BRANCH  25  32
ATOM     32  C   UNL A   1      31.208  25.874  23.516  1.00  0.00     0.103 C 
ATOM     33  N   UNL A   1      31.141  24.955  22.818  1.00  0.00    -0.192 NA
ENDBRANCH  25  32
ENDBRANCH  20  22
ENDBRANCH  19  20
ENDBRANCH  14  18
ENDBRANCH   8  13
ENDBRANCH   4   7
ENDBRANCH   2   3
ENDBRANCH   1   2
BRANCH   1  34
ATOM     34  C   UNL A   1      42.199  21.894  26.905  1.00  0.00     0.002 C 
BRANCH  34  35
ATOM     35  C   UNL A   1      43.375  22.286  25.998  1.00  0.00     0.002 C 
BRANCH  35  36
ATOM     36  C   UNL A   1      44.545  22.943  26.735  1.00  0.00     0.021 C 
BRANCH  36  37
ATOM     37  C   UNL A   1      44.364  24.442  26.923  1.00  0.00     0.116 C 
BRANCH  37  38
ATOM     38  N   UNL A   1      43.540  25.004  25.861  1.00  0.00    -0.352 N 
ATOM     39  C   UNL A   1      42.463  25.843  25.962  1.00  0.00     0.251 C 
ATOM     40  H   UNL A   1      43.794  24.744  24.945  1.00  0.00     0.163 HD
ATOM     41  O   UNL A   1      41.695  25.987  25.017  1.00  0.00    -0.269 OA
BRANCH  39  42
ATOM     42  C   UNL A   1      42.244  26.563  27.229  1.00  0.00     0.039 A 
ATOM     43  C   UNL A   1      42.921  27.759  27.468  1.00  0.00     0.014 A 
ATOM     44  C   UNL A   1      41.343  26.052  28.167  1.00  0.00     0.014 A 
ATOM     45  C   UNL A   1      42.647  28.478  28.632  1.00  0.00     0.010 A 
ATOM     46  C   UNL A   1      41.007  26.812  29.278  1.00  0.00     0.010 A 
ATOM     47  C   UNL A   1      41.664  28.026  29.527  1.00  0.00    -0.014 A 
BRANCH  47  48
ATOM     48  C   UNL A   1      41.310  28.787  30.750  1.00  0.00     0.031 A 
ATOM     49  C   UNL A   1      40.166  29.764  30.708  1.00  0.00     0.074 A 
ATOM     50  C   UNL A   1      42.065  28.665  31.859  1.00  0.00     0.049 A 
ATOM     51  N   UNL A   1      39.777  30.618  31.616  1.00  0.00    -0.248 NA
ATOM     52  C   UNL A   1      39.376  29.807  29.465  1.00  0.00     0.031 C 
ATOM     53  C   UNL A   1      43.213  27.769  32.008  1.00  0.00     0.029 A 
ATOM     54  N   UNL A   1      41.990  29.309  33.068  1.00  0.00    -0.354 N 
ATOM     55  C   UNL A   1      38.711  31.308  31.053  1.00  0.00     0.074 A 
ATOM     56  C   UNL A   1      38.553  30.817  29.702  1.00  0.00     0.031 C 
ATOM     57  C   UNL A   1      43.722  27.907  33.243  1.00  0.00     0.029 A 
ATOM     58  C   UNL A   1      42.976  28.941  33.953  1.00  0.00     0.049 A 
ATOM     59  H   UNL A   1      41.295  29.974  33.281  1.00  0.00     0.167 HD
ATOM     60  C   UNL A   1      37.923  32.252  31.619  1.00  0.00     0.037 A 
ATOM     61  C   UNL A   1      43.259  29.400  35.188  1.00  0.00     0.037 A 
ATOM     62  C   UNL A   1      38.085  32.721  32.969  1.00  0.00     0.049 A 
ATOM     63  C   UNL A   1      42.397  30.483  35.781  1.00  0.00     0.074 A 
ATOM     64  C   UNL A   1      37.311  33.640  33.655  1.00  0.00     0.029 A 
ATOM     65  N   UNL A   1      39.091  32.318  33.836  1.00  0.00    -0.354 N 
ATOM     66  N   UNL A   1      41.358  31.089  35.256  1.00  0.00    -0.248 NA
ATOM     67  C   UNL A   1      42.738  30.946  37.134  1.00  0.00     0.031 C 
ATOM     68  C   UNL A   1      37.891  33.847  34.909  1.00  0.00     0.029 A 
ATOM     69  C   UNL A   1      38.976  32.994  35.039  1.00  0.00     0.049 A 
ATOM     70  H   UNL A   1      39.784  31.651  33.626  1.00  0.00     0.167 HD
ATOM     71  C   UNL A   1      40.896  31.969  36.229  1.00  0.00     0.074 A 
ATOM     72  C   UNL A   1      41.769  31.820  37.374  1.00  0.00     0.031 C 
ATOM     73  C   UNL A   1      39.838  32.814  36.182  1.00  0.00     0.037 A 
BRANCH  60  74
ATOM     74  C   UNL A   1      36.826  32.849  30.780  1.00  0.00     0.058 A 
ATOM     75  C   UNL A   1      35.508  32.366  30.826  1.00  0.00     0.135 A 
ATOM     76  C   UNL A   1      37.088  33.951  29.950  1.00  0.00     0.135 A 
ATOM     77  F   UNL A   1      35.202  31.304  31.589  1.00  0.00    -0.206 F 
ATOM     78  C   UNL A   1      34.498  32.933  30.056  1.00  0.00     0.059 A 
ATOM     79  C   UNL A   1      36.086  34.558  29.200  1.00  0.00     0.059 A 
ATOM     80  F   UNL A   1      38.330  34.454  29.863  1.00  0.00    -0.206 F 
ATOM     81  C   UNL A   1      34.796  34.032  29.249  1.00  0.00     0.060 A 
BRANCH  81  82
ATOM     82  S   UNL A   1      33.469  34.762  28.269  1.00  0.00     0.124 S 
ATOM     83  O   UNL A   1      34.202  35.252  27.105  1.00  0.00    -0.237 OA
ATOM     84  O   UNL A   1      32.595  33.618  28.032  1.00  0.00    -0.237 OA
ATOM     85  O   UNL A   1      32.925  35.794  29.145  1.00  0.00    -0.744 OA
ENDBRANCH  81  82
ENDBRANCH  60  74
BRANCH  61  86
ATOM     86  C   UNL A   1      44.405  28.832  35.952  1.00  0.00     0.058 A 
ATOM     87  C   UNL A   1      44.225  27.745  36.822  1.00  0.00     0.135 A 
ATOM     88  C   UNL A   1      45.700  29.356  35.824  1.00  0.00     0.135 A 
ATOM     89  F   UNL A   1      43.006  27.210  36.984  1.00  0.00    -0.206 F 
ATOM     90  C   UNL A   1      45.282  27.213  37.552  1.00  0.00     0.059 A 
ATOM     91  C   UNL A   1      46.780  28.821  36.520  1.00  0.00     0.059 A 
ATOM     92  F   UNL A   1      45.933  30.382  34.990  1.00  0.00    -0.206 F 
ATOM     93  C   UNL A   1      46.559  27.755  37.390  1.00  0.00     0.060 A 
BRANCH  93  94
ATOM     94  S   UNL A   1      47.932  27.021  38.303  1.00  0.00     0.124 S 
ATOM     95  O   UNL A   1      48.913  26.815  37.243  1.00  0.00    -0.237 OA
ATOM     96  O   UNL A   1      48.247  28.067  39.271  1.00  0.00    -0.237 OA
ATOM     97  O   UNL A   1      47.348  25.808  38.869  1.00  0.00    -0.744 OA
ENDBRANCH  93  94
ENDBRANCH  61  86
BRANCH  73  98
ATOM     98  C   UNL A   1      39.505  33.604  37.419  1.00  0.00     0.058 A 
ATOM     99  C   UNL A   1      38.598  33.137  38.381  1.00  0.00     0.135 A 
ATOM    100  C   UNL A   1      40.194  34.798  37.691  1.00  0.00     0.135 A 
ATOM    101  F   UNL A   1      37.905  32.008  38.168  1.00  0.00    -0.206 F 
ATOM    102  C   UNL A   1      38.385  33.828  39.572  1.00  0.00     0.059 A 
ATOM    103  C   UNL A   1      40.023  35.487  38.887  1.00  0.00     0.059 A 
ATOM    104  F   UNL A   1      41.078  35.286  36.805  1.00  0.00    -0.206 F 
ATOM    105  C   UNL A   1      39.114  34.993  39.821  1.00  0.00     0.060 A 
BRANCH 105 106
ATOM    106  S   UNL A   1      38.891  35.830  41.405  1.00  0.00     0.124 S 
ATOM    107  O   UNL A   1      37.627  35.260  41.864  1.00  0.00    -0.237 OA
ATOM    108  O   UNL A   1      40.079  35.415  42.143  1.00  0.00    -0.237 OA
ATOM    109  O   UNL A   1      38.845  37.243  41.042  1.00  0.00    -0.744 OA
ENDBRANCH 105 106
ENDBRANCH  73  98
ENDBRANCH  47  48
ENDBRANCH  39  42
ENDBRANCH  37  38
ENDBRANCH  36  37
ENDBRANCH  35  36
ENDBRANCH  34  35
ENDBRANCH   1  34
TORSDOF 23
ENDMDL
MODEL 2
REMARK VINA RESULT:     -10.5      4.880      6.719
REMARK SMILES COCc1cc(C)nc(N/N=C\c2ccc(-c3cccc(C(=O)NCCCCCCNC(=O)c4ccc(-c5c6nc(c(-c7c(F)cc(S(=O)(=O)[O-])cc7F)c7ccc([nH]7)c(-c7c(F)cc(S(=O)(=O)[O-])cc7F)c7nc(c(-c8c(F)cc(S(=O)(=O)[O-])cc8F)c8ccc5[nH]8)C=C7)C=C6)cc4)c3)o2)c1C#N
REMARK SMILES IDX 26 1 25 2 24 3 22 4 23 5 21 7 17 8 18 9 100 10 19 11 20 12
REMARK SMILES IDX 16 13 13 14 14 15 101 16 15 17 12 18 11 19 10 20 9 22 4 23
REMARK SMILES IDX 5 24 102 25 6 26 7 27 8 28 3 29 2 30 1 31 103 32 104 33
REMARK SMILES IDX 27 34 28 35 29 36 30 37 31 38 32 39 33 41 34 42 35 43 99 44
REMARK SMILES IDX 36 45 98 46 37 47 38 48 39 49 92 50 40 51 97 52 91 53 93 54
REMARK SMILES IDX 41 55 96 56 90 57 89 58 42 60 76 61 55 62 75 63 56 64 59 65
REMARK SMILES IDX 74 66 94 67 57 68 58 69 73 71 95 72 60 73 43 74 44 75 53 76
REMARK SMILES IDX 45 77 46 78 52 79 54 80 47 81 48 82 49 83 50 84 51 85 77 86
REMARK SMILES IDX 78 87 87 88 79 89 80 90 86 91 88 92 81 93 82 94 83 95 84 96
REMARK SMILES IDX 85 97 61 98 62 99 71 100 63 101 64 102 70 103 72 104 65 105
REMARK SMILES IDX 66 106 67 107 68 108 69 109
REMARK H PARENT 24 6 10 21 31 40 93 59 59 70
REMARK Flexibility Score: inf
ROOT
ATOM      1  C   UNL A   1      45.442  23.662  27.790  1.00  0.00     0.021 C 
ENDROOT
BRANCH   1   2
ATOM      2  C   UNL A   1      44.722  22.533  27.035  1.00  0.00     0.116 C 
BRANCH   2   3
ATOM      3  N   UNL A   1      43.439  22.193  27.633  1.00  0.00    -0.352 N 
ATOM      4  C   UNL A   1      42.192  22.776  27.665  1.00  0.00     0.251 C 
ATOM      5  O   UNL A   1      41.280  22.121  28.170  1.00  0.00    -0.269 OA
ATOM      6  H   UNL A   1      43.470  21.346  28.134  1.00  0.00     0.163 HD
BRANCH   4   7
ATOM      7  C   UNL A   1      41.895  24.149  27.166  1.00  0.00     0.040 A 
ATOM      8  C   UNL A   1      40.834  26.344  27.488  1.00  0.00     0.018 A 
ATOM      9  C   UNL A   1      41.191  26.706  26.190  1.00  0.00     0.012 A 
ATOM     10  C   UNL A   1      41.194  25.072  27.924  1.00  0.00     0.025 A 
ATOM     11  C   UNL A   1      41.931  25.813  25.395  1.00  0.00     0.002 A 
ATOM     12  C   UNL A   1      42.279  24.542  25.880  1.00  0.00     0.014 A 
BRANCH   8  13
ATOM     13  C   UNL A   1      40.248  27.221  28.504  1.00  0.00     0.134 A 
ATOM     14  C   UNL A   1      40.278  28.939  29.859  1.00  0.00     0.147 A 
ATOM     15  C   UNL A   1      39.270  28.121  30.319  1.00  0.00     0.053 A 
ATOM     16  O   UNL A   1      40.812  28.441  28.699  1.00  0.00    -0.455 OA
ATOM     17  C   UNL A   1      39.253  27.013  29.450  1.00  0.00     0.051 A 
BRANCH  14  18
ATOM     18  C   UNL A   1      40.900  30.103  30.401  1.00  0.00     0.180 C 
ATOM     19  N   UNL A   1      40.437  31.313  30.519  1.00  0.00    -0.178 NA
BRANCH  19  20
ATOM     20  N   UNL A   1      39.180  31.688  30.129  1.00  0.00    -0.260 N 
ATOM     21  H   UNL A   1      38.813  31.250  29.327  1.00  0.00     0.192 HD
BRANCH  20  22
ATOM     22  C   UNL A   1      38.345  32.657  30.777  1.00  0.00     0.164 A 
ATOM     23  C   UNL A   1      36.107  33.602  31.084  1.00  0.00     0.001 A 
ATOM     24  C   UNL A   1      36.593  34.270  32.201  1.00  0.00     0.031 A 
ATOM     25  C   UNL A   1      37.013  32.825  30.334  1.00  0.00     0.102 A 
ATOM     26  C   UNL A   1      37.899  34.076  32.589  1.00  0.00     0.040 A 
ATOM     27  C   UNL A   1      38.289  34.592  33.939  1.00  0.00     0.067 C 
ATOM     28  N   UNL A   1      38.769  33.302  31.894  1.00  0.00    -0.233 NA
BRANCH  23  29
ATOM     29  C   UNL A   1      34.634  33.713  30.748  1.00  0.00     0.196 C 
BRANCH  29  30
ATOM     30  O   UNL A   1      34.388  34.721  29.754  1.00  0.00    -0.380 OA
ATOM     31  C   UNL A   1      33.166  35.430  29.954  1.00  0.00     0.195 C 
ENDBRANCH  29  30
ENDBRANCH  23  29
BRANCH  25  32
ATOM     32  C   UNL A   1      36.601  32.271  29.079  1.00  0.00     0.103 C 
ATOM     33  N   UNL A   1      36.270  31.759  28.097  1.00  0.00    -0.192 NA
ENDBRANCH  25  32
ENDBRANCH  20  22
ENDBRANCH  19  20
ENDBRANCH  14  18
ENDBRANCH   8  13
ENDBRANCH   4   7
ENDBRANCH   2   3
ENDBRANCH   1   2
BRANCH   1  34
ATOM     34  C   UNL A   1      45.834  24.820  26.866  1.00  0.00     0.002 C 
BRANCH  34  35
ATOM     35  C   UNL A   1      45.748  24.484  25.371  1.00  0.00     0.002 C 
BRANCH  35  36
ATOM     36  C   UNL A   1      47.107  24.347  24.678  1.00  0.00     0.021 C 
BRANCH  36  37
ATOM     37  C   UNL A   1      48.051  25.501  24.984  1.00  0.00     0.116 C 
BRANCH  37  38
ATOM     38  N   UNL A   1      48.067  26.464  23.890  1.00  0.00    -0.352 N 
ATOM     39  C   UNL A   1      47.331  27.610  23.744  1.00  0.00     0.251 C 
ATOM     40  H   UNL A   1      48.692  26.262  23.156  1.00  0.00     0.163 HD
ATOM     41  O   UNL A   1      47.233  28.150  22.648  1.00  0.00    -0.269 OA
BRANCH  39  42
ATOM     42  C   UNL A   1      46.660  28.175  24.928  1.00  0.00     0.039 A 
ATOM     43  C   UNL A   1      45.297  27.948  25.122  1.00  0.00     0.014 A 
ATOM     44  C   UNL A   1      47.401  28.911  25.857  1.00  0.00     0.014 A 
ATOM     45  C   UNL A   1      44.687  28.415  26.286  1.00  0.00     0.010 A 
ATOM     46  C   UNL A   1      46.813  29.294  27.052  1.00  0.00     0.010 A 
ATOM     47  C   UNL A   1      45.448  29.061  27.274  1.00  0.00    -0.014 A 
BRANCH  47  48
ATOM     48  C   UNL A   1      44.844  29.528  28.546  1.00  0.00     0.031 A 
ATOM     49  C   UNL A   1      44.339  30.941  28.649  1.00  0.00     0.074 A 
ATOM     50  C   UNL A   1      44.832  28.717  29.622  1.00  0.00     0.049 A 
ATOM     51  N   UNL A   1      43.900  31.586  29.697  1.00  0.00    -0.248 NA
ATOM     52  C   UNL A   1      44.360  31.745  27.415  1.00  0.00     0.031 C 
ATOM     53  C   UNL A   1      45.319  27.335  29.647  1.00  0.00     0.029 A 
ATOM     54  N   UNL A   1      44.410  28.941  30.907  1.00  0.00    -0.354 N 
ATOM     55  C   UNL A   1      43.608  32.869  29.255  1.00  0.00     0.074 A 
ATOM     56  C   UNL A   1      43.977  32.933  27.859  1.00  0.00     0.031 C 
ATOM     57  C   UNL A   1      45.149  26.832  30.880  1.00  0.00     0.029 A 
ATOM     58  C   UNL A   1      44.598  27.869  31.747  1.00  0.00     0.049 A 
ATOM     59  H   UNL A   1      44.010  29.792  31.202  1.00  0.00     0.167 HD
ATOM     60  C   UNL A   1      43.063  33.898  29.948  1.00  0.00     0.037 A 
ATOM     61  C   UNL A   1      44.373  27.743  33.070  1.00  0.00     0.037 A 
ATOM     62  C   UNL A   1      42.689  33.816  31.334  1.00  0.00     0.049 A 
ATOM     63  C   UNL A   1      43.809  28.914  33.830  1.00  0.00     0.074 A 
ATOM     64  C   UNL A   1      42.086  34.783  32.117  1.00  0.00     0.029 A 
ATOM     65  N   UNL A   1      42.890  32.709  32.147  1.00  0.00    -0.354 N 
ATOM     66  N   UNL A   1      43.488  30.107  33.386  1.00  0.00    -0.248 NA
ATOM     67  C   UNL A   1      43.571  28.727  35.269  1.00  0.00     0.031 C 
ATOM     68  C   UNL A   1      41.989  34.290  33.420  1.00  0.00     0.029 A 
ATOM     69  C   UNL A   1      42.451  32.983  33.432  1.00  0.00     0.049 A 
ATOM     70  H   UNL A   1      43.286  31.857  31.855  1.00  0.00     0.167 HD
ATOM     71  C   UNL A   1      42.970  30.794  34.479  1.00  0.00     0.074 A 
ATOM     72  C   UNL A   1      43.022  29.887  35.605  1.00  0.00     0.031 C 
ATOM     73  C   UNL A   1      42.485  32.058  34.539  1.00  0.00     0.037 A 
BRANCH  60  74
ATOM     74  C   UNL A   1      42.851  35.199  29.224  1.00  0.00     0.058 A 
ATOM     75  C   UNL A   1      41.598  35.567  28.707  1.00  0.00     0.135 A 
ATOM     76  C   UNL A   1      43.908  36.114  29.085  1.00  0.00     0.135 A 
ATOM     77  F   UNL A   1      40.555  34.726  28.797  1.00  0.00    -0.206 F 
ATOM     78  C   UNL A   1      41.408  36.779  28.052  1.00  0.00     0.059 A 
ATOM     79  C   UNL A   1      43.732  37.348  28.466  1.00  0.00     0.059 A 
ATOM     80  F   UNL A   1      45.129  35.816  29.557  1.00  0.00    -0.206 F 
ATOM     81  C   UNL A   1      42.481  37.665  27.940  1.00  0.00     0.060 A 
BRANCH  81  82
ATOM     82  S   UNL A   1      42.211  39.238  27.098  1.00  0.00     0.124 S 
ATOM     83  O   UNL A   1      41.794  40.093  28.205  1.00  0.00    -0.237 OA
ATOM     84  O   UNL A   1      43.529  39.520  26.540  1.00  0.00    -0.237 OA
ATOM     85  O   UNL A   1      41.172  38.927  26.121  1.00  0.00    -0.744 OA
ENDBRANCH  81  82
ENDBRANCH  60  74
BRANCH  61  86
ATOM     86  C   UNL A   1      44.673  26.456  33.759  1.00  0.00     0.058 A 
ATOM     87  C   UNL A   1      43.644  25.567  34.107  1.00  0.00     0.135 A 
ATOM     88  C   UNL A   1      45.988  26.088  34.079  1.00  0.00     0.135 A 
ATOM     89  F   UNL A   1      42.368  25.875  33.830  1.00  0.00    -0.206 F 
ATOM     90  C   UNL A   1      43.906  24.370  34.764  1.00  0.00     0.059 A 
ATOM     91  C   UNL A   1      46.279  24.881  34.707  1.00  0.00     0.059 A 
ATOM     92  F   UNL A   1      47.012  26.891  33.750  1.00  0.00    -0.206 F 
ATOM     93  C   UNL A   1      45.230  24.033  35.055  1.00  0.00     0.060 A 
BRANCH  93  94
ATOM     94  S   UNL A   1      45.562  22.451  35.859  1.00  0.00     0.124 S 
ATOM     95  O   UNL A   1      46.935  22.191  35.443  1.00  0.00    -0.237 OA
ATOM     96  O   UNL A   1      45.371  22.781  37.268  1.00  0.00    -0.237 OA
ATOM     97  O   UNL A   1      44.550  21.565  35.289  1.00  0.00    -0.744 OA
ENDBRANCH  93  94
ENDBRANCH  61  86
BRANCH  73  98
ATOM     98  C   UNL A   1      41.901  32.533  35.843  1.00  0.00     0.058 A 
ATOM     99  C   UNL A   1      42.673  33.189  36.812  1.00  0.00     0.135 A 
ATOM    100  C   UNL A   1      40.518  32.423  36.068  1.00  0.00     0.135 A 
ATOM    101  F   UNL A   1      43.999  33.313  36.652  1.00  0.00    -0.206 F 
ATOM    102  C   UNL A   1      42.093  33.720  37.962  1.00  0.00     0.059 A 
ATOM    103  C   UNL A   1      39.913  32.975  37.192  1.00  0.00     0.059 A 
ATOM    104  F   UNL A   1      39.732  31.809  35.168  1.00  0.00    -0.206 F 
ATOM    105  C   UNL A   1      40.711  33.620  38.135  1.00  0.00     0.060 A 
BRANCH 105 106
ATOM    106  S   UNL A   1      39.964  34.389  39.588  1.00  0.00     0.124 S 
ATOM    107  O   UNL A   1      38.556  34.433  39.207  1.00  0.00    -0.237 OA
ATOM    108  O   UNL A   1      40.306  33.446  40.647  1.00  0.00    -0.237 OA
ATOM    109  O   UNL A   1      40.632  35.685  39.670  1.00  0.00    -0.744 OA
ENDBRANCH 105 106
ENDBRANCH  73  98
ENDBRANCH  47  48
ENDBRANCH  39  42
ENDBRANCH  37  38
ENDBRANCH  36  37
ENDBRANCH  35  36
ENDBRANCH  34  35
ENDBRANCH   1  34
TORSDOF 23
ENDMDL
MODEL 3
REMARK VINA RESULT:     -10.2      6.611     13.667
REMARK SMILES COCc1cc(C)nc(N/N=C\c2ccc(-c3cccc(C(=O)NCCCCCCNC(=O)c4ccc(-c5c6nc(c(-c7c(F)cc(S(=O)(=O)[O-])cc7F)c7ccc([nH]7)c(-c7c(F)cc(S(=O)(=O)[O-])cc7F)c7nc(c(-c8c(F)cc(S(=O)(=O)[O-])cc8F)c8ccc5[nH]8)C=C7)C=C6)cc4)c3)o2)c1C#N
REMARK SMILES IDX 26 1 25 2 24 3 22 4 23 5 21 7 17 8 18 9 100 10 19 11 20 12
REMARK SMILES IDX 16 13 13 14 14 15 101 16 15 17 12 18 11 19 10 20 9 22 4 23
REMARK SMILES IDX 5 24 102 25 6 26 7 27 8 28 3 29 2 30 1 31 103 32 104 33
REMARK SMILES IDX 27 34 28 35 29 36 30 37 31 38 32 39 33 41 34 42 35 43 99 44
REMARK SMILES IDX 36 45 98 46 37 47 38 48 39 49 92 50 40 51 97 52 91 53 93 54
REMARK SMILES IDX 41 55 96 56 90 57 89 58 42 60 76 61 55 62 75 63 56 64 59 65
REMARK SMILES IDX 74 66 94 67 57 68 58 69 73 71 95 72 60 73 43 74 44 75 53 76
REMARK SMILES IDX 45 77 46 78 52 79 54 80 47 81 48 82 49 83 50 84 51 85 77 86
REMARK SMILES IDX 78 87 87 88 79 89 80 90 86 91 88 92 81 93 82 94 83 95 84 96
REMARK SMILES IDX 85 97 61 98 62 99 71 100 63 101 64 102 70 103 72 104 65 105
REMARK SMILES IDX 66 106 67 107 68 108 69 109
REMARK H PARENT 24 6 10 21 31 40 93 59 59 70
REMARK Flexibility Score: inf
ROOT
ATOM      1  C   UNL A   1      39.008  34.082  42.144  1.00  0.00     0.021 C 
ENDROOT
BRANCH   1   2
ATOM      2  C   UNL A   1      38.270  34.433  40.843  1.00  0.00     0.116 C 
BRANCH   2   3
ATOM      3  N   UNL A   1      38.085  33.276  39.979  1.00  0.00    -0.352 N 
ATOM      4  C   UNL A   1      38.428  32.960  38.683  1.00  0.00     0.251 C 
ATOM      5  O   UNL A   1      38.222  31.803  38.315  1.00  0.00    -0.269 OA
ATOM      6  H   UNL A   1      37.600  32.546  40.427  1.00  0.00     0.163 HD
BRANCH   4   7
ATOM      7  C   UNL A   1      38.990  33.933  37.703  1.00  0.00     0.040 A 
ATOM      8  C   UNL A   1      39.830  34.432  35.446  1.00  0.00     0.018 A 
ATOM      9  C   UNL A   1      40.190  35.712  35.864  1.00  0.00     0.012 A 
ATOM     10  C   UNL A   1      39.249  33.586  36.388  1.00  0.00     0.025 A 
ATOM     11  C   UNL A   1      39.918  36.118  37.182  1.00  0.00     0.002 A 
ATOM     12  C   UNL A   1      39.323  35.233  38.096  1.00  0.00     0.014 A 
BRANCH   8  13
ATOM     13  C   UNL A   1      39.857  33.926  34.072  1.00  0.00     0.134 A 
ATOM     14  C   UNL A   1      39.808  32.336  32.570  1.00  0.00     0.147 A 
ATOM     15  C   UNL A   1      40.335  33.436  31.930  1.00  0.00     0.053 A 
ATOM     16  O   UNL A   1      39.428  32.659  33.847  1.00  0.00    -0.455 OA
ATOM     17  C   UNL A   1      40.370  34.459  32.896  1.00  0.00     0.051 A 
BRANCH  14  18
ATOM     18  C   UNL A   1      39.685  30.966  32.193  1.00  0.00     0.180 C 
ATOM     19  N   UNL A   1      38.636  30.198  32.189  1.00  0.00    -0.178 NA
BRANCH  19  20
ATOM     20  N   UNL A   1      37.385  30.615  32.557  1.00  0.00    -0.260 N 
ATOM     21  H   UNL A   1      37.121  30.458  33.492  1.00  0.00     0.192 HD
BRANCH  20  22
ATOM     22  C   UNL A   1      36.423  31.261  31.711  1.00  0.00     0.164 A 
ATOM     23  C   UNL A   1      35.061  33.241  31.245  1.00  0.00     0.001 A 
ATOM     24  C   UNL A   1      34.816  32.718  29.982  1.00  0.00     0.031 A 
ATOM     25  C   UNL A   1      35.835  32.473  32.138  1.00  0.00     0.102 A 
ATOM     26  C   UNL A   1      35.409  31.531  29.615  1.00  0.00     0.040 A 
ATOM     27  C   UNL A   1      35.339  31.156  28.168  1.00  0.00     0.067 C 
ATOM     28  N   UNL A   1      36.185  30.803  30.455  1.00  0.00    -0.233 NA
BRANCH  23  29
ATOM     29  C   UNL A   1      34.516  34.612  31.587  1.00  0.00     0.196 C 
BRANCH  29  30
ATOM     30  O   UNL A   1      33.138  34.750  31.207  1.00  0.00    -0.380 OA
ATOM     31  C   UNL A   1      32.868  35.939  30.466  1.00  0.00     0.195 C 
ENDBRANCH  29  30
ENDBRANCH  23  29
BRANCH  25  32
ATOM     32  C   UNL A   1      35.958  32.887  33.504  1.00  0.00     0.103 C 
ATOM     33  N   UNL A   1      36.029  33.159  34.626  1.00  0.00    -0.192 NA
ENDBRANCH  25  32
ENDBRANCH  20  22
ENDBRANCH  19  20
ENDBRANCH  14  18
ENDBRANCH   8  13
ENDBRANCH   4   7
ENDBRANCH   2   3
ENDBRANCH   1   2
BRANCH   1  34
ATOM     34  C   UNL A   1      40.144  33.079  41.914  1.00  0.00     0.002 C 
BRANCH  34  35
ATOM     35  C   UNL A   1      40.741  32.502  43.205  1.00  0.00     0.002 C 
BRANCH  35  36
ATOM     36  C   UNL A   1      40.806  33.497  44.368  1.00  0.00     0.021 C 
BRANCH  36  37
ATOM     37  C   UNL A   1      42.230  33.882  44.743  1.00  0.00     0.116 C 
BRANCH  37  38
ATOM     38  N   UNL A   1      42.329  35.312  45.007  1.00  0.00    -0.352 N 
ATOM     39  C   UNL A   1      42.739  36.314  44.167  1.00  0.00     0.251 C 
ATOM     40  H   UNL A   1      42.065  35.596  45.912  1.00  0.00     0.163 HD
ATOM     41  O   UNL A   1      43.054  37.411  44.615  1.00  0.00    -0.269 OA
BRANCH  39  42
ATOM     42  C   UNL A   1      42.797  36.043  42.720  1.00  0.00     0.039 A 
ATOM     43  C   UNL A   1      41.703  36.362  41.915  1.00  0.00     0.014 A 
ATOM     44  C   UNL A   1      43.957  35.493  42.166  1.00  0.00     0.014 A 
ATOM     45  C   UNL A   1      41.796  36.180  40.535  1.00  0.00     0.010 A 
ATOM     46  C   UNL A   1      44.078  35.400  40.788  1.00  0.00     0.010 A 
ATOM     47  C   UNL A   1      42.996  35.731  39.960  1.00  0.00    -0.014 A 
BRANCH  47  48
ATOM     48  C   UNL A   1      43.149  35.572  38.493  1.00  0.00     0.031 A 
ATOM     49  C   UNL A   1      42.995  34.209  37.877  1.00  0.00     0.074 A 
ATOM     50  C   UNL A   1      43.508  36.628  37.736  1.00  0.00     0.049 A 
ATOM     51  N   UNL A   1      43.216  33.830  36.646  1.00  0.00    -0.248 NA
ATOM     52  C   UNL A   1      42.568  33.120  38.772  1.00  0.00     0.031 C 
ATOM     53  C   UNL A   1      43.710  37.993  38.228  1.00  0.00     0.029 A 
ATOM     54  N   UNL A   1      43.785  36.716  36.396  1.00  0.00    -0.354 N 
ATOM     55  C   UNL A   1      42.970  32.463  36.623  1.00  0.00     0.074 A 
ATOM     56  C   UNL A   1      42.644  32.066  37.974  1.00  0.00     0.031 C 
ATOM     57  C   UNL A   1      44.059  38.783  37.200  1.00  0.00     0.029 A 
ATOM     58  C   UNL A   1      44.162  37.974  35.990  1.00  0.00     0.049 A 
ATOM     59  H   UNL A   1      43.718  35.949  35.781  1.00  0.00     0.167 HD
ATOM     60  C   UNL A   1      42.995  31.618  35.565  1.00  0.00     0.037 A 
ATOM     61  C   UNL A   1      44.568  38.420  34.784  1.00  0.00     0.037 A 
ATOM     62  C   UNL A   1      43.310  32.030  34.223  1.00  0.00     0.049 A 
ATOM     63  C   UNL A   1      44.632  37.454  33.631  1.00  0.00     0.074 A 
ATOM     64  C   UNL A   1      43.317  31.264  33.071  1.00  0.00     0.029 A 
ATOM     65  N   UNL A   1      43.680  33.315  33.852  1.00  0.00    -0.354 N 
ATOM     66  N   UNL A   1      44.345  36.173  33.613  1.00  0.00    -0.248 NA
ATOM     67  C   UNL A   1      45.071  37.987  32.334  1.00  0.00     0.031 C 
ATOM     68  C   UNL A   1      43.762  32.067  32.018  1.00  0.00     0.029 A 
ATOM     69  C   UNL A   1      43.950  33.355  32.495  1.00  0.00     0.049 A 
ATOM     70  H   UNL A   1      43.743  34.084  34.463  1.00  0.00     0.167 HD
ATOM     71  C   UNL A   1      44.525  35.760  32.297  1.00  0.00     0.074 A 
ATOM     72  C   UNL A   1      44.948  36.925  31.549  1.00  0.00     0.031 C 
ATOM     73  C   UNL A   1      44.344  34.531  31.757  1.00  0.00     0.037 A 
BRANCH  60  74
ATOM     74  C   UNL A   1      42.689  30.167  35.815  1.00  0.00     0.058 A 
ATOM     75  C   UNL A   1      41.374  29.673  35.811  1.00  0.00     0.135 A 
ATOM     76  C   UNL A   1      43.731  29.247  36.017  1.00  0.00     0.135 A 
ATOM     77  F   UNL A   1      40.337  30.508  35.639  1.00  0.00    -0.206 F 
ATOM     78  C   UNL A   1      41.102  28.327  36.030  1.00  0.00     0.059 A 
ATOM     79  C   UNL A   1      43.485  27.890  36.201  1.00  0.00     0.059 A 
ATOM     80  F   UNL A   1      45.008  29.662  36.034  1.00  0.00    -0.206 F 
ATOM     81  C   UNL A   1      42.165  27.442  36.220  1.00  0.00     0.060 A 
BRANCH  81  82
ATOM     82  S   UNL A   1      41.791  25.697  36.490  1.00  0.00     0.124 S 
ATOM     83  O   UNL A   1      41.807  25.182  35.124  1.00  0.00    -0.237 OA
ATOM     84  O   UNL A   1      42.897  25.272  37.341  1.00  0.00    -0.237 OA
ATOM     85  O   UNL A   1      40.481  25.725  37.133  1.00  0.00    -0.744 OA
ENDBRANCH  81  82
ENDBRANCH  60  74
BRANCH  61  86
ATOM     86  C   UNL A   1      44.937  39.852  34.603  1.00  0.00     0.058 A 
ATOM     87  C   UNL A   1      43.989  40.793  34.170  1.00  0.00     0.135 A 
ATOM     88  C   UNL A   1      46.237  40.311  34.863  1.00  0.00     0.135 A 
ATOM     89  F   UNL A   1      42.733  40.404  33.901  1.00  0.00    -0.206 F 
ATOM     90  C   UNL A   1      44.321  42.129  33.982  1.00  0.00     0.059 A 
ATOM     91  C   UNL A   1      46.586  41.650  34.713  1.00  0.00     0.059 A 
ATOM     92  F   UNL A   1      47.178  39.459  35.300  1.00  0.00    -0.206 F 
ATOM     93  C   UNL A   1      45.623  42.550  34.262  1.00  0.00     0.060 A 
BRANCH  93  94
ATOM     94  S   UNL A   1      46.027  44.298  34.065  1.00  0.00     0.124 S 
ATOM     95  O   UNL A   1      45.111  44.695  33.002  1.00  0.00    -0.237 OA
ATOM     96  O   UNL A   1      45.734  44.828  35.393  1.00  0.00    -0.237 OA
ATOM     97  O   UNL A   1      47.443  44.277  33.705  1.00  0.00    -0.744 OA
ENDBRANCH  93  94
ENDBRANCH  61  86
BRANCH  73  98
ATOM     98  C   UNL A   1      44.530  34.374  30.271  1.00  0.00     0.058 A 
ATOM     99  C   UNL A   1      45.721  33.884  29.715  1.00  0.00     0.135 A 
ATOM    100  C   UNL A   1      43.451  34.615  29.404  1.00  0.00     0.135 A 
ATOM    101  F   UNL A   1      46.786  33.646  30.496  1.00  0.00    -0.206 F 
ATOM    102  C   UNL A   1      45.836  33.640  28.348  1.00  0.00     0.059 A 
ATOM    103  C   UNL A   1      43.532  34.347  28.042  1.00  0.00     0.059 A 
ATOM    104  F   UNL A   1      42.286  35.078  29.886  1.00  0.00    -0.206 F 
ATOM    105  C   UNL A   1      44.731  33.861  27.523  1.00  0.00     0.060 A 
BRANCH 105 106
ATOM    106  S   UNL A   1      44.868  33.458  25.769  1.00  0.00     0.124 S 
ATOM    107  O   UNL A   1      45.274  32.057  25.819  1.00  0.00    -0.237 OA
ATOM    108  O   UNL A   1      43.514  33.710  25.287  1.00  0.00    -0.237 OA
ATOM    109  O   UNL A   1      45.884  34.387  25.284  1.00  0.00    -0.744 OA
ENDBRANCH 105 106
ENDBRANCH  73  98
ENDBRANCH  47  48
ENDBRANCH  39  42
ENDBRANCH  37  38
ENDBRANCH  36  37
ENDBRANCH  35  36
ENDBRANCH  34  35
ENDBRANCH   1  34
TORSDOF 23
ENDMDL
