MODEL 1
REMARK VINA RESULT:     -11.7      0.000      0.000
REMARK SMILES CCN1C(=O)/C(=C/c2ccccc2O[C@H](C)C(=O)NCCCCCCNC(=O)c2ccc(-c3c4nc(c(-c5c(F)cc(S(=O)(=O)[O-])cc5F)c5ccc([nH]5)c(-c5c(F)cc(S(=O)(=O)[O-])cc5F)c5nc(c(-c6c(F)cc(S(=O)(=O)[O-])cc6F)c6ccc3[nH]6)C=C5)C=C4)cc2)S/C1=[NH+]\c1ccc(C)cc1O
REMARK SMILES IDX 21 1 20 2 19 3 17 4 18 5 15 7 16 8 14 9 13 10 8 11 9 12
REMARK SMILES IDX 10 13 12 14 11 15 7 16 3 17 4 18 96 19 5 20 6 21 95 22 97 23
REMARK SMILES IDX 2 25 1 26 98 27 99 28 104 29 100 30 103 31 101 32 102 33
REMARK SMILES IDX 105 34 22 36 23 37 24 38 25 39 26 40 27 41 28 43 29 44 30 45
REMARK SMILES IDX 94 46 31 47 93 48 32 49 33 50 34 51 87 52 35 53 92 54 86 55
REMARK SMILES IDX 88 56 36 57 91 58 85 59 84 60 37 62 71 63 50 64 70 65 51 66
REMARK SMILES IDX 54 67 69 68 89 69 52 70 53 71 68 73 90 74 55 75 38 76 39 77
REMARK SMILES IDX 48 78 40 79 41 80 47 81 49 82 42 83 43 84 44 85 45 86 46 87
REMARK SMILES IDX 72 88 73 89 82 90 74 91 75 92 81 93 83 94 76 95 77 96 78 97
REMARK SMILES IDX 79 98 80 99 56 100 57 101 66 102 58 103 59 104 65 105 67 106
REMARK SMILES IDX 60 107 61 108 62 109 63 110 64 111
REMARK H PARENT 19 6 97 24 105 35 26 42 88 61 54 72
REMARK Flexibility Score: inf
ROOT
ATOM      1  C   UNL A   1      33.460  26.806  26.341  1.00  0.00     0.021 C 
ENDROOT
BRANCH   1   2
ATOM      2  C   UNL A   1      33.474  25.445  25.658  1.00  0.00     0.116 C 
BRANCH   2   3
ATOM      3  N   UNL A   1      32.955  24.393  26.494  1.00  0.00    -0.353 N 
ATOM      4  C   UNL A   1      31.695  23.878  26.545  1.00  0.00     0.260 C 
ATOM      5  O   UNL A   1      31.519  22.909  27.294  1.00  0.00    -0.271 OA
ATOM      6  H   UNL A   1      33.603  23.989  27.116  1.00  0.00     0.163 HD
BRANCH   4   7
ATOM      7  C   UNL A   1      30.499  24.513  25.785  1.00  0.00     0.258 C 
ATOM      8  C   UNL A   1      30.213  25.912  26.309  1.00  0.00     0.064 C 
BRANCH   7   9
ATOM      9  O   UNL A   1      30.386  24.247  24.397  1.00  0.00    -0.480 OA
BRANCH   9  10
ATOM     10  C   UNL A   1      31.036  24.780  23.326  1.00  0.00     0.127 A 
ATOM     11  C   UNL A   1      31.817  23.860  22.589  1.00  0.00     0.018 A 
ATOM     12  C   UNL A   1      32.701  24.323  21.602  1.00  0.00     0.012 A 
ATOM     13  C   UNL A   1      32.769  25.680  21.296  1.00  0.00     0.001 A 
ATOM     14  C   UNL A   1      31.059  26.124  22.949  1.00  0.00     0.047 A 
ATOM     15  C   UNL A   1      31.929  26.573  21.949  1.00  0.00     0.004 A 
BRANCH  11  16
ATOM     16  C   UNL A   1      31.746  22.398  22.794  1.00  0.00     0.036 C 
ATOM     17  N   UNL A   1      33.652  19.774  24.392  1.00  0.00    -0.186 N 
ATOM     18  C   UNL A   1      32.565  20.218  23.661  1.00  0.00     0.348 C 
ATOM     19  C   UNL A   1      34.626  20.700  24.676  1.00  0.00     0.324 C 
ATOM     20  O   UNL A   1      31.588  19.549  23.342  1.00  0.00    -0.240 OA
ATOM     21  C   UNL A   1      32.723  21.660  23.342  1.00  0.00     0.110 C 
ATOM     22  S   UNL A   1      34.264  22.201  23.878  1.00  0.00     0.007 SA
ATOM     23  N   UNL A   1      35.624  20.461  25.464  1.00  0.00    -0.231 N 
ATOM     24  H   UNL A   1      35.699  19.580  25.896  1.00  0.00     0.313 HD
BRANCH  17  25
ATOM     25  C   UNL A   1      33.710  18.393  24.846  1.00  0.00     0.244 C 
ATOM     26  C   UNL A   1      34.356  17.490  23.805  1.00  0.00     0.055 C 
ENDBRANCH  17  25
BRANCH  23  27
ATOM     27  C   UNL A   1      36.608  21.444  25.716  1.00  0.00     0.167 A 
ATOM     28  C   UNL A   1      36.194  22.726  26.085  1.00  0.00     0.056 A 
ATOM     29  C   UNL A   1      37.986  21.225  25.552  1.00  0.00     0.162 A 
ATOM     30  C   UNL A   1      37.126  23.745  26.322  1.00  0.00     0.008 A 
ATOM     31  C   UNL A   1      38.924  22.223  25.814  1.00  0.00     0.054 A 
ATOM     32  C   UNL A   1      38.499  23.496  26.204  1.00  0.00    -0.047 A 
ATOM     33  C   UNL A   1      39.495  24.592  26.443  1.00  0.00     0.044 C 
BRANCH  29  34
ATOM     34  O   UNL A   1      38.482  20.022  25.122  1.00  0.00    -0.504 OA
ATOM     35  H   UNL A   1      38.051  19.557  24.432  1.00  0.00     0.293 HD
ENDBRANCH  29  34
ENDBRANCH  23  27
ENDBRANCH  11  16
ENDBRANCH   9  10
ENDBRANCH   7   9
ENDBRANCH   4   7
ENDBRANCH   2   3
ENDBRANCH   1   2
BRANCH   1  36
ATOM     36  C   UNL A   1      33.740  27.957  25.376  1.00  0.00     0.002 C 
BRANCH  36  37
ATOM     37  C   UNL A   1      34.160  29.270  26.053  1.00  0.00     0.002 C 
BRANCH  37  38
ATOM     38  C   UNL A   1      34.395  29.175  27.564  1.00  0.00     0.021 C 
BRANCH  38  39
ATOM     39  C   UNL A   1      35.600  29.967  28.060  1.00  0.00     0.116 C 
BRANCH  39  40
ATOM     40  N   UNL A   1      35.594  30.096  29.510  1.00  0.00    -0.352 N 
ATOM     41  C   UNL A   1      36.588  29.826  30.415  1.00  0.00     0.251 C 
ATOM     42  H   UNL A   1      34.752  30.424  29.899  1.00  0.00     0.163 HD
ATOM     43  O   UNL A   1      36.323  29.741  31.609  1.00  0.00    -0.269 OA
BRANCH  41  44
ATOM     44  C   UNL A   1      37.974  29.637  29.942  1.00  0.00     0.039 A 
ATOM     45  C   UNL A   1      38.972  29.324  30.868  1.00  0.00     0.014 A 
ATOM     46  C   UNL A   1      38.290  29.787  28.588  1.00  0.00     0.014 A 
ATOM     47  C   UNL A   1      40.278  29.109  30.427  1.00  0.00     0.010 A 
ATOM     48  C   UNL A   1      39.575  29.498  28.141  1.00  0.00     0.010 A 
ATOM     49  C   UNL A   1      40.583  29.163  29.056  1.00  0.00    -0.014 A 
BRANCH  49  50
ATOM     50  C   UNL A   1      41.951  28.868  28.561  1.00  0.00     0.031 A 
ATOM     51  C   UNL A   1      42.313  27.475  28.124  1.00  0.00     0.074 A 
ATOM     52  C   UNL A   1      42.882  29.842  28.568  1.00  0.00     0.049 A 
ATOM     53  N   UNL A   1      43.470  27.009  27.729  1.00  0.00    -0.248 NA
ATOM     54  C   UNL A   1      41.241  26.466  28.160  1.00  0.00     0.031 C 
ATOM     55  C   UNL A   1      42.662  31.220  29.015  1.00  0.00     0.029 A 
ATOM     56  N   UNL A   1      44.204  29.823  28.199  1.00  0.00    -0.354 N 
ATOM     57  C   UNL A   1      43.269  25.656  27.481  1.00  0.00     0.074 A 
ATOM     58  C   UNL A   1      41.895  25.363  27.824  1.00  0.00     0.031 C 
ATOM     59  C   UNL A   1      43.801  31.917  28.874  1.00  0.00     0.029 A 
ATOM     60  C   UNL A   1      44.843  31.029  28.370  1.00  0.00     0.049 A 
ATOM     61  H   UNL A   1      44.652  29.021  27.845  1.00  0.00     0.167 HD
ATOM     62  C   UNL A   1      44.145  24.746  26.992  1.00  0.00     0.037 A 
ATOM     63  C   UNL A   1      46.127  31.377  28.157  1.00  0.00     0.037 A 
ATOM     64  C   UNL A   1      45.506  25.054  26.635  1.00  0.00     0.049 A 
ATOM     65  C   UNL A   1      47.084  30.347  27.620  1.00  0.00     0.074 A 
ATOM     66  C   UNL A   1      46.458  24.218  26.076  1.00  0.00     0.029 A 
ATOM     67  N   UNL A   1      46.113  26.291  26.805  1.00  0.00    -0.354 N 
ATOM     68  N   UNL A   1      46.860  29.086  27.329  1.00  0.00    -0.248 NA
ATOM     69  C   UNL A   1      48.464  30.785  27.375  1.00  0.00     0.031 C 
ATOM     70  C   UNL A   1      47.653  24.933  25.961  1.00  0.00     0.029 A 
ATOM     71  C   UNL A   1      47.432  26.233  26.388  1.00  0.00     0.049 A 
ATOM     72  H   UNL A   1      45.670  27.091  27.169  1.00  0.00     0.167 HD
ATOM     73  C   UNL A   1      48.063  28.590  26.841  1.00  0.00     0.074 A 
ATOM     74  C   UNL A   1      49.007  29.688  26.863  1.00  0.00     0.031 C 
ATOM     75  C   UNL A   1      48.359  27.338  26.412  1.00  0.00     0.037 A 
BRANCH  62  76
ATOM     76  C   UNL A   1      43.663  23.332  26.811  1.00  0.00     0.058 A 
ATOM     77  C   UNL A   1      43.391  22.800  25.540  1.00  0.00     0.135 A 
ATOM     78  C   UNL A   1      43.518  22.481  27.918  1.00  0.00     0.135 A 
ATOM     79  F   UNL A   1      43.498  23.572  24.446  1.00  0.00    -0.206 F 
ATOM     80  C   UNL A   1      42.968  21.486  25.375  1.00  0.00     0.059 A 
ATOM     81  C   UNL A   1      43.126  21.153  27.775  1.00  0.00     0.059 A 
ATOM     82  F   UNL A   1      43.763  22.936  29.158  1.00  0.00    -0.206 F 
ATOM     83  C   UNL A   1      42.841  20.668  26.500  1.00  0.00     0.060 A 
BRANCH  83  84
ATOM     84  S   UNL A   1      42.308  18.959  26.265  1.00  0.00     0.124 S 
ATOM     85  O   UNL A   1      42.484  18.413  27.607  1.00  0.00    -0.237 OA
ATOM     86  O   UNL A   1      40.927  19.123  25.824  1.00  0.00    -0.237 OA
ATOM     87  O   UNL A   1      43.231  18.450  25.256  1.00  0.00    -0.744 OA
ENDBRANCH  83  84
ENDBRANCH  62  76
BRANCH  63  88
ATOM     88  C   UNL A   1      46.575  32.767  28.442  1.00  0.00     0.058 A 
ATOM     89  C   UNL A   1      46.526  33.761  27.453  1.00  0.00     0.135 A 
ATOM     90  C   UNL A   1      47.046  33.133  29.712  1.00  0.00     0.135 A 
ATOM     91  F   UNL A   1      46.089  33.460  26.221  1.00  0.00    -0.206 F 
ATOM     92  C   UNL A   1      46.943  35.063  27.706  1.00  0.00     0.059 A 
ATOM     93  C   UNL A   1      47.441  34.436  29.999  1.00  0.00     0.059 A 
ATOM     94  F   UNL A   1      47.096  32.225  30.699  1.00  0.00    -0.206 F 
ATOM     95  C   UNL A   1      47.396  35.392  28.986  1.00  0.00     0.060 A 
BRANCH  95  96
ATOM     96  S   UNL A   1      47.888  37.097  29.318  1.00  0.00     0.124 S 
ATOM     97  O   UNL A   1      48.684  37.408  28.138  1.00  0.00    -0.237 OA
ATOM     98  O   UNL A   1      46.597  37.773  29.416  1.00  0.00    -0.237 OA
ATOM     99  O   UNL A   1      48.628  36.993  30.572  1.00  0.00    -0.744 OA
ENDBRANCH  95  96
ENDBRANCH  63  88
BRANCH  75 100
ATOM    100  C   UNL A   1      49.750  27.091  25.894  1.00  0.00     0.058 A 
ATOM    101  C   UNL A   1      50.774  26.604  26.722  1.00  0.00     0.135 A 
ATOM    102  C   UNL A   1      50.046  27.289  24.535  1.00  0.00     0.135 A 
ATOM    103  F   UNL A   1      50.547  26.405  28.031  1.00  0.00    -0.206 F 
ATOM    104  C   UNL A   1      52.048  26.346  26.227  1.00  0.00     0.059 A 
ATOM    105  C   UNL A   1      51.303  27.006  24.011  1.00  0.00     0.059 A 
ATOM    106  F   UNL A   1      49.101  27.742  23.695  1.00  0.00    -0.206 F 
ATOM    107  C   UNL A   1      52.302  26.546  24.869  1.00  0.00     0.060 A 
BRANCH 107 108
ATOM    108  S   UNL A   1      53.948  26.169  24.233  1.00  0.00     0.124 S 
ATOM    109  O   UNL A   1      54.241  24.907  24.904  1.00  0.00    -0.237 OA
ATOM    110  O   UNL A   1      53.714  26.083  22.794  1.00  0.00    -0.237 OA
ATOM    111  O   UNL A   1      54.750  27.310  24.664  1.00  0.00    -0.744 OA
ENDBRANCH 107 108
ENDBRANCH  75 100
ENDBRANCH  49  50
ENDBRANCH  41  44
ENDBRANCH  39  40
ENDBRANCH  38  39
ENDBRANCH  37  38
ENDBRANCH  36  37
ENDBRANCH   1  36
TORSDOF 22
ENDMDL
MODEL 2
REMARK VINA RESULT:     -11.7      4.732      8.849
REMARK SMILES CCN1C(=O)/C(=C/c2ccccc2O[C@H](C)C(=O)NCCCCCCNC(=O)c2ccc(-c3c4nc(c(-c5c(F)cc(S(=O)(=O)[O-])cc5F)c5ccc([nH]5)c(-c5c(F)cc(S(=O)(=O)[O-])cc5F)c5nc(c(-c6c(F)cc(S(=O)(=O)[O-])cc6F)c6ccc3[nH]6)C=C5)C=C4)cc2)S/C1=[NH+]\c1ccc(C)cc1O
REMARK SMILES IDX 21 1 20 2 19 3 17 4 18 5 15 7 16 8 14 9 13 10 8 11 9 12
REMARK SMILES IDX 10 13 12 14 11 15 7 16 3 17 4 18 96 19 5 20 6 21 95 22 97 23
REMARK SMILES IDX 2 25 1 26 98 27 99 28 104 29 100 30 103 31 101 32 102 33
REMARK SMILES IDX 105 34 22 36 23 37 24 38 25 39 26 40 27 41 28 43 29 44 30 45
REMARK SMILES IDX 94 46 31 47 93 48 32 49 33 50 34 51 87 52 35 53 92 54 86 55
REMARK SMILES IDX 88 56 36 57 91 58 85 59 84 60 37 62 71 63 50 64 70 65 51 66
REMARK SMILES IDX 54 67 69 68 89 69 52 70 53 71 68 73 90 74 55 75 38 76 39 77
REMARK SMILES IDX 48 78 40 79 41 80 47 81 49 82 42 83 43 84 44 85 45 86 46 87
REMARK SMILES IDX 72 88 73 89 82 90 74 91 75 92 81 93 83 94 76 95 77 96 78 97
REMARK SMILES IDX 79 98 80 99 56 100 57 101 66 102 58 103 59 104 65 105 67 106
REMARK SMILES IDX 60 107 61 108 62 109 63 110 64 111
REMARK H PARENT 19 6 97 24 105 35 26 42 88 61 54 72
REMARK Flexibility Score: inf
ROOT
ATOM      1  C   UNL A   1      33.286  25.270  26.311  1.00  0.00     0.021 C 
ENDROOT
BRANCH   1   2
ATOM      2  C   UNL A   1      32.941  23.788  26.282  1.00  0.00     0.116 C 
BRANCH   2   3
ATOM      3  N   UNL A   1      31.778  23.467  27.068  1.00  0.00    -0.353 N 
ATOM      4  C   UNL A   1      30.463  23.670  26.780  1.00  0.00     0.260 C 
ATOM      5  O   UNL A   1      29.639  23.223  27.588  1.00  0.00    -0.271 OA
ATOM      6  H   UNL A   1      31.960  23.041  27.937  1.00  0.00     0.163 HD
BRANCH   4   7
ATOM      7  C   UNL A   1      29.992  24.500  25.554  1.00  0.00     0.258 C 
ATOM      8  C   UNL A   1      30.101  25.990  25.842  1.00  0.00     0.064 C 
BRANCH   7   9
ATOM      9  O   UNL A   1      30.317  24.009  24.264  1.00  0.00    -0.480 OA
BRANCH   9  10
ATOM     10  C   UNL A   1      31.041  24.560  23.251  1.00  0.00     0.127 A 
ATOM     11  C   UNL A   1      31.930  23.668  22.607  1.00  0.00     0.018 A 
ATOM     12  C   UNL A   1      32.882  24.160  21.701  1.00  0.00     0.012 A 
ATOM     13  C   UNL A   1      32.918  25.515  21.381  1.00  0.00     0.001 A 
ATOM     14  C   UNL A   1      31.040  25.899  22.856  1.00  0.00     0.047 A 
ATOM     15  C   UNL A   1      31.981  26.375  21.937  1.00  0.00     0.004 A 
BRANCH  11  16
ATOM     16  C   UNL A   1      31.905  22.207  22.827  1.00  0.00     0.036 C 
ATOM     17  N   UNL A   1      33.896  19.662  24.451  1.00  0.00    -0.186 N 
ATOM     18  C   UNL A   1      32.794  20.064  23.717  1.00  0.00     0.348 C 
ATOM     19  C   UNL A   1      34.840  20.621  24.723  1.00  0.00     0.324 C 
ATOM     20  O   UNL A   1      31.839  19.361  23.406  1.00  0.00    -0.240 OA
ATOM     21  C   UNL A   1      32.906  21.507  23.382  1.00  0.00     0.110 C 
ATOM     22  S   UNL A   1      34.430  22.102  23.910  1.00  0.00     0.007 SA
ATOM     23  N   UNL A   1      35.847  20.423  25.512  1.00  0.00    -0.231 N 
ATOM     24  H   UNL A   1      35.950  19.549  25.953  1.00  0.00     0.313 HD
BRANCH  17  25
ATOM     25  C   UNL A   1      33.998  18.289  24.920  1.00  0.00     0.244 C 
ATOM     26  C   UNL A   1      34.437  17.349  23.805  1.00  0.00     0.055 C 
ENDBRANCH  17  25
BRANCH  23  27
ATOM     27  C   UNL A   1      36.799  21.439  25.752  1.00  0.00     0.167 A 
ATOM     28  C   UNL A   1      36.345  22.734  26.015  1.00  0.00     0.056 A 
ATOM     29  C   UNL A   1      38.188  21.237  25.675  1.00  0.00     0.162 A 
ATOM     30  C   UNL A   1      37.246  23.784  26.235  1.00  0.00     0.008 A 
ATOM     31  C   UNL A   1      39.093  22.269  25.921  1.00  0.00     0.054 A 
ATOM     32  C   UNL A   1      38.628  23.555  26.205  1.00  0.00    -0.047 A 
ATOM     33  C   UNL A   1      39.591  24.684  26.425  1.00  0.00     0.044 C 
BRANCH  29  34
ATOM     34  O   UNL A   1      38.726  20.020  25.350  1.00  0.00    -0.504 OA
ATOM     35  H   UNL A   1      39.185  19.522  25.998  1.00  0.00     0.293 HD
ENDBRANCH  29  34
ENDBRANCH  23  27
ENDBRANCH  11  16
ENDBRANCH   9  10
ENDBRANCH   7   9
ENDBRANCH   4   7
ENDBRANCH   2   3
ENDBRANCH   1   2
BRANCH   1  36
ATOM     36  C   UNL A   1      34.181  25.695  25.146  1.00  0.00     0.002 C 
BRANCH  36  37
ATOM     37  C   UNL A   1      33.927  27.119  24.633  1.00  0.00     0.002 C 
BRANCH  37  38
ATOM     38  C   UNL A   1      33.349  28.090  25.668  1.00  0.00     0.021 C 
BRANCH  38  39
ATOM     39  C   UNL A   1      34.399  28.783  26.530  1.00  0.00     0.116 C 
BRANCH  39  40
ATOM     40  N   UNL A   1      34.054  30.176  26.773  1.00  0.00    -0.352 N 
ATOM     41  C   UNL A   1      34.553  31.048  27.706  1.00  0.00     0.251 C 
ATOM     42  H   UNL A   1      33.361  30.546  26.182  1.00  0.00     0.163 HD
ATOM     43  O   UNL A   1      33.963  32.097  27.941  1.00  0.00    -0.269 OA
BRANCH  41  44
ATOM     44  C   UNL A   1      35.799  30.715  28.426  1.00  0.00     0.039 A 
ATOM     45  C   UNL A   1      35.782  29.694  29.378  1.00  0.00     0.014 A 
ATOM     46  C   UNL A   1      36.977  31.424  28.171  1.00  0.00     0.014 A 
ATOM     47  C   UNL A   1      36.963  29.348  30.037  1.00  0.00     0.010 A 
ATOM     48  C   UNL A   1      38.167  31.028  28.773  1.00  0.00     0.010 A 
ATOM     49  C   UNL A   1      38.170  29.991  29.717  1.00  0.00    -0.014 A 
BRANCH  49  50
ATOM     50  C   UNL A   1      39.448  29.589  30.356  1.00  0.00     0.031 A 
ATOM     51  C   UNL A   1      39.959  30.337  31.558  1.00  0.00     0.074 A 
ATOM     52  C   UNL A   1      40.177  28.595  29.814  1.00  0.00     0.049 A 
ATOM     53  N   UNL A   1      41.083  30.180  32.210  1.00  0.00    -0.248 NA
ATOM     54  C   UNL A   1      39.110  31.419  32.080  1.00  0.00     0.031 C 
ATOM     55  C   UNL A   1      39.807  27.829  28.621  1.00  0.00     0.029 A 
ATOM     56  N   UNL A   1      41.385  28.061  30.186  1.00  0.00    -0.354 N 
ATOM     57  C   UNL A   1      41.080  31.147  33.209  1.00  0.00     0.074 A 
ATOM     58  C   UNL A   1      39.871  31.923  33.042  1.00  0.00     0.031 C 
ATOM     59  C   UNL A   1      40.757  26.913  28.372  1.00  0.00     0.029 A 
ATOM     60  C   UNL A   1      41.823  27.053  29.359  1.00  0.00     0.049 A 
ATOM     61  H   UNL A   1      41.892  28.371  30.971  1.00  0.00     0.167 HD
ATOM     62  C   UNL A   1      41.992  31.355  34.188  1.00  0.00     0.037 A 
ATOM     63  C   UNL A   1      42.960  26.331  29.384  1.00  0.00     0.037 A 
ATOM     64  C   UNL A   1      43.183  30.563  34.356  1.00  0.00     0.049 A 
ATOM     65  C   UNL A   1      43.963  26.586  30.477  1.00  0.00     0.074 A 
ATOM     66  C   UNL A   1      44.142  30.654  35.350  1.00  0.00     0.029 A 
ATOM     67  N   UNL A   1      43.583  29.538  33.509  1.00  0.00    -0.354 N 
ATOM     68  N   UNL A   1      43.913  27.462  31.453  1.00  0.00    -0.248 NA
ATOM     69  C   UNL A   1      45.171  25.751  30.479  1.00  0.00     0.031 C 
ATOM     70  C   UNL A   1      45.148  29.724  35.073  1.00  0.00     0.029 A 
ATOM     71  C   UNL A   1      44.788  29.008  33.943  1.00  0.00     0.049 A 
ATOM     72  H   UNL A   1      43.085  29.234  32.717  1.00  0.00     0.167 HD
ATOM     73  C   UNL A   1      45.068  27.264  32.201  1.00  0.00     0.074 A 
ATOM     74  C   UNL A   1      45.790  26.177  31.572  1.00  0.00     0.031 C 
ATOM     75  C   UNL A   1      45.492  27.922  33.308  1.00  0.00     0.037 A 
BRANCH  62  76
ATOM     76  C   UNL A   1      41.741  32.480  35.155  1.00  0.00     0.058 A 
ATOM     77  C   UNL A   1      40.965  32.301  36.312  1.00  0.00     0.135 A 
ATOM     78  C   UNL A   1      42.324  33.741  34.950  1.00  0.00     0.135 A 
ATOM     79  F   UNL A   1      40.371  31.121  36.553  1.00  0.00    -0.206 F 
ATOM     80  C   UNL A   1      40.755  33.337  37.216  1.00  0.00     0.059 A 
ATOM     81  C   UNL A   1      42.153  34.783  35.857  1.00  0.00     0.059 A 
ATOM     82  F   UNL A   1      43.075  33.970  33.860  1.00  0.00    -0.206 F 
ATOM     83  C   UNL A   1      41.356  34.575  36.981  1.00  0.00     0.060 A 
BRANCH  83  84
ATOM     84  S   UNL A   1      41.086  35.903  38.174  1.00  0.00     0.124 S 
ATOM     85  O   UNL A   1      40.161  36.765  37.444  1.00  0.00    -0.237 OA
ATOM     86  O   UNL A   1      40.521  35.187  39.312  1.00  0.00    -0.237 OA
ATOM     87  O   UNL A   1      42.422  36.452  38.380  1.00  0.00    -0.744 OA
ENDBRANCH  83  84
ENDBRANCH  62  76
BRANCH  63  88
ATOM     88  C   UNL A   1      43.203  25.293  28.346  1.00  0.00     0.058 A 
ATOM     89  C   UNL A   1      42.831  23.957  28.557  1.00  0.00     0.135 A 
ATOM     90  C   UNL A   1      43.795  25.618  27.117  1.00  0.00     0.135 A 
ATOM     91  F   UNL A   1      42.266  23.594  29.719  1.00  0.00    -0.206 F 
ATOM     92  C   UNL A   1      43.053  22.977  27.596  1.00  0.00     0.059 A 
ATOM     93  C   UNL A   1      44.001  24.662  26.127  1.00  0.00     0.059 A 
ATOM     94  F   UNL A   1      44.153  26.885  26.855  1.00  0.00    -0.206 F 
ATOM     95  C   UNL A   1      43.636  23.341  26.381  1.00  0.00     0.060 A 
BRANCH  95  96
ATOM     96  S   UNL A   1      43.874  22.071  25.119  1.00  0.00     0.124 S 
ATOM     97  O   UNL A   1      43.537  22.799  23.902  1.00  0.00    -0.237 OA
ATOM     98  O   UNL A   1      45.283  21.730  25.293  1.00  0.00    -0.237 OA
ATOM     99  O   UNL A   1      42.932  21.028  25.513  1.00  0.00    -0.744 OA
ENDBRANCH  95  96
ENDBRANCH  63  88
BRANCH  75 100
ATOM    100  C   UNL A   1      46.779  27.464  33.938  1.00  0.00     0.058 A 
ATOM    101  C   UNL A   1      46.812  26.441  34.900  1.00  0.00     0.135 A 
ATOM    102  C   UNL A   1      48.005  28.016  33.529  1.00  0.00     0.135 A 
ATOM    103  F   UNL A   1      45.669  25.884  35.331  1.00  0.00    -0.206 F 
ATOM    104  C   UNL A   1      48.010  26.000  35.451  1.00  0.00     0.059 A 
ATOM    105  C   UNL A   1      49.217  27.567  34.042  1.00  0.00     0.059 A 
ATOM    106  F   UNL A   1      48.034  28.988  32.603  1.00  0.00    -0.206 F 
ATOM    107  C   UNL A   1      49.209  26.566  35.012  1.00  0.00     0.060 A 
BRANCH 107 108
ATOM    108  S   UNL A   1      50.758  25.956  35.708  1.00  0.00     0.124 S 
ATOM    109  O   UNL A   1      51.675  27.042  35.380  1.00  0.00    -0.237 OA
ATOM    110  O   UNL A   1      50.427  25.809  37.123  1.00  0.00    -0.237 OA
ATOM    111  O   UNL A   1      50.985  24.705  34.991  1.00  0.00    -0.744 OA
ENDBRANCH 107 108
ENDBRANCH  75 100
ENDBRANCH  49  50
ENDBRANCH  41  44
ENDBRANCH  39  40
ENDBRANCH  38  39
ENDBRANCH  37  38
ENDBRANCH  36  37
ENDBRANCH   1  36
TORSDOF 22
ENDMDL
MODEL 3
REMARK VINA RESULT:     -11.6      0.490      7.774
REMARK SMILES CCN1C(=O)/C(=C/c2ccccc2O[C@H](C)C(=O)NCCCCCCNC(=O)c2ccc(-c3c4nc(c(-c5c(F)cc(S(=O)(=O)[O-])cc5F)c5ccc([nH]5)c(-c5c(F)cc(S(=O)(=O)[O-])cc5F)c5nc(c(-c6c(F)cc(S(=O)(=O)[O-])cc6F)c6ccc3[nH]6)C=C5)C=C4)cc2)S/C1=[NH+]\c1ccc(C)cc1O
REMARK SMILES IDX 21 1 20 2 19 3 17 4 18 5 15 7 16 8 14 9 13 10 8 11 9 12
REMARK SMILES IDX 10 13 12 14 11 15 7 16 3 17 4 18 96 19 5 20 6 21 95 22 97 23
REMARK SMILES IDX 2 25 1 26 98 27 99 28 104 29 100 30 103 31 101 32 102 33
REMARK SMILES IDX 105 34 22 36 23 37 24 38 25 39 26 40 27 41 28 43 29 44 30 45
REMARK SMILES IDX 94 46 31 47 93 48 32 49 33 50 34 51 87 52 35 53 92 54 86 55
REMARK SMILES IDX 88 56 36 57 91 58 85 59 84 60 37 62 71 63 50 64 70 65 51 66
REMARK SMILES IDX 54 67 69 68 89 69 52 70 53 71 68 73 90 74 55 75 38 76 39 77
REMARK SMILES IDX 48 78 40 79 41 80 47 81 49 82 42 83 43 84 44 85 45 86 46 87
REMARK SMILES IDX 72 88 73 89 82 90 74 91 75 92 81 93 83 94 76 95 77 96 78 97
REMARK SMILES IDX 79 98 80 99 56 100 57 101 66 102 58 103 59 104 65 105 67 106
REMARK SMILES IDX 60 107 61 108 62 109 63 110 64 111
REMARK H PARENT 19 6 97 24 105 35 26 42 88 61 54 72
REMARK Flexibility Score: inf
ROOT
ATOM      1  C   UNL A   1      34.051  26.952  26.201  1.00  0.00     0.021 C 
ENDROOT
BRANCH   1   2
ATOM      2  C   UNL A   1      33.554  25.700  25.492  1.00  0.00     0.116 C 
BRANCH   2   3
ATOM      3  N   UNL A   1      33.101  24.681  26.403  1.00  0.00    -0.353 N 
ATOM      4  C   UNL A   1      31.857  24.146  26.546  1.00  0.00     0.260 C 
ATOM      5  O   UNL A   1      31.740  23.212  27.349  1.00  0.00    -0.271 OA
ATOM      6  H   UNL A   1      33.788  24.321  27.010  1.00  0.00     0.163 HD
BRANCH   4   7
ATOM      7  C   UNL A   1      30.610  24.721  25.820  1.00  0.00     0.258 C 
ATOM      8  C   UNL A   1      30.294  26.122  26.323  1.00  0.00     0.064 C 
BRANCH   7   9
ATOM      9  O   UNL A   1      30.452  24.418  24.444  1.00  0.00    -0.480 OA
BRANCH   9  10
ATOM     10  C   UNL A   1      31.082  24.907  23.340  1.00  0.00     0.127 A 
ATOM     11  C   UNL A   1      31.814  23.946  22.603  1.00  0.00     0.018 A 
ATOM     12  C   UNL A   1      32.679  24.360  21.578  1.00  0.00     0.012 A 
ATOM     13  C   UNL A   1      32.775  25.707  21.236  1.00  0.00     0.001 A 
ATOM     14  C   UNL A   1      31.131  26.240  22.929  1.00  0.00     0.047 A 
ATOM     15  C   UNL A   1      31.982  26.639  21.892  1.00  0.00     0.004 A 
BRANCH  11  16
ATOM     16  C   UNL A   1      31.708  22.493  22.847  1.00  0.00     0.036 C 
ATOM     17  N   UNL A   1      33.570  19.862  24.486  1.00  0.00    -0.186 N 
ATOM     18  C   UNL A   1      32.484  20.316  23.759  1.00  0.00     0.348 C 
ATOM     19  C   UNL A   1      34.571  20.769  24.733  1.00  0.00     0.324 C 
ATOM     20  O   UNL A   1      31.486  19.664  23.470  1.00  0.00    -0.240 OA
ATOM     21  C   UNL A   1      32.674  21.744  23.401  1.00  0.00     0.110 C 
ATOM     22  S   UNL A   1      34.235  22.259  23.902  1.00  0.00     0.007 SA
ATOM     23  N   UNL A   1      35.574  20.525  25.513  1.00  0.00    -0.231 N 
ATOM     24  H   UNL A   1      35.632  19.654  25.967  1.00  0.00     0.313 HD
BRANCH  17  25
ATOM     25  C   UNL A   1      33.599  18.492  24.976  1.00  0.00     0.244 C 
ATOM     26  C   UNL A   1      34.309  17.566  23.999  1.00  0.00     0.055 C 
ENDBRANCH  17  25
BRANCH  23  27
ATOM     27  C   UNL A   1      36.586  21.488  25.726  1.00  0.00     0.167 A 
ATOM     28  C   UNL A   1      36.212  22.775  26.121  1.00  0.00     0.056 A 
ATOM     29  C   UNL A   1      37.951  21.245  25.498  1.00  0.00     0.162 A 
ATOM     30  C   UNL A   1      37.172  23.775  26.322  1.00  0.00     0.008 A 
ATOM     31  C   UNL A   1      38.917  22.225  25.724  1.00  0.00     0.054 A 
ATOM     32  C   UNL A   1      38.535  23.502  26.140  1.00  0.00    -0.047 A 
ATOM     33  C   UNL A   1      39.560  24.579  26.339  1.00  0.00     0.044 C 
BRANCH  29  34
ATOM     34  O   UNL A   1      38.404  20.036  25.040  1.00  0.00    -0.504 OA
ATOM     35  H   UNL A   1      39.288  19.774  25.205  1.00  0.00     0.293 HD
ENDBRANCH  29  34
ENDBRANCH  23  27
ENDBRANCH  11  16
ENDBRANCH   9  10
ENDBRANCH   7   9
ENDBRANCH   4   7
ENDBRANCH   2   3
ENDBRANCH   1   2
BRANCH   1  36
ATOM     36  C   UNL A   1      33.330  28.220  25.744  1.00  0.00     0.002 C 
BRANCH  36  37
ATOM     37  C   UNL A   1      33.686  29.481  26.545  1.00  0.00     0.002 C 
BRANCH  37  38
ATOM     38  C   UNL A   1      34.765  29.287  27.616  1.00  0.00     0.021 C 
BRANCH  38  39
ATOM     39  C   UNL A   1      35.558  30.549  27.938  1.00  0.00     0.116 C 
BRANCH  39  40
ATOM     40  N   UNL A   1      35.553  30.832  29.367  1.00  0.00    -0.352 N 
ATOM     41  C   UNL A   1      36.471  30.492  30.327  1.00  0.00     0.251 C 
ATOM     42  H   UNL A   1      34.775  31.340  29.692  1.00  0.00     0.163 HD
ATOM     43  O   UNL A   1      36.177  30.581  31.514  1.00  0.00    -0.269 OA
BRANCH  41  44
ATOM     44  C   UNL A   1      37.809  30.017  29.923  1.00  0.00     0.039 A 
ATOM     45  C   UNL A   1      38.169  30.065  28.574  1.00  0.00     0.014 A 
ATOM     46  C   UNL A   1      38.700  29.509  30.874  1.00  0.00     0.014 A 
ATOM     47  C   UNL A   1      39.445  29.651  28.188  1.00  0.00     0.010 A 
ATOM     48  C   UNL A   1      39.995  29.170  30.498  1.00  0.00     0.010 A 
ATOM     49  C   UNL A   1      40.378  29.231  29.151  1.00  0.00    -0.014 A 
BRANCH  49  50
ATOM     50  C   UNL A   1      41.762  28.854  28.767  1.00  0.00     0.031 A 
ATOM     51  C   UNL A   1      42.839  29.902  28.698  1.00  0.00     0.074 A 
ATOM     52  C   UNL A   1      42.029  27.581  28.417  1.00  0.00     0.049 A 
ATOM     53  N   UNL A   1      44.085  29.781  28.318  1.00  0.00    -0.248 NA
ATOM     54  C   UNL A   1      42.461  31.272  29.082  1.00  0.00     0.031 C 
ATOM     55  C   UNL A   1      41.054  26.487  28.398  1.00  0.00     0.029 A 
ATOM     56  N   UNL A   1      43.196  26.990  28.001  1.00  0.00    -0.354 N 
ATOM     57  C   UNL A   1      44.635  31.054  28.405  1.00  0.00     0.074 A 
ATOM     58  C   UNL A   1      43.573  31.945  28.821  1.00  0.00     0.031 C 
ATOM     59  C   UNL A   1      41.668  25.357  28.012  1.00  0.00     0.029 A 
ATOM     60  C   UNL A   1      43.065  25.651  27.714  1.00  0.00     0.049 A 
ATOM     61  H   UNL A   1      44.046  27.479  27.915  1.00  0.00     0.167 HD
ATOM     62  C   UNL A   1      45.913  31.441  28.182  1.00  0.00     0.037 A 
ATOM     63  C   UNL A   1      43.967  24.763  27.250  1.00  0.00     0.037 A 
ATOM     64  C   UNL A   1      46.966  30.542  27.788  1.00  0.00     0.049 A 
ATOM     65  C   UNL A   1      45.379  25.219  27.001  1.00  0.00     0.074 A 
ATOM     66  C   UNL A   1      48.308  30.823  27.593  1.00  0.00     0.029 A 
ATOM     67  N   UNL A   1      46.800  29.189  27.525  1.00  0.00    -0.354 N 
ATOM     68  N   UNL A   1      45.898  26.415  27.152  1.00  0.00    -0.248 NA
ATOM     69  C   UNL A   1      46.331  24.206  26.527  1.00  0.00     0.031 C 
ATOM     70  C   UNL A   1      48.940  29.655  27.157  1.00  0.00     0.029 A 
ATOM     71  C   UNL A   1      48.008  28.629  27.142  1.00  0.00     0.049 A 
ATOM     72  H   UNL A   1      45.949  28.701  27.598  1.00  0.00     0.167 HD
ATOM     73  C   UNL A   1      47.242  26.292  26.819  1.00  0.00     0.074 A 
ATOM     74  C   UNL A   1      47.459  24.902  26.471  1.00  0.00     0.031 C 
ATOM     75  C   UNL A   1      48.209  27.242  26.803  1.00  0.00     0.037 A 
BRANCH  62  76
ATOM     76  C   UNL A   1      46.247  32.898  28.357  1.00  0.00     0.058 A 
ATOM     77  C   UNL A   1      46.132  33.816  27.299  1.00  0.00     0.135 A 
ATOM     78  C   UNL A   1      46.639  33.395  29.611  1.00  0.00     0.135 A 
ATOM     79  F   UNL A   1      45.776  33.395  26.074  1.00  0.00    -0.206 F 
ATOM     80  C   UNL A   1      46.418  35.165  27.471  1.00  0.00     0.059 A 
ATOM     81  C   UNL A   1      46.900  34.747  29.813  1.00  0.00     0.059 A 
ATOM     82  F   UNL A   1      46.766  32.564  30.658  1.00  0.00    -0.206 F 
ATOM     83  C   UNL A   1      46.799  35.623  28.734  1.00  0.00     0.060 A 
BRANCH  83  84
ATOM     84  S   UNL A   1      47.150  37.381  28.942  1.00  0.00     0.124 S 
ATOM     85  O   UNL A   1      45.819  37.962  28.801  1.00  0.00    -0.237 OA
ATOM     86  O   UNL A   1      47.723  37.427  30.283  1.00  0.00    -0.237 OA
ATOM     87  O   UNL A   1      48.079  37.674  27.855  1.00  0.00    -0.744 OA
ENDBRANCH  83  84
ENDBRANCH  62  76
BRANCH  63  88
ATOM     88  C   UNL A   1      43.560  23.354  27.003  1.00  0.00     0.058 A 
ATOM     89  C   UNL A   1      43.335  22.468  28.067  1.00  0.00     0.135 A 
ATOM     90  C   UNL A   1      43.371  22.869  25.700  1.00  0.00     0.135 A 
ATOM     91  F   UNL A   1      43.506  22.882  29.332  1.00  0.00    -0.206 F 
ATOM     92  C   UNL A   1      42.954  21.148  27.850  1.00  0.00     0.059 A 
ATOM     93  C   UNL A   1      42.963  21.561  25.457  1.00  0.00     0.059 A 
ATOM     94  F   UNL A   1      43.555  23.679  24.646  1.00  0.00    -0.206 F 
ATOM     95  C   UNL A   1      42.768  20.705  26.540  1.00  0.00     0.060 A 
BRANCH  95  96
ATOM     96  S   UNL A   1      42.226  19.003  26.270  1.00  0.00     0.124 S 
ATOM     97  O   UNL A   1      42.385  18.430  27.601  1.00  0.00    -0.237 OA
ATOM     98  O   UNL A   1      40.852  19.190  25.813  1.00  0.00    -0.237 OA
ATOM     99  O   UNL A   1      43.154  18.513  25.256  1.00  0.00    -0.744 OA
ENDBRANCH  95  96
ENDBRANCH  63  88
BRANCH  75 100
ATOM    100  C   UNL A   1      49.602  26.810  26.433  1.00  0.00     0.058 A 
ATOM    101  C   UNL A   1      50.087  26.915  25.120  1.00  0.00     0.135 A 
ATOM    102  C   UNL A   1      50.484  26.339  27.421  1.00  0.00     0.135 A 
ATOM    103  F   UNL A   1      49.284  27.352  24.136  1.00  0.00    -0.206 F 
ATOM    104  C   UNL A   1      51.388  26.546  24.794  1.00  0.00     0.059 A 
ATOM    105  C   UNL A   1      51.799  25.996  27.124  1.00  0.00     0.059 A 
ATOM    106  F   UNL A   1      50.077  26.229  28.695  1.00  0.00    -0.206 F 
ATOM    107  C   UNL A   1      52.238  26.092  25.804  1.00  0.00     0.060 A 
BRANCH 107 108
ATOM    108  S   UNL A   1      53.935  25.654  25.373  1.00  0.00     0.124 S 
ATOM    109  O   UNL A   1      54.254  26.664  24.371  1.00  0.00    -0.237 OA
ATOM    110  O   UNL A   1      54.626  25.788  26.653  1.00  0.00    -0.237 OA
ATOM    111  O   UNL A   1      53.818  24.288  24.872  1.00  0.00    -0.744 OA
ENDBRANCH 107 108
ENDBRANCH  75 100
ENDBRANCH  49  50
ENDBRANCH  41  44
ENDBRANCH  39  40
ENDBRANCH  38  39
ENDBRANCH  37  38
ENDBRANCH  36  37
ENDBRANCH   1  36
TORSDOF 22
ENDMDL
