MODEL 1
REMARK VINA RESULT:     -11.4      0.000      0.000
REMARK SMILES Nc1cc(C(=O)NCCCCCCNC(=O)c2ccc(-c3c4nc(c(-c5c(F)cc(S(=O)(=O)[O-])cc5F)c5ccc([nH]5)c(-c5c(F)cc(S(=O)(=O)[O-])cc5F)c5nc(c(-c6c(F)cc(S(=O)(=O)[O-])cc6F)c6ccc3[nH]6)C=C5)C=C4)cc2)ccc1N1CC2(CCOCC2)C1
REMARK SMILES IDX 11 1 10 2 9 3 8 4 7 5 5 6 6 7 4 9 2 10 3 11 85 12 84 13
REMARK SMILES IDX 83 14 1 15 86 18 87 19 94 20 88 21 89 22 93 23 90 24 92 25
REMARK SMILES IDX 91 26 12 27 13 28 14 29 15 30 16 32 17 33 18 34 82 35 19 36
REMARK SMILES IDX 81 37 20 38 21 39 22 40 75 41 23 42 80 43 74 44 76 45 24 46
REMARK SMILES IDX 79 47 73 48 72 49 25 51 59 52 38 53 58 54 39 55 42 56 57 57
REMARK SMILES IDX 77 58 40 59 41 60 56 62 78 63 43 64 26 65 27 66 36 67 28 68
REMARK SMILES IDX 29 69 35 70 37 71 30 72 31 73 32 74 33 75 34 76 60 77 61 78
REMARK SMILES IDX 70 79 62 80 63 81 69 82 71 83 64 84 65 85 66 86 67 87 68 88
REMARK SMILES IDX 44 89 45 90 54 91 46 92 47 93 53 94 55 95 48 96 49 97 50 98
REMARK SMILES IDX 51 99 52 100
REMARK H PARENT 7 8 1 16 1 17 14 31 76 50 42 61
REMARK Flexibility Score: inf
ROOT
ATOM      1  C   UNL A   1      33.531  26.337  25.440  1.00  0.00     0.002 C 
ENDROOT
BRANCH   1   2
ATOM      2  C   UNL A   1      34.695  25.375  25.722  1.00  0.00     0.002 C 
BRANCH   2   3
ATOM      3  C   UNL A   1      34.753  24.154  24.791  1.00  0.00     0.021 C 
BRANCH   3   4
ATOM      4  C   UNL A   1      33.987  22.953  25.348  1.00  0.00     0.116 C 
BRANCH   4   5
ATOM      5  N   UNL A   1      33.272  22.291  24.281  1.00  0.00    -0.352 N 
ATOM      6  C   UNL A   1      32.185  22.612  23.519  1.00  0.00     0.251 C 
ATOM      7  O   UNL A   1      31.797  21.730  22.747  1.00  0.00    -0.269 OA
ATOM      8  H   UNL A   1      33.654  21.414  24.052  1.00  0.00     0.163 HD
BRANCH   6   9
ATOM      9  C   UNL A   1      31.491  23.937  23.509  1.00  0.00     0.041 A 
ATOM     10  C   UNL A   1      31.397  26.115  22.389  1.00  0.00     0.056 A 
ATOM     11  C   UNL A   1      31.867  24.801  22.467  1.00  0.00     0.041 A 
ATOM     12  C   UNL A   1      30.495  26.590  23.363  1.00  0.00     0.060 A 
ATOM     13  C   UNL A   1      30.086  25.725  24.378  1.00  0.00     0.029 A 
ATOM     14  C   UNL A   1      30.545  24.401  24.424  1.00  0.00     0.016 A 
BRANCH  10  15
ATOM     15  N   UNL A   1      31.787  26.908  21.308  1.00  0.00    -0.397 N 
ATOM     16  H   UNL A   1      32.547  27.526  21.400  1.00  0.00     0.156 HD
ATOM     17  H   UNL A   1      31.301  26.849  20.454  1.00  0.00     0.156 HD
ENDBRANCH  10  15
BRANCH  12  18
ATOM     18  N   UNL A   1      30.077  27.925  23.346  1.00  0.00    -0.369 N 
ATOM     19  C   UNL A   1      28.771  28.490  23.281  1.00  0.00     0.125 C 
ATOM     20  C   UNL A   1      30.683  29.127  23.817  1.00  0.00     0.125 C 
ATOM     21  C   UNL A   1      29.497  29.855  23.125  1.00  0.00     0.010 C 
ATOM     22  C   UNL A   1      28.894  31.045  23.864  1.00  0.00     0.039 C 
ATOM     23  C   UNL A   1      29.784  30.244  21.662  1.00  0.00     0.039 C 
ATOM     24  C   UNL A   1      27.654  31.511  23.105  1.00  0.00     0.161 C 
ATOM     25  C   UNL A   1      28.489  30.732  21.027  1.00  0.00     0.161 C 
ATOM     26  O   UNL A   1      27.979  31.852  21.754  1.00  0.00    -0.381 OA
ENDBRANCH  12  18
ENDBRANCH   6   9
ENDBRANCH   4   5
ENDBRANCH   3   4
ENDBRANCH   2   3
ENDBRANCH   1   2
BRANCH   1  27
ATOM     27  C   UNL A   1      33.822  27.803  25.771  1.00  0.00     0.021 C 
BRANCH  27  28
ATOM     28  C   UNL A   1      33.676  28.140  27.250  1.00  0.00     0.116 C 
BRANCH  28  29
ATOM     29  N   UNL A   1      33.556  29.576  27.453  1.00  0.00    -0.352 N 
ATOM     30  C   UNL A   1      34.443  30.443  28.039  1.00  0.00     0.251 C 
ATOM     31  H   UNL A   1      32.723  29.982  27.122  1.00  0.00     0.163 HD
ATOM     32  O   UNL A   1      34.078  31.565  28.370  1.00  0.00    -0.269 OA
BRANCH  30  33
ATOM     33  C   UNL A   1      35.835  30.008  28.273  1.00  0.00     0.039 A 
ATOM     34  C   UNL A   1      36.753  30.075  27.224  1.00  0.00     0.014 A 
ATOM     35  C   UNL A   1      36.227  29.524  29.525  1.00  0.00     0.014 A 
ATOM     36  C   UNL A   1      38.080  29.703  27.446  1.00  0.00     0.010 A 
ATOM     37  C   UNL A   1      37.563  29.227  29.764  1.00  0.00     0.010 A 
ATOM     38  C   UNL A   1      38.502  29.304  28.725  1.00  0.00    -0.014 A 
BRANCH  38  39
ATOM     39  C   UNL A   1      39.919  28.957  28.995  1.00  0.00     0.031 A 
ATOM     40  C   UNL A   1      40.854  29.992  29.563  1.00  0.00     0.074 A 
ATOM     41  C   UNL A   1      40.378  27.732  28.668  1.00  0.00     0.049 A 
ATOM     42  N   UNL A   1      42.135  29.902  29.804  1.00  0.00    -0.248 NA
ATOM     43  C   UNL A   1      40.275  31.308  29.878  1.00  0.00     0.031 C 
ATOM     44  C   UNL A   1      39.577  26.663  28.067  1.00  0.00     0.029 A 
ATOM     45  N   UNL A   1      41.629  27.183  28.787  1.00  0.00    -0.354 N 
ATOM     46  C   UNL A   1      42.519  31.149  30.284  1.00  0.00     0.074 A 
ATOM     47  C   UNL A   1      41.346  31.995  30.247  1.00  0.00     0.031 C 
ATOM     48  C   UNL A   1      40.351  25.580  27.890  1.00  0.00     0.029 A 
ATOM     49  C   UNL A   1      41.710  25.890  28.325  1.00  0.00     0.049 A 
ATOM     50  H   UNL A   1      42.397  27.668  29.166  1.00  0.00     0.167 HD
ATOM     51  C   UNL A   1      43.732  31.544  30.737  1.00  0.00     0.037 A 
ATOM     52  C   UNL A   1      42.762  25.051  28.252  1.00  0.00     0.037 A 
ATOM     53  C   UNL A   1      44.888  30.687  30.790  1.00  0.00     0.049 A 
ATOM     54  C   UNL A   1      44.102  25.515  28.757  1.00  0.00     0.074 A 
ATOM     55  C   UNL A   1      46.149  30.973  31.282  1.00  0.00     0.029 A 
ATOM     56  N   UNL A   1      44.925  29.377  30.333  1.00  0.00    -0.354 N 
ATOM     57  N   UNL A   1      44.432  26.678  29.267  1.00  0.00    -0.248 NA
ATOM     58  C   UNL A   1      45.210  24.554  28.683  1.00  0.00     0.031 C 
ATOM     59  C   UNL A   1      46.962  29.854  31.077  1.00  0.00     0.029 A 
ATOM     60  C   UNL A   1      46.194  28.850  30.512  1.00  0.00     0.049 A 
ATOM     61  H   UNL A   1      44.163  28.894  29.940  1.00  0.00     0.167 HD
ATOM     62  C   UNL A   1      45.777  26.576  29.605  1.00  0.00     0.074 A 
ATOM     63  C   UNL A   1      46.197  25.237  29.249  1.00  0.00     0.031 C 
ATOM     64  C   UNL A   1      46.591  27.508  30.162  1.00  0.00     0.037 A 
BRANCH  51  65
ATOM     65  C   UNL A   1      43.873  32.965  31.214  1.00  0.00     0.058 A 
ATOM     66  C   UNL A   1      43.730  33.307  32.568  1.00  0.00     0.135 A 
ATOM     67  C   UNL A   1      44.195  33.993  30.312  1.00  0.00     0.135 A 
ATOM     68  F   UNL A   1      43.408  32.368  33.473  1.00  0.00    -0.206 F 
ATOM     69  C   UNL A   1      43.872  34.620  33.007  1.00  0.00     0.059 A 
ATOM     70  C   UNL A   1      44.371  35.308  30.734  1.00  0.00     0.059 A 
ATOM     71  F   UNL A   1      44.343  33.724  29.005  1.00  0.00    -0.206 F 
ATOM     72  C   UNL A   1      44.193  35.613  32.082  1.00  0.00     0.060 A 
BRANCH  72  73
ATOM     73  S   UNL A   1      44.382  37.309  32.671  1.00  0.00     0.124 S 
ATOM     74  O   UNL A   1      45.797  37.337  33.030  1.00  0.00    -0.237 OA
ATOM     75  O   UNL A   1      44.010  38.090  31.495  1.00  0.00    -0.237 OA
ATOM     76  O   UNL A   1      43.450  37.387  33.791  1.00  0.00    -0.744 OA
ENDBRANCH  72  73
ENDBRANCH  51  65
BRANCH  52  77
ATOM     77  C   UNL A   1      42.585  23.682  27.699  1.00  0.00     0.058 A 
ATOM     78  C   UNL A   1      42.641  23.448  26.317  1.00  0.00     0.135 A 
ATOM     79  C   UNL A   1      42.369  22.578  28.539  1.00  0.00     0.135 A 
ATOM     80  F   UNL A   1      42.841  24.470  25.471  1.00  0.00    -0.206 F 
ATOM     81  C   UNL A   1      42.470  22.174  25.785  1.00  0.00     0.059 A 
ATOM     82  C   UNL A   1      42.223  21.291  28.034  1.00  0.00     0.059 A 
ATOM     83  F   UNL A   1      42.326  22.745  29.870  1.00  0.00    -0.206 F 
ATOM     84  C   UNL A   1      42.265  21.099  26.654  1.00  0.00     0.060 A 
BRANCH  84  85
ATOM     85  S   UNL A   1      42.087  19.444  25.956  1.00  0.00     0.124 S 
ATOM     86  O   UNL A   1      42.634  18.615  27.024  1.00  0.00    -0.237 OA
ATOM     87  O   UNL A   1      40.645  19.352  25.752  1.00  0.00    -0.237 OA
ATOM     88  O   UNL A   1      42.883  19.508  24.734  1.00  0.00    -0.744 OA
ENDBRANCH  84  85
ENDBRANCH  52  77
BRANCH  64  89
ATOM     89  C   UNL A   1      48.007  27.101  30.464  1.00  0.00     0.058 A 
ATOM     90  C   UNL A   1      49.056  27.341  29.563  1.00  0.00     0.135 A 
ATOM     91  C   UNL A   1      48.326  26.517  31.702  1.00  0.00     0.135 A 
ATOM     92  F   UNL A   1      48.806  27.889  28.364  1.00  0.00    -0.206 F 
ATOM     93  C   UNL A   1      50.368  26.995  29.869  1.00  0.00     0.059 A 
ATOM     94  C   UNL A   1      49.635  26.192  32.041  1.00  0.00     0.059 A 
ATOM     95  F   UNL A   1      47.361  26.276  32.604  1.00  0.00    -0.206 F 
ATOM     96  C   UNL A   1      50.649  26.426  31.113  1.00  0.00     0.060 A 
BRANCH  96  97
ATOM     97  S   UNL A   1      52.362  26.020  31.513  1.00  0.00     0.124 S 
ATOM     98  O   UNL A   1      52.987  26.053  30.194  1.00  0.00    -0.237 OA
ATOM     99  O   UNL A   1      52.734  27.103  32.418  1.00  0.00    -0.237 OA
ATOM    100  O   UNL A   1      52.265  24.701  32.129  1.00  0.00    -0.744 OA
ENDBRANCH  96  97
ENDBRANCH  64  89
ENDBRANCH  38  39
ENDBRANCH  30  33
ENDBRANCH  28  29
ENDBRANCH  27  28
ENDBRANCH   1  27
TORSDOF 18
ENDMDL
MODEL 2
REMARK VINA RESULT:     -11.3      3.256      9.540
REMARK SMILES Nc1cc(C(=O)NCCCCCCNC(=O)c2ccc(-c3c4nc(c(-c5c(F)cc(S(=O)(=O)[O-])cc5F)c5ccc([nH]5)c(-c5c(F)cc(S(=O)(=O)[O-])cc5F)c5nc(c(-c6c(F)cc(S(=O)(=O)[O-])cc6F)c6ccc3[nH]6)C=C5)C=C4)cc2)ccc1N1CC2(CCOCC2)C1
REMARK SMILES IDX 11 1 10 2 9 3 8 4 7 5 5 6 6 7 4 9 2 10 3 11 85 12 84 13
REMARK SMILES IDX 83 14 1 15 86 18 87 19 94 20 88 21 89 22 93 23 90 24 92 25
REMARK SMILES IDX 91 26 12 27 13 28 14 29 15 30 16 32 17 33 18 34 82 35 19 36
REMARK SMILES IDX 81 37 20 38 21 39 22 40 75 41 23 42 80 43 74 44 76 45 24 46
REMARK SMILES IDX 79 47 73 48 72 49 25 51 59 52 38 53 58 54 39 55 42 56 57 57
REMARK SMILES IDX 77 58 40 59 41 60 56 62 78 63 43 64 26 65 27 66 36 67 28 68
REMARK SMILES IDX 29 69 35 70 37 71 30 72 31 73 32 74 33 75 34 76 60 77 61 78
REMARK SMILES IDX 70 79 62 80 63 81 69 82 71 83 64 84 65 85 66 86 67 87 68 88
REMARK SMILES IDX 44 89 45 90 54 91 46 92 47 93 53 94 55 95 48 96 49 97 50 98
REMARK SMILES IDX 51 99 52 100
REMARK H PARENT 7 8 1 16 1 17 14 31 76 50 42 61
REMARK Flexibility Score: inf
ROOT
ATOM      1  C   UNL A   1      34.656  24.846  24.364  1.00  0.00     0.002 C 
ENDROOT
BRANCH   1   2
ATOM      2  C   UNL A   1      34.218  25.669  25.584  1.00  0.00     0.002 C 
BRANCH   2   3
ATOM      3  C   UNL A   1      33.669  27.065  25.249  1.00  0.00     0.021 C 
BRANCH   3   4
ATOM      4  C   UNL A   1      32.771  27.061  24.012  1.00  0.00     0.116 C 
BRANCH   4   5
ATOM      5  N   UNL A   1      31.398  26.836  24.404  1.00  0.00    -0.352 N 
ATOM      6  C   UNL A   1      30.607  25.728  24.515  1.00  0.00     0.251 C 
ATOM      7  O   UNL A   1      29.425  25.944  24.798  1.00  0.00    -0.269 OA
ATOM      8  H   UNL A   1      30.929  27.666  24.647  1.00  0.00     0.163 HD
BRANCH   6   9
ATOM      9  C   UNL A   1      31.072  24.312  24.381  1.00  0.00     0.041 A 
ATOM     10  C   UNL A   1      31.915  22.379  25.629  1.00  0.00     0.056 A 
ATOM     11  C   UNL A   1      31.361  23.661  25.592  1.00  0.00     0.041 A 
ATOM     12  C   UNL A   1      32.168  21.695  24.422  1.00  0.00     0.060 A 
ATOM     13  C   UNL A   1      31.846  22.319  23.217  1.00  0.00     0.029 A 
ATOM     14  C   UNL A   1      31.264  23.595  23.199  1.00  0.00     0.016 A 
BRANCH  10  15
ATOM     15  N   UNL A   1      32.148  21.780  26.869  1.00  0.00    -0.397 N 
ATOM     16  H   UNL A   1      31.532  21.090  27.206  1.00  0.00     0.156 HD
ATOM     17  H   UNL A   1      32.928  22.048  27.405  1.00  0.00     0.156 HD
ENDBRANCH  10  15
BRANCH  12  18
ATOM     18  N   UNL A   1      32.796  20.446  24.437  1.00  0.00    -0.369 N 
ATOM     19  C   UNL A   1      32.578  19.285  23.640  1.00  0.00     0.125 C 
ATOM     20  C   UNL A   1      34.085  20.023  24.879  1.00  0.00     0.125 C 
ATOM     21  C   UNL A   1      33.576  18.581  24.600  1.00  0.00     0.010 C 
ATOM     22  C   UNL A   1      34.570  17.610  23.972  1.00  0.00     0.039 C 
ATOM     23  C   UNL A   1      32.905  17.920  25.820  1.00  0.00     0.039 C 
ATOM     24  C   UNL A   1      33.836  16.315  23.632  1.00  0.00     0.161 C 
ATOM     25  C   UNL A   1      32.249  16.623  25.368  1.00  0.00     0.161 C 
ATOM     26  O   UNL A   1      33.229  15.750  24.800  1.00  0.00    -0.381 OA
ENDBRANCH  12  18
ENDBRANCH   6   9
ENDBRANCH   4   5
ENDBRANCH   3   4
ENDBRANCH   2   3
ENDBRANCH   1   2
BRANCH   1  27
ATOM     27  C   UNL A   1      35.472  23.595  24.699  1.00  0.00     0.021 C 
BRANCH  27  28
ATOM     28  C   UNL A   1      36.233  23.691  26.016  1.00  0.00     0.116 C 
BRANCH  28  29
ATOM     29  N   UNL A   1      37.223  22.631  26.131  1.00  0.00    -0.352 N 
ATOM     30  C   UNL A   1      38.578  22.731  26.322  1.00  0.00     0.251 C 
ATOM     31  H   UNL A   1      36.870  21.715  26.064  1.00  0.00     0.163 HD
ATOM     32  O   UNL A   1      39.299  21.758  26.130  1.00  0.00    -0.269 OA
BRANCH  30  33
ATOM     33  C   UNL A   1      39.156  24.019  26.755  1.00  0.00     0.039 A 
ATOM     34  C   UNL A   1      39.059  24.391  28.097  1.00  0.00     0.014 A 
ATOM     35  C   UNL A   1      39.784  24.861  25.831  1.00  0.00     0.014 A 
ATOM     36  C   UNL A   1      39.637  25.589  28.521  1.00  0.00     0.010 A 
ATOM     37  C   UNL A   1      40.423  26.014  26.270  1.00  0.00     0.010 A 
ATOM     38  C   UNL A   1      40.348  26.395  27.618  1.00  0.00    -0.014 A 
BRANCH  38  39
ATOM     39  C   UNL A   1      41.016  27.644  28.061  1.00  0.00     0.031 A 
ATOM     40  C   UNL A   1      42.515  27.767  27.980  1.00  0.00     0.074 A 
ATOM     41  C   UNL A   1      40.280  28.639  28.594  1.00  0.00     0.049 A 
ATOM     42  N   UNL A   1      43.284  28.746  28.379  1.00  0.00    -0.248 NA
ATOM     43  C   UNL A   1      43.244  26.629  27.398  1.00  0.00     0.031 C 
ATOM     44  C   UNL A   1      38.825  28.614  28.769  1.00  0.00     0.029 A 
ATOM     45  N   UNL A   1      40.652  29.860  29.097  1.00  0.00    -0.354 N 
ATOM     46  C   UNL A   1      44.586  28.338  28.110  1.00  0.00     0.074 A 
ATOM     47  C   UNL A   1      44.505  27.000  27.565  1.00  0.00     0.031 C 
ATOM     48  C   UNL A   1      38.428  29.773  29.316  1.00  0.00     0.029 A 
ATOM     49  C   UNL A   1      39.599  30.606  29.572  1.00  0.00     0.049 A 
ATOM     50  H   UNL A   1      41.585  30.172  29.117  1.00  0.00     0.167 HD
ATOM     51  C   UNL A   1      45.739  29.026  28.278  1.00  0.00     0.037 A 
ATOM     52  C   UNL A   1      39.580  31.821  30.154  1.00  0.00     0.037 A 
ATOM     53  C   UNL A   1      45.807  30.367  28.799  1.00  0.00     0.049 A 
ATOM     54  C   UNL A   1      40.876  32.564  30.335  1.00  0.00     0.074 A 
ATOM     55  C   UNL A   1      46.919  31.173  28.958  1.00  0.00     0.029 A 
ATOM     56  N   UNL A   1      44.716  31.098  29.249  1.00  0.00    -0.354 N 
ATOM     57  N   UNL A   1      42.092  32.189  30.016  1.00  0.00    -0.248 NA
ATOM     58  C   UNL A   1      40.799  33.897  30.948  1.00  0.00     0.031 C 
ATOM     59  C   UNL A   1      46.510  32.372  29.550  1.00  0.00     0.029 A 
ATOM     60  C   UNL A   1      45.133  32.337  29.706  1.00  0.00     0.049 A 
ATOM     61  H   UNL A   1      43.784  30.782  29.245  1.00  0.00     0.167 HD
ATOM     62  C   UNL A   1      42.920  33.252  30.359  1.00  0.00     0.074 A 
ATOM     63  C   UNL A   1      42.066  34.287  30.903  1.00  0.00     0.031 C 
ATOM     64  C   UNL A   1      44.266  33.362  30.233  1.00  0.00     0.037 A 
BRANCH  51  65
ATOM     65  C   UNL A   1      47.025  28.344  27.891  1.00  0.00     0.058 A 
ATOM     66  C   UNL A   1      47.783  27.616  28.820  1.00  0.00     0.135 A 
ATOM     67  C   UNL A   1      47.484  28.387  26.564  1.00  0.00     0.135 A 
ATOM     68  F   UNL A   1      47.401  27.554  30.106  1.00  0.00    -0.206 F 
ATOM     69  C   UNL A   1      48.966  26.979  28.457  1.00  0.00     0.059 A 
ATOM     70  C   UNL A   1      48.648  27.731  26.171  1.00  0.00     0.059 A 
ATOM     71  F   UNL A   1      46.800  29.069  25.632  1.00  0.00    -0.206 F 
ATOM     72  C   UNL A   1      49.389  27.041  27.129  1.00  0.00     0.060 A 
BRANCH  72  73
ATOM     73  S   UNL A   1      50.920  26.201  26.673  1.00  0.00     0.124 S 
ATOM     74  O   UNL A   1      50.916  26.357  25.221  1.00  0.00    -0.237 OA
ATOM     75  O   UNL A   1      51.927  26.977  27.391  1.00  0.00    -0.237 OA
ATOM     76  O   UNL A   1      50.719  24.839  27.157  1.00  0.00    -0.744 OA
ENDBRANCH  72  73
ENDBRANCH  51  65
BRANCH  52  77
ATOM     77  C   UNL A   1      38.288  32.417  30.589  1.00  0.00     0.058 A 
ATOM     78  C   UNL A   1      37.478  33.124  29.687  1.00  0.00     0.135 A 
ATOM     79  C   UNL A   1      37.830  32.281  31.909  1.00  0.00     0.135 A 
ATOM     80  F   UNL A   1      37.874  33.285  28.415  1.00  0.00    -0.206 F 
ATOM     81  C   UNL A   1      36.272  33.692  30.081  1.00  0.00     0.059 A 
ATOM     82  C   UNL A   1      36.614  32.816  32.320  1.00  0.00     0.059 A 
ATOM     83  F   UNL A   1      38.557  31.597  32.806  1.00  0.00    -0.206 F 
ATOM     84  C   UNL A   1      35.846  33.530  31.401  1.00  0.00     0.060 A 
BRANCH  84  85
ATOM     85  S   UNL A   1      34.258  34.235  31.892  1.00  0.00     0.124 S 
ATOM     86  O   UNL A   1      33.654  34.527  30.598  1.00  0.00    -0.237 OA
ATOM     87  O   UNL A   1      33.657  33.138  32.645  1.00  0.00    -0.237 OA
ATOM     88  O   UNL A   1      34.639  35.397  32.689  1.00  0.00    -0.744 OA
ENDBRANCH  84  85
ENDBRANCH  52  77
BRANCH  64  89
ATOM     89  C   UNL A   1      44.899  34.662  30.649  1.00  0.00     0.058 A 
ATOM     90  C   UNL A   1      44.989  35.756  29.776  1.00  0.00     0.135 A 
ATOM     91  C   UNL A   1      45.366  34.831  31.964  1.00  0.00     0.135 A 
ATOM     92  F   UNL A   1      44.564  35.645  28.507  1.00  0.00    -0.206 F 
ATOM     93  C   UNL A   1      45.540  36.966  30.183  1.00  0.00     0.059 A 
ATOM     94  C   UNL A   1      45.892  36.042  32.402  1.00  0.00     0.059 A 
ATOM     95  F   UNL A   1      45.293  33.819  32.843  1.00  0.00    -0.206 F 
ATOM     96  C   UNL A   1      45.985  37.101  31.500  1.00  0.00     0.060 A 
BRANCH  96  97
ATOM     97  S   UNL A   1      46.660  38.690  32.027  1.00  0.00     0.124 S 
ATOM     98  O   UNL A   1      48.042  38.335  32.335  1.00  0.00    -0.237 OA
ATOM     99  O   UNL A   1      46.468  39.518  30.841  1.00  0.00    -0.237 OA
ATOM    100  O   UNL A   1      45.834  39.048  33.175  1.00  0.00    -0.744 OA
ENDBRANCH  96  97
ENDBRANCH  64  89
ENDBRANCH  38  39
ENDBRANCH  30  33
ENDBRANCH  28  29
ENDBRANCH  27  28
ENDBRANCH   1  27
TORSDOF 18
ENDMDL
MODEL 3
REMARK VINA RESULT:     -11.2      3.101      5.398
REMARK SMILES Nc1cc(C(=O)NCCCCCCNC(=O)c2ccc(-c3c4nc(c(-c5c(F)cc(S(=O)(=O)[O-])cc5F)c5ccc([nH]5)c(-c5c(F)cc(S(=O)(=O)[O-])cc5F)c5nc(c(-c6c(F)cc(S(=O)(=O)[O-])cc6F)c6ccc3[nH]6)C=C5)C=C4)cc2)ccc1N1CC2(CCOCC2)C1
REMARK SMILES IDX 11 1 10 2 9 3 8 4 7 5 5 6 6 7 4 9 2 10 3 11 85 12 84 13
REMARK SMILES IDX 83 14 1 15 86 18 87 19 94 20 88 21 89 22 93 23 90 24 92 25
REMARK SMILES IDX 91 26 12 27 13 28 14 29 15 30 16 32 17 33 18 34 82 35 19 36
REMARK SMILES IDX 81 37 20 38 21 39 22 40 75 41 23 42 80 43 74 44 76 45 24 46
REMARK SMILES IDX 79 47 73 48 72 49 25 51 59 52 38 53 58 54 39 55 42 56 57 57
REMARK SMILES IDX 77 58 40 59 41 60 56 62 78 63 43 64 26 65 27 66 36 67 28 68
REMARK SMILES IDX 29 69 35 70 37 71 30 72 31 73 32 74 33 75 34 76 60 77 61 78
REMARK SMILES IDX 70 79 62 80 63 81 69 82 71 83 64 84 65 85 66 86 67 87 68 88
REMARK SMILES IDX 44 89 45 90 54 91 46 92 47 93 53 94 55 95 48 96 49 97 50 98
REMARK SMILES IDX 51 99 52 100
REMARK H PARENT 7 8 1 16 1 17 14 31 76 50 42 61
REMARK Flexibility Score: inf
ROOT
ATOM      1  C   UNL A   1      31.876  28.021  26.573  1.00  0.00     0.002 C 
ENDROOT
BRANCH   1   2
ATOM      2  C   UNL A   1      30.986  27.905  25.327  1.00  0.00     0.002 C 
BRANCH   2   3
ATOM      3  C   UNL A   1      30.843  26.478  24.775  1.00  0.00     0.021 C 
BRANCH   3   4
ATOM      4  C   UNL A   1      30.721  26.448  23.251  1.00  0.00     0.116 C 
BRANCH   4   5
ATOM      5  N   UNL A   1      32.018  26.666  22.652  1.00  0.00    -0.352 N 
ATOM      6  C   UNL A   1      33.170  25.937  22.579  1.00  0.00     0.251 C 
ATOM      7  O   UNL A   1      34.129  26.507  22.049  1.00  0.00    -0.269 OA
ATOM      8  H   UNL A   1      32.086  27.535  22.193  1.00  0.00     0.163 HD
BRANCH   6   9
ATOM      9  C   UNL A   1      33.330  24.518  23.026  1.00  0.00     0.041 A 
ATOM     10  C   UNL A   1      32.635  22.211  22.580  1.00  0.00     0.056 A 
ATOM     11  C   UNL A   1      32.678  23.563  22.229  1.00  0.00     0.041 A 
ATOM     12  C   UNL A   1      33.287  21.776  23.752  1.00  0.00     0.060 A 
ATOM     13  C   UNL A   1      33.970  22.712  24.528  1.00  0.00     0.029 A 
ATOM     14  C   UNL A   1      34.028  24.060  24.145  1.00  0.00     0.016 A 
BRANCH  10  15
ATOM     15  N   UNL A   1      31.996  21.311  21.725  1.00  0.00    -0.397 N 
ATOM     16  H   UNL A   1      32.429  21.039  20.884  1.00  0.00     0.156 HD
ATOM     17  H   UNL A   1      31.112  20.950  21.963  1.00  0.00     0.156 HD
ENDBRANCH  10  15
BRANCH  12  18
ATOM     18  N   UNL A   1      33.186  20.442  24.161  1.00  0.00    -0.369 N 
ATOM     19  C   UNL A   1      34.189  19.518  24.575  1.00  0.00     0.125 C 
ATOM     20  C   UNL A   1      32.116  19.689  24.728  1.00  0.00     0.125 C 
ATOM     21  C   UNL A   1      33.051  18.459  24.562  1.00  0.00     0.010 C 
ATOM     22  C   UNL A   1      33.049  17.435  25.693  1.00  0.00     0.039 C 
ATOM     23  C   UNL A   1      32.886  17.739  23.210  1.00  0.00     0.039 C 
ATOM     24  C   UNL A   1      34.141  16.405  25.417  1.00  0.00     0.161 C 
ATOM     25  C   UNL A   1      33.998  16.710  23.069  1.00  0.00     0.161 C 
ATOM     26  O   UNL A   1      33.939  15.773  24.147  1.00  0.00    -0.381 OA
ENDBRANCH  12  18
ENDBRANCH   6   9
ENDBRANCH   4   5
ENDBRANCH   3   4
ENDBRANCH   2   3
ENDBRANCH   1   2
BRANCH   1  27
ATOM     27  C   UNL A   1      33.309  27.518  26.380  1.00  0.00     0.021 C 
BRANCH  27  28
ATOM     28  C   UNL A   1      34.254  28.561  25.795  1.00  0.00     0.116 C 
BRANCH  28  29
ATOM     29  N   UNL A   1      33.906  29.900  26.248  1.00  0.00    -0.352 N 
ATOM     30  C   UNL A   1      34.416  30.614  27.303  1.00  0.00     0.251 C 
ATOM     31  H   UNL A   1      33.209  30.356  25.724  1.00  0.00     0.163 HD
ATOM     32  O   UNL A   1      33.831  31.611  27.709  1.00  0.00    -0.269 OA
BRANCH  30  33
ATOM     33  C   UNL A   1      35.668  30.166  27.944  1.00  0.00     0.039 A 
ATOM     34  C   UNL A   1      36.877  30.334  27.267  1.00  0.00     0.014 A 
ATOM     35  C   UNL A   1      35.644  29.571  29.209  1.00  0.00     0.014 A 
ATOM     36  C   UNL A   1      38.069  29.950  27.882  1.00  0.00     0.010 A 
ATOM     37  C   UNL A   1      36.837  29.259  29.850  1.00  0.00     0.010 A 
ATOM     38  C   UNL A   1      38.062  29.436  29.189  1.00  0.00    -0.014 A 
BRANCH  38  39
ATOM     39  C   UNL A   1      39.324  29.072  29.881  1.00  0.00     0.031 A 
ATOM     40  C   UNL A   1      39.775  29.853  31.086  1.00  0.00     0.074 A 
ATOM     41  C   UNL A   1      40.092  28.082  29.385  1.00  0.00     0.049 A 
ATOM     42  N   UNL A   1      40.875  29.733  31.783  1.00  0.00    -0.248 NA
ATOM     43  C   UNL A   1      38.884  30.928  31.553  1.00  0.00     0.031 C 
ATOM     44  C   UNL A   1      39.782  27.287  28.195  1.00  0.00     0.029 A 
ATOM     45  N   UNL A   1      41.295  27.581  29.814  1.00  0.00    -0.354 N 
ATOM     46  C   UNL A   1      40.815  30.721  32.759  1.00  0.00     0.074 A 
ATOM     47  C   UNL A   1      39.598  31.469  32.530  1.00  0.00     0.031 C 
ATOM     48  C   UNL A   1      40.757  26.384  28.002  1.00  0.00     0.029 A 
ATOM     49  C   UNL A   1      41.781  26.563  29.027  1.00  0.00     0.049 A 
ATOM     50  H   UNL A   1      41.767  27.919  30.609  1.00  0.00     0.167 HD
ATOM     51  C   UNL A   1      41.683  30.966  33.768  1.00  0.00     0.037 A 
ATOM     52  C   UNL A   1      42.926  25.859  29.116  1.00  0.00     0.037 A 
ATOM     53  C   UNL A   1      42.881  30.202  34.001  1.00  0.00     0.049 A 
ATOM     54  C   UNL A   1      43.879  26.154  30.243  1.00  0.00     0.074 A 
ATOM     55  C   UNL A   1      43.800  30.333  35.027  1.00  0.00     0.029 A 
ATOM     56  N   UNL A   1      43.329  29.165  33.195  1.00  0.00    -0.354 N 
ATOM     57  N   UNL A   1      43.775  27.050  31.196  1.00  0.00    -0.248 NA
ATOM     58  C   UNL A   1      45.099  25.339  30.314  1.00  0.00     0.031 C 
ATOM     59  C   UNL A   1      44.828  29.410  34.814  1.00  0.00     0.029 A 
ATOM     60  C   UNL A   1      44.521  28.662  33.688  1.00  0.00     0.049 A 
ATOM     61  H   UNL A   1      42.867  28.834  32.390  1.00  0.00     0.167 HD
ATOM     62  C   UNL A   1      44.899  26.884  31.997  1.00  0.00     0.074 A 
ATOM     63  C   UNL A   1      45.665  25.798  31.422  1.00  0.00     0.031 C 
ATOM     64  C   UNL A   1      45.264  27.570  33.110  1.00  0.00     0.037 A 
BRANCH  51  65
ATOM     65  C   UNL A   1      41.370  32.106  34.701  1.00  0.00     0.058 A 
ATOM     66  C   UNL A   1      40.572  31.929  35.842  1.00  0.00     0.135 A 
ATOM     67  C   UNL A   1      41.908  33.384  34.473  1.00  0.00     0.135 A 
ATOM     68  F   UNL A   1      40.019  30.733  36.102  1.00  0.00    -0.206 F 
ATOM     69  C   UNL A   1      40.294  32.982  36.707  1.00  0.00     0.059 A 
ATOM     70  C   UNL A   1      41.668  34.445  35.342  1.00  0.00     0.059 A 
ATOM     71  F   UNL A   1      42.678  33.612  33.397  1.00  0.00    -0.206 F 
ATOM     72  C   UNL A   1      40.847  34.237  36.449  1.00  0.00     0.060 A 
BRANCH  72  73
ATOM     73  S   UNL A   1      40.483  35.589  37.587  1.00  0.00     0.124 S 
ATOM     74  O   UNL A   1      39.623  34.925  38.563  1.00  0.00    -0.237 OA
ATOM     75  O   UNL A   1      41.811  35.963  38.062  1.00  0.00    -0.237 OA
ATOM     76  O   UNL A   1      39.822  36.578  36.741  1.00  0.00    -0.744 OA
ENDBRANCH  72  73
ENDBRANCH  51  65
BRANCH  52  77
ATOM     77  C   UNL A   1      43.224  24.794  28.121  1.00  0.00     0.058 A 
ATOM     78  C   UNL A   1      43.853  25.097  26.904  1.00  0.00     0.135 A 
ATOM     79  C   UNL A   1      42.898  23.451  28.371  1.00  0.00     0.135 A 
ATOM     80  F   UNL A   1      44.180  26.366  26.616  1.00  0.00    -0.206 F 
ATOM     81  C   UNL A   1      44.131  24.112  25.962  1.00  0.00     0.059 A 
ATOM     82  C   UNL A   1      43.191  22.445  27.456  1.00  0.00     0.059 A 
ATOM     83  F   UNL A   1      42.313  23.105  29.528  1.00  0.00    -0.206 F 
ATOM     84  C   UNL A   1      43.799  22.787  26.249  1.00  0.00     0.060 A 
BRANCH  84  85
ATOM     85  S   UNL A   1      44.202  21.511  25.038  1.00  0.00     0.124 S 
ATOM     86  O   UNL A   1      45.537  21.110  25.467  1.00  0.00    -0.237 OA
ATOM     87  O   UNL A   1      43.141  20.533  25.258  1.00  0.00    -0.237 OA
ATOM     88  O   UNL A   1      44.134  22.223  23.765  1.00  0.00    -0.744 OA
ENDBRANCH  84  85
ENDBRANCH  52  77
BRANCH  64  89
ATOM     89  C   UNL A   1      46.525  27.138  33.809  1.00  0.00     0.058 A 
ATOM     90  C   UNL A   1      47.779  27.667  33.469  1.00  0.00     0.135 A 
ATOM     91  C   UNL A   1      46.464  26.226  34.876  1.00  0.00     0.135 A 
ATOM     92  F   UNL A   1      47.894  28.536  32.452  1.00  0.00    -0.206 F 
ATOM     93  C   UNL A   1      48.933  27.290  34.148  1.00  0.00     0.059 A 
ATOM     94  C   UNL A   1      47.600  25.859  35.589  1.00  0.00     0.059 A 
ATOM     95  F   UNL A   1      45.286  25.699  35.249  1.00  0.00    -0.206 F 
ATOM     96  C   UNL A   1      48.833  26.388  35.210  1.00  0.00     0.060 A 
BRANCH  96  97
ATOM     97  S   UNL A   1      50.333  25.939  36.109  1.00  0.00     0.124 S 
ATOM     98  O   UNL A   1      50.842  27.249  36.505  1.00  0.00    -0.237 OA
ATOM     99  O   UNL A   1      49.811  25.109  37.190  1.00  0.00    -0.237 OA
ATOM    100  O   UNL A   1      51.130  25.232  35.111  1.00  0.00    -0.744 OA
ENDBRANCH  96  97
ENDBRANCH  64  89
ENDBRANCH  38  39
ENDBRANCH  30  33
ENDBRANCH  28  29
ENDBRANCH  27  28
ENDBRANCH   1  27
TORSDOF 18
ENDMDL
