MODEL 1
REMARK VINA RESULT:     -12.3      0.000      0.000
REMARK SMILES Cc1ccc(-n2nc(C(=O)NCCCCCCNC(=O)c3ccc(-c4c5nc(c(-c6c(F)cc(S(=O)(=O)[O-])cc6F)c6ccc([nH]6)c(-c6c(F)cc(S(=O)(=O)[O-])cc6F)c6nc(c(-c7c(F)cc(S(=O)(=O)[O-])cc7F)c7ccc4[nH]7)C=C6)C=C5)cc3)c3c2CCC3)c(F)c1
REMARK SMILES IDX 15 1 14 2 13 3 12 4 11 5 9 6 10 7 8 9 6 10 7 11 88 12 87 13
REMARK SMILES IDX 89 14 91 15 90 16 5 17 1 18 2 19 3 20 94 21 4 22 92 23 93 24
REMARK SMILES IDX 16 25 17 26 18 27 19 28 20 30 21 31 22 32 86 33 23 34 85 35
REMARK SMILES IDX 24 36 25 37 26 38 79 39 27 40 84 41 78 42 80 43 28 44 83 45
REMARK SMILES IDX 77 46 76 47 29 49 63 50 42 51 62 52 43 53 46 54 61 55 81 56
REMARK SMILES IDX 44 57 45 58 60 60 82 61 47 62 30 63 31 64 40 65 32 66 33 67
REMARK SMILES IDX 39 68 41 69 34 70 35 71 36 72 37 73 38 74 64 75 65 76 74 77
REMARK SMILES IDX 66 78 67 79 73 80 75 81 68 82 69 83 70 84 71 85 72 86 48 87
REMARK SMILES IDX 49 88 58 89 50 90 51 91 57 92 59 93 52 94 53 95 54 96 55 97
REMARK SMILES IDX 56 98
REMARK H PARENT 11 8 18 29 80 48 46 59
REMARK Flexibility Score: inf
ROOT
ATOM      1  C   UNL A   1      40.510  21.834  27.544  1.00  0.00     0.002 C 
ENDROOT
BRANCH   1   2
ATOM      2  C   UNL A   1      39.596  22.133  26.344  1.00  0.00     0.002 C 
BRANCH   2   3
ATOM      3  C   UNL A   1      38.703  23.368  26.469  1.00  0.00     0.021 C 
BRANCH   3   4
ATOM      4  C   UNL A   1      37.329  23.247  25.811  1.00  0.00     0.116 C 
BRANCH   4   5
ATOM      5  N   UNL A   1      37.428  22.985  24.386  1.00  0.00    -0.351 N 
ATOM      6  C   UNL A   1      36.480  23.066  23.392  1.00  0.00     0.272 C 
ATOM      7  O   UNL A   1      36.824  22.730  22.256  1.00  0.00    -0.267 OA
ATOM      8  H   UNL A   1      38.321  22.704  24.081  1.00  0.00     0.163 HD
BRANCH   6   9
ATOM      9  C   UNL A   1      35.105  23.510  23.674  1.00  0.00     0.154 A 
ATOM     10  N   UNL A   1      33.351  24.779  23.861  1.00  0.00    -0.234 N 
ATOM     11  N   UNL A   1      34.596  24.713  23.317  1.00  0.00    -0.162 NA
ATOM     12  C   UNL A   1      33.023  23.581  24.411  1.00  0.00     0.048 A 
ATOM     13  C   UNL A   1      34.091  22.749  24.272  1.00  0.00     0.007 A 
ATOM     14  C   UNL A   1      31.808  22.940  24.932  1.00  0.00     0.057 C 
ATOM     15  C   UNL A   1      33.804  21.385  24.738  1.00  0.00     0.040 C 
ATOM     16  C   UNL A   1      32.396  21.566  25.412  1.00  0.00     0.011 C 
BRANCH  10  17
ATOM     17  C   UNL A   1      32.598  25.965  23.827  1.00  0.00     0.101 A 
ATOM     18  C   UNL A   1      30.173  29.520  23.783  1.00  0.00     0.044 C 
ATOM     19  C   UNL A   1      31.053  28.305  23.780  1.00  0.00    -0.048 A 
ATOM     20  C   UNL A   1      32.037  28.125  24.761  1.00  0.00     0.006 A 
ATOM     21  C   UNL A   1      30.869  27.312  22.810  1.00  0.00     0.045 A 
ATOM     22  C   UNL A   1      32.798  26.954  24.798  1.00  0.00     0.032 A 
ATOM     23  C   UNL A   1      31.654  26.162  22.821  1.00  0.00     0.149 A 
ATOM     24  F   UNL A   1      31.399  25.220  21.900  1.00  0.00    -0.205 F 
ENDBRANCH  10  17
ENDBRANCH   6   9
ENDBRANCH   4   5
ENDBRANCH   3   4
ENDBRANCH   2   3
ENDBRANCH   1   2
BRANCH   1  25
ATOM     25  C   UNL A   1      41.451  20.627  27.417  1.00  0.00     0.021 C 
BRANCH  25  26
ATOM     26  C   UNL A   1      41.633  20.137  25.993  1.00  0.00     0.116 C 
BRANCH  26  27
ATOM     27  N   UNL A   1      43.033  19.852  25.656  1.00  0.00    -0.352 N 
ATOM     28  C   UNL A   1      44.030  20.754  25.299  1.00  0.00     0.251 C 
ATOM     29  H   UNL A   1      43.299  18.905  25.688  1.00  0.00     0.163 HD
ATOM     30  O   UNL A   1      45.025  20.395  24.699  1.00  0.00    -0.269 OA
BRANCH  28  31
ATOM     31  C   UNL A   1      43.846  22.162  25.700  1.00  0.00     0.039 A 
ATOM     32  C   UNL A   1      43.027  23.065  25.018  1.00  0.00     0.014 A 
ATOM     33  C   UNL A   1      44.505  22.539  26.861  1.00  0.00     0.014 A 
ATOM     34  C   UNL A   1      42.851  24.339  25.566  1.00  0.00     0.010 A 
ATOM     35  C   UNL A   1      44.084  23.640  27.535  1.00  0.00     0.010 A 
ATOM     36  C   UNL A   1      43.391  24.608  26.831  1.00  0.00    -0.014 A 
BRANCH  36  37
ATOM     37  C   UNL A   1      43.252  25.882  27.518  1.00  0.00     0.031 A 
ATOM     38  C   UNL A   1      44.300  26.871  27.164  1.00  0.00     0.074 A 
ATOM     39  C   UNL A   1      42.097  26.200  28.154  1.00  0.00     0.049 A 
ATOM     40  N   UNL A   1      45.268  27.303  27.899  1.00  0.00    -0.248 NA
ATOM     41  C   UNL A   1      44.400  27.294  25.754  1.00  0.00     0.031 C 
ATOM     42  C   UNL A   1      40.846  25.417  28.222  1.00  0.00     0.029 A 
ATOM     43  N   UNL A   1      41.747  27.349  28.789  1.00  0.00    -0.354 N 
ATOM     44  C   UNL A   1      45.936  28.251  27.124  1.00  0.00     0.074 A 
ATOM     45  C   UNL A   1      45.518  28.021  25.769  1.00  0.00     0.031 C 
ATOM     46  C   UNL A   1      39.830  26.202  28.645  1.00  0.00     0.029 A 
ATOM     47  C   UNL A   1      40.385  27.471  29.068  1.00  0.00     0.049 A 
ATOM     48  H   UNL A   1      42.403  28.042  29.034  1.00  0.00     0.167 HD
ATOM     49  C   UNL A   1      46.544  29.326  27.702  1.00  0.00     0.037 A 
ATOM     50  C   UNL A   1      39.769  28.550  29.614  1.00  0.00     0.037 A 
ATOM     51  C   UNL A   1      46.591  29.158  29.133  1.00  0.00     0.049 A 
ATOM     52  C   UNL A   1      40.833  29.334  30.288  1.00  0.00     0.074 A 
ATOM     53  C   UNL A   1      47.304  28.380  30.016  1.00  0.00     0.029 A 
ATOM     54  N   UNL A   1      45.457  29.586  29.781  1.00  0.00    -0.354 N 
ATOM     55  N   UNL A   1      41.537  28.881  31.292  1.00  0.00    -0.248 NA
ATOM     56  C   UNL A   1      41.412  30.471  29.587  1.00  0.00     0.031 C 
ATOM     57  C   UNL A   1      46.426  28.141  31.117  1.00  0.00     0.029 A 
ATOM     58  C   UNL A   1      45.232  28.833  30.904  1.00  0.00     0.049 A 
ATOM     59  H   UNL A   1      44.886  30.330  29.481  1.00  0.00     0.167 HD
ATOM     60  C   UNL A   1      42.807  29.397  31.097  1.00  0.00     0.074 A 
ATOM     61  C   UNL A   1      42.632  30.477  30.132  1.00  0.00     0.031 C 
ATOM     62  C   UNL A   1      43.914  28.705  31.499  1.00  0.00     0.037 A 
BRANCH  49  63
ATOM     63  C   UNL A   1      46.690  30.701  27.078  1.00  0.00     0.058 A 
ATOM     64  C   UNL A   1      47.962  31.312  27.049  1.00  0.00     0.135 A 
ATOM     65  C   UNL A   1      45.609  31.552  26.759  1.00  0.00     0.135 A 
ATOM     66  F   UNL A   1      49.067  30.607  27.342  1.00  0.00    -0.206 F 
ATOM     67  C   UNL A   1      48.140  32.673  26.781  1.00  0.00     0.059 A 
ATOM     68  C   UNL A   1      45.768  32.898  26.438  1.00  0.00     0.059 A 
ATOM     69  F   UNL A   1      44.335  31.153  26.836  1.00  0.00    -0.206 F 
ATOM     70  C   UNL A   1      47.032  33.460  26.486  1.00  0.00     0.060 A 
BRANCH  70  71
ATOM     71  S   UNL A   1      47.241  35.228  26.212  1.00  0.00     0.124 S 
ATOM     72  O   UNL A   1      45.898  35.625  25.809  1.00  0.00    -0.237 OA
ATOM     73  O   UNL A   1      47.679  35.687  27.526  1.00  0.00    -0.237 OA
ATOM     74  O   UNL A   1      48.257  35.289  25.165  1.00  0.00    -0.744 OA
ENDBRANCH  70  71
ENDBRANCH  49  63
BRANCH  50  75
ATOM     75  C   UNL A   1      38.430  29.113  29.298  1.00  0.00     0.058 A 
ATOM     76  C   UNL A   1      37.491  29.404  30.303  1.00  0.00     0.135 A 
ATOM     77  C   UNL A   1      38.165  29.659  28.025  1.00  0.00     0.135 A 
ATOM     78  F   UNL A   1      37.675  28.942  31.549  1.00  0.00    -0.206 F 
ATOM     79  C   UNL A   1      36.378  30.227  30.074  1.00  0.00     0.059 A 
ATOM     80  C   UNL A   1      37.067  30.482  27.773  1.00  0.00     0.059 A 
ATOM     81  F   UNL A   1      39.028  29.481  27.012  1.00  0.00    -0.206 F 
ATOM     82  C   UNL A   1      36.187  30.781  28.808  1.00  0.00     0.060 A 
BRANCH  82  83
ATOM     83  S   UNL A   1      34.850  31.977  28.548  1.00  0.00     0.124 S 
ATOM     84  O   UNL A   1      34.589  32.438  29.907  1.00  0.00    -0.237 OA
ATOM     85  O   UNL A   1      35.472  32.947  27.654  1.00  0.00    -0.237 OA
ATOM     86  O   UNL A   1      33.788  31.172  27.948  1.00  0.00    -0.744 OA
ENDBRANCH  82  83
ENDBRANCH  50  75
BRANCH  62  87
ATOM     87  C   UNL A   1      43.738  27.632  32.541  1.00  0.00     0.058 A 
ATOM     88  C   UNL A   1      43.766  26.248  32.296  1.00  0.00     0.135 A 
ATOM     89  C   UNL A   1      43.683  28.044  33.879  1.00  0.00     0.135 A 
ATOM     90  F   UNL A   1      43.889  25.770  31.052  1.00  0.00    -0.206 F 
ATOM     91  C   UNL A   1      43.727  25.317  33.339  1.00  0.00     0.059 A 
ATOM     92  C   UNL A   1      43.674  27.138  34.933  1.00  0.00     0.059 A 
ATOM     93  F   UNL A   1      43.702  29.354  34.178  1.00  0.00    -0.206 F 
ATOM     94  C   UNL A   1      43.689  25.774  34.657  1.00  0.00     0.060 A 
BRANCH  94  95
ATOM     95  S   UNL A   1      43.731  24.581  36.013  1.00  0.00     0.124 S 
ATOM     96  O   UNL A   1      42.434  24.789  36.646  1.00  0.00    -0.237 OA
ATOM     97  O   UNL A   1      43.901  23.310  35.314  1.00  0.00    -0.237 OA
ATOM     98  O   UNL A   1      44.886  25.005  36.803  1.00  0.00    -0.744 OA
ENDBRANCH  94  95
ENDBRANCH  62  87
ENDBRANCH  36  37
ENDBRANCH  28  31
ENDBRANCH  26  27
ENDBRANCH  25  26
ENDBRANCH   1  25
TORSDOF 17
ENDMDL
MODEL 2
REMARK VINA RESULT:     -12.1      2.444      3.934
REMARK SMILES Cc1ccc(-n2nc(C(=O)NCCCCCCNC(=O)c3ccc(-c4c5nc(c(-c6c(F)cc(S(=O)(=O)[O-])cc6F)c6ccc([nH]6)c(-c6c(F)cc(S(=O)(=O)[O-])cc6F)c6nc(c(-c7c(F)cc(S(=O)(=O)[O-])cc7F)c7ccc4[nH]7)C=C6)C=C5)cc3)c3c2CCC3)c(F)c1
REMARK SMILES IDX 15 1 14 2 13 3 12 4 11 5 9 6 10 7 8 9 6 10 7 11 88 12 87 13
REMARK SMILES IDX 89 14 91 15 90 16 5 17 1 18 2 19 3 20 94 21 4 22 92 23 93 24
REMARK SMILES IDX 16 25 17 26 18 27 19 28 20 30 21 31 22 32 86 33 23 34 85 35
REMARK SMILES IDX 24 36 25 37 26 38 79 39 27 40 84 41 78 42 80 43 28 44 83 45
REMARK SMILES IDX 77 46 76 47 29 49 63 50 42 51 62 52 43 53 46 54 61 55 81 56
REMARK SMILES IDX 44 57 45 58 60 60 82 61 47 62 30 63 31 64 40 65 32 66 33 67
REMARK SMILES IDX 39 68 41 69 34 70 35 71 36 72 37 73 38 74 64 75 65 76 74 77
REMARK SMILES IDX 66 78 67 79 73 80 75 81 68 82 69 83 70 84 71 85 72 86 48 87
REMARK SMILES IDX 49 88 58 89 50 90 51 91 57 92 59 93 52 94 53 95 54 96 55 97
REMARK SMILES IDX 56 98
REMARK H PARENT 11 8 18 29 80 48 46 59
REMARK Flexibility Score: inf
ROOT
ATOM      1  C   UNL A   1      34.943  23.610  25.841  1.00  0.00     0.002 C 
ENDROOT
BRANCH   1   2
ATOM      2  C   UNL A   1      34.342  22.858  27.041  1.00  0.00     0.002 C 
BRANCH   2   3
ATOM      3  C   UNL A   1      33.625  21.546  26.722  1.00  0.00     0.021 C 
BRANCH   3   4
ATOM      4  C   UNL A   1      32.424  21.671  25.787  1.00  0.00     0.116 C 
BRANCH   4   5
ATOM      5  N   UNL A   1      31.204  21.995  26.505  1.00  0.00    -0.351 N 
ATOM      6  C   UNL A   1      30.579  23.203  26.711  1.00  0.00     0.272 C 
ATOM      7  O   UNL A   1      29.566  23.202  27.416  1.00  0.00    -0.267 OA
ATOM      8  H   UNL A   1      30.749  21.222  26.912  1.00  0.00     0.163 HD
BRANCH   6   9
ATOM      9  C   UNL A   1      31.108  24.451  26.136  1.00  0.00     0.154 A 
ATOM     10  N   UNL A   1      31.965  26.441  25.977  1.00  0.00    -0.234 N 
ATOM     11  N   UNL A   1      31.746  25.415  26.841  1.00  0.00    -0.162 NA
ATOM     12  C   UNL A   1      31.619  26.067  24.717  1.00  0.00     0.048 A 
ATOM     13  C   UNL A   1      31.115  24.803  24.780  1.00  0.00     0.007 A 
ATOM     14  C   UNL A   1      31.805  26.589  23.357  1.00  0.00     0.057 C 
ATOM     15  C   UNL A   1      30.809  24.257  23.450  1.00  0.00     0.040 C 
ATOM     16  C   UNL A   1      31.013  25.514  22.531  1.00  0.00     0.011 C 
BRANCH  10  17
ATOM     17  C   UNL A   1      32.462  27.679  26.418  1.00  0.00     0.101 A 
ATOM     18  C   UNL A   1      34.013  31.507  27.626  1.00  0.00     0.044 C 
ATOM     19  C   UNL A   1      33.464  30.163  27.249  1.00  0.00    -0.048 A 
ATOM     20  C   UNL A   1      32.083  29.931  27.218  1.00  0.00     0.006 A 
ATOM     21  C   UNL A   1      34.337  29.130  26.885  1.00  0.00     0.045 A 
ATOM     22  C   UNL A   1      31.579  28.700  26.790  1.00  0.00     0.032 A 
ATOM     23  C   UNL A   1      33.837  27.890  26.495  1.00  0.00     0.149 A 
ATOM     24  F   UNL A   1      34.717  26.954  26.104  1.00  0.00    -0.205 F 
ENDBRANCH  10  17
ENDBRANCH   6   9
ENDBRANCH   4   5
ENDBRANCH   3   4
ENDBRANCH   2   3
ENDBRANCH   1   2
BRANCH   1  25
ATOM     25  C   UNL A   1      36.079  22.909  25.080  1.00  0.00     0.021 C 
BRANCH  25  26
ATOM     26  C   UNL A   1      37.461  23.423  25.431  1.00  0.00     0.116 C 
BRANCH  26  27
ATOM     27  N   UNL A   1      38.282  22.432  26.139  1.00  0.00    -0.352 N 
ATOM     28  C   UNL A   1      39.466  22.641  26.839  1.00  0.00     0.251 C 
ATOM     29  H   UNL A   1      37.952  21.505  26.116  1.00  0.00     0.163 HD
ATOM     30  O   UNL A   1      40.237  21.729  27.067  1.00  0.00    -0.269 OA
BRANCH  28  31
ATOM     31  C   UNL A   1      39.738  24.009  27.318  1.00  0.00     0.039 A 
ATOM     32  C   UNL A   1      38.742  24.953  27.584  1.00  0.00     0.014 A 
ATOM     33  C   UNL A   1      41.073  24.302  27.554  1.00  0.00     0.014 A 
ATOM     34  C   UNL A   1      39.124  26.176  28.141  1.00  0.00     0.010 A 
ATOM     35  C   UNL A   1      41.390  25.340  28.370  1.00  0.00     0.010 A 
ATOM     36  C   UNL A   1      40.461  26.352  28.528  1.00  0.00    -0.014 A 
BRANCH  36  37
ATOM     37  C   UNL A   1      40.974  27.564  29.143  1.00  0.00     0.031 A 
ATOM     38  C   UNL A   1      42.139  28.149  28.433  1.00  0.00     0.074 A 
ATOM     39  C   UNL A   1      40.242  28.230  30.071  1.00  0.00     0.049 A 
ATOM     40  N   UNL A   1      43.368  28.190  28.821  1.00  0.00    -0.248 NA
ATOM     41  C   UNL A   1      41.949  28.574  27.034  1.00  0.00     0.031 C 
ATOM     42  C   UNL A   1      38.882  27.921  30.556  1.00  0.00     0.029 A 
ATOM     43  N   UNL A   1      40.511  29.400  30.708  1.00  0.00    -0.354 N 
ATOM     44  C   UNL A   1      44.054  28.886  27.825  1.00  0.00     0.074 A 
ATOM     45  C   UNL A   1      43.198  28.873  26.671  1.00  0.00     0.031 C 
ATOM     46  C   UNL A   1      38.369  28.987  31.210  1.00  0.00     0.029 A 
ATOM     47  C   UNL A   1      39.421  29.969  31.369  1.00  0.00     0.049 A 
ATOM     48  H   UNL A   1      41.404  29.815  30.703  1.00  0.00     0.167 HD
ATOM     49  C   UNL A   1      45.135  29.661  28.127  1.00  0.00     0.037 A 
ATOM     50  C   UNL A   1      39.402  31.168  32.003  1.00  0.00     0.037 A 
ATOM     51  C   UNL A   1      45.547  29.425  29.488  1.00  0.00     0.049 A 
ATOM     52  C   UNL A   1      40.818  31.510  32.281  1.00  0.00     0.074 A 
ATOM     53  C   UNL A   1      46.183  28.410  30.169  1.00  0.00     0.029 A 
ATOM     54  N   UNL A   1      44.876  30.186  30.414  1.00  0.00    -0.354 N 
ATOM     55  N   UNL A   1      41.593  30.799  33.059  1.00  0.00    -0.248 NA
ATOM     56  C   UNL A   1      41.510  32.410  31.370  1.00  0.00     0.031 C 
ATOM     57  C   UNL A   1      45.649  28.439  31.492  1.00  0.00     0.029 A 
ATOM     58  C   UNL A   1      44.755  29.507  31.598  1.00  0.00     0.049 A 
ATOM     59  H   UNL A   1      44.529  31.092  30.250  1.00  0.00     0.167 HD
ATOM     60  C   UNL A   1      42.842  30.858  32.465  1.00  0.00     0.074 A 
ATOM     61  C   UNL A   1      42.763  31.974  31.528  1.00  0.00     0.031 C 
ATOM     62  C   UNL A   1      43.714  29.811  32.564  1.00  0.00     0.037 A 
BRANCH  49  63
ATOM     63  C   UNL A   1      45.545  30.929  27.403  1.00  0.00     0.058 A 
ATOM     64  C   UNL A   1      46.870  31.054  26.931  1.00  0.00     0.135 A 
ATOM     65  C   UNL A   1      44.789  32.122  27.390  1.00  0.00     0.135 A 
ATOM     66  F   UNL A   1      47.689  29.991  26.903  1.00  0.00    -0.206 F 
ATOM     67  C   UNL A   1      47.416  32.278  26.534  1.00  0.00     0.059 A 
ATOM     68  C   UNL A   1      45.297  33.341  26.951  1.00  0.00     0.059 A 
ATOM     69  F   UNL A   1      43.552  32.193  27.894  1.00  0.00    -0.206 F 
ATOM     70  C   UNL A   1      46.622  33.420  26.557  1.00  0.00     0.060 A 
BRANCH  70  71
ATOM     71  S   UNL A   1      47.338  35.014  26.119  1.00  0.00     0.124 S 
ATOM     72  O   UNL A   1      48.137  34.666  24.949  1.00  0.00    -0.237 OA
ATOM     73  O   UNL A   1      46.149  35.820  25.866  1.00  0.00    -0.237 OA
ATOM     74  O   UNL A   1      48.094  35.382  27.311  1.00  0.00    -0.744 OA
ENDBRANCH  70  71
ENDBRANCH  49  63
BRANCH  50  75
ATOM     75  C   UNL A   1      38.304  32.170  32.062  1.00  0.00     0.058 A 
ATOM     76  C   UNL A   1      37.877  32.871  30.920  1.00  0.00     0.135 A 
ATOM     77  C   UNL A   1      37.452  32.234  33.183  1.00  0.00     0.135 A 
ATOM     78  F   UNL A   1      38.618  32.847  29.801  1.00  0.00    -0.206 F 
ATOM     79  C   UNL A   1      36.654  33.556  30.875  1.00  0.00     0.059 A 
ATOM     80  C   UNL A   1      36.230  32.907  33.162  1.00  0.00     0.059 A 
ATOM     81  F   UNL A   1      37.746  31.557  34.304  1.00  0.00    -0.206 F 
ATOM     82  C   UNL A   1      35.825  33.549  31.997  1.00  0.00     0.060 A 
BRANCH  82  83
ATOM     83  S   UNL A   1      34.174  34.288  31.892  1.00  0.00     0.124 S 
ATOM     84  O   UNL A   1      33.426  33.498  32.863  1.00  0.00    -0.237 OA
ATOM     85  O   UNL A   1      34.432  35.675  32.261  1.00  0.00    -0.237 OA
ATOM     86  O   UNL A   1      33.797  34.078  30.495  1.00  0.00    -0.744 OA
ENDBRANCH  82  83
ENDBRANCH  50  75
BRANCH  62  87
ATOM     87  C   UNL A   1      43.505  28.819  33.677  1.00  0.00     0.058 A 
ATOM     88  C   UNL A   1      43.784  29.049  35.036  1.00  0.00     0.135 A 
ATOM     89  C   UNL A   1      42.851  27.623  33.352  1.00  0.00     0.135 A 
ATOM     90  F   UNL A   1      44.342  30.197  35.440  1.00  0.00    -0.206 F 
ATOM     91  C   UNL A   1      43.437  28.122  36.024  1.00  0.00     0.059 A 
ATOM     92  C   UNL A   1      42.470  26.700  34.320  1.00  0.00     0.059 A 
ATOM     93  F   UNL A   1      42.516  27.367  32.076  1.00  0.00    -0.206 F 
ATOM     94  C   UNL A   1      42.772  26.952  35.655  1.00  0.00     0.060 A 
BRANCH  94  95
ATOM     95  S   UNL A   1      42.239  25.793  36.934  1.00  0.00     0.124 S 
ATOM     96  O   UNL A   1      42.770  26.406  38.146  1.00  0.00    -0.237 OA
ATOM     97  O   UNL A   1      40.785  25.814  36.796  1.00  0.00    -0.237 OA
ATOM     98  O   UNL A   1      42.873  24.537  36.540  1.00  0.00    -0.744 OA
ENDBRANCH  94  95
ENDBRANCH  62  87
ENDBRANCH  36  37
ENDBRANCH  28  31
ENDBRANCH  26  27
ENDBRANCH  25  26
ENDBRANCH   1  25
TORSDOF 17
ENDMDL
MODEL 3
REMARK VINA RESULT:     -12.0      1.684      3.297
REMARK SMILES Cc1ccc(-n2nc(C(=O)NCCCCCCNC(=O)c3ccc(-c4c5nc(c(-c6c(F)cc(S(=O)(=O)[O-])cc6F)c6ccc([nH]6)c(-c6c(F)cc(S(=O)(=O)[O-])cc6F)c6nc(c(-c7c(F)cc(S(=O)(=O)[O-])cc7F)c7ccc4[nH]7)C=C6)C=C5)cc3)c3c2CCC3)c(F)c1
REMARK SMILES IDX 15 1 14 2 13 3 12 4 11 5 9 6 10 7 8 9 6 10 7 11 88 12 87 13
REMARK SMILES IDX 89 14 91 15 90 16 5 17 1 18 2 19 3 20 94 21 4 22 92 23 93 24
REMARK SMILES IDX 16 25 17 26 18 27 19 28 20 30 21 31 22 32 86 33 23 34 85 35
REMARK SMILES IDX 24 36 25 37 26 38 79 39 27 40 84 41 78 42 80 43 28 44 83 45
REMARK SMILES IDX 77 46 76 47 29 49 63 50 42 51 62 52 43 53 46 54 61 55 81 56
REMARK SMILES IDX 44 57 45 58 60 60 82 61 47 62 30 63 31 64 40 65 32 66 33 67
REMARK SMILES IDX 39 68 41 69 34 70 35 71 36 72 37 73 38 74 64 75 65 76 74 77
REMARK SMILES IDX 66 78 67 79 73 80 75 81 68 82 69 83 70 84 71 85 72 86 48 87
REMARK SMILES IDX 49 88 58 89 50 90 51 91 57 92 59 93 52 94 53 95 54 96 55 97
REMARK SMILES IDX 56 98
REMARK H PARENT 11 8 18 29 80 48 46 59
REMARK Flexibility Score: inf
ROOT
ATOM      1  C   UNL A   1      40.395  21.056  25.880  1.00  0.00     0.002 C 
ENDROOT
BRANCH   1   2
ATOM      2  C   UNL A   1      39.988  22.070  26.962  1.00  0.00     0.002 C 
BRANCH   2   3
ATOM      3  C   UNL A   1      39.147  23.257  26.491  1.00  0.00     0.021 C 
BRANCH   3   4
ATOM      4  C   UNL A   1      37.734  22.908  26.024  1.00  0.00     0.116 C 
BRANCH   4   5
ATOM      5  N   UNL A   1      37.538  23.197  24.614  1.00  0.00    -0.351 N 
ATOM      6  C   UNL A   1      36.541  22.809  23.750  1.00  0.00     0.272 C 
ATOM      7  O   UNL A   1      36.648  23.157  22.571  1.00  0.00    -0.267 OA
ATOM      8  H   UNL A   1      38.234  23.765  24.210  1.00  0.00     0.163 HD
BRANCH   6   9
ATOM      9  C   UNL A   1      35.404  21.991  24.204  1.00  0.00     0.154 A 
ATOM     10  N   UNL A   1      34.187  20.267  24.722  1.00  0.00    -0.234 N 
ATOM     11  N   UNL A   1      35.458  20.659  24.438  1.00  0.00    -0.162 NA
ATOM     12  C   UNL A   1      33.380  21.356  24.824  1.00  0.00     0.048 A 
ATOM     13  C   UNL A   1      34.127  22.459  24.544  1.00  0.00     0.007 A 
ATOM     14  C   UNL A   1      32.021  21.638  25.305  1.00  0.00     0.057 C 
ATOM     15  C   UNL A   1      33.375  23.707  24.733  1.00  0.00     0.040 C 
ATOM     16  C   UNL A   1      31.919  23.170  24.979  1.00  0.00     0.011 C 
BRANCH  10  17
ATOM     17  C   UNL A   1      33.850  18.910  24.854  1.00  0.00     0.101 A 
ATOM     18  C   UNL A   1      32.872  14.754  25.398  1.00  0.00     0.044 C 
ATOM     19  C   UNL A   1      33.195  16.201  25.166  1.00  0.00    -0.048 A 
ATOM     20  C   UNL A   1      32.200  17.184  25.244  1.00  0.00     0.006 A 
ATOM     21  C   UNL A   1      34.515  16.588  24.905  1.00  0.00     0.045 A 
ATOM     22  C   UNL A   1      32.524  18.536  25.105  1.00  0.00     0.032 A 
ATOM     23  C   UNL A   1      34.834  17.932  24.727  1.00  0.00     0.149 A 
ATOM     24  F   UNL A   1      36.123  18.250  24.533  1.00  0.00    -0.205 F 
ENDBRANCH  10  17
ENDBRANCH   6   9
ENDBRANCH   4   5
ENDBRANCH   3   4
ENDBRANCH   2   3
ENDBRANCH   1   2
BRANCH   1  25
ATOM     25  C   UNL A   1      41.064  19.759  26.360  1.00  0.00     0.021 C 
BRANCH  25  26
ATOM     26  C   UNL A   1      42.414  19.971  27.016  1.00  0.00     0.116 C 
BRANCH  26  27
ATOM     27  N   UNL A   1      43.537  19.836  26.080  1.00  0.00    -0.352 N 
ATOM     28  C   UNL A   1      44.111  20.820  25.281  1.00  0.00     0.251 C 
ATOM     29  H   UNL A   1      43.933  18.938  26.010  1.00  0.00     0.163 HD
ATOM     30  O   UNL A   1      44.772  20.535  24.301  1.00  0.00    -0.269 OA
BRANCH  28  31
ATOM     31  C   UNL A   1      43.911  22.224  25.686  1.00  0.00     0.039 A 
ATOM     32  C   UNL A   1      43.051  23.109  25.030  1.00  0.00     0.014 A 
ATOM     33  C   UNL A   1      44.598  22.618  26.825  1.00  0.00     0.014 A 
ATOM     34  C   UNL A   1      42.866  24.380  25.580  1.00  0.00     0.010 A 
ATOM     35  C   UNL A   1      44.176  23.711  27.510  1.00  0.00     0.010 A 
ATOM     36  C   UNL A   1      43.441  24.663  26.828  1.00  0.00    -0.014 A 
BRANCH  36  37
ATOM     37  C   UNL A   1      43.296  25.935  27.517  1.00  0.00     0.031 A 
ATOM     38  C   UNL A   1      44.339  26.930  27.162  1.00  0.00     0.074 A 
ATOM     39  C   UNL A   1      42.141  26.246  28.156  1.00  0.00     0.049 A 
ATOM     40  N   UNL A   1      45.306  27.365  27.896  1.00  0.00    -0.248 NA
ATOM     41  C   UNL A   1      44.433  27.355  25.753  1.00  0.00     0.031 C 
ATOM     42  C   UNL A   1      40.894  25.457  28.226  1.00  0.00     0.029 A 
ATOM     43  N   UNL A   1      41.787  27.392  28.794  1.00  0.00    -0.354 N 
ATOM     44  C   UNL A   1      45.967  28.318  27.121  1.00  0.00     0.074 A 
ATOM     45  C   UNL A   1      45.548  28.088  25.767  1.00  0.00     0.031 C 
ATOM     46  C   UNL A   1      39.875  26.237  28.652  1.00  0.00     0.029 A 
ATOM     47  C   UNL A   1      40.424  27.507  29.076  1.00  0.00     0.049 A 
ATOM     48  H   UNL A   1      42.440  28.088  29.038  1.00  0.00     0.167 HD
ATOM     49  C   UNL A   1      46.572  29.396  27.699  1.00  0.00     0.037 A 
ATOM     50  C   UNL A   1      39.805  28.582  29.625  1.00  0.00     0.037 A 
ATOM     51  C   UNL A   1      46.622  29.226  29.130  1.00  0.00     0.049 A 
ATOM     52  C   UNL A   1      40.866  29.371  30.297  1.00  0.00     0.074 A 
ATOM     53  C   UNL A   1      47.341  28.449  30.011  1.00  0.00     0.029 A 
ATOM     54  N   UNL A   1      45.487  29.647  29.781  1.00  0.00    -0.354 N 
ATOM     55  N   UNL A   1      41.574  28.919  31.300  1.00  0.00    -0.248 NA
ATOM     56  C   UNL A   1      41.437  30.512  29.597  1.00  0.00     0.031 C 
ATOM     57  C   UNL A   1      46.467  28.205  31.113  1.00  0.00     0.029 A 
ATOM     58  C   UNL A   1      45.269  28.891  30.903  1.00  0.00     0.049 A 
ATOM     59  H   UNL A   1      44.913  30.388  29.483  1.00  0.00     0.167 HD
ATOM     60  C   UNL A   1      42.841  29.442  31.102  1.00  0.00     0.074 A 
ATOM     61  C   UNL A   1      42.658  30.523  30.139  1.00  0.00     0.031 C 
ATOM     62  C   UNL A   1      43.952  28.755  31.501  1.00  0.00     0.037 A 
BRANCH  49  63
ATOM     63  C   UNL A   1      46.709  30.772  27.077  1.00  0.00     0.058 A 
ATOM     64  C   UNL A   1      47.985  31.374  27.013  1.00  0.00     0.135 A 
ATOM     65  C   UNL A   1      45.626  31.632  26.793  1.00  0.00     0.135 A 
ATOM     66  F   UNL A   1      49.092  30.660  27.272  1.00  0.00    -0.206 F 
ATOM     67  C   UNL A   1      48.164  32.734  26.746  1.00  0.00     0.059 A 
ATOM     68  C   UNL A   1      45.785  32.978  26.474  1.00  0.00     0.059 A 
ATOM     69  F   UNL A   1      44.351  31.242  26.906  1.00  0.00    -0.206 F 
ATOM     70  C   UNL A   1      47.054  33.531  26.487  1.00  0.00     0.060 A 
BRANCH  70  71
ATOM     71  S   UNL A   1      47.268  35.299  26.215  1.00  0.00     0.124 S 
ATOM     72  O   UNL A   1      48.343  35.317  25.230  1.00  0.00    -0.237 OA
ATOM     73  O   UNL A   1      45.949  35.692  25.732  1.00  0.00    -0.237 OA
ATOM     74  O   UNL A   1      47.618  35.803  27.539  1.00  0.00    -0.744 OA
ENDBRANCH  70  71
ENDBRANCH  49  63
BRANCH  50  75
ATOM     75  C   UNL A   1      38.462  29.139  29.312  1.00  0.00     0.058 A 
ATOM     76  C   UNL A   1      37.545  29.478  30.323  1.00  0.00     0.135 A 
ATOM     77  C   UNL A   1      38.174  29.632  28.023  1.00  0.00     0.135 A 
ATOM     78  F   UNL A   1      37.753  29.068  31.583  1.00  0.00    -0.206 F 
ATOM     79  C   UNL A   1      36.432  30.297  30.081  1.00  0.00     0.059 A 
ATOM     80  C   UNL A   1      37.074  30.450  27.759  1.00  0.00     0.059 A 
ATOM     81  F   UNL A   1      39.015  29.406  27.001  1.00  0.00    -0.206 F 
ATOM     82  C   UNL A   1      36.218  30.798  28.797  1.00  0.00     0.060 A 
BRANCH  82  83
ATOM     83  S   UNL A   1      34.881  31.989  28.515  1.00  0.00     0.124 S 
ATOM     84  O   UNL A   1      35.529  32.972  27.654  1.00  0.00    -0.237 OA
ATOM     85  O   UNL A   1      33.859  31.162  27.882  1.00  0.00    -0.237 OA
ATOM     86  O   UNL A   1      34.555  32.457  29.860  1.00  0.00    -0.744 OA
ENDBRANCH  82  83
ENDBRANCH  50  75
BRANCH  62  87
ATOM     87  C   UNL A   1      43.784  27.680  32.541  1.00  0.00     0.058 A 
ATOM     88  C   UNL A   1      43.814  26.296  32.294  1.00  0.00     0.135 A 
ATOM     89  C   UNL A   1      43.735  28.089  33.881  1.00  0.00     0.135 A 
ATOM     90  F   UNL A   1      43.933  25.821  31.048  1.00  0.00    -0.206 F 
ATOM     91  C   UNL A   1      43.783  25.363  33.336  1.00  0.00     0.059 A 
ATOM     92  C   UNL A   1      43.732  27.181  34.933  1.00  0.00     0.059 A 
ATOM     93  F   UNL A   1      43.752  29.398  34.182  1.00  0.00    -0.206 F 
ATOM     94  C   UNL A   1      43.749  25.817  34.655  1.00  0.00     0.060 A 
BRANCH  94  95
ATOM     95  S   UNL A   1      43.801  24.621  36.008  1.00  0.00     0.124 S 
ATOM     96  O   UNL A   1      42.426  24.647  36.493  1.00  0.00    -0.237 OA
ATOM     97  O   UNL A   1      44.214  23.394  35.332  1.00  0.00    -0.237 OA
ATOM     98  O   UNL A   1      44.796  25.183  36.920  1.00  0.00    -0.744 OA
ENDBRANCH  94  95
ENDBRANCH  62  87
ENDBRANCH  36  37
ENDBRANCH  28  31
ENDBRANCH  26  27
ENDBRANCH  25  26
ENDBRANCH   1  25
TORSDOF 17
ENDMDL
