MODEL 1
REMARK VINA RESULT:     -11.4      0.000      0.000
REMARK SMILES O=C(NCCCCCCNC(=O)[C@@H](Cc1ccccc1)NC(=O)c1ccccc1[N+](=O)[O-])c1ccc(-c2c3nc(c(-c4c(F)cc(S(=O)(=O)[O-])cc4F)c4ccc([nH]4)c(-c4c(F)cc(S(=O)(=O)[O-])cc4F)c4nc(c(-c5c(F)cc(S(=O)(=O)[O-])cc5F)c5ccc2[nH]5)C=C4)C=C3)cc1
REMARK SMILES IDX 6 1 5 2 4 3 3 4 1 5 2 6 33 8 34 9 98 10 35 11 97 12 36 13
REMARK SMILES IDX 37 14 38 15 91 16 39 17 96 18 90 19 92 20 40 21 95 22 89 23
REMARK SMILES IDX 88 24 41 26 75 27 54 28 74 29 55 30 58 31 73 32 93 33 56 34
REMARK SMILES IDX 57 35 72 37 94 38 59 39 42 40 43 41 52 42 44 43 45 44 51 45
REMARK SMILES IDX 53 46 46 47 47 48 48 49 49 50 50 51 76 52 77 53 86 54 78 55
REMARK SMILES IDX 79 56 85 57 87 58 80 59 81 60 82 61 83 62 84 63 60 64 61 65
REMARK SMILES IDX 70 66 62 67 63 68 69 69 71 70 64 71 65 72 66 73 67 74 68 75
REMARK SMILES IDX 7 76 8 77 9 78 10 79 11 80 12 82 13 83 14 84 15 85 16 86
REMARK SMILES IDX 20 87 17 88 19 89 18 90 21 91 22 92 23 94 24 95 25 96 29 97
REMARK SMILES IDX 26 98 28 99 27 100 30 101 31 102 32 103
REMARK H PARENT 3 7 92 25 58 36 10 81 21 93
REMARK Flexibility Score: inf
ROOT
ATOM      1  C   UNL A   1      31.041  31.457  26.602  1.00  0.00     0.002 C 
ENDROOT
BRANCH   1   2
ATOM      2  C   UNL A   1      31.702  32.832  26.464  1.00  0.00     0.021 C 
BRANCH   2   3
ATOM      3  C   UNL A   1      32.696  33.168  27.571  1.00  0.00     0.116 C 
BRANCH   3   4
ATOM      4  N   UNL A   1      32.641  34.578  27.932  1.00  0.00    -0.352 N 
ATOM      5  O   UNL A   1      32.906  36.377  29.261  1.00  0.00    -0.269 OA
ATOM      6  C   UNL A   1      33.282  35.245  28.942  1.00  0.00     0.251 C 
ATOM      7  H   UNL A   1      32.057  35.132  27.367  1.00  0.00     0.163 HD
BRANCH   6   8
ATOM      8  C   UNL A   1      34.418  34.617  29.645  1.00  0.00     0.039 A 
ATOM      9  C   UNL A   1      34.236  34.037  30.902  1.00  0.00     0.014 A 
ATOM     10  C   UNL A   1      35.672  34.567  29.026  1.00  0.00     0.014 A 
ATOM     11  C   UNL A   1      35.327  33.527  31.595  1.00  0.00     0.010 A 
ATOM     12  C   UNL A   1      36.749  33.970  29.687  1.00  0.00     0.010 A 
ATOM     13  C   UNL A   1      36.591  33.464  30.986  1.00  0.00    -0.014 A 
BRANCH  13  14
ATOM     14  C   UNL A   1      37.705  32.791  31.702  1.00  0.00     0.031 A 
ATOM     15  C   UNL A   1      38.176  33.276  33.044  1.00  0.00     0.074 A 
ATOM     16  C   UNL A   1      38.275  31.711  31.130  1.00  0.00     0.049 A 
ATOM     17  N   UNL A   1      39.119  32.788  33.809  1.00  0.00    -0.248 NA
ATOM     18  C   UNL A   1      37.512  34.466  33.599  1.00  0.00     0.031 C 
ATOM     19  C   UNL A   1      37.908  31.162  29.821  1.00  0.00     0.029 A 
ATOM     20  N   UNL A   1      39.266  30.874  31.573  1.00  0.00    -0.354 N 
ATOM     21  C   UNL A   1      39.173  33.613  34.926  1.00  0.00     0.074 A 
ATOM     22  C   UNL A   1      38.187  34.655  34.724  1.00  0.00     0.031 C 
ATOM     23  C   UNL A   1      38.629  30.056  29.590  1.00  0.00     0.029 A 
ATOM     24  C   UNL A   1      39.555  29.854  30.698  1.00  0.00     0.049 A 
ATOM     25  H   UNL A   1      39.726  30.992  32.435  1.00  0.00     0.167 HD
ATOM     26  C   UNL A   1      39.967  33.505  36.020  1.00  0.00     0.037 A 
ATOM     27  C   UNL A   1      40.475  28.874  30.767  1.00  0.00     0.037 A 
ATOM     28  C   UNL A   1      40.941  32.459  36.208  1.00  0.00     0.049 A 
ATOM     29  C   UNL A   1      41.361  28.796  31.976  1.00  0.00     0.074 A 
ATOM     30  C   UNL A   1      41.772  32.243  37.294  1.00  0.00     0.029 A 
ATOM     31  N   UNL A   1      41.226  31.459  35.287  1.00  0.00    -0.354 N 
ATOM     32  N   UNL A   1      41.371  29.563  33.040  1.00  0.00    -0.248 NA
ATOM     33  C   UNL A   1      42.361  27.721  31.997  1.00  0.00     0.031 C 
ATOM     34  C   UNL A   1      42.594  31.147  37.008  1.00  0.00     0.029 A 
ATOM     35  C   UNL A   1      42.235  30.641  35.770  1.00  0.00     0.049 A 
ATOM     36  H   UNL A   1      40.776  31.348  34.419  1.00  0.00     0.167 HD
ATOM     37  C   UNL A   1      42.364  29.050  33.867  1.00  0.00     0.074 A 
ATOM     38  C   UNL A   1      42.917  27.897  33.186  1.00  0.00     0.031 C 
ATOM     39  C   UNL A   1      42.777  29.494  35.080  1.00  0.00     0.037 A 
BRANCH  26  40
ATOM     40  C   UNL A   1      39.831  34.552  37.093  1.00  0.00     0.058 A 
ATOM     41  C   UNL A   1      39.093  34.322  38.267  1.00  0.00     0.135 A 
ATOM     42  C   UNL A   1      40.486  35.789  36.969  1.00  0.00     0.135 A 
ATOM     43  F   UNL A   1      38.434  33.165  38.435  1.00  0.00    -0.206 F 
ATOM     44  C   UNL A   1      38.987  35.289  39.262  1.00  0.00     0.059 A 
ATOM     45  C   UNL A   1      40.417  36.759  37.964  1.00  0.00     0.059 A 
ATOM     46  F   UNL A   1      41.207  36.065  35.870  1.00  0.00    -0.206 F 
ATOM     47  C   UNL A   1      39.653  36.506  39.102  1.00  0.00     0.060 A 
BRANCH  47  48
ATOM     48  S   UNL A   1      39.505  37.748  40.403  1.00  0.00     0.124 S 
ATOM     49  O   UNL A   1      38.765  37.012  41.424  1.00  0.00    -0.237 OA
ATOM     50  O   UNL A   1      40.900  38.038  40.718  1.00  0.00    -0.237 OA
ATOM     51  O   UNL A   1      38.772  38.833  39.758  1.00  0.00    -0.744 OA
ENDBRANCH  47  48
ENDBRANCH  26  40
BRANCH  27  52
ATOM     52  C   UNL A   1      40.600  27.897  29.653  1.00  0.00     0.058 A 
ATOM     53  C   UNL A   1      39.728  26.806  29.544  1.00  0.00     0.135 A 
ATOM     54  C   UNL A   1      41.582  28.051  28.660  1.00  0.00     0.135 A 
ATOM     55  F   UNL A   1      38.775  26.613  30.470  1.00  0.00    -0.206 F 
ATOM     56  C   UNL A   1      39.832  25.891  28.501  1.00  0.00     0.059 A 
ATOM     57  C   UNL A   1      41.686  27.169  27.591  1.00  0.00     0.059 A 
ATOM     58  F   UNL A   1      42.429  29.092  28.707  1.00  0.00    -0.206 F 
ATOM     59  C   UNL A   1      40.814  26.085  27.526  1.00  0.00     0.060 A 
BRANCH  59  60
ATOM     60  S   UNL A   1      40.911  24.918  26.152  1.00  0.00     0.124 S 
ATOM     61  O   UNL A   1      39.502  24.626  25.916  1.00  0.00    -0.237 OA
ATOM     62  O   UNL A   1      41.581  25.710  25.125  1.00  0.00    -0.237 OA
ATOM     63  O   UNL A   1      41.701  23.820  26.701  1.00  0.00    -0.744 OA
ENDBRANCH  59  60
ENDBRANCH  27  52
BRANCH  39  64
ATOM     64  C   UNL A   1      43.860  28.707  35.766  1.00  0.00     0.058 A 
ATOM     65  C   UNL A   1      43.569  27.616  36.600  1.00  0.00     0.135 A 
ATOM     66  C   UNL A   1      45.212  29.030  35.558  1.00  0.00     0.135 A 
ATOM     67  F   UNL A   1      42.294  27.271  36.840  1.00  0.00    -0.206 F 
ATOM     68  C   UNL A   1      44.577  26.893  37.229  1.00  0.00     0.059 A 
ATOM     69  C   UNL A   1      46.236  28.301  36.150  1.00  0.00     0.059 A 
ATOM     70  F   UNL A   1      45.547  30.058  34.761  1.00  0.00    -0.206 F 
ATOM     71  C   UNL A   1      45.909  27.243  36.997  1.00  0.00     0.060 A 
BRANCH  71  72
ATOM     72  S   UNL A   1      47.207  26.281  37.800  1.00  0.00     0.124 S 
ATOM     73  O   UNL A   1      46.755  24.915  37.558  1.00  0.00    -0.237 OA
ATOM     74  O   UNL A   1      48.400  26.694  37.067  1.00  0.00    -0.237 OA
ATOM     75  O   UNL A   1      47.150  26.725  39.190  1.00  0.00    -0.744 OA
ENDBRANCH  71  72
ENDBRANCH  39  64
ENDBRANCH  13  14
ENDBRANCH   6   8
ENDBRANCH   3   4
ENDBRANCH   2   3
ENDBRANCH   1   2
BRANCH   1  76
ATOM     76  C   UNL A   1      31.881  30.272  26.107  1.00  0.00     0.002 C 
BRANCH  76  77
ATOM     77  C   UNL A   1      32.654  29.537  27.205  1.00  0.00     0.021 C 
BRANCH  77  78
ATOM     78  C   UNL A   1      33.846  28.728  26.695  1.00  0.00     0.116 C 
BRANCH  78  79
ATOM     79  N   UNL A   1      34.003  28.865  25.266  1.00  0.00    -0.354 N 
ATOM     80  C   UNL A   1      33.793  27.974  24.262  1.00  0.00     0.242 C 
ATOM     81  H   UNL A   1      34.313  29.750  24.969  1.00  0.00     0.163 HD
ATOM     82  O   UNL A   1      33.967  28.388  23.108  1.00  0.00    -0.273 OA
BRANCH  80  83
ATOM     83  C   UNL A   1      33.300  26.523  24.489  1.00  0.00     0.176 C 
BRANCH  83  84
ATOM     84  C   UNL A   1      34.134  25.655  25.471  1.00  0.00     0.070 C 
BRANCH  84  85
ATOM     85  C   UNL A   1      34.810  24.348  25.105  1.00  0.00    -0.045 A 
ATOM     86  C   UNL A   1      35.200  23.491  26.152  1.00  0.00     0.004 A 
ATOM     87  C   UNL A   1      35.166  23.977  23.802  1.00  0.00     0.004 A 
ATOM     88  C   UNL A   1      35.810  22.260  25.896  1.00  0.00     0.000 A 
ATOM     89  C   UNL A   1      35.738  22.726  23.540  1.00  0.00     0.000 A 
ATOM     90  C   UNL A   1      36.049  21.862  24.585  1.00  0.00     0.000 A 
ENDBRANCH  84  85
ENDBRANCH  83  84
BRANCH  83  91
ATOM     91  N   UNL A   1      31.847  26.453  24.639  1.00  0.00    -0.340 N 
ATOM     92  C   UNL A   1      30.963  25.409  24.668  1.00  0.00     0.258 C 
ATOM     93  H   UNL A   1      31.419  27.333  24.741  1.00  0.00     0.164 HD
ATOM     94  O   UNL A   1      29.760  25.662  24.704  1.00  0.00    -0.269 OA
BRANCH  92  95
ATOM     95  C   UNL A   1      31.371  23.993  24.538  1.00  0.00     0.117 A 
ATOM     96  C   UNL A   1      31.580  23.541  23.222  1.00  0.00     0.021 A 
ATOM     97  C   UNL A   1      31.499  23.066  25.572  1.00  0.00     0.282 A 
ATOM     98  C   UNL A   1      31.974  22.224  22.966  1.00  0.00     0.001 A 
ATOM     99  C   UNL A   1      31.935  21.752  25.328  1.00  0.00     0.086 A 
ATOM    100  C   UNL A   1      32.176  21.337  24.020  1.00  0.00     0.007 A 
BRANCH  97 101
ATOM    101  N   UNL A   1      31.110  23.387  26.928  1.00  0.00     0.063 N 
ATOM    102  O   UNL A   1      29.940  23.129  27.249  1.00  0.00    -0.258 OA
ATOM    103  O   UNL A   1      31.955  23.905  27.664  1.00  0.00    -0.258 OA
ENDBRANCH  97 101
ENDBRANCH  92  95
ENDBRANCH  83  91
ENDBRANCH  80  83
ENDBRANCH  78  79
ENDBRANCH  77  78
ENDBRANCH  76  77
ENDBRANCH   1  76
TORSDOF 21
ENDMDL
MODEL 2
REMARK VINA RESULT:     -11.2      2.365      8.559
REMARK SMILES O=C(NCCCCCCNC(=O)[C@@H](Cc1ccccc1)NC(=O)c1ccccc1[N+](=O)[O-])c1ccc(-c2c3nc(c(-c4c(F)cc(S(=O)(=O)[O-])cc4F)c4ccc([nH]4)c(-c4c(F)cc(S(=O)(=O)[O-])cc4F)c4nc(c(-c5c(F)cc(S(=O)(=O)[O-])cc5F)c5ccc2[nH]5)C=C4)C=C3)cc1
REMARK SMILES IDX 6 1 5 2 4 3 3 4 1 5 2 6 33 8 34 9 98 10 35 11 97 12 36 13
REMARK SMILES IDX 37 14 38 15 91 16 39 17 96 18 90 19 92 20 40 21 95 22 89 23
REMARK SMILES IDX 88 24 41 26 75 27 54 28 74 29 55 30 58 31 73 32 93 33 56 34
REMARK SMILES IDX 57 35 72 37 94 38 59 39 42 40 43 41 52 42 44 43 45 44 51 45
REMARK SMILES IDX 53 46 46 47 47 48 48 49 49 50 50 51 76 52 77 53 86 54 78 55
REMARK SMILES IDX 79 56 85 57 87 58 80 59 81 60 82 61 83 62 84 63 60 64 61 65
REMARK SMILES IDX 70 66 62 67 63 68 69 69 71 70 64 71 65 72 66 73 67 74 68 75
REMARK SMILES IDX 7 76 8 77 9 78 10 79 11 80 12 82 13 83 14 84 15 85 16 86
REMARK SMILES IDX 20 87 17 88 19 89 18 90 21 91 22 92 23 94 24 95 25 96 29 97
REMARK SMILES IDX 26 98 28 99 27 100 30 101 31 102 32 103
REMARK H PARENT 3 7 92 25 58 36 10 81 21 93
REMARK Flexibility Score: inf
ROOT
ATOM      1  C   UNL A   1      37.333  23.523  25.535  1.00  0.00     0.002 C 
ENDROOT
BRANCH   1   2
ATOM      2  C   UNL A   1      38.483  22.690  26.108  1.00  0.00     0.021 C 
BRANCH   2   3
ATOM      3  C   UNL A   1      39.509  23.492  26.902  1.00  0.00     0.116 C 
BRANCH   3   4
ATOM      4  N   UNL A   1      40.556  24.026  26.041  1.00  0.00    -0.352 N 
ATOM      5  O   UNL A   1      41.827  25.623  25.089  1.00  0.00    -0.269 OA
ATOM      6  C   UNL A   1      41.159  25.256  26.060  1.00  0.00     0.251 C 
ATOM      7  H   UNL A   1      40.876  23.412  25.342  1.00  0.00     0.163 HD
BRANCH   6   8
ATOM      8  C   UNL A   1      41.013  26.137  27.235  1.00  0.00     0.039 A 
ATOM      9  C   UNL A   1      41.847  27.246  27.393  1.00  0.00     0.014 A 
ATOM     10  C   UNL A   1      40.004  25.882  28.169  1.00  0.00     0.014 A 
ATOM     11  C   UNL A   1      41.761  28.019  28.544  1.00  0.00     0.010 A 
ATOM     12  C   UNL A   1      39.859  26.716  29.281  1.00  0.00     0.010 A 
ATOM     13  C   UNL A   1      40.751  27.780  29.490  1.00  0.00    -0.014 A 
BRANCH  13  14
ATOM     14  C   UNL A   1      40.604  28.707  30.640  1.00  0.00     0.031 A 
ATOM     15  C   UNL A   1      41.499  28.605  31.844  1.00  0.00     0.074 A 
ATOM     16  C   UNL A   1      39.659  29.666  30.575  1.00  0.00     0.049 A 
ATOM     17  N   UNL A   1      41.515  29.350  32.920  1.00  0.00    -0.248 NA
ATOM     18  C   UNL A   1      42.499  27.526  31.847  1.00  0.00     0.031 C 
ATOM     19  C   UNL A   1      38.722  29.847  29.461  1.00  0.00     0.029 A 
ATOM     20  N   UNL A   1      39.336  30.674  31.445  1.00  0.00    -0.354 N 
ATOM     21  C   UNL A   1      42.513  28.826  33.734  1.00  0.00     0.074 A 
ATOM     22  C   UNL A   1      43.059  27.679  33.040  1.00  0.00     0.031 C 
ATOM     23  C   UNL A   1      37.965  30.928  29.694  1.00  0.00     0.029 A 
ATOM     24  C   UNL A   1      38.312  31.477  31.000  1.00  0.00     0.049 A 
ATOM     25  H   UNL A   1      39.793  30.811  32.305  1.00  0.00     0.167 HD
ATOM     26  C   UNL A   1      42.937  29.269  34.943  1.00  0.00     0.037 A 
ATOM     27  C   UNL A   1      37.703  32.526  31.583  1.00  0.00     0.037 A 
ATOM     28  C   UNL A   1      42.385  30.416  35.620  1.00  0.00     0.049 A 
ATOM     29  C   UNL A   1      38.173  32.976  32.936  1.00  0.00     0.074 A 
ATOM     30  C   UNL A   1      42.766  30.964  36.833  1.00  0.00     0.029 A 
ATOM     31  N   UNL A   1      41.329  31.187  35.151  1.00  0.00    -0.354 N 
ATOM     32  N   UNL A   1      39.144  32.492  33.673  1.00  0.00    -0.248 NA
ATOM     33  C   UNL A   1      37.467  34.113  33.538  1.00  0.00     0.031 C 
ATOM     34  C   UNL A   1      41.908  32.031  37.122  1.00  0.00     0.029 A 
ATOM     35  C   UNL A   1      41.031  32.189  36.062  1.00  0.00     0.049 A 
ATOM     36  H   UNL A   1      40.863  31.043  34.297  1.00  0.00     0.167 HD
ATOM     37  C   UNL A   1      39.180  33.279  34.818  1.00  0.00     0.074 A 
ATOM     38  C   UNL A   1      38.144  34.282  34.664  1.00  0.00     0.031 C 
ATOM     39  C   UNL A   1      39.996  33.181  35.896  1.00  0.00     0.037 A 
BRANCH  26  40
ATOM     40  C   UNL A   1      44.039  28.502  35.626  1.00  0.00     0.058 A 
ATOM     41  C   UNL A   1      43.771  27.446  36.512  1.00  0.00     0.135 A 
ATOM     42  C   UNL A   1      45.386  28.799  35.356  1.00  0.00     0.135 A 
ATOM     43  F   UNL A   1      42.504  27.125  36.819  1.00  0.00    -0.206 F 
ATOM     44  C   UNL A   1      44.795  26.731  37.125  1.00  0.00     0.059 A 
ATOM     45  C   UNL A   1      46.426  28.079  35.936  1.00  0.00     0.059 A 
ATOM     46  F   UNL A   1      45.703  29.798  34.516  1.00  0.00    -0.206 F 
ATOM     47  C   UNL A   1      46.122  27.055  36.831  1.00  0.00     0.060 A 
BRANCH  47  48
ATOM     48  S   UNL A   1      47.438  26.118  37.635  1.00  0.00     0.124 S 
ATOM     49  O   UNL A   1      47.884  27.061  38.656  1.00  0.00    -0.237 OA
ATOM     50  O   UNL A   1      46.729  24.941  38.126  1.00  0.00    -0.237 OA
ATOM     51  O   UNL A   1      48.389  25.869  36.555  1.00  0.00    -0.744 OA
ENDBRANCH  47  48
ENDBRANCH  26  40
BRANCH  27  52
ATOM     52  C   UNL A   1      36.585  33.214  30.886  1.00  0.00     0.058 A 
ATOM     53  C   UNL A   1      35.260  33.070  31.321  1.00  0.00     0.135 A 
ATOM     54  C   UNL A   1      36.823  34.051  29.783  1.00  0.00     0.135 A 
ATOM     55  F   UNL A   1      34.981  32.279  32.368  1.00  0.00    -0.206 F 
ATOM     56  C   UNL A   1      34.208  33.716  30.679  1.00  0.00     0.059 A 
ATOM     57  C   UNL A   1      35.793  34.732  29.145  1.00  0.00     0.059 A 
ATOM     58  F   UNL A   1      38.076  34.239  29.339  1.00  0.00    -0.206 F 
ATOM     59  C   UNL A   1      34.486  34.549  29.594  1.00  0.00     0.060 A 
BRANCH  59  60
ATOM     60  S   UNL A   1      33.120  35.419  28.797  1.00  0.00     0.124 S 
ATOM     61  O   UNL A   1      32.386  35.930  29.950  1.00  0.00    -0.237 OA
ATOM     62  O   UNL A   1      33.819  36.415  27.992  1.00  0.00    -0.237 OA
ATOM     63  O   UNL A   1      32.451  34.367  28.037  1.00  0.00    -0.744 OA
ENDBRANCH  59  60
ENDBRANCH  27  52
BRANCH  39  64
ATOM     64  C   UNL A   1      39.825  34.209  36.981  1.00  0.00     0.058 A 
ATOM     65  C   UNL A   1      39.071  33.949  38.136  1.00  0.00     0.135 A 
ATOM     66  C   UNL A   1      40.453  35.461  36.877  1.00  0.00     0.135 A 
ATOM     67  F   UNL A   1      38.442  32.772  38.282  1.00  0.00    -0.206 F 
ATOM     68  C   UNL A   1      38.919  34.905  39.135  1.00  0.00     0.059 A 
ATOM     69  C   UNL A   1      40.342  36.420  37.878  1.00  0.00     0.059 A 
ATOM     70  F   UNL A   1      41.195  35.758  35.798  1.00  0.00    -0.206 F 
ATOM     71  C   UNL A   1      39.559  36.138  38.997  1.00  0.00     0.060 A 
BRANCH  71  72
ATOM     72  S   UNL A   1      39.374  37.361  40.311  1.00  0.00     0.124 S 
ATOM     73  O   UNL A   1      38.692  36.584  41.342  1.00  0.00    -0.237 OA
ATOM     74  O   UNL A   1      40.759  37.721  40.601  1.00  0.00    -0.237 OA
ATOM     75  O   UNL A   1      38.577  38.413  39.687  1.00  0.00    -0.744 OA
ENDBRANCH  71  72
ENDBRANCH  39  64
ENDBRANCH  13  14
ENDBRANCH   6   8
ENDBRANCH   3   4
ENDBRANCH   2   3
ENDBRANCH   1   2
BRANCH   1  76
ATOM     76  C   UNL A   1      36.467  22.815  24.484  1.00  0.00     0.002 C 
BRANCH  76  77
ATOM     77  C   UNL A   1      36.423  21.291  24.618  1.00  0.00     0.021 C 
BRANCH  77  78
ATOM     78  C   UNL A   1      35.320  20.777  25.543  1.00  0.00     0.116 C 
BRANCH  78  79
ATOM     79  N   UNL A   1      34.329  20.023  24.813  1.00  0.00    -0.354 N 
ATOM     80  C   UNL A   1      33.147  20.407  24.267  1.00  0.00     0.242 C 
ATOM     81  H   UNL A   1      34.545  19.070  24.691  1.00  0.00     0.163 HD
ATOM     82  O   UNL A   1      32.515  19.541  23.648  1.00  0.00    -0.273 OA
BRANCH  80  83
ATOM     83  C   UNL A   1      32.601  21.856  24.329  1.00  0.00     0.176 C 
BRANCH  83  84
ATOM     84  C   UNL A   1      32.198  22.501  22.975  1.00  0.00     0.070 C 
BRANCH  84  85
ATOM     85  C   UNL A   1      32.405  23.961  22.621  1.00  0.00    -0.045 A 
ATOM     86  C   UNL A   1      33.711  24.481  22.698  1.00  0.00     0.004 A 
ATOM     87  C   UNL A   1      31.372  24.858  22.319  1.00  0.00     0.004 A 
ATOM     88  C   UNL A   1      33.987  25.810  22.368  1.00  0.00     0.000 A 
ATOM     89  C   UNL A   1      31.651  26.179  21.945  1.00  0.00     0.000 A 
ATOM     90  C   UNL A   1      32.959  26.651  21.958  1.00  0.00     0.000 A 
ENDBRANCH  84  85
ENDBRANCH  83  84
BRANCH  83  91
ATOM     91  N   UNL A   1      31.666  22.045  25.438  1.00  0.00    -0.340 N 
ATOM     92  C   UNL A   1      31.345  23.127  26.212  1.00  0.00     0.258 C 
ATOM     93  H   UNL A   1      31.168  21.230  25.675  1.00  0.00     0.164 HD
ATOM     94  O   UNL A   1      30.580  22.962  27.161  1.00  0.00    -0.269 OA
BRANCH  92  95
ATOM     95  C   UNL A   1      31.960  24.461  26.040  1.00  0.00     0.117 A 
ATOM     96  C   UNL A   1      33.349  24.519  26.255  1.00  0.00     0.021 A 
ATOM     97  C   UNL A   1      31.295  25.654  25.758  1.00  0.00     0.282 A 
ATOM     98  C   UNL A   1      34.050  25.722  26.118  1.00  0.00     0.001 A 
ATOM     99  C   UNL A   1      31.996  26.859  25.578  1.00  0.00     0.086 A 
ATOM    100  C   UNL A   1      33.378  26.886  25.756  1.00  0.00     0.007 A 
BRANCH  97 101
ATOM    101  N   UNL A   1      29.850  25.724  25.721  1.00  0.00     0.063 N 
ATOM    102  O   UNL A   1      29.259  25.649  26.810  1.00  0.00    -0.258 OA
ATOM    103  O   UNL A   1      29.305  25.837  24.619  1.00  0.00    -0.258 OA
ENDBRANCH  97 101
ENDBRANCH  92  95
ENDBRANCH  83  91
ENDBRANCH  80  83
ENDBRANCH  78  79
ENDBRANCH  77  78
ENDBRANCH  76  77
ENDBRANCH   1  76
TORSDOF 21
ENDMDL
MODEL 3
REMARK VINA RESULT:     -11.1      6.382      8.495
REMARK SMILES O=C(NCCCCCCNC(=O)[C@@H](Cc1ccccc1)NC(=O)c1ccccc1[N+](=O)[O-])c1ccc(-c2c3nc(c(-c4c(F)cc(S(=O)(=O)[O-])cc4F)c4ccc([nH]4)c(-c4c(F)cc(S(=O)(=O)[O-])cc4F)c4nc(c(-c5c(F)cc(S(=O)(=O)[O-])cc5F)c5ccc2[nH]5)C=C4)C=C3)cc1
REMARK SMILES IDX 6 1 5 2 4 3 3 4 1 5 2 6 33 8 34 9 98 10 35 11 97 12 36 13
REMARK SMILES IDX 37 14 38 15 91 16 39 17 96 18 90 19 92 20 40 21 95 22 89 23
REMARK SMILES IDX 88 24 41 26 75 27 54 28 74 29 55 30 58 31 73 32 93 33 56 34
REMARK SMILES IDX 57 35 72 37 94 38 59 39 42 40 43 41 52 42 44 43 45 44 51 45
REMARK SMILES IDX 53 46 46 47 47 48 48 49 49 50 50 51 76 52 77 53 86 54 78 55
REMARK SMILES IDX 79 56 85 57 87 58 80 59 81 60 82 61 83 62 84 63 60 64 61 65
REMARK SMILES IDX 70 66 62 67 63 68 69 69 71 70 64 71 65 72 66 73 67 74 68 75
REMARK SMILES IDX 7 76 8 77 9 78 10 79 11 80 12 82 13 83 14 84 15 85 16 86
REMARK SMILES IDX 20 87 17 88 19 89 18 90 21 91 22 92 23 94 24 95 25 96 29 97
REMARK SMILES IDX 26 98 28 99 27 100 30 101 31 102 32 103
REMARK H PARENT 3 7 92 25 58 36 10 81 21 93
REMARK Flexibility Score: inf
ROOT
ATOM      1  C   UNL A   1      32.823  29.706  27.166  1.00  0.00     0.002 C 
ENDROOT
BRANCH   1   2
ATOM      2  C   UNL A   1      34.196  29.058  26.965  1.00  0.00     0.021 C 
BRANCH   2   3
ATOM      3  C   UNL A   1      35.370  29.908  27.441  1.00  0.00     0.116 C 
BRANCH   3   4
ATOM      4  N   UNL A   1      35.318  30.136  28.878  1.00  0.00    -0.352 N 
ATOM      5  O   UNL A   1      35.929  29.874  31.031  1.00  0.00    -0.269 OA
ATOM      6  C   UNL A   1      36.255  29.862  29.840  1.00  0.00     0.251 C 
ATOM      7  H   UNL A   1      34.486  30.546  29.207  1.00  0.00     0.163 HD
BRANCH   6   8
ATOM      8  C   UNL A   1      37.647  29.556  29.456  1.00  0.00     0.039 A 
ATOM      9  C   UNL A   1      38.554  29.085  30.407  1.00  0.00     0.014 A 
ATOM     10  C   UNL A   1      38.043  29.699  28.122  1.00  0.00     0.014 A 
ATOM     11  C   UNL A   1      39.883  28.884  30.058  1.00  0.00     0.010 A 
ATOM     12  C   UNL A   1      39.359  29.407  27.753  1.00  0.00     0.010 A 
ATOM     13  C   UNL A   1      40.297  29.018  28.722  1.00  0.00    -0.014 A 
BRANCH  13  14
ATOM     14  C   UNL A   1      41.693  28.665  28.359  1.00  0.00     0.031 A 
ATOM     15  C   UNL A   1      42.790  29.693  28.386  1.00  0.00     0.074 A 
ATOM     16  C   UNL A   1      41.966  27.388  28.024  1.00  0.00     0.049 A 
ATOM     17  N   UNL A   1      44.062  29.543  28.120  1.00  0.00    -0.248 NA
ATOM     18  C   UNL A   1      42.413  31.067  28.751  1.00  0.00     0.031 C 
ATOM     19  C   UNL A   1      40.975  26.310  27.949  1.00  0.00     0.029 A 
ATOM     20  N   UNL A   1      43.147  26.773  27.702  1.00  0.00    -0.354 N 
ATOM     21  C   UNL A   1      44.636  30.800  28.270  1.00  0.00     0.074 A 
ATOM     22  C   UNL A   1      43.565  31.709  28.621  1.00  0.00     0.031 C 
ATOM     23  C   UNL A   1      41.597  25.161  27.649  1.00  0.00     0.029 A 
ATOM     24  C   UNL A   1      43.015  25.429  27.445  1.00  0.00     0.049 A 
ATOM     25  H   UNL A   1      44.008  27.248  27.659  1.00  0.00     0.167 HD
ATOM     26  C   UNL A   1      45.937  31.157  28.135  1.00  0.00     0.037 A 
ATOM     27  C   UNL A   1      43.927  24.515  27.067  1.00  0.00     0.037 A 
ATOM     28  C   UNL A   1      46.993  30.238  27.788  1.00  0.00     0.049 A 
ATOM     29  C   UNL A   1      45.356  24.944  26.895  1.00  0.00     0.074 A 
ATOM     30  C   UNL A   1      48.347  30.494  27.658  1.00  0.00     0.029 A 
ATOM     31  N   UNL A   1      46.816  28.889  27.507  1.00  0.00    -0.354 N 
ATOM     32  N   UNL A   1      45.886  26.130  27.080  1.00  0.00    -0.248 NA
ATOM     33  C   UNL A   1      46.310  23.915  26.465  1.00  0.00     0.031 C 
ATOM     34  C   UNL A   1      48.980  29.315  27.246  1.00  0.00     0.029 A 
ATOM     35  C   UNL A   1      48.032  28.308  27.180  1.00  0.00     0.049 A 
ATOM     36  H   UNL A   1      45.954  28.416  27.537  1.00  0.00     0.167 HD
ATOM     37  C   UNL A   1      47.242  25.984  26.808  1.00  0.00     0.074 A 
ATOM     38  C   UNL A   1      47.449  24.591  26.466  1.00  0.00     0.031 C 
ATOM     39  C   UNL A   1      48.224  26.919  26.841  1.00  0.00     0.037 A 
BRANCH  26  40
ATOM     40  C   UNL A   1      46.294  32.605  28.343  1.00  0.00     0.058 A 
ATOM     41  C   UNL A   1      46.263  33.536  27.292  1.00  0.00     0.135 A 
ATOM     42  C   UNL A   1      46.630  33.079  29.623  1.00  0.00     0.135 A 
ATOM     43  F   UNL A   1      45.964  33.139  26.045  1.00  0.00    -0.206 F 
ATOM     44  C   UNL A   1      46.578  34.876  27.496  1.00  0.00     0.059 A 
ATOM     45  C   UNL A   1      46.920  34.420  29.855  1.00  0.00     0.059 A 
ATOM     46  F   UNL A   1      46.675  32.235  30.666  1.00  0.00    -0.206 F 
ATOM     47  C   UNL A   1      46.906  35.310  28.782  1.00  0.00     0.060 A 
BRANCH  47  48
ATOM     48  S   UNL A   1      47.311  37.051  29.029  1.00  0.00     0.124 S 
ATOM     49  O   UNL A   1      48.625  37.136  28.398  1.00  0.00    -0.237 OA
ATOM     50  O   UNL A   1      46.227  37.727  28.324  1.00  0.00    -0.237 OA
ATOM     51  O   UNL A   1      47.302  37.202  30.481  1.00  0.00    -0.744 OA
ENDBRANCH  47  48
ENDBRANCH  26  40
BRANCH  27  52
ATOM     52  C   UNL A   1      43.509  23.109  26.825  1.00  0.00     0.058 A 
ATOM     53  C   UNL A   1      43.446  22.584  25.527  1.00  0.00     0.135 A 
ATOM     54  C   UNL A   1      43.189  22.253  27.892  1.00  0.00     0.135 A 
ATOM     55  F   UNL A   1      43.739  23.362  24.473  1.00  0.00    -0.206 F 
ATOM     56  C   UNL A   1      43.063  21.268  25.291  1.00  0.00     0.059 A 
ATOM     57  C   UNL A   1      42.835  20.925  27.684  1.00  0.00     0.059 A 
ATOM     58  F   UNL A   1      43.255  22.701  29.156  1.00  0.00    -0.206 F 
ATOM     59  C   UNL A   1      42.764  20.444  26.379  1.00  0.00     0.060 A 
BRANCH  59  60
ATOM     60  S   UNL A   1      42.313  18.725  26.065  1.00  0.00     0.124 S 
ATOM     61  O   UNL A   1      43.229  18.374  24.986  1.00  0.00    -0.237 OA
ATOM     62  O   UNL A   1      42.577  18.098  27.357  1.00  0.00    -0.237 OA
ATOM     63  O   UNL A   1      40.903  18.810  25.695  1.00  0.00    -0.744 OA
ENDBRANCH  59  60
ENDBRANCH  27  52
BRANCH  39  64
ATOM     64  C   UNL A   1      49.621  26.456  26.531  1.00  0.00     0.058 A 
ATOM     65  C   UNL A   1      50.165  26.551  25.240  1.00  0.00     0.135 A 
ATOM     66  C   UNL A   1      50.439  25.939  27.550  1.00  0.00     0.135 A 
ATOM     67  F   UNL A   1      49.423  27.029  24.229  1.00  0.00    -0.206 F 
ATOM     68  C   UNL A   1      51.459  26.122  24.963  1.00  0.00     0.059 A 
ATOM     69  C   UNL A   1      51.746  25.534  27.302  1.00  0.00     0.059 A 
ATOM     70  F   UNL A   1      49.972  25.835  28.805  1.00  0.00    -0.206 F 
ATOM     71  C   UNL A   1      52.242  25.615  26.002  1.00  0.00     0.060 A 
BRANCH  71  72
ATOM     72  S   UNL A   1      53.927  25.084  25.634  1.00  0.00     0.124 S 
ATOM     73  O   UNL A   1      53.738  23.660  25.378  1.00  0.00    -0.237 OA
ATOM     74  O   UNL A   1      54.265  25.898  24.471  1.00  0.00    -0.237 OA
ATOM     75  O   UNL A   1      54.661  25.410  26.853  1.00  0.00    -0.744 OA
ENDBRANCH  71  72
ENDBRANCH  39  64
ENDBRANCH  13  14
ENDBRANCH   6   8
ENDBRANCH   3   4
ENDBRANCH   2   3
ENDBRANCH   1   2
BRANCH   1  76
ATOM     76  C   UNL A   1      31.711  28.759  27.638  1.00  0.00     0.002 C 
BRANCH  76  77
ATOM     77  C   UNL A   1      31.184  27.809  26.560  1.00  0.00     0.021 C 
BRANCH  77  78
ATOM     78  C   UNL A   1      32.087  26.604  26.295  1.00  0.00     0.116 C 
BRANCH  78  79
ATOM     79  N   UNL A   1      31.543  25.400  26.875  1.00  0.00    -0.354 N 
ATOM     80  C   UNL A   1      31.910  24.101  26.729  1.00  0.00     0.242 C 
ATOM     81  H   UNL A   1      30.777  25.543  27.477  1.00  0.00     0.163 HD
ATOM     82  O   UNL A   1      31.281  23.269  27.397  1.00  0.00    -0.273 OA
BRANCH  80  83
ATOM     83  C   UNL A   1      33.088  23.635  25.838  1.00  0.00     0.176 C 
BRANCH  83  84
ATOM     84  C   UNL A   1      34.331  23.066  26.576  1.00  0.00     0.070 C 
BRANCH  84  85
ATOM     85  C   UNL A   1      35.383  22.181  25.936  1.00  0.00    -0.045 A 
ATOM     86  C   UNL A   1      36.659  22.732  25.708  1.00  0.00     0.004 A 
ATOM     87  C   UNL A   1      35.148  20.884  25.462  1.00  0.00     0.004 A 
ATOM     88  C   UNL A   1      37.688  21.976  25.141  1.00  0.00     0.000 A 
ATOM     89  C   UNL A   1      36.188  20.110  24.935  1.00  0.00     0.000 A 
ATOM     90  C   UNL A   1      37.461  20.651  24.785  1.00  0.00     0.000 A 
ENDBRANCH  84  85
ENDBRANCH  83  84
BRANCH  83  91
ATOM     91  N   UNL A   1      32.630  22.881  24.670  1.00  0.00    -0.340 N 
ATOM     92  C   UNL A   1      31.896  23.226  23.568  1.00  0.00     0.258 C 
ATOM     93  H   UNL A   1      32.906  21.936  24.680  1.00  0.00     0.164 HD
ATOM     94  O   UNL A   1      31.569  22.338  22.782  1.00  0.00    -0.269 OA
BRANCH  92  95
ATOM     95  C   UNL A   1      31.375  24.590  23.332  1.00  0.00     0.117 A 
ATOM     96  C   UNL A   1      30.073  24.831  23.809  1.00  0.00     0.021 A 
ATOM     97  C   UNL A   1      32.013  25.615  22.635  1.00  0.00     0.282 A 
ATOM     98  C   UNL A   1      29.469  26.082  23.652  1.00  0.00     0.001 A 
ATOM     99  C   UNL A   1      31.430  26.889  22.509  1.00  0.00     0.086 A 
ATOM    100  C   UNL A   1      30.156  27.118  23.025  1.00  0.00     0.007 A 
BRANCH  97 101
ATOM    101  N   UNL A   1      33.262  25.395  21.939  1.00  0.00     0.063 N 
ATOM    102  O   UNL A   1      33.214  25.379  20.699  1.00  0.00    -0.258 OA
ATOM    103  O   UNL A   1      34.278  25.222  22.617  1.00  0.00    -0.258 OA
ENDBRANCH  97 101
ENDBRANCH  92  95
ENDBRANCH  83  91
ENDBRANCH  80  83
ENDBRANCH  78  79
ENDBRANCH  77  78
ENDBRANCH  76  77
ENDBRANCH   1  76
TORSDOF 21
ENDMDL
