MODEL 1
REMARK VINA RESULT:     -11.2      0.000      0.000
REMARK SMILES CCc1c(C(=O)NCC(=O)NCCCCCCNC(=O)c2ccc(-c3c4nc(c(-c5c(F)cc(S(=O)(=O)[O-])cc5F)c5ccc([nH]5)c(-c5c(F)cc(S(=O)(=O)[O-])cc5F)c5nc(c(-c6c(F)cc(S(=O)(=O)[O-])cc6F)c6ccc3[nH]6)C=C5)C=C4)cc2)nnn1-c1ccc(Cl)cc1
REMARK SMILES IDX 14 1 13 2 12 3 11 4 9 5 10 6 8 8 7 9 5 10 6 11 4 13 3 14
REMARK SMILES IDX 89 15 87 16 88 17 2 18 1 19 90 20 91 21 96 22 92 23 95 24
REMARK SMILES IDX 93 25 94 26 15 27 16 28 17 29 18 30 19 31 20 33 21 34 22 35
REMARK SMILES IDX 86 36 23 37 85 38 24 39 25 40 26 41 79 42 27 43 84 44 78 45
REMARK SMILES IDX 80 46 28 47 83 48 77 49 76 50 29 52 63 53 42 54 62 55 43 56
REMARK SMILES IDX 46 57 61 58 81 59 44 60 45 61 60 63 82 64 47 65 30 66 31 67
REMARK SMILES IDX 40 68 32 69 33 70 39 71 41 72 34 73 35 74 36 75 37 76 38 77
REMARK SMILES IDX 64 78 65 79 74 80 66 81 67 82 73 83 75 84 68 85 69 86 70 87
REMARK SMILES IDX 71 88 72 89 48 90 49 91 58 92 50 93 51 94 57 95 59 96 52 97
REMARK SMILES IDX 53 98 54 99 55 100 56 101
REMARK H PARENT 11 7 7 12 18 32 80 51 46 62
REMARK Flexibility Score: inf
ROOT
ATOM      1  C   UNL A   1      34.877  32.110  27.935  1.00  0.00     0.002 C 
ENDROOT
BRANCH   1   2
ATOM      2  C   UNL A   1      35.839  30.947  27.681  1.00  0.00     0.021 C 
BRANCH   2   3
ATOM      3  C   UNL A   1      35.188  29.575  27.781  1.00  0.00     0.116 C 
BRANCH   3   4
ATOM      4  N   UNL A   1      33.749  29.625  27.640  1.00  0.00    -0.355 N 
ATOM      5  C   UNL A   1      32.884  28.931  26.856  1.00  0.00     0.239 C 
ATOM      6  O   UNL A   1      31.680  29.125  27.069  1.00  0.00    -0.273 OA
ATOM      7  H   UNL A   1      33.314  30.288  28.223  1.00  0.00     0.163 HD
BRANCH   5   8
ATOM      8  C   UNL A   1      33.293  27.829  25.853  1.00  0.00     0.216 C 
BRANCH   8   9
ATOM      9  N   UNL A   1      32.930  27.862  24.456  1.00  0.00    -0.342 N 
ATOM     10  C   UNL A   1      32.699  26.948  23.466  1.00  0.00     0.274 C 
ATOM     11  O   UNL A   1      32.208  27.453  22.448  1.00  0.00    -0.267 OA
ATOM     12  H   UNL A   1      32.821  28.785  24.132  1.00  0.00     0.164 HD
BRANCH  10  13
ATOM     13  C   UNL A   1      33.062  25.519  23.466  1.00  0.00     0.174 A 
ATOM     14  C   UNL A   1      32.893  24.407  24.305  1.00  0.00     0.077 A 
ATOM     15  N   UNL A   1      33.506  23.377  23.592  1.00  0.00    -0.217 N 
ATOM     16  N   UNL A   1      33.890  25.129  22.425  1.00  0.00    -0.124 NA
ATOM     17  N   UNL A   1      34.251  23.877  22.595  1.00  0.00    -0.061 NA
BRANCH  14  18
ATOM     18  C   UNL A   1      32.319  24.267  25.680  1.00  0.00     0.055 C 
ATOM     19  C   UNL A   1      33.174  23.717  26.811  1.00  0.00     0.011 C 
ENDBRANCH  14  18
BRANCH  15  20
ATOM     20  C   UNL A   1      33.497  21.985  23.810  1.00  0.00     0.067 A 
ATOM     21  C   UNL A   1      34.580  21.397  24.478  1.00  0.00     0.030 A 
ATOM     22  C   UNL A   1      32.407  21.215  23.396  1.00  0.00     0.030 A 
ATOM     23  C   UNL A   1      34.514  20.049  24.832  1.00  0.00     0.023 A 
ATOM     24  C   UNL A   1      32.361  19.860  23.730  1.00  0.00     0.023 A 
ATOM     25  C   UNL A   1      33.400  19.291  24.468  1.00  0.00     0.041 A 
ATOM     26  Cl  UNL A   1      33.294  17.645  24.956  1.00  0.00    -0.084 Cl
ENDBRANCH  15  20
ENDBRANCH  10  13
ENDBRANCH   8   9
ENDBRANCH   5   8
ENDBRANCH   3   4
ENDBRANCH   2   3
ENDBRANCH   1   2
BRANCH   1  27
ATOM     27  C   UNL A   1      35.498  33.515  27.885  1.00  0.00     0.002 C 
BRANCH  27  28
ATOM     28  C   UNL A   1      34.708  34.639  28.571  1.00  0.00     0.021 C 
BRANCH  28  29
ATOM     29  C   UNL A   1      33.621  34.149  29.519  1.00  0.00     0.116 C 
BRANCH  29  30
ATOM     30  N   UNL A   1      33.807  34.660  30.874  1.00  0.00    -0.352 N 
ATOM     31  C   UNL A   1      34.637  34.182  31.860  1.00  0.00     0.251 C 
ATOM     32  H   UNL A   1      33.268  35.449  31.113  1.00  0.00     0.163 HD
ATOM     33  O   UNL A   1      34.406  34.459  33.043  1.00  0.00    -0.269 OA
BRANCH  31  34
ATOM     34  C   UNL A   1      35.794  33.342  31.508  1.00  0.00     0.039 A 
ATOM     35  C   UNL A   1      37.024  33.925  31.197  1.00  0.00     0.014 A 
ATOM     36  C   UNL A   1      35.642  31.953  31.479  1.00  0.00     0.014 A 
ATOM     37  C   UNL A   1      38.117  33.102  30.940  1.00  0.00     0.010 A 
ATOM     38  C   UNL A   1      36.745  31.139  31.330  1.00  0.00     0.010 A 
ATOM     39  C   UNL A   1      37.979  31.706  31.034  1.00  0.00    -0.014 A 
BRANCH  39  40
ATOM     40  C   UNL A   1      39.166  30.856  30.987  1.00  0.00     0.031 A 
ATOM     41  C   UNL A   1      39.784  30.623  32.322  1.00  0.00     0.074 A 
ATOM     42  C   UNL A   1      39.572  30.162  29.902  1.00  0.00     0.049 A 
ATOM     43  N   UNL A   1      40.887  31.117  32.776  1.00  0.00    -0.248 NA
ATOM     44  C   UNL A   1      38.996  29.904  33.339  1.00  0.00     0.031 C 
ATOM     45  C   UNL A   1      38.888  30.016  28.614  1.00  0.00     0.029 A 
ATOM     46  N   UNL A   1      40.656  29.348  29.755  1.00  0.00    -0.354 N 
ATOM     47  C   UNL A   1      41.063  30.558  34.040  1.00  0.00     0.074 A 
ATOM     48  C   UNL A   1      39.781  30.020  34.412  1.00  0.00     0.031 C 
ATOM     49  C   UNL A   1      39.447  29.001  27.916  1.00  0.00     0.029 A 
ATOM     50  C   UNL A   1      40.625  28.534  28.625  1.00  0.00     0.049 A 
ATOM     51  H   UNL A   1      41.403  29.337  30.397  1.00  0.00     0.167 HD
ATOM     52  C   UNL A   1      42.313  30.349  34.543  1.00  0.00     0.037 A 
ATOM     53  C   UNL A   1      41.490  27.534  28.309  1.00  0.00     0.037 A 
ATOM     54  C   UNL A   1      43.294  31.096  33.788  1.00  0.00     0.049 A 
ATOM     55  C   UNL A   1      42.730  27.773  29.091  1.00  0.00     0.074 A 
ATOM     56  C   UNL A   1      43.473  32.428  33.468  1.00  0.00     0.029 A 
ATOM     57  N   UNL A   1      44.074  30.391  32.903  1.00  0.00    -0.354 N 
ATOM     58  N   UNL A   1      43.535  28.781  28.893  1.00  0.00    -0.248 NA
ATOM     59  C   UNL A   1      42.846  27.131  30.391  1.00  0.00     0.031 C 
ATOM     60  C   UNL A   1      43.953  32.423  32.126  1.00  0.00     0.029 A 
ATOM     61  C   UNL A   1      44.121  31.096  31.731  1.00  0.00     0.049 A 
ATOM     62  H   UNL A   1      44.519  29.530  33.081  1.00  0.00     0.167 HD
ATOM     63  C   UNL A   1      43.919  29.178  30.164  1.00  0.00     0.074 A 
ATOM     64  C   UNL A   1      43.549  28.065  31.037  1.00  0.00     0.031 C 
ATOM     65  C   UNL A   1      44.237  30.479  30.428  1.00  0.00     0.037 A 
BRANCH  52  66
ATOM     66  C   UNL A   1      42.713  29.177  35.422  1.00  0.00     0.058 A 
ATOM     67  C   UNL A   1      43.526  29.422  36.551  1.00  0.00     0.135 A 
ATOM     68  C   UNL A   1      42.593  27.818  35.055  1.00  0.00     0.135 A 
ATOM     69  F   UNL A   1      43.709  30.672  37.007  1.00  0.00    -0.206 F 
ATOM     70  C   UNL A   1      44.247  28.415  37.193  1.00  0.00     0.059 A 
ATOM     71  C   UNL A   1      43.261  26.792  35.715  1.00  0.00     0.059 A 
ATOM     72  F   UNL A   1      41.899  27.415  33.986  1.00  0.00    -0.206 F 
ATOM     73  C   UNL A   1      44.121  27.103  36.753  1.00  0.00     0.060 A 
BRANCH  73  74
ATOM     74  S   UNL A   1      45.118  25.813  37.515  1.00  0.00     0.124 S 
ATOM     75  O   UNL A   1      46.364  25.930  36.765  1.00  0.00    -0.237 OA
ATOM     76  O   UNL A   1      45.164  26.253  38.906  1.00  0.00    -0.237 OA
ATOM     77  O   UNL A   1      44.343  24.602  37.272  1.00  0.00    -0.744 OA
ENDBRANCH  73  74
ENDBRANCH  52  66
BRANCH  53  78
ATOM     78  C   UNL A   1      41.241  26.245  27.607  1.00  0.00     0.058 A 
ATOM     79  C   UNL A   1      42.185  25.716  26.705  1.00  0.00     0.135 A 
ATOM     80  C   UNL A   1      40.230  25.361  28.030  1.00  0.00     0.135 A 
ATOM     81  F   UNL A   1      43.191  26.480  26.253  1.00  0.00    -0.206 F 
ATOM     82  C   UNL A   1      42.168  24.374  26.302  1.00  0.00     0.059 A 
ATOM     83  C   UNL A   1      40.187  24.023  27.634  1.00  0.00     0.059 A 
ATOM     84  F   UNL A   1      39.303  25.747  28.919  1.00  0.00    -0.206 F 
ATOM     85  C   UNL A   1      41.177  23.527  26.794  1.00  0.00     0.060 A 
BRANCH  85  86
ATOM     86  S   UNL A   1      41.264  21.755  26.437  1.00  0.00     0.124 S 
ATOM     87  O   UNL A   1      39.890  21.456  26.051  1.00  0.00    -0.237 OA
ATOM     88  O   UNL A   1      42.253  21.702  25.367  1.00  0.00    -0.237 OA
ATOM     89  O   UNL A   1      41.694  21.174  27.707  1.00  0.00    -0.744 OA
ENDBRANCH  85  86
ENDBRANCH  53  78
BRANCH  65  90
ATOM     90  C   UNL A   1      44.546  31.396  29.274  1.00  0.00     0.058 A 
ATOM     91  C   UNL A   1      45.751  31.417  28.549  1.00  0.00     0.135 A 
ATOM     92  C   UNL A   1      43.498  32.200  28.798  1.00  0.00     0.135 A 
ATOM     93  F   UNL A   1      46.770  30.607  28.873  1.00  0.00    -0.206 F 
ATOM     94  C   UNL A   1      45.915  32.236  27.428  1.00  0.00     0.059 A 
ATOM     95  C   UNL A   1      43.627  32.992  27.664  1.00  0.00     0.059 A 
ATOM     96  F   UNL A   1      42.303  32.182  29.413  1.00  0.00    -0.206 F 
ATOM     97  C   UNL A   1      44.846  33.019  26.992  1.00  0.00     0.060 A 
BRANCH  97  98
ATOM     98  S   UNL A   1      45.032  34.029  25.507  1.00  0.00     0.124 S 
ATOM     99  O   UNL A   1      44.121  35.137  25.775  1.00  0.00    -0.237 OA
ATOM    100  O   UNL A   1      46.454  34.359  25.523  1.00  0.00    -0.237 OA
ATOM    101  O   UNL A   1      44.622  33.132  24.429  1.00  0.00    -0.744 OA
ENDBRANCH  97  98
ENDBRANCH  65  90
ENDBRANCH  39  40
ENDBRANCH  31  34
ENDBRANCH  29  30
ENDBRANCH  28  29
ENDBRANCH  27  28
ENDBRANCH   1  27
TORSDOF 20
ENDMDL
MODEL 2
REMARK VINA RESULT:     -10.7      2.541      8.757
REMARK SMILES CCc1c(C(=O)NCC(=O)NCCCCCCNC(=O)c2ccc(-c3c4nc(c(-c5c(F)cc(S(=O)(=O)[O-])cc5F)c5ccc([nH]5)c(-c5c(F)cc(S(=O)(=O)[O-])cc5F)c5nc(c(-c6c(F)cc(S(=O)(=O)[O-])cc6F)c6ccc3[nH]6)C=C5)C=C4)cc2)nnn1-c1ccc(Cl)cc1
REMARK SMILES IDX 14 1 13 2 12 3 11 4 9 5 10 6 8 8 7 9 5 10 6 11 4 13 3 14
REMARK SMILES IDX 89 15 87 16 88 17 2 18 1 19 90 20 91 21 96 22 92 23 95 24
REMARK SMILES IDX 93 25 94 26 15 27 16 28 17 29 18 30 19 31 20 33 21 34 22 35
REMARK SMILES IDX 86 36 23 37 85 38 24 39 25 40 26 41 79 42 27 43 84 44 78 45
REMARK SMILES IDX 80 46 28 47 83 48 77 49 76 50 29 52 63 53 42 54 62 55 43 56
REMARK SMILES IDX 46 57 61 58 81 59 44 60 45 61 60 63 82 64 47 65 30 66 31 67
REMARK SMILES IDX 40 68 32 69 33 70 39 71 41 72 34 73 35 74 36 75 37 76 38 77
REMARK SMILES IDX 64 78 65 79 74 80 66 81 67 82 73 83 75 84 68 85 69 86 70 87
REMARK SMILES IDX 71 88 72 89 48 90 49 91 58 92 50 93 51 94 57 95 59 96 52 97
REMARK SMILES IDX 53 98 54 99 55 100 56 101
REMARK H PARENT 11 7 7 12 18 32 80 51 46 62
REMARK Flexibility Score: inf
ROOT
ATOM      1  C   UNL A   1      35.988  24.110  25.977  1.00  0.00     0.002 C 
ENDROOT
BRANCH   1   2
ATOM      2  C   UNL A   1      34.503  24.482  25.994  1.00  0.00     0.021 C 
BRANCH   2   3
ATOM      3  C   UNL A   1      34.174  25.743  25.207  1.00  0.00     0.116 C 
BRANCH   3   4
ATOM      4  N   UNL A   1      33.784  26.848  26.055  1.00  0.00    -0.355 N 
ATOM      5  C   UNL A   1      32.668  27.621  26.092  1.00  0.00     0.239 C 
ATOM      6  O   UNL A   1      32.587  28.415  27.039  1.00  0.00    -0.273 OA
ATOM      7  H   UNL A   1      34.456  27.084  26.735  1.00  0.00     0.163 HD
BRANCH   5   8
ATOM      8  C   UNL A   1      31.457  27.466  25.145  1.00  0.00     0.216 C 
BRANCH   8   9
ATOM      9  N   UNL A   1      31.593  27.233  23.727  1.00  0.00    -0.342 N 
ATOM     10  C   UNL A   1      31.540  26.155  22.886  1.00  0.00     0.274 C 
ATOM     11  O   UNL A   1      31.519  26.476  21.690  1.00  0.00    -0.267 OA
ATOM     12  H   UNL A   1      31.771  28.067  23.237  1.00  0.00     0.164 HD
BRANCH  10  13
ATOM     13  C   UNL A   1      31.612  24.729  23.254  1.00  0.00     0.174 A 
ATOM     14  C   UNL A   1      32.438  23.630  22.979  1.00  0.00     0.077 A 
ATOM     15  N   UNL A   1      31.864  22.606  23.734  1.00  0.00    -0.217 N 
ATOM     16  N   UNL A   1      30.535  24.263  23.992  1.00  0.00    -0.124 NA
ATOM     17  N   UNL A   1      30.642  22.963  24.153  1.00  0.00    -0.061 NA
BRANCH  14  18
ATOM     18  C   UNL A   1      33.594  23.453  22.045  1.00  0.00     0.055 C 
ATOM     19  C   UNL A   1      34.989  23.199  22.596  1.00  0.00     0.011 C 
ENDBRANCH  14  18
BRANCH  15  20
ATOM     20  C   UNL A   1      32.343  21.316  24.035  1.00  0.00     0.067 A 
ATOM     21  C   UNL A   1      32.985  21.099  25.262  1.00  0.00     0.030 A 
ATOM     22  C   UNL A   1      32.145  20.265  23.135  1.00  0.00     0.030 A 
ATOM     23  C   UNL A   1      33.328  19.800  25.634  1.00  0.00     0.023 A 
ATOM     24  C   UNL A   1      32.516  18.970  23.504  1.00  0.00     0.023 A 
ATOM     25  C   UNL A   1      33.080  18.740  24.760  1.00  0.00     0.041 A 
ATOM     26  Cl  UNL A   1      33.449  17.132  25.244  1.00  0.00    -0.084 Cl
ENDBRANCH  15  20
ENDBRANCH  10  13
ENDBRANCH   8   9
ENDBRANCH   5   8
ENDBRANCH   3   4
ENDBRANCH   2   3
ENDBRANCH   1   2
BRANCH   1  27
ATOM     27  C   UNL A   1      36.300  22.611  25.846  1.00  0.00     0.002 C 
BRANCH  27  28
ATOM     28  C   UNL A   1      37.735  22.241  25.445  1.00  0.00     0.021 C 
BRANCH  28  29
ATOM     29  C   UNL A   1      38.794  22.662  26.456  1.00  0.00     0.116 C 
BRANCH  29  30
ATOM     30  N   UNL A   1      40.106  22.104  26.137  1.00  0.00    -0.352 N 
ATOM     31  C   UNL A   1      41.304  22.764  25.999  1.00  0.00     0.251 C 
ATOM     32  H   UNL A   1      40.136  21.129  26.002  1.00  0.00     0.163 HD
ATOM     33  O   UNL A   1      42.221  22.239  25.358  1.00  0.00    -0.269 OA
BRANCH  31  34
ATOM     34  C   UNL A   1      41.490  24.092  26.608  1.00  0.00     0.039 A 
ATOM     35  C   UNL A   1      40.808  25.202  26.106  1.00  0.00     0.014 A 
ATOM     36  C   UNL A   1      42.365  24.228  27.689  1.00  0.00     0.014 A 
ATOM     37  C   UNL A   1      40.948  26.429  26.749  1.00  0.00     0.010 A 
ATOM     38  C   UNL A   1      42.421  25.414  28.389  1.00  0.00     0.010 A 
ATOM     39  C   UNL A   1      41.737  26.525  27.909  1.00  0.00    -0.014 A 
BRANCH  39  40
ATOM     40  C   UNL A   1      41.705  27.748  28.708  1.00  0.00     0.031 A 
ATOM     41  C   UNL A   1      42.772  28.722  28.346  1.00  0.00     0.074 A 
ATOM     42  C   UNL A   1      40.706  28.091  29.549  1.00  0.00     0.049 A 
ATOM     43  N   UNL A   1      43.831  29.017  29.024  1.00  0.00    -0.248 NA
ATOM     44  C   UNL A   1      42.756  29.302  26.992  1.00  0.00     0.031 C 
ATOM     45  C   UNL A   1      39.428  27.406  29.762  1.00  0.00     0.029 A 
ATOM     46  N   UNL A   1      40.581  29.199  30.334  1.00  0.00    -0.354 N 
ATOM     47  C   UNL A   1      44.479  30.017  28.301  1.00  0.00     0.074 A 
ATOM     48  C   UNL A   1      43.907  29.979  26.981  1.00  0.00     0.031 C 
ATOM     49  C   UNL A   1      38.582  28.222  30.431  1.00  0.00     0.029 A 
ATOM     50  C   UNL A   1      39.302  29.415  30.839  1.00  0.00     0.049 A 
ATOM     51  H   UNL A   1      41.338  29.799  30.528  1.00  0.00     0.167 HD
ATOM     52  C   UNL A   1      45.230  30.961  28.935  1.00  0.00     0.037 A 
ATOM     53  C   UNL A   1      38.862  30.506  31.521  1.00  0.00     0.037 A 
ATOM     54  C   UNL A   1      45.527  30.548  30.288  1.00  0.00     0.049 A 
ATOM     55  C   UNL A   1      40.063  31.191  32.062  1.00  0.00     0.074 A 
ATOM     56  C   UNL A   1      46.138  29.449  30.862  1.00  0.00     0.029 A 
ATOM     57  N   UNL A   1      44.818  31.151  31.298  1.00  0.00    -0.354 N 
ATOM     58  N   UNL A   1      40.831  30.692  32.991  1.00  0.00    -0.248 NA
ATOM     59  C   UNL A   1      40.664  32.242  31.255  1.00  0.00     0.031 C 
ATOM     60  C   UNL A   1      45.381  29.180  32.040  1.00  0.00     0.029 A 
ATOM     61  C   UNL A   1      44.410  30.174  32.167  1.00  0.00     0.049 A 
ATOM     62  H   UNL A   1      44.634  32.115  31.382  1.00  0.00     0.167 HD
ATOM     63  C   UNL A   1      42.117  31.029  32.600  1.00  0.00     0.074 A 
ATOM     64  C   UNL A   1      41.946  32.067  31.586  1.00  0.00     0.031 C 
ATOM     65  C   UNL A   1      43.181  30.238  32.926  1.00  0.00     0.037 A 
BRANCH  52  66
ATOM     66  C   UNL A   1      45.346  32.413  28.506  1.00  0.00     0.058 A 
ATOM     67  C   UNL A   1      46.634  32.977  28.361  1.00  0.00     0.135 A 
ATOM     68  C   UNL A   1      44.283  33.344  28.522  1.00  0.00     0.135 A 
ATOM     69  F   UNL A   1      47.725  32.196  28.319  1.00  0.00    -0.206 F 
ATOM     70  C   UNL A   1      46.855  34.355  28.344  1.00  0.00     0.059 A 
ATOM     71  C   UNL A   1      44.479  34.720  28.452  1.00  0.00     0.059 A 
ATOM     72  F   UNL A   1      43.009  32.985  28.697  1.00  0.00    -0.206 F 
ATOM     73  C   UNL A   1      45.768  35.219  28.410  1.00  0.00     0.060 A 
BRANCH  73  74
ATOM     74  S   UNL A   1      46.053  36.994  28.482  1.00  0.00     0.124 S 
ATOM     75  O   UNL A   1      47.226  37.064  29.346  1.00  0.00    -0.237 OA
ATOM     76  O   UNL A   1      46.271  37.321  27.077  1.00  0.00    -0.237 OA
ATOM     77  O   UNL A   1      44.813  37.509  29.054  1.00  0.00    -0.744 OA
ENDBRANCH  73  74
ENDBRANCH  52  66
BRANCH  53  78
ATOM     78  C   UNL A   1      37.523  31.157  31.514  1.00  0.00     0.058 A 
ATOM     79  C   UNL A   1      36.819  31.383  32.713  1.00  0.00     0.135 A 
ATOM     80  C   UNL A   1      37.045  31.843  30.380  1.00  0.00     0.135 A 
ATOM     81  F   UNL A   1      37.206  30.780  33.848  1.00  0.00    -0.206 F 
ATOM     82  C   UNL A   1      35.752  32.286  32.798  1.00  0.00     0.059 A 
ATOM     83  C   UNL A   1      35.978  32.741  30.440  1.00  0.00     0.059 A 
ATOM     84  F   UNL A   1      37.664  31.734  29.195  1.00  0.00    -0.206 F 
ATOM     85  C   UNL A   1      35.355  32.982  31.659  1.00  0.00     0.060 A 
BRANCH  85  86
ATOM     86  S   UNL A   1      34.114  34.291  31.803  1.00  0.00     0.124 S 
ATOM     87  O   UNL A   1      33.586  34.359  30.445  1.00  0.00    -0.237 OA
ATOM     88  O   UNL A   1      33.209  33.752  32.812  1.00  0.00    -0.237 OA
ATOM     89  O   UNL A   1      34.893  35.452  32.227  1.00  0.00    -0.744 OA
ENDBRANCH  85  86
ENDBRANCH  53  78
BRANCH  65  90
ATOM     90  C   UNL A   1      43.016  29.222  34.026  1.00  0.00     0.058 A 
ATOM     91  C   UNL A   1      43.117  29.488  35.403  1.00  0.00     0.135 A 
ATOM     92  C   UNL A   1      42.595  27.936  33.650  1.00  0.00     0.135 A 
ATOM     93  F   UNL A   1      43.415  30.716  35.853  1.00  0.00    -0.206 F 
ATOM     94  C   UNL A   1      42.851  28.502  36.359  1.00  0.00     0.059 A 
ATOM     95  C   UNL A   1      42.290  26.954  34.584  1.00  0.00     0.059 A 
ATOM     96  F   UNL A   1      42.426  27.636  32.351  1.00  0.00    -0.206 F 
ATOM     97  C   UNL A   1      42.436  27.238  35.939  1.00  0.00     0.060 A 
BRANCH  97  98
ATOM     98  S   UNL A   1      42.032  25.982  37.171  1.00  0.00     0.124 S 
ATOM     99  O   UNL A   1      42.224  24.745  36.421  1.00  0.00    -0.237 OA
ATOM    100  O   UNL A   1      43.008  26.243  38.224  1.00  0.00    -0.237 OA
ATOM    101  O   UNL A   1      40.647  26.286  37.527  1.00  0.00    -0.744 OA
ENDBRANCH  97  98
ENDBRANCH  65  90
ENDBRANCH  39  40
ENDBRANCH  31  34
ENDBRANCH  29  30
ENDBRANCH  28  29
ENDBRANCH  27  28
ENDBRANCH   1  27
TORSDOF 20
ENDMDL
MODEL 3
REMARK VINA RESULT:     -10.5      2.507      8.669
REMARK SMILES CCc1c(C(=O)NCC(=O)NCCCCCCNC(=O)c2ccc(-c3c4nc(c(-c5c(F)cc(S(=O)(=O)[O-])cc5F)c5ccc([nH]5)c(-c5c(F)cc(S(=O)(=O)[O-])cc5F)c5nc(c(-c6c(F)cc(S(=O)(=O)[O-])cc6F)c6ccc3[nH]6)C=C5)C=C4)cc2)nnn1-c1ccc(Cl)cc1
REMARK SMILES IDX 14 1 13 2 12 3 11 4 9 5 10 6 8 8 7 9 5 10 6 11 4 13 3 14
REMARK SMILES IDX 89 15 87 16 88 17 2 18 1 19 90 20 91 21 96 22 92 23 95 24
REMARK SMILES IDX 93 25 94 26 15 27 16 28 17 29 18 30 19 31 20 33 21 34 22 35
REMARK SMILES IDX 86 36 23 37 85 38 24 39 25 40 26 41 79 42 27 43 84 44 78 45
REMARK SMILES IDX 80 46 28 47 83 48 77 49 76 50 29 52 63 53 42 54 62 55 43 56
REMARK SMILES IDX 46 57 61 58 81 59 44 60 45 61 60 63 82 64 47 65 30 66 31 67
REMARK SMILES IDX 40 68 32 69 33 70 39 71 41 72 34 73 35 74 36 75 37 76 38 77
REMARK SMILES IDX 64 78 65 79 74 80 66 81 67 82 73 83 75 84 68 85 69 86 70 87
REMARK SMILES IDX 71 88 72 89 48 90 49 91 58 92 50 93 51 94 57 95 59 96 52 97
REMARK SMILES IDX 53 98 54 99 55 100 56 101
REMARK H PARENT 11 7 7 12 18 32 80 51 46 62
REMARK Flexibility Score: inf
ROOT
ATOM      1  C   UNL A   1      36.018  24.259  25.859  1.00  0.00     0.002 C 
ENDROOT
BRANCH   1   2
ATOM      2  C   UNL A   1      34.531  24.458  25.553  1.00  0.00     0.021 C 
BRANCH   2   3
ATOM      3  C   UNL A   1      34.214  25.774  24.857  1.00  0.00     0.116 C 
BRANCH   3   4
ATOM      4  N   UNL A   1      33.847  26.823  25.782  1.00  0.00    -0.355 N 
ATOM      5  C   UNL A   1      32.685  27.110  26.424  1.00  0.00     0.239 C 
ATOM      6  O   UNL A   1      32.735  28.019  27.263  1.00  0.00    -0.273 OA
ATOM      7  H   UNL A   1      34.579  27.450  25.985  1.00  0.00     0.163 HD
BRANCH   5   8
ATOM      8  C   UNL A   1      31.382  26.290  26.293  1.00  0.00     0.216 C 
BRANCH   8   9
ATOM      9  N   UNL A   1      30.643  26.181  25.058  1.00  0.00    -0.342 N 
ATOM     10  C   UNL A   1      30.440  25.225  24.101  1.00  0.00     0.274 C 
ATOM     11  O   UNL A   1      29.544  25.525  23.300  1.00  0.00    -0.267 OA
ATOM     12  H   UNL A   1      30.158  27.011  24.850  1.00  0.00     0.164 HD
BRANCH  10  13
ATOM     13  C   UNL A   1      31.222  23.994  23.887  1.00  0.00     0.174 A 
ATOM     14  C   UNL A   1      31.464  22.790  24.567  1.00  0.00     0.077 A 
ATOM     15  N   UNL A   1      32.308  22.100  23.695  1.00  0.00    -0.217 N 
ATOM     16  N   UNL A   1      32.049  24.014  22.775  1.00  0.00    -0.124 NA
ATOM     17  N   UNL A   1      32.787  22.927  22.755  1.00  0.00    -0.061 NA
BRANCH  14  18
ATOM     18  C   UNL A   1      31.067  22.309  25.927  1.00  0.00     0.055 C 
ATOM     19  C   UNL A   1      31.854  22.747  27.152  1.00  0.00     0.011 C 
ENDBRANCH  14  18
BRANCH  15  20
ATOM     20  C   UNL A   1      32.742  20.760  23.716  1.00  0.00     0.067 A 
ATOM     21  C   UNL A   1      33.834  20.413  24.524  1.00  0.00     0.030 A 
ATOM     22  C   UNL A   1      32.068  19.791  22.968  1.00  0.00     0.030 A 
ATOM     23  C   UNL A   1      34.178  19.069  24.668  1.00  0.00     0.023 A 
ATOM     24  C   UNL A   1      32.436  18.450  23.097  1.00  0.00     0.023 A 
ATOM     25  C   UNL A   1      33.469  18.093  23.965  1.00  0.00     0.041 A 
ATOM     26  Cl  UNL A   1      33.855  16.432  24.190  1.00  0.00    -0.084 Cl
ENDBRANCH  15  20
ENDBRANCH  10  13
ENDBRANCH   8   9
ENDBRANCH   5   8
ENDBRANCH   3   4
ENDBRANCH   2   3
ENDBRANCH   1   2
BRANCH   1  27
ATOM     27  C   UNL A   1      36.554  22.831  25.676  1.00  0.00     0.002 C 
BRANCH  27  28
ATOM     28  C   UNL A   1      38.041  22.697  25.320  1.00  0.00     0.021 C 
BRANCH  28  29
ATOM     29  C   UNL A   1      38.946  22.414  26.514  1.00  0.00     0.116 C 
BRANCH  29  30
ATOM     30  N   UNL A   1      40.217  21.823  26.107  1.00  0.00    -0.352 N 
ATOM     31  C   UNL A   1      41.414  22.454  25.866  1.00  0.00     0.251 C 
ATOM     32  H   UNL A   1      40.217  20.845  25.990  1.00  0.00     0.163 HD
ATOM     33  O   UNL A   1      42.270  21.898  25.167  1.00  0.00    -0.269 OA
BRANCH  31  34
ATOM     34  C   UNL A   1      41.673  23.788  26.433  1.00  0.00     0.039 A 
ATOM     35  C   UNL A   1      41.087  24.923  25.869  1.00  0.00     0.014 A 
ATOM     36  C   UNL A   1      42.521  23.905  27.537  1.00  0.00     0.014 A 
ATOM     37  C   UNL A   1      41.292  26.160  26.471  1.00  0.00     0.010 A 
ATOM     38  C   UNL A   1      42.638  25.110  28.196  1.00  0.00     0.010 A 
ATOM     39  C   UNL A   1      42.048  26.246  27.654  1.00  0.00    -0.014 A 
BRANCH  39  40
ATOM     40  C   UNL A   1      42.077  27.498  28.406  1.00  0.00     0.031 A 
ATOM     41  C   UNL A   1      43.323  28.287  28.201  1.00  0.00     0.074 A 
ATOM     42  C   UNL A   1      41.020  28.024  29.064  1.00  0.00     0.049 A 
ATOM     43  N   UNL A   1      44.294  28.457  29.036  1.00  0.00    -0.248 NA
ATOM     44  C   UNL A   1      43.610  28.796  26.849  1.00  0.00     0.031 C 
ATOM     45  C   UNL A   1      39.635  27.544  29.080  1.00  0.00     0.029 A 
ATOM     46  N   UNL A   1      40.943  29.175  29.790  1.00  0.00    -0.354 N 
ATOM     47  C   UNL A   1      45.192  29.315  28.406  1.00  0.00     0.074 A 
ATOM     48  C   UNL A   1      44.837  29.297  27.011  1.00  0.00     0.031 C 
ATOM     49  C   UNL A   1      38.828  28.506  29.582  1.00  0.00     0.029 A 
ATOM     50  C   UNL A   1      39.647  29.600  30.073  1.00  0.00     0.049 A 
ATOM     51  H   UNL A   1      41.741  29.667  30.092  1.00  0.00     0.167 HD
ATOM     52  C   UNL A   1      45.968  30.169  29.131  1.00  0.00     0.037 A 
ATOM     53  C   UNL A   1      39.275  30.775  30.647  1.00  0.00     0.037 A 
ATOM     54  C   UNL A   1      45.980  29.783  30.524  1.00  0.00     0.049 A 
ATOM     55  C   UNL A   1      40.466  31.303  31.361  1.00  0.00     0.074 A 
ATOM     56  C   UNL A   1      46.317  28.635  31.217  1.00  0.00     0.029 A 
ATOM     57  N   UNL A   1      45.219  30.532  31.389  1.00  0.00    -0.354 N 
ATOM     58  N   UNL A   1      40.992  30.744  32.415  1.00  0.00    -0.248 NA
ATOM     59  C   UNL A   1      41.340  32.215  30.638  1.00  0.00     0.031 C 
ATOM     60  C   UNL A   1      45.351  28.538  32.261  1.00  0.00     0.029 A 
ATOM     61  C   UNL A   1      44.535  29.668  32.203  1.00  0.00     0.049 A 
ATOM     62  H   UNL A   1      45.173  31.515  31.418  1.00  0.00     0.167 HD
ATOM     63  C   UNL A   1      42.360  30.869  32.233  1.00  0.00     0.074 A 
ATOM     64  C   UNL A   1      42.511  31.871  31.179  1.00  0.00     0.031 C 
ATOM     65  C   UNL A   1      43.225  29.948  32.748  1.00  0.00     0.037 A 
BRANCH  52  66
ATOM     66  C   UNL A   1      46.370  31.566  28.692  1.00  0.00     0.058 A 
ATOM     67  C   UNL A   1      45.368  32.443  28.220  1.00  0.00     0.135 A 
ATOM     68  C   UNL A   1      47.697  31.978  28.434  1.00  0.00     0.135 A 
ATOM     69  F   UNL A   1      44.068  32.170  28.415  1.00  0.00    -0.206 F 
ATOM     70  C   UNL A   1      45.657  33.577  27.459  1.00  0.00     0.059 A 
ATOM     71  C   UNL A   1      48.007  33.133  27.724  1.00  0.00     0.059 A 
ATOM     72  F   UNL A   1      48.761  31.245  28.772  1.00  0.00    -0.206 F 
ATOM     73  C   UNL A   1      46.983  33.902  27.200  1.00  0.00     0.060 A 
BRANCH  73  74
ATOM     74  S   UNL A   1      47.360  35.308  26.143  1.00  0.00     0.124 S 
ATOM     75  O   UNL A   1      46.637  36.380  26.819  1.00  0.00    -0.237 OA
ATOM     76  O   UNL A   1      48.816  35.365  26.225  1.00  0.00    -0.237 OA
ATOM     77  O   UNL A   1      46.826  34.905  24.846  1.00  0.00    -0.744 OA
ENDBRANCH  73  74
ENDBRANCH  52  66
BRANCH  53  78
ATOM     78  C   UNL A   1      38.069  31.614  30.404  1.00  0.00     0.058 A 
ATOM     79  C   UNL A   1      38.117  32.718  29.528  1.00  0.00     0.135 A 
ATOM     80  C   UNL A   1      36.783  31.177  30.775  1.00  0.00     0.135 A 
ATOM     81  F   UNL A   1      39.298  33.198  29.111  1.00  0.00    -0.206 F 
ATOM     82  C   UNL A   1      36.961  33.306  29.000  1.00  0.00     0.059 A 
ATOM     83  C   UNL A   1      35.617  31.756  30.269  1.00  0.00     0.059 A 
ATOM     84  F   UNL A   1      36.619  30.111  31.572  1.00  0.00    -0.206 F 
ATOM     85  C   UNL A   1      35.713  32.800  29.357  1.00  0.00     0.060 A 
BRANCH  85  86
ATOM     86  S   UNL A   1      34.230  33.424  28.529  1.00  0.00     0.124 S 
ATOM     87  O   UNL A   1      34.795  34.343  27.548  1.00  0.00    -0.237 OA
ATOM     88  O   UNL A   1      33.637  32.204  27.993  1.00  0.00    -0.237 OA
ATOM     89  O   UNL A   1      33.477  34.054  29.612  1.00  0.00    -0.744 OA
ENDBRANCH  85  86
ENDBRANCH  53  78
BRANCH  65  90
ATOM     90  C   UNL A   1      42.735  29.021  33.830  1.00  0.00     0.058 A 
ATOM     91  C   UNL A   1      41.939  27.880  33.626  1.00  0.00     0.135 A 
ATOM     92  C   UNL A   1      43.225  29.237  35.128  1.00  0.00     0.135 A 
ATOM     93  F   UNL A   1      41.511  27.541  32.400  1.00  0.00    -0.206 F 
ATOM     94  C   UNL A   1      41.611  27.020  34.679  1.00  0.00     0.059 A 
ATOM     95  C   UNL A   1      42.942  28.376  36.180  1.00  0.00     0.059 A 
ATOM     96  F   UNL A   1      44.036  30.279  35.376  1.00  0.00    -0.206 F 
ATOM     97  C   UNL A   1      42.120  27.276  35.952  1.00  0.00     0.060 A 
BRANCH  97  98
ATOM     98  S   UNL A   1      41.752  26.134  37.301  1.00  0.00     0.124 S 
ATOM     99  O   UNL A   1      42.839  26.403  38.236  1.00  0.00    -0.237 OA
ATOM    100  O   UNL A   1      40.425  26.565  37.731  1.00  0.00    -0.237 OA
ATOM    101  O   UNL A   1      41.792  24.821  36.659  1.00  0.00    -0.744 OA
ENDBRANCH  97  98
ENDBRANCH  65  90
ENDBRANCH  39  40
ENDBRANCH  31  34
ENDBRANCH  29  30
ENDBRANCH  28  29
ENDBRANCH  27  28
ENDBRANCH   1  27
TORSDOF 20
ENDMDL
