MODEL 1
REMARK VINA RESULT:     -13.5      0.000      0.000
REMARK SMILES Cc1ccccc1NC(=O)NC[C@@H]1CC[C@@H](C(=O)NCCCCCCNC(=O)c2ccc(-c3c4nc(c(-c5c(F)cc(S(=O)(=O)[O-])cc5F)c5ccc([nH]5)c(-c5c(F)cc(S(=O)(=O)[O-])cc5F)c5nc(c(-c6c(F)cc(S(=O)(=O)[O-])cc6F)c6ccc3[nH]6)C=C5)C=C4)cc2)O1
REMARK SMILES IDX 22 1 21 2 20 3 19 4 17 5 18 6 16 8 13 9 14 10 95 11 15 12
REMARK SMILES IDX 12 13 11 14 8 15 9 16 10 18 7 20 1 21 2 22 3 23 4 24 6 25
REMARK SMILES IDX 5 26 23 27 24 28 25 29 26 30 27 31 28 33 29 34 30 35 94 36
REMARK SMILES IDX 31 37 93 38 32 39 33 40 34 41 87 42 35 43 92 44 86 45 88 46
REMARK SMILES IDX 36 47 91 48 85 49 84 50 37 52 71 53 50 54 70 55 51 56 54 57
REMARK SMILES IDX 69 58 89 59 52 60 53 61 68 63 90 64 55 65 38 66 39 67 48 68
REMARK SMILES IDX 40 69 41 70 47 71 49 72 42 73 43 74 44 75 45 76 46 77 72 78
REMARK SMILES IDX 73 79 82 80 74 81 75 82 81 83 83 84 76 85 77 86 78 87 79 88
REMARK SMILES IDX 80 89 56 90 57 91 66 92 58 93 59 94 65 95 67 96 60 97 61 98
REMARK SMILES IDX 62 99 63 100 64 101
REMARK H PARENT 19 7 8 17 11 19 26 32 88 51 54 62
REMARK Flexibility Score: inf
ROOT
ATOM      1  C   UNL A   1      31.423  29.366  24.637  1.00  0.00     0.002 C 
ENDROOT
BRANCH   1   2
ATOM      2  C   UNL A   1      30.587  28.173  24.150  1.00  0.00     0.021 C 
BRANCH   2   3
ATOM      3  C   UNL A   1      30.731  27.853  22.661  1.00  0.00     0.116 C 
BRANCH   3   4
ATOM      4  N   UNL A   1      32.079  27.435  22.331  1.00  0.00    -0.354 N 
ATOM      5  C   UNL A   1      32.647  26.191  22.330  1.00  0.00     0.249 C 
ATOM      6  O   UNL A   1      33.836  26.112  22.011  1.00  0.00    -0.272 OA
ATOM      7  H   UNL A   1      32.684  28.164  22.064  1.00  0.00     0.163 HD
BRANCH   5   8
ATOM      8  C   UNL A   1      31.791  24.942  22.641  1.00  0.00     0.207 C 
ATOM      9  C   UNL A   1      32.597  22.864  23.405  1.00  0.00     0.138 C 
ATOM     10  C   UNL A   1      31.446  23.275  24.295  1.00  0.00     0.037 C 
ATOM     11  O   UNL A   1      32.462  23.724  22.251  1.00  0.00    -0.363 OA
ATOM     12  C   UNL A   1      31.426  24.771  24.107  1.00  0.00     0.045 C 
BRANCH   9  13
ATOM     13  C   UNL A   1      32.580  21.398  22.944  1.00  0.00     0.149 C 
BRANCH  13  14
ATOM     14  N   UNL A   1      32.528  20.437  24.034  1.00  0.00    -0.335 N 
ATOM     15  N   UNL A   1      34.175  20.644  25.789  1.00  0.00    -0.308 N 
ATOM     16  C   UNL A   1      33.101  20.146  25.187  1.00  0.00     0.319 C 
ATOM     17  H   UNL A   1      34.285  20.180  26.649  1.00  0.00     0.171 HD
ATOM     18  O   UNL A   1      32.549  19.221  25.808  1.00  0.00    -0.249 OA
ATOM     19  H   UNL A   1      31.824  19.775  23.847  1.00  0.00     0.165 HD
BRANCH  15  20
ATOM     20  C   UNL A   1      35.214  21.582  25.665  1.00  0.00     0.045 A 
ATOM     21  C   UNL A   1      36.849  19.725  24.846  1.00  0.00     0.046 C 
ATOM     22  C   UNL A   1      36.474  21.150  25.173  1.00  0.00    -0.027 A 
ATOM     23  C   UNL A   1      37.508  22.092  24.964  1.00  0.00     0.005 A 
ATOM     24  C   UNL A   1      37.327  23.438  25.250  1.00  0.00     0.000 A 
ATOM     25  C   UNL A   1      35.091  22.924  25.994  1.00  0.00     0.026 A 
ATOM     26  C   UNL A   1      36.119  23.851  25.782  1.00  0.00     0.002 A 
ENDBRANCH  15  20
ENDBRANCH  13  14
ENDBRANCH   9  13
ENDBRANCH   5   8
ENDBRANCH   3   4
ENDBRANCH   2   3
ENDBRANCH   1   2
BRANCH   1  27
ATOM     27  C   UNL A   1      32.213  29.156  25.937  1.00  0.00     0.002 C 
BRANCH  27  28
ATOM     28  C   UNL A   1      33.243  30.236  26.286  1.00  0.00     0.021 C 
BRANCH  28  29
ATOM     29  C   UNL A   1      34.169  29.831  27.430  1.00  0.00     0.116 C 
BRANCH  29  30
ATOM     30  N   UNL A   1      34.680  30.973  28.185  1.00  0.00    -0.352 N 
ATOM     31  C   UNL A   1      35.881  31.046  28.865  1.00  0.00     0.251 C 
ATOM     32  H   UNL A   1      34.108  31.775  28.213  1.00  0.00     0.163 HD
ATOM     33  O   UNL A   1      36.230  32.052  29.474  1.00  0.00    -0.269 OA
BRANCH  31  34
ATOM     34  C   UNL A   1      36.748  29.856  28.809  1.00  0.00     0.039 A 
ATOM     35  C   UNL A   1      36.965  29.124  29.980  1.00  0.00     0.014 A 
ATOM     36  C   UNL A   1      37.540  29.667  27.678  1.00  0.00     0.014 A 
ATOM     37  C   UNL A   1      38.092  28.309  30.071  1.00  0.00     0.010 A 
ATOM     38  C   UNL A   1      38.701  28.925  27.803  1.00  0.00     0.010 A 
ATOM     39  C   UNL A   1      39.008  28.286  29.015  1.00  0.00    -0.014 A 
BRANCH  39  40
ATOM     40  C   UNL A   1      40.363  27.740  29.135  1.00  0.00     0.031 A 
ATOM     41  C   UNL A   1      40.671  26.354  28.689  1.00  0.00     0.074 A 
ATOM     42  C   UNL A   1      41.375  28.519  29.586  1.00  0.00     0.049 A 
ATOM     43  N   UNL A   1      41.690  25.662  29.085  1.00  0.00    -0.248 NA
ATOM     44  C   UNL A   1      39.806  25.613  27.780  1.00  0.00     0.031 C 
ATOM     45  C   UNL A   1      42.804  28.244  29.458  1.00  0.00     0.029 A 
ATOM     46  N   UNL A   1      41.323  29.616  30.450  1.00  0.00    -0.354 N 
ATOM     47  C   UNL A   1      41.778  24.535  28.295  1.00  0.00     0.074 A 
ATOM     48  C   UNL A   1      40.545  24.525  27.541  1.00  0.00     0.031 C 
ATOM     49  C   UNL A   1      43.456  28.904  30.425  1.00  0.00     0.029 A 
ATOM     50  C   UNL A   1      42.453  29.517  31.280  1.00  0.00     0.049 A 
ATOM     51  H   UNL A   1      40.634  30.318  30.474  1.00  0.00     0.167 HD
ATOM     52  C   UNL A   1      42.936  23.809  28.269  1.00  0.00     0.037 A 
ATOM     53  C   UNL A   1      42.430  29.438  32.641  1.00  0.00     0.037 A 
ATOM     54  C   UNL A   1      43.906  24.317  29.237  1.00  0.00     0.049 A 
ATOM     55  C   UNL A   1      43.159  28.234  33.191  1.00  0.00     0.074 A 
ATOM     56  C   UNL A   1      45.004  25.155  29.115  1.00  0.00     0.029 A 
ATOM     57  N   UNL A   1      43.665  24.184  30.600  1.00  0.00    -0.354 N 
ATOM     58  N   UNL A   1      43.535  27.219  32.465  1.00  0.00    -0.248 NA
ATOM     59  C   UNL A   1      43.468  28.047  34.607  1.00  0.00     0.031 C 
ATOM     60  C   UNL A   1      45.397  25.561  30.412  1.00  0.00     0.029 A 
ATOM     61  C   UNL A   1      44.542  24.969  31.324  1.00  0.00     0.049 A 
ATOM     62  H   UNL A   1      42.968  23.612  30.993  1.00  0.00     0.167 HD
ATOM     63  C   UNL A   1      44.067  26.247  33.272  1.00  0.00     0.074 A 
ATOM     64  C   UNL A   1      44.036  26.827  34.601  1.00  0.00     0.031 C 
ATOM     65  C   UNL A   1      44.463  25.038  32.776  1.00  0.00     0.037 A 
BRANCH  52  66
ATOM     66  C   UNL A   1      43.305  22.834  27.158  1.00  0.00     0.058 A 
ATOM     67  C   UNL A   1      42.667  21.575  27.054  1.00  0.00     0.135 A 
ATOM     68  C   UNL A   1      44.324  23.042  26.209  1.00  0.00     0.135 A 
ATOM     69  F   UNL A   1      41.593  21.266  27.791  1.00  0.00    -0.206 F 
ATOM     70  C   UNL A   1      43.103  20.562  26.196  1.00  0.00     0.059 A 
ATOM     71  C   UNL A   1      44.817  22.028  25.376  1.00  0.00     0.059 A 
ATOM     72  F   UNL A   1      44.850  24.257  26.010  1.00  0.00    -0.206 F 
ATOM     73  C   UNL A   1      44.212  20.780  25.393  1.00  0.00     0.060 A 
BRANCH  73  74
ATOM     74  S   UNL A   1      44.842  19.421  24.389  1.00  0.00     0.124 S 
ATOM     75  O   UNL A   1      44.431  19.815  23.044  1.00  0.00    -0.237 OA
ATOM     76  O   UNL A   1      46.274  19.480  24.658  1.00  0.00    -0.237 OA
ATOM     77  O   UNL A   1      44.150  18.253  24.927  1.00  0.00    -0.744 OA
ENDBRANCH  73  74
ENDBRANCH  52  66
BRANCH  53  78
ATOM     78  C   UNL A   1      41.261  30.080  33.286  1.00  0.00     0.058 A 
ATOM     79  C   UNL A   1      41.262  31.480  33.404  1.00  0.00     0.135 A 
ATOM     80  C   UNL A   1      40.031  29.412  33.380  1.00  0.00     0.135 A 
ATOM     81  F   UNL A   1      42.419  32.158  33.353  1.00  0.00    -0.206 F 
ATOM     82  C   UNL A   1      40.076  32.204  33.433  1.00  0.00     0.059 A 
ATOM     83  C   UNL A   1      38.830  30.118  33.413  1.00  0.00     0.059 A 
ATOM     84  F   UNL A   1      39.977  28.078  33.260  1.00  0.00    -0.206 F 
ATOM     85  C   UNL A   1      38.868  31.513  33.362  1.00  0.00     0.060 A 
BRANCH  85  86
ATOM     86  S   UNL A   1      37.379  32.461  32.970  1.00  0.00     0.124 S 
ATOM     87  O   UNL A   1      36.458  31.418  32.536  1.00  0.00    -0.237 OA
ATOM     88  O   UNL A   1      37.086  33.073  34.263  1.00  0.00    -0.237 OA
ATOM     89  O   UNL A   1      37.835  33.379  31.933  1.00  0.00    -0.744 OA
ENDBRANCH  85  86
ENDBRANCH  53  78
BRANCH  65  90
ATOM     90  C   UNL A   1      44.891  23.847  33.597  1.00  0.00     0.058 A 
ATOM     91  C   UNL A   1      44.038  22.781  33.933  1.00  0.00     0.135 A 
ATOM     92  C   UNL A   1      46.247  23.684  33.966  1.00  0.00     0.135 A 
ATOM     93  F   UNL A   1      42.757  22.766  33.539  1.00  0.00    -0.206 F 
ATOM     94  C   UNL A   1      44.479  21.666  34.648  1.00  0.00     0.059 A 
ATOM     95  C   UNL A   1      46.720  22.558  34.635  1.00  0.00     0.059 A 
ATOM     96  F   UNL A   1      47.165  24.620  33.677  1.00  0.00    -0.206 F 
ATOM     97  C   UNL A   1      45.822  21.563  34.998  1.00  0.00     0.060 A 
BRANCH  97  98
ATOM     98  S   UNL A   1      46.424  20.104  35.872  1.00  0.00     0.124 S 
ATOM     99  O   UNL A   1      45.806  20.274  37.183  1.00  0.00    -0.237 OA
ATOM    100  O   UNL A   1      45.903  19.001  35.071  1.00  0.00    -0.237 OA
ATOM    101  O   UNL A   1      47.873  20.271  35.826  1.00  0.00    -0.744 OA
ENDBRANCH  97  98
ENDBRANCH  65  90
ENDBRANCH  39  40
ENDBRANCH  31  34
ENDBRANCH  29  30
ENDBRANCH  28  29
ENDBRANCH  27  28
ENDBRANCH   1  27
TORSDOF 19
ENDMDL
MODEL 2
REMARK VINA RESULT:     -13.0      4.593     11.343
REMARK SMILES Cc1ccccc1NC(=O)NC[C@@H]1CC[C@@H](C(=O)NCCCCCCNC(=O)c2ccc(-c3c4nc(c(-c5c(F)cc(S(=O)(=O)[O-])cc5F)c5ccc([nH]5)c(-c5c(F)cc(S(=O)(=O)[O-])cc5F)c5nc(c(-c6c(F)cc(S(=O)(=O)[O-])cc6F)c6ccc3[nH]6)C=C5)C=C4)cc2)O1
REMARK SMILES IDX 22 1 21 2 20 3 19 4 17 5 18 6 16 8 13 9 14 10 95 11 15 12
REMARK SMILES IDX 12 13 11 14 8 15 9 16 10 18 7 20 1 21 2 22 3 23 4 24 6 25
REMARK SMILES IDX 5 26 23 27 24 28 25 29 26 30 27 31 28 33 29 34 30 35 94 36
REMARK SMILES IDX 31 37 93 38 32 39 33 40 34 41 87 42 35 43 92 44 86 45 88 46
REMARK SMILES IDX 36 47 91 48 85 49 84 50 37 52 71 53 50 54 70 55 51 56 54 57
REMARK SMILES IDX 69 58 89 59 52 60 53 61 68 63 90 64 55 65 38 66 39 67 48 68
REMARK SMILES IDX 40 69 41 70 47 71 49 72 42 73 43 74 44 75 45 76 46 77 72 78
REMARK SMILES IDX 73 79 82 80 74 81 75 82 81 83 83 84 76 85 77 86 78 87 79 88
REMARK SMILES IDX 80 89 56 90 57 91 66 92 58 93 59 94 65 95 67 96 60 97 61 98
REMARK SMILES IDX 62 99 63 100 64 101
REMARK H PARENT 19 7 8 17 11 19 26 32 88 51 54 62
REMARK Flexibility Score: inf
ROOT
ATOM      1  C   UNL A   1      35.060  21.502  25.742  1.00  0.00     0.002 C 
ENDROOT
BRANCH   1   2
ATOM      2  C   UNL A   1      34.165  20.393  25.169  1.00  0.00     0.021 C 
BRANCH   2   3
ATOM      3  C   UNL A   1      33.335  20.803  23.950  1.00  0.00     0.116 C 
BRANCH   3   4
ATOM      4  N   UNL A   1      32.161  21.562  24.332  1.00  0.00    -0.354 N 
ATOM      5  C   UNL A   1      31.927  22.908  24.303  1.00  0.00     0.249 C 
ATOM      6  O   UNL A   1      30.826  23.299  24.699  1.00  0.00    -0.272 OA
ATOM      7  H   UNL A   1      31.410  21.020  24.667  1.00  0.00     0.163 HD
BRANCH   5   8
ATOM      8  C   UNL A   1      32.983  23.872  23.718  1.00  0.00     0.207 C 
ATOM      9  C   UNL A   1      32.684  26.172  23.302  1.00  0.00     0.138 C 
ATOM     10  C   UNL A   1      33.974  26.000  24.071  1.00  0.00     0.037 C 
ATOM     11  O   UNL A   1      32.388  24.839  22.825  1.00  0.00    -0.363 OA
ATOM     12  C   UNL A   1      33.755  24.674  24.754  1.00  0.00     0.045 C 
BRANCH   9  13
ATOM     13  C   UNL A   1      32.756  27.130  22.102  1.00  0.00     0.149 C 
BRANCH  13  14
ATOM     14  N   UNL A   1      31.551  27.918  21.903  1.00  0.00    -0.335 N 
ATOM     15  N   UNL A   1      30.734  29.208  23.774  1.00  0.00    -0.308 N 
ATOM     16  C   UNL A   1      30.764  28.782  22.516  1.00  0.00     0.319 C 
ATOM     17  H   UNL A   1      30.008  29.868  23.855  1.00  0.00     0.171 HD
ATOM     18  O   UNL A   1      29.876  29.263  21.792  1.00  0.00    -0.249 OA
ATOM     19  H   UNL A   1      31.200  27.748  20.999  1.00  0.00     0.165 HD
BRANCH  15  20
ATOM     20  C   UNL A   1      31.343  29.075  25.033  1.00  0.00     0.045 A 
ATOM     21  C   UNL A   1      30.258  26.728  25.358  1.00  0.00     0.046 C 
ATOM     22  C   UNL A   1      31.152  27.874  25.767  1.00  0.00    -0.027 A 
ATOM     23  C   UNL A   1      31.821  27.688  26.999  1.00  0.00     0.005 A 
ATOM     24  C   UNL A   1      32.652  28.667  27.524  1.00  0.00     0.000 A 
ATOM     25  C   UNL A   1      32.135  30.053  25.619  1.00  0.00     0.026 A 
ATOM     26  C   UNL A   1      32.795  29.859  26.838  1.00  0.00     0.002 A 
ENDBRANCH  15  20
ENDBRANCH  13  14
ENDBRANCH   9  13
ENDBRANCH   5   8
ENDBRANCH   3   4
ENDBRANCH   2   3
ENDBRANCH   1   2
BRANCH   1  27
ATOM     27  C   UNL A   1      36.096  22.104  24.782  1.00  0.00     0.002 C 
BRANCH  27  28
ATOM     28  C   UNL A   1      37.567  21.853  25.128  1.00  0.00     0.021 C 
BRANCH  28  29
ATOM     29  C   UNL A   1      38.191  22.983  25.944  1.00  0.00     0.116 C 
BRANCH  29  30
ATOM     30  N   UNL A   1      39.592  22.743  26.280  1.00  0.00    -0.352 N 
ATOM     31  C   UNL A   1      40.468  23.636  26.867  1.00  0.00     0.251 C 
ATOM     32  H   UNL A   1      39.950  21.850  26.065  1.00  0.00     0.163 HD
ATOM     33  O   UNL A   1      41.633  23.344  27.115  1.00  0.00    -0.269 OA
BRANCH  31  34
ATOM     34  C   UNL A   1      39.932  24.965  27.207  1.00  0.00     0.039 A 
ATOM     35  C   UNL A   1      40.320  26.066  26.438  1.00  0.00     0.014 A 
ATOM     36  C   UNL A   1      39.294  25.126  28.436  1.00  0.00     0.014 A 
ATOM     37  C   UNL A   1      40.214  27.345  26.984  1.00  0.00     0.010 A 
ATOM     38  C   UNL A   1      39.270  26.386  29.005  1.00  0.00     0.010 A 
ATOM     39  C   UNL A   1      39.777  27.493  28.303  1.00  0.00    -0.014 A 
BRANCH  39  40
ATOM     40  C   UNL A   1      39.940  28.729  29.072  1.00  0.00     0.031 A 
ATOM     41  C   UNL A   1      38.907  29.799  29.029  1.00  0.00     0.074 A 
ATOM     42  C   UNL A   1      41.004  28.884  29.897  1.00  0.00     0.049 A 
ATOM     43  N   UNL A   1      39.116  31.037  29.342  1.00  0.00    -0.248 NA
ATOM     44  C   UNL A   1      37.545  29.555  28.573  1.00  0.00     0.031 C 
ATOM     45  C   UNL A   1      41.142  29.882  30.955  1.00  0.00     0.029 A 
ATOM     46  N   UNL A   1      42.276  28.313  29.809  1.00  0.00    -0.354 N 
ATOM     47  C   UNL A   1      37.894  31.675  29.408  1.00  0.00     0.074 A 
ATOM     48  C   UNL A   1      36.958  30.721  28.859  1.00  0.00     0.031 C 
ATOM     49  C   UNL A   1      42.447  30.081  31.188  1.00  0.00     0.029 A 
ATOM     50  C   UNL A   1      43.184  29.312  30.199  1.00  0.00     0.049 A 
ATOM     51  H   UNL A   1      42.494  27.395  29.531  1.00  0.00     0.167 HD
ATOM     52  C   UNL A   1      37.789  32.885  30.037  1.00  0.00     0.037 A 
ATOM     53  C   UNL A   1      44.204  29.796  29.434  1.00  0.00     0.037 A 
ATOM     54  C   UNL A   1      39.099  33.383  30.456  1.00  0.00     0.049 A 
ATOM     55  C   UNL A   1      44.171  31.295  29.254  1.00  0.00     0.074 A 
ATOM     56  C   UNL A   1      39.767  33.359  31.671  1.00  0.00     0.029 A 
ATOM     57  N   UNL A   1      40.030  33.778  29.504  1.00  0.00    -0.354 N 
ATOM     58  N   UNL A   1      43.141  32.039  29.547  1.00  0.00    -0.248 NA
ATOM     59  C   UNL A   1      45.266  32.070  28.673  1.00  0.00     0.031 C 
ATOM     60  C   UNL A   1      41.119  33.702  31.438  1.00  0.00     0.029 A 
ATOM     61  C   UNL A   1      41.275  33.938  30.084  1.00  0.00     0.049 A 
ATOM     62  H   UNL A   1      39.832  33.925  28.552  1.00  0.00     0.167 HD
ATOM     63  C   UNL A   1      43.384  33.333  29.167  1.00  0.00     0.074 A 
ATOM     64  C   UNL A   1      44.742  33.309  28.658  1.00  0.00     0.031 C 
ATOM     65  C   UNL A   1      42.434  34.307  29.284  1.00  0.00     0.037 A 
BRANCH  52  66
ATOM     66  C   UNL A   1      36.478  33.470  30.543  1.00  0.00     0.058 A 
ATOM     67  C   UNL A   1      35.511  33.976  29.641  1.00  0.00     0.135 A 
ATOM     68  C   UNL A   1      36.137  33.633  31.900  1.00  0.00     0.135 A 
ATOM     69  F   UNL A   1      35.614  33.788  28.319  1.00  0.00    -0.206 F 
ATOM     70  C   UNL A   1      34.393  34.710  30.046  1.00  0.00     0.059 A 
ATOM     71  C   UNL A   1      35.054  34.409  32.333  1.00  0.00     0.059 A 
ATOM     72  F   UNL A   1      36.813  32.997  32.866  1.00  0.00    -0.206 F 
ATOM     73  C   UNL A   1      34.198  34.965  31.395  1.00  0.00     0.060 A 
BRANCH  73  74
ATOM     74  S   UNL A   1      32.825  36.023  31.892  1.00  0.00     0.124 S 
ATOM     75  O   UNL A   1      32.485  36.696  30.642  1.00  0.00    -0.237 OA
ATOM     76  O   UNL A   1      31.850  35.052  32.375  1.00  0.00    -0.237 OA
ATOM     77  O   UNL A   1      33.413  36.883  32.915  1.00  0.00    -0.744 OA
ENDBRANCH  73  74
ENDBRANCH  52  66
BRANCH  53  78
ATOM     78  C   UNL A   1      44.747  28.840  28.438  1.00  0.00     0.058 A 
ATOM     79  C   UNL A   1      44.209  28.867  27.140  1.00  0.00     0.135 A 
ATOM     80  C   UNL A   1      46.005  28.249  28.617  1.00  0.00     0.135 A 
ATOM     81  F   UNL A   1      42.992  29.394  26.928  1.00  0.00    -0.206 F 
ATOM     82  C   UNL A   1      44.963  28.487  26.037  1.00  0.00     0.059 A 
ATOM     83  C   UNL A   1      46.778  27.858  27.525  1.00  0.00     0.059 A 
ATOM     84  F   UNL A   1      46.567  28.212  29.834  1.00  0.00    -0.206 F 
ATOM     85  C   UNL A   1      46.272  28.054  26.238  1.00  0.00     0.060 A 
BRANCH  85  86
ATOM     86  S   UNL A   1      47.363  27.978  24.798  1.00  0.00     0.124 S 
ATOM     87  O   UNL A   1      47.218  26.590  24.378  1.00  0.00    -0.237 OA
ATOM     88  O   UNL A   1      46.750  28.976  23.927  1.00  0.00    -0.237 OA
ATOM     89  O   UNL A   1      48.664  28.343  25.349  1.00  0.00    -0.744 OA
ENDBRANCH  85  86
ENDBRANCH  53  78
BRANCH  65  90
ATOM     90  C   UNL A   1      42.538  35.708  28.735  1.00  0.00     0.058 A 
ATOM     91  C   UNL A   1      42.994  36.809  29.480  1.00  0.00     0.135 A 
ATOM     92  C   UNL A   1      42.295  35.957  27.363  1.00  0.00     0.135 A 
ATOM     93  F   UNL A   1      43.365  36.674  30.761  1.00  0.00    -0.206 F 
ATOM     94  C   UNL A   1      43.131  38.083  28.926  1.00  0.00     0.059 A 
ATOM     95  C   UNL A   1      42.474  37.208  26.777  1.00  0.00     0.059 A 
ATOM     96  F   UNL A   1      41.882  34.980  26.540  1.00  0.00    -0.206 F 
ATOM     97  C   UNL A   1      42.867  38.275  27.574  1.00  0.00     0.060 A 
BRANCH  97  98
ATOM     98  S   UNL A   1      43.093  39.901  26.826  1.00  0.00     0.124 S 
ATOM     99  O   UNL A   1      43.353  40.729  27.999  1.00  0.00    -0.237 OA
ATOM    100  O   UNL A   1      44.232  39.699  25.935  1.00  0.00    -0.237 OA
ATOM    101  O   UNL A   1      41.817  40.131  26.155  1.00  0.00    -0.744 OA
ENDBRANCH  97  98
ENDBRANCH  65  90
ENDBRANCH  39  40
ENDBRANCH  31  34
ENDBRANCH  29  30
ENDBRANCH  28  29
ENDBRANCH  27  28
ENDBRANCH   1  27
TORSDOF 19
ENDMDL
MODEL 3
REMARK VINA RESULT:     -13.0      4.440     11.342
REMARK SMILES Cc1ccccc1NC(=O)NC[C@@H]1CC[C@@H](C(=O)NCCCCCCNC(=O)c2ccc(-c3c4nc(c(-c5c(F)cc(S(=O)(=O)[O-])cc5F)c5ccc([nH]5)c(-c5c(F)cc(S(=O)(=O)[O-])cc5F)c5nc(c(-c6c(F)cc(S(=O)(=O)[O-])cc6F)c6ccc3[nH]6)C=C5)C=C4)cc2)O1
REMARK SMILES IDX 22 1 21 2 20 3 19 4 17 5 18 6 16 8 13 9 14 10 95 11 15 12
REMARK SMILES IDX 12 13 11 14 8 15 9 16 10 18 7 20 1 21 2 22 3 23 4 24 6 25
REMARK SMILES IDX 5 26 23 27 24 28 25 29 26 30 27 31 28 33 29 34 30 35 94 36
REMARK SMILES IDX 31 37 93 38 32 39 33 40 34 41 87 42 35 43 92 44 86 45 88 46
REMARK SMILES IDX 36 47 91 48 85 49 84 50 37 52 71 53 50 54 70 55 51 56 54 57
REMARK SMILES IDX 69 58 89 59 52 60 53 61 68 63 90 64 55 65 38 66 39 67 48 68
REMARK SMILES IDX 40 69 41 70 47 71 49 72 42 73 43 74 44 75 45 76 46 77 72 78
REMARK SMILES IDX 73 79 82 80 74 81 75 82 81 83 83 84 76 85 77 86 78 87 79 88
REMARK SMILES IDX 80 89 56 90 57 91 66 92 58 93 59 94 65 95 67 96 60 97 61 98
REMARK SMILES IDX 62 99 63 100 64 101
REMARK H PARENT 19 7 8 17 11 19 26 32 88 51 54 62
REMARK Flexibility Score: inf
ROOT
ATOM      1  C   UNL A   1      35.193  23.490  26.139  1.00  0.00     0.002 C 
ENDROOT
BRANCH   1   2
ATOM      2  C   UNL A   1      34.366  22.203  26.277  1.00  0.00     0.021 C 
BRANCH   2   3
ATOM      3  C   UNL A   1      33.091  22.164  25.432  1.00  0.00     0.116 C 
BRANCH   3   4
ATOM      4  N   UNL A   1      31.900  22.214  26.258  1.00  0.00    -0.354 N 
ATOM      5  C   UNL A   1      31.132  23.277  26.645  1.00  0.00     0.249 C 
ATOM      6  O   UNL A   1      30.161  23.039  27.368  1.00  0.00    -0.272 OA
ATOM      7  H   UNL A   1      31.594  21.340  26.594  1.00  0.00     0.163 HD
BRANCH   5   8
ATOM      8  C   UNL A   1      31.443  24.696  26.119  1.00  0.00     0.207 C 
ATOM      9  C   UNL A   1      30.774  25.582  24.040  1.00  0.00     0.138 C 
ATOM     10  C   UNL A   1      30.415  26.585  25.113  1.00  0.00     0.037 C 
ATOM     11  O   UNL A   1      31.706  24.694  24.698  1.00  0.00    -0.363 OA
ATOM     12  C   UNL A   1      30.334  25.713  26.340  1.00  0.00     0.045 C 
BRANCH   9  13
ATOM     13  C   UNL A   1      31.440  26.170  22.787  1.00  0.00     0.149 C 
BRANCH  13  14
ATOM     14  N   UNL A   1      30.896  27.454  22.375  1.00  0.00    -0.335 N 
ATOM     15  N   UNL A   1      31.642  29.419  23.565  1.00  0.00    -0.308 N 
ATOM     16  C   UNL A   1      30.992  28.747  22.621  1.00  0.00     0.319 C 
ATOM     17  H   UNL A   1      31.487  30.380  23.416  1.00  0.00     0.171 HD
ATOM     18  O   UNL A   1      30.335  29.462  21.844  1.00  0.00    -0.249 OA
ATOM     19  H   UNL A   1      30.222  27.309  21.672  1.00  0.00     0.165 HD
BRANCH  15  20
ATOM     20  C   UNL A   1      32.467  29.282  24.694  1.00  0.00     0.045 A 
ATOM     21  C   UNL A   1      31.162  31.170  25.929  1.00  0.00     0.046 C 
ATOM     22  C   UNL A   1      32.208  30.085  25.836  1.00  0.00    -0.027 A 
ATOM     23  C   UNL A   1      32.974  29.905  27.011  1.00  0.00     0.005 A 
ATOM     24  C   UNL A   1      33.996  28.968  27.070  1.00  0.00     0.000 A 
ATOM     25  C   UNL A   1      33.534  28.398  24.773  1.00  0.00     0.026 A 
ATOM     26  C   UNL A   1      34.286  28.224  25.941  1.00  0.00     0.002 A 
ENDBRANCH  15  20
ENDBRANCH  13  14
ENDBRANCH   9  13
ENDBRANCH   5   8
ENDBRANCH   3   4
ENDBRANCH   2   3
ENDBRANCH   1   2
BRANCH   1  27
ATOM     27  C   UNL A   1      36.001  23.643  24.843  1.00  0.00     0.002 C 
BRANCH  27  28
ATOM     28  C   UNL A   1      37.463  23.186  24.897  1.00  0.00     0.021 C 
BRANCH  28  29
ATOM     29  C   UNL A   1      38.001  23.071  26.321  1.00  0.00     0.116 C 
BRANCH  29  30
ATOM     30  N   UNL A   1      39.446  22.863  26.373  1.00  0.00    -0.352 N 
ATOM     31  C   UNL A   1      40.410  23.814  26.648  1.00  0.00     0.251 C 
ATOM     32  H   UNL A   1      39.767  21.949  26.194  1.00  0.00     0.163 HD
ATOM     33  O   UNL A   1      41.607  23.545  26.671  1.00  0.00    -0.269 OA
BRANCH  31  34
ATOM     34  C   UNL A   1      39.935  25.178  26.936  1.00  0.00     0.039 A 
ATOM     35  C   UNL A   1      40.492  26.249  26.232  1.00  0.00     0.014 A 
ATOM     36  C   UNL A   1      39.166  25.383  28.080  1.00  0.00     0.014 A 
ATOM     37  C   UNL A   1      40.414  27.531  26.774  1.00  0.00     0.010 A 
ATOM     38  C   UNL A   1      39.165  26.640  28.656  1.00  0.00     0.010 A 
ATOM     39  C   UNL A   1      39.832  27.708  28.033  1.00  0.00    -0.014 A 
BRANCH  39  40
ATOM     40  C   UNL A   1      39.990  28.927  28.830  1.00  0.00     0.031 A 
ATOM     41  C   UNL A   1      38.949  29.990  28.817  1.00  0.00     0.074 A 
ATOM     42  C   UNL A   1      41.057  29.070  29.653  1.00  0.00     0.049 A 
ATOM     43  N   UNL A   1      39.150  31.222  29.158  1.00  0.00    -0.248 NA
ATOM     44  C   UNL A   1      37.587  29.746  28.362  1.00  0.00     0.031 C 
ATOM     45  C   UNL A   1      41.193  30.044  30.733  1.00  0.00     0.029 A 
ATOM     46  N   UNL A   1      42.333  28.511  29.546  1.00  0.00    -0.354 N 
ATOM     47  C   UNL A   1      37.925  31.849  29.244  1.00  0.00     0.074 A 
ATOM     48  C   UNL A   1      36.992  30.901  28.678  1.00  0.00     0.031 C 
ATOM     49  C   UNL A   1      42.498  30.248  30.964  1.00  0.00     0.029 A 
ATOM     50  C   UNL A   1      43.235  29.508  29.953  1.00  0.00     0.049 A 
ATOM     51  H   UNL A   1      42.556  27.601  29.245  1.00  0.00     0.167 HD
ATOM     52  C   UNL A   1      37.814  33.043  29.902  1.00  0.00     0.037 A 
ATOM     53  C   UNL A   1      44.248  30.017  29.195  1.00  0.00     0.037 A 
ATOM     54  C   UNL A   1      39.122  33.541  30.326  1.00  0.00     0.049 A 
ATOM     55  C   UNL A   1      44.203  31.520  29.050  1.00  0.00     0.074 A 
ATOM     56  C   UNL A   1      39.796  33.494  31.536  1.00  0.00     0.029 A 
ATOM     57  N   UNL A   1      40.046  33.965  29.379  1.00  0.00    -0.354 N 
ATOM     58  N   UNL A   1      43.169  32.249  29.366  1.00  0.00    -0.248 NA
ATOM     59  C   UNL A   1      45.289  32.316  28.483  1.00  0.00     0.031 C 
ATOM     60  C   UNL A   1      41.145  33.853  31.305  1.00  0.00     0.029 A 
ATOM     61  C   UNL A   1      41.292  34.121  29.956  1.00  0.00     0.049 A 
ATOM     62  H   UNL A   1      39.841  34.133  28.431  1.00  0.00     0.167 HD
ATOM     63  C   UNL A   1      43.401  33.553  29.015  1.00  0.00     0.074 A 
ATOM     64  C   UNL A   1      44.756  33.551  28.499  1.00  0.00     0.031 C 
ATOM     65  C   UNL A   1      42.444  34.516  29.159  1.00  0.00     0.037 A 
BRANCH  52  66
ATOM     66  C   UNL A   1      36.501  33.607  30.428  1.00  0.00     0.058 A 
ATOM     67  C   UNL A   1      35.535  34.146  29.545  1.00  0.00     0.135 A 
ATOM     68  C   UNL A   1      36.158  33.716  31.790  1.00  0.00     0.135 A 
ATOM     69  F   UNL A   1      35.640  34.009  28.217  1.00  0.00    -0.206 F 
ATOM     70  C   UNL A   1      34.415  34.862  29.976  1.00  0.00     0.059 A 
ATOM     71  C   UNL A   1      35.073  34.474  32.251  1.00  0.00     0.059 A 
ATOM     72  F   UNL A   1      36.832  33.044  32.732  1.00  0.00    -0.206 F 
ATOM     73  C   UNL A   1      34.217  35.064  31.333  1.00  0.00     0.060 A 
BRANCH  73  74
ATOM     74  S   UNL A   1      32.842  36.100  31.869  1.00  0.00     0.124 S 
ATOM     75  O   UNL A   1      32.343  36.629  30.603  1.00  0.00    -0.237 OA
ATOM     76  O   UNL A   1      31.976  35.137  32.539  1.00  0.00    -0.237 OA
ATOM     77  O   UNL A   1      33.479  37.085  32.740  1.00  0.00    -0.744 OA
ENDBRANCH  73  74
ENDBRANCH  52  66
BRANCH  53  78
ATOM     78  C   UNL A   1      44.792  29.089  28.174  1.00  0.00     0.058 A 
ATOM     79  C   UNL A   1      45.814  28.208  28.565  1.00  0.00     0.135 A 
ATOM     80  C   UNL A   1      44.062  28.779  27.018  1.00  0.00     0.135 A 
ATOM     81  F   UNL A   1      46.561  28.482  29.647  1.00  0.00    -0.206 F 
ATOM     82  C   UNL A   1      45.986  26.978  27.941  1.00  0.00     0.059 A 
ATOM     83  C   UNL A   1      44.220  27.553  26.375  1.00  0.00     0.059 A 
ATOM     84  F   UNL A   1      43.066  29.582  26.613  1.00  0.00    -0.206 F 
ATOM     85  C   UNL A   1      45.133  26.634  26.895  1.00  0.00     0.060 A 
BRANCH  85  86
ATOM     86  S   UNL A   1      45.082  24.898  26.389  1.00  0.00     0.124 S 
ATOM     87  O   UNL A   1      46.487  24.617  26.120  1.00  0.00    -0.237 OA
ATOM     88  O   UNL A   1      44.523  24.272  27.583  1.00  0.00    -0.237 OA
ATOM     89  O   UNL A   1      44.203  24.919  25.224  1.00  0.00    -0.744 OA
ENDBRANCH  85  86
ENDBRANCH  53  78
BRANCH  65  90
ATOM     90  C   UNL A   1      42.535  35.931  28.642  1.00  0.00     0.058 A 
ATOM     91  C   UNL A   1      42.052  36.339  27.387  1.00  0.00     0.135 A 
ATOM     92  C   UNL A   1      43.009  36.968  29.481  1.00  0.00     0.135 A 
ATOM     93  F   UNL A   1      41.473  35.467  26.549  1.00  0.00    -0.206 F 
ATOM     94  C   UNL A   1      42.102  37.668  26.961  1.00  0.00     0.059 A 
ATOM     95  C   UNL A   1      43.022  38.307  29.096  1.00  0.00     0.059 A 
ATOM     96  F   UNL A   1      43.472  36.710  30.714  1.00  0.00    -0.206 F 
ATOM     97  C   UNL A   1      42.590  38.646  27.821  1.00  0.00     0.060 A 
BRANCH  97  98
ATOM     98  S   UNL A   1      42.611  40.376  27.312  1.00  0.00     0.124 S 
ATOM     99  O   UNL A   1      41.186  40.653  27.161  1.00  0.00    -0.237 OA
ATOM    100  O   UNL A   1      43.264  41.043  28.435  1.00  0.00    -0.237 OA
ATOM    101  O   UNL A   1      43.386  40.344  26.077  1.00  0.00    -0.744 OA
ENDBRANCH  97  98
ENDBRANCH  65  90
ENDBRANCH  39  40
ENDBRANCH  31  34
ENDBRANCH  29  30
ENDBRANCH  28  29
ENDBRANCH  27  28
ENDBRANCH   1  27
TORSDOF 19
ENDMDL
