MODEL 1
REMARK VINA RESULT:     -14.3      0.000      0.000
REMARK SMILES Cc1c(NC(=O)c2cccc(-c3cc4ccccc4oc3=O)c2)cccc1C(=O)NCCCCCCNC(=O)c1ccc(-c2c3nc(c(-c4c(F)cc(S(=O)(=O)[O-])cc4F)c4ccc([nH]4)c(-c4c(F)cc(S(=O)(=O)[O-])cc4F)c4nc(c(-c5c(F)cc(S(=O)(=O)[O-])cc5F)c5ccc2[nH]5)C=C4)C=C3)cc1
REMARK SMILES IDX 33 1 32 2 31 3 30 4 28 5 29 6 27 8 1 9 2 10 3 11 24 12 26 13
REMARK SMILES IDX 25 14 4 15 5 16 6 18 7 19 8 20 23 21 9 22 11 23 10 24 12 25
REMARK SMILES IDX 13 26 21 27 14 28 20 29 22 30 15 31 19 32 16 33 18 34 17 35
REMARK SMILES IDX 34 36 35 37 36 38 37 39 38 40 39 42 40 43 41 44 105 45 42 46
REMARK SMILES IDX 104 47 43 48 44 49 45 50 98 51 46 52 103 53 97 54 99 55
REMARK SMILES IDX 47 56 102 57 96 58 95 59 48 61 82 62 61 63 81 64 62 65 65 66
REMARK SMILES IDX 80 67 100 68 63 69 64 70 79 72 101 73 66 74 49 75 50 76
REMARK SMILES IDX 59 77 51 78 52 79 58 80 60 81 53 82 54 83 55 84 56 85 57 86
REMARK SMILES IDX 83 87 84 88 93 89 85 90 86 91 92 92 94 93 87 94 88 95 89 96
REMARK SMILES IDX 90 97 91 98 67 99 68 100 77 101 69 102 70 103 76 104 78 105
REMARK SMILES IDX 71 106 72 107 73 108 74 109 75 110
REMARK H PARENT 30 7 4 17 37 41 99 60 65 71
REMARK Flexibility Score: inf
ROOT
ATOM      1  C   UNL A   1      35.164  23.368  23.010  1.00  0.00     0.002 C 
ENDROOT
BRANCH   1   2
ATOM      2  C   UNL A   1      33.663  23.328  22.697  1.00  0.00     0.021 C 
BRANCH   2   3
ATOM      3  C   UNL A   1      33.252  23.848  21.307  1.00  0.00     0.116 C 
BRANCH   3   4
ATOM      4  N   UNL A   1      33.006  25.277  21.354  1.00  0.00    -0.352 N 
ATOM      5  C   UNL A   1      32.773  26.224  22.310  1.00  0.00     0.251 C 
ATOM      6  O   UNL A   1      32.614  27.367  21.857  1.00  0.00    -0.269 OA
ATOM      7  H   UNL A   1      33.007  25.672  20.451  1.00  0.00     0.163 HD
BRANCH   5   8
ATOM      8  C   UNL A   1      32.711  26.071  23.808  1.00  0.00     0.044 A 
ATOM      9  C   UNL A   1      30.615  24.610  24.063  1.00  0.00     0.047 C 
ATOM     10  C   UNL A   1      31.773  25.388  24.619  1.00  0.00    -0.015 A 
ATOM     11  C   UNL A   1      31.842  25.533  26.038  1.00  0.00     0.045 A 
ATOM     12  C   UNL A   1      32.785  26.375  26.633  1.00  0.00     0.026 A 
ATOM     13  C   UNL A   1      33.658  26.901  24.463  1.00  0.00     0.014 A 
ATOM     14  C   UNL A   1      33.688  27.067  25.846  1.00  0.00     0.003 A 
BRANCH  11  15
ATOM     15  N   UNL A   1      30.960  24.794  26.856  1.00  0.00    -0.322 N 
ATOM     16  C   UNL A   1      30.806  23.434  27.018  1.00  0.00     0.255 C 
ATOM     17  H   UNL A   1      30.352  25.343  27.403  1.00  0.00     0.170 HD
ATOM     18  O   UNL A   1      29.728  22.997  27.420  1.00  0.00    -0.269 OA
BRANCH  16  19
ATOM     19  C   UNL A   1      31.953  22.490  26.864  1.00  0.00     0.040 A 
ATOM     20  C   UNL A   1      32.942  22.469  27.855  1.00  0.00     0.014 A 
ATOM     21  C   UNL A   1      32.151  21.744  25.693  1.00  0.00     0.022 A 
ATOM     22  C   UNL A   1      34.088  21.690  27.692  1.00  0.00     0.001 A 
ATOM     23  C   UNL A   1      33.292  20.945  25.519  1.00  0.00    -0.010 A 
ATOM     24  C   UNL A   1      34.259  20.928  26.534  1.00  0.00     0.009 A 
BRANCH  23  25
ATOM     25  C   UNL A   1      33.579  20.214  24.257  1.00  0.00     0.068 A 
ATOM     26  C   UNL A   1      34.532  19.260  24.166  1.00  0.00     0.028 A 
ATOM     27  C   UNL A   1      32.362  19.836  23.470  1.00  0.00     0.344 A 
ATOM     28  C   UNL A   1      34.044  17.929  24.593  1.00  0.00     0.018 A 
ATOM     29  O   UNL A   1      31.832  18.593  23.822  1.00  0.00    -0.422 OA
ATOM     30  O   UNL A   1      31.845  20.596  22.661  1.00  0.00    -0.246 OA
ATOM     31  C   UNL A   1      34.885  16.960  25.129  1.00  0.00     0.012 A 
ATOM     32  C   UNL A   1      32.672  17.669  24.481  1.00  0.00     0.138 A 
ATOM     33  C   UNL A   1      34.335  15.761  25.591  1.00  0.00     0.001 A 
ATOM     34  C   UNL A   1      32.112  16.499  24.977  1.00  0.00     0.048 A 
ATOM     35  C   UNL A   1      32.954  15.544  25.545  1.00  0.00     0.004 A 
ENDBRANCH  23  25
ENDBRANCH  16  19
ENDBRANCH  11  15
ENDBRANCH   5   8
ENDBRANCH   3   4
ENDBRANCH   2   3
ENDBRANCH   1   2
BRANCH   1  36
ATOM     36  C   UNL A   1      35.556  23.720  24.453  1.00  0.00     0.002 C 
BRANCH  36  37
ATOM     37  C   UNL A   1      36.753  22.957  25.023  1.00  0.00     0.021 C 
BRANCH  37  38
ATOM     38  C   UNL A   1      37.978  23.831  25.266  1.00  0.00     0.116 C 
BRANCH  38  39
ATOM     39  N   UNL A   1      38.883  23.274  26.259  1.00  0.00    -0.352 N 
ATOM     40  C   UNL A   1      39.970  23.962  26.768  1.00  0.00     0.251 C 
ATOM     41  H   UNL A   1      38.713  22.360  26.585  1.00  0.00     0.163 HD
ATOM     42  O   UNL A   1      41.076  23.468  26.950  1.00  0.00    -0.269 OA
BRANCH  40  43
ATOM     43  C   UNL A   1      39.684  25.346  27.193  1.00  0.00     0.039 A 
ATOM     44  C   UNL A   1      40.329  26.393  26.528  1.00  0.00     0.014 A 
ATOM     45  C   UNL A   1      38.986  25.562  28.380  1.00  0.00     0.014 A 
ATOM     46  C   UNL A   1      40.385  27.650  27.126  1.00  0.00     0.010 A 
ATOM     47  C   UNL A   1      39.102  26.791  29.002  1.00  0.00     0.010 A 
ATOM     48  C   UNL A   1      39.831  27.826  28.396  1.00  0.00    -0.014 A 
BRANCH  48  49
ATOM     49  C   UNL A   1      40.029  29.027  29.206  1.00  0.00     0.031 A 
ATOM     50  C   UNL A   1      38.973  30.067  29.286  1.00  0.00     0.074 A 
ATOM     51  C   UNL A   1      41.148  29.158  29.953  1.00  0.00     0.049 A 
ATOM     52  N   UNL A   1      39.157  31.267  29.726  1.00  0.00    -0.248 NA
ATOM     53  C   UNL A   1      37.609  29.828  28.826  1.00  0.00     0.031 C 
ATOM     54  C   UNL A   1      41.379  30.101  31.042  1.00  0.00     0.029 A 
ATOM     55  N   UNL A   1      42.402  28.593  29.709  1.00  0.00    -0.354 N 
ATOM     56  C   UNL A   1      37.930  31.882  29.821  1.00  0.00     0.074 A 
ATOM     57  C   UNL A   1      36.998  30.947  29.230  1.00  0.00     0.031 C 
ATOM     58  C   UNL A   1      42.701  30.261  31.203  1.00  0.00     0.029 A 
ATOM     59  C   UNL A   1      43.360  29.541  30.128  1.00  0.00     0.049 A 
ATOM     60  H   UNL A   1      42.582  27.707  29.320  1.00  0.00     0.167 HD
ATOM     61  C   UNL A   1      37.815  33.076  30.471  1.00  0.00     0.037 A 
ATOM     62  C   UNL A   1      44.225  30.097  29.228  1.00  0.00     0.037 A 
ATOM     63  C   UNL A   1      39.113  33.602  30.877  1.00  0.00     0.049 A 
ATOM     64  C   UNL A   1      44.063  31.592  29.035  1.00  0.00     0.074 A 
ATOM     65  C   UNL A   1      39.855  33.554  32.045  1.00  0.00     0.029 A 
ATOM     66  N   UNL A   1      39.972  34.067  29.897  1.00  0.00    -0.354 N 
ATOM     67  N   UNL A   1      43.168  32.324  29.638  1.00  0.00    -0.248 NA
ATOM     68  C   UNL A   1      44.859  32.365  28.078  1.00  0.00     0.031 C 
ATOM     69  C   UNL A   1      41.192  33.936  31.737  1.00  0.00     0.029 A 
ATOM     70  C   UNL A   1      41.254  34.220  30.386  1.00  0.00     0.049 A 
ATOM     71  H   UNL A   1      39.703  34.262  28.970  1.00  0.00     0.167 HD
ATOM     72  C   UNL A   1      43.206  33.593  29.126  1.00  0.00     0.074 A 
ATOM     73  C   UNL A   1      44.298  33.583  28.173  1.00  0.00     0.031 C 
ATOM     74  C   UNL A   1      42.318  34.566  29.464  1.00  0.00     0.037 A 
BRANCH  61  75
ATOM     75  C   UNL A   1      36.494  33.654  30.921  1.00  0.00     0.058 A 
ATOM     76  C   UNL A   1      35.555  34.121  29.976  1.00  0.00     0.135 A 
ATOM     77  C   UNL A   1      36.116  33.824  32.267  1.00  0.00     0.135 A 
ATOM     78  F   UNL A   1      35.742  33.953  28.660  1.00  0.00    -0.206 F 
ATOM     79  C   UNL A   1      34.394  34.807  30.337  1.00  0.00     0.059 A 
ATOM     80  C   UNL A   1      34.992  34.562  32.653  1.00  0.00     0.059 A 
ATOM     81  F   UNL A   1      36.813  33.250  33.258  1.00  0.00    -0.206 F 
ATOM     82  C   UNL A   1      34.141  35.061  31.678  1.00  0.00     0.060 A 
BRANCH  82  83
ATOM     83  S   UNL A   1      32.707  36.063  32.117  1.00  0.00     0.124 S 
ATOM     84  O   UNL A   1      31.718  35.049  32.474  1.00  0.00    -0.237 OA
ATOM     85  O   UNL A   1      33.224  36.861  33.222  1.00  0.00    -0.237 OA
ATOM     86  O   UNL A   1      32.419  36.798  30.889  1.00  0.00    -0.744 OA
ENDBRANCH  82  83
ENDBRANCH  61  75
BRANCH  62  87
ATOM     87  C   UNL A   1      44.651  29.130  28.176  1.00  0.00     0.058 A 
ATOM     88  C   UNL A   1      45.569  28.125  28.543  1.00  0.00     0.135 A 
ATOM     89  C   UNL A   1      43.886  28.922  27.022  1.00  0.00     0.135 A 
ATOM     90  F   UNL A   1      46.344  28.286  29.629  1.00  0.00    -0.206 F 
ATOM     91  C   UNL A   1      45.596  26.892  27.902  1.00  0.00     0.059 A 
ATOM     92  C   UNL A   1      43.912  27.697  26.352  1.00  0.00     0.059 A 
ATOM     93  F   UNL A   1      43.004  29.846  26.617  1.00  0.00    -0.206 F 
ATOM     94  C   UNL A   1      44.709  26.665  26.853  1.00  0.00     0.060 A 
BRANCH  94  95
ATOM     95  S   UNL A   1      44.505  24.968  26.261  1.00  0.00     0.124 S 
ATOM     96  O   UNL A   1      45.799  24.705  25.640  1.00  0.00    -0.237 OA
ATOM     97  O   UNL A   1      44.239  24.236  27.500  1.00  0.00    -0.237 OA
ATOM     98  O   UNL A   1      43.374  25.067  25.347  1.00  0.00    -0.744 OA
ENDBRANCH  94  95
ENDBRANCH  62  87
BRANCH  74  99
ATOM     99  C   UNL A   1      42.414  35.950  28.917  1.00  0.00     0.058 A 
ATOM    100  C   UNL A   1      41.726  36.320  27.752  1.00  0.00     0.135 A 
ATOM    101  C   UNL A   1      43.290  36.901  29.473  1.00  0.00     0.135 A 
ATOM    102  F   UNL A   1      40.888  35.456  27.154  1.00  0.00    -0.206 F 
ATOM    103  C   UNL A   1      41.886  37.575  27.171  1.00  0.00     0.059 A 
ATOM    104  C   UNL A   1      43.491  38.149  28.894  1.00  0.00     0.059 A 
ATOM    105  F   UNL A   1      43.960  36.636  30.607  1.00  0.00    -0.206 F 
ATOM    106  C   UNL A   1      42.774  38.483  27.748  1.00  0.00     0.060 A 
BRANCH 106 107
ATOM    107  S   UNL A   1      43.021  40.095  26.979  1.00  0.00     0.124 S 
ATOM    108  O   UNL A   1      41.798  40.278  26.203  1.00  0.00    -0.237 OA
ATOM    109  O   UNL A   1      43.159  40.956  28.149  1.00  0.00    -0.237 OA
ATOM    110  O   UNL A   1      44.233  39.903  26.188  1.00  0.00    -0.744 OA
ENDBRANCH 106 107
ENDBRANCH  74  99
ENDBRANCH  48  49
ENDBRANCH  40  43
ENDBRANCH  38  39
ENDBRANCH  37  38
ENDBRANCH  36  37
ENDBRANCH   1  36
TORSDOF 19
ENDMDL
MODEL 2
REMARK VINA RESULT:     -13.5      4.343     10.349
REMARK SMILES Cc1c(NC(=O)c2cccc(-c3cc4ccccc4oc3=O)c2)cccc1C(=O)NCCCCCCNC(=O)c1ccc(-c2c3nc(c(-c4c(F)cc(S(=O)(=O)[O-])cc4F)c4ccc([nH]4)c(-c4c(F)cc(S(=O)(=O)[O-])cc4F)c4nc(c(-c5c(F)cc(S(=O)(=O)[O-])cc5F)c5ccc2[nH]5)C=C4)C=C3)cc1
REMARK SMILES IDX 33 1 32 2 31 3 30 4 28 5 29 6 27 8 1 9 2 10 3 11 24 12 26 13
REMARK SMILES IDX 25 14 4 15 5 16 6 18 7 19 8 20 23 21 9 22 11 23 10 24 12 25
REMARK SMILES IDX 13 26 21 27 14 28 20 29 22 30 15 31 19 32 16 33 18 34 17 35
REMARK SMILES IDX 34 36 35 37 36 38 37 39 38 40 39 42 40 43 41 44 105 45 42 46
REMARK SMILES IDX 104 47 43 48 44 49 45 50 98 51 46 52 103 53 97 54 99 55
REMARK SMILES IDX 47 56 102 57 96 58 95 59 48 61 82 62 61 63 81 64 62 65 65 66
REMARK SMILES IDX 80 67 100 68 63 69 64 70 79 72 101 73 66 74 49 75 50 76
REMARK SMILES IDX 59 77 51 78 52 79 58 80 60 81 53 82 54 83 55 84 56 85 57 86
REMARK SMILES IDX 83 87 84 88 93 89 85 90 86 91 92 92 94 93 87 94 88 95 89 96
REMARK SMILES IDX 90 97 91 98 67 99 68 100 77 101 69 102 70 103 76 104 78 105
REMARK SMILES IDX 71 106 72 107 73 108 74 109 75 110
REMARK H PARENT 30 7 4 17 37 41 99 60 65 71
REMARK Flexibility Score: inf
ROOT
ATOM      1  C   UNL A   1      33.615  29.362  26.914  1.00  0.00     0.002 C 
ENDROOT
BRANCH   1   2
ATOM      2  C   UNL A   1      34.052  28.243  25.960  1.00  0.00     0.021 C 
BRANCH   2   3
ATOM      3  C   UNL A   1      34.099  28.613  24.467  1.00  0.00     0.116 C 
BRANCH   3   4
ATOM      4  N   UNL A   1      32.819  29.144  24.035  1.00  0.00    -0.352 N 
ATOM      5  C   UNL A   1      31.559  28.668  23.813  1.00  0.00     0.251 C 
ATOM      6  O   UNL A   1      30.754  29.531  23.435  1.00  0.00    -0.269 OA
ATOM      7  H   UNL A   1      32.874  30.111  23.854  1.00  0.00     0.163 HD
BRANCH   5   8
ATOM      8  C   UNL A   1      31.025  27.269  23.987  1.00  0.00     0.044 A 
ATOM      9  C   UNL A   1      30.714  27.177  26.534  1.00  0.00     0.047 C 
ATOM     10  C   UNL A   1      30.659  26.570  25.162  1.00  0.00    -0.015 A 
ATOM     11  C   UNL A   1      30.336  25.181  25.075  1.00  0.00     0.045 A 
ATOM     12  C   UNL A   1      30.423  24.494  23.861  1.00  0.00     0.026 A 
ATOM     13  C   UNL A   1      31.084  26.528  22.778  1.00  0.00     0.014 A 
ATOM     14  C   UNL A   1      30.806  25.165  22.713  1.00  0.00     0.003 A 
BRANCH  11  15
ATOM     15  N   UNL A   1      29.895  24.497  26.227  1.00  0.00    -0.322 N 
ATOM     16  C   UNL A   1      30.386  23.369  26.851  1.00  0.00     0.255 C 
ATOM     17  H   UNL A   1      29.102  24.891  26.659  1.00  0.00     0.170 HD
ATOM     18  O   UNL A   1      29.631  22.696  27.552  1.00  0.00    -0.269 OA
BRANCH  16  19
ATOM     19  C   UNL A   1      31.839  23.026  26.822  1.00  0.00     0.040 A 
ATOM     20  C   UNL A   1      32.379  22.307  27.895  1.00  0.00     0.014 A 
ATOM     21  C   UNL A   1      32.704  23.533  25.841  1.00  0.00     0.022 A 
ATOM     22  C   UNL A   1      33.753  22.069  27.965  1.00  0.00     0.001 A 
ATOM     23  C   UNL A   1      34.086  23.291  25.889  1.00  0.00    -0.010 A 
ATOM     24  C   UNL A   1      34.600  22.553  26.965  1.00  0.00     0.009 A 
BRANCH  23  25
ATOM     25  C   UNL A   1      35.043  23.886  24.920  1.00  0.00     0.068 A 
ATOM     26  C   UNL A   1      36.161  24.540  25.304  1.00  0.00     0.028 A 
ATOM     27  C   UNL A   1      35.303  23.043  23.709  1.00  0.00     0.344 A 
ATOM     28  C   UNL A   1      37.295  23.624  25.558  1.00  0.00     0.018 A 
ATOM     29  O   UNL A   1      36.355  22.140  23.872  1.00  0.00    -0.422 OA
ATOM     30  O   UNL A   1      34.593  23.093  22.713  1.00  0.00    -0.246 OA
ATOM     31  C   UNL A   1      38.310  23.921  26.462  1.00  0.00     0.012 A 
ATOM     32  C   UNL A   1      37.308  22.397  24.883  1.00  0.00     0.138 A 
ATOM     33  C   UNL A   1      39.300  22.966  26.712  1.00  0.00     0.001 A 
ATOM     34  C   UNL A   1      38.261  21.427  25.158  1.00  0.00     0.048 A 
ATOM     35  C   UNL A   1      39.259  21.715  26.090  1.00  0.00     0.004 A 
ENDBRANCH  23  25
ENDBRANCH  16  19
ENDBRANCH  11  15
ENDBRANCH   5   8
ENDBRANCH   3   4
ENDBRANCH   2   3
ENDBRANCH   1   2
BRANCH   1  36
ATOM     36  C   UNL A   1      34.679  30.411  27.276  1.00  0.00     0.002 C 
BRANCH  36  37
ATOM     37  C   UNL A   1      34.153  31.706  27.898  1.00  0.00     0.021 C 
BRANCH  37  38
ATOM     38  C   UNL A   1      35.243  32.728  28.199  1.00  0.00     0.116 C 
BRANCH  38  39
ATOM     39  N   UNL A   1      35.409  32.975  29.622  1.00  0.00    -0.352 N 
ATOM     40  C   UNL A   1      35.685  31.976  30.540  1.00  0.00     0.251 C 
ATOM     41  H   UNL A   1      35.321  33.899  29.950  1.00  0.00     0.163 HD
ATOM     42  O   UNL A   1      35.155  31.885  31.641  1.00  0.00    -0.269 OA
BRANCH  40  43
ATOM     43  C   UNL A   1      36.767  31.054  30.147  1.00  0.00     0.039 A 
ATOM     44  C   UNL A   1      36.870  29.828  30.810  1.00  0.00     0.014 A 
ATOM     45  C   UNL A   1      37.787  31.517  29.317  1.00  0.00     0.014 A 
ATOM     46  C   UNL A   1      38.066  29.114  30.743  1.00  0.00     0.010 A 
ATOM     47  C   UNL A   1      38.993  30.842  29.309  1.00  0.00     0.010 A 
ATOM     48  C   UNL A   1      39.148  29.660  30.050  1.00  0.00    -0.014 A 
BRANCH  48  49
ATOM     49  C   UNL A   1      40.503  29.113  30.104  1.00  0.00     0.031 A 
ATOM     50  C   UNL A   1      40.819  27.812  29.464  1.00  0.00     0.074 A 
ATOM     51  C   UNL A   1      41.496  29.833  30.673  1.00  0.00     0.049 A 
ATOM     52  N   UNL A   1      41.885  27.120  29.696  1.00  0.00    -0.248 NA
ATOM     53  C   UNL A   1      39.912  27.168  28.520  1.00  0.00     0.031 C 
ATOM     54  C   UNL A   1      42.933  29.612  30.546  1.00  0.00     0.029 A 
ATOM     55  N   UNL A   1      41.380  30.792  31.682  1.00  0.00    -0.354 N 
ATOM     56  C   UNL A   1      41.923  26.078  28.798  1.00  0.00     0.074 A 
ATOM     57  C   UNL A   1      40.659  26.142  28.099  1.00  0.00     0.031 C 
ATOM     58  C   UNL A   1      43.553  30.185  31.587  1.00  0.00     0.029 A 
ATOM     59  C   UNL A   1      42.526  30.665  32.495  1.00  0.00     0.049 A 
ATOM     60  H   UNL A   1      40.640  31.432  31.802  1.00  0.00     0.167 HD
ATOM     61  C   UNL A   1      43.055  25.325  28.676  1.00  0.00     0.037 A 
ATOM     62  C   UNL A   1      42.408  30.303  33.807  1.00  0.00     0.037 A 
ATOM     63  C   UNL A   1      44.060  25.691  29.667  1.00  0.00     0.049 A 
ATOM     64  C   UNL A   1      43.043  28.971  34.156  1.00  0.00     0.074 A 
ATOM     65  C   UNL A   1      45.163  26.529  29.665  1.00  0.00     0.029 A 
ATOM     66  N   UNL A   1      43.828  25.367  30.992  1.00  0.00    -0.354 N 
ATOM     67  N   UNL A   1      43.641  28.188  33.300  1.00  0.00    -0.248 NA
ATOM     68  C   UNL A   1      42.982  28.382  35.496  1.00  0.00     0.031 C 
ATOM     69  C   UNL A   1      45.550  26.756  31.016  1.00  0.00     0.029 A 
ATOM     70  C   UNL A   1      44.686  26.050  31.832  1.00  0.00     0.049 A 
ATOM     71  H   UNL A   1      43.140  24.732  31.296  1.00  0.00     0.167 HD
ATOM     72  C   UNL A   1      43.965  27.011  33.918  1.00  0.00     0.074 A 
ATOM     73  C   UNL A   1      43.561  27.186  35.299  1.00  0.00     0.031 C 
ATOM     74  C   UNL A   1      44.495  25.942  33.265  1.00  0.00     0.037 A 
BRANCH  61  75
ATOM     75  C   UNL A   1      43.317  24.402  27.511  1.00  0.00     0.058 A 
ATOM     76  C   UNL A   1      42.997  23.029  27.595  1.00  0.00     0.135 A 
ATOM     77  C   UNL A   1      43.930  24.795  26.305  1.00  0.00     0.135 A 
ATOM     78  F   UNL A   1      42.338  22.527  28.648  1.00  0.00    -0.206 F 
ATOM     79  C   UNL A   1      43.363  22.104  26.616  1.00  0.00     0.059 A 
ATOM     80  C   UNL A   1      44.362  23.880  25.339  1.00  0.00     0.059 A 
ATOM     81  F   UNL A   1      44.104  26.091  26.009  1.00  0.00    -0.206 F 
ATOM     82  C   UNL A   1      44.083  22.532  25.509  1.00  0.00     0.060 A 
BRANCH  82  83
ATOM     83  S   UNL A   1      44.662  21.304  24.321  1.00  0.00     0.124 S 
ATOM     84  O   UNL A   1      44.404  21.963  23.044  1.00  0.00    -0.237 OA
ATOM     85  O   UNL A   1      46.065  21.165  24.691  1.00  0.00    -0.237 OA
ATOM     86  O   UNL A   1      43.820  20.144  24.597  1.00  0.00    -0.744 OA
ENDBRANCH  82  83
ENDBRANCH  61  75
BRANCH  62  87
ATOM     87  C   UNL A   1      41.189  30.874  34.447  1.00  0.00     0.058 A 
ATOM     88  C   UNL A   1      41.264  32.192  34.939  1.00  0.00     0.135 A 
ATOM     89  C   UNL A   1      39.917  30.344  34.201  1.00  0.00     0.135 A 
ATOM     90  F   UNL A   1      42.460  32.741  35.215  1.00  0.00    -0.206 F 
ATOM     91  C   UNL A   1      40.143  33.011  35.008  1.00  0.00     0.059 A 
ATOM     92  C   UNL A   1      38.775  31.143  34.281  1.00  0.00     0.059 A 
ATOM     93  F   UNL A   1      39.781  29.091  33.742  1.00  0.00    -0.206 F 
ATOM     94  C   UNL A   1      38.914  32.495  34.604  1.00  0.00     0.060 A 
BRANCH  94  95
ATOM     95  S   UNL A   1      37.542  33.650  34.364  1.00  0.00     0.124 S 
ATOM     96  O   UNL A   1      36.419  32.910  34.929  1.00  0.00    -0.237 OA
ATOM     97  O   UNL A   1      37.980  34.817  35.131  1.00  0.00    -0.237 OA
ATOM     98  O   UNL A   1      37.513  33.836  32.918  1.00  0.00    -0.744 OA
ENDBRANCH  94  95
ENDBRANCH  62  87
BRANCH  74  99
ATOM     99  C   UNL A   1      44.875  24.688  33.978  1.00  0.00     0.058 A 
ATOM    100  C   UNL A   1      46.217  24.294  34.088  1.00  0.00     0.135 A 
ATOM    101  C   UNL A   1      43.903  23.791  34.458  1.00  0.00     0.135 A 
ATOM    102  F   UNL A   1      47.199  25.090  33.633  1.00  0.00    -0.206 F 
ATOM    103  C   UNL A   1      46.581  23.077  34.659  1.00  0.00     0.059 A 
ATOM    104  C   UNL A   1      44.239  22.557  35.002  1.00  0.00     0.059 A 
ATOM    105  F   UNL A   1      42.598  24.109  34.419  1.00  0.00    -0.206 F 
ATOM    106  C   UNL A   1      45.584  22.213  35.111  1.00  0.00     0.060 A 
BRANCH 106 107
ATOM    107  S   UNL A   1      46.043  20.616  35.811  1.00  0.00     0.124 S 
ATOM    108  O   UNL A   1      45.722  20.775  37.227  1.00  0.00    -0.237 OA
ATOM    109  O   UNL A   1      45.174  19.712  35.066  1.00  0.00    -0.237 OA
ATOM    110  O   UNL A   1      47.468  20.518  35.507  1.00  0.00    -0.744 OA
ENDBRANCH 106 107
ENDBRANCH  74  99
ENDBRANCH  48  49
ENDBRANCH  40  43
ENDBRANCH  38  39
ENDBRANCH  37  38
ENDBRANCH  36  37
ENDBRANCH   1  36
TORSDOF 19
ENDMDL
MODEL 3
REMARK VINA RESULT:     -13.4      2.131      5.227
REMARK SMILES Cc1c(NC(=O)c2cccc(-c3cc4ccccc4oc3=O)c2)cccc1C(=O)NCCCCCCNC(=O)c1ccc(-c2c3nc(c(-c4c(F)cc(S(=O)(=O)[O-])cc4F)c4ccc([nH]4)c(-c4c(F)cc(S(=O)(=O)[O-])cc4F)c4nc(c(-c5c(F)cc(S(=O)(=O)[O-])cc5F)c5ccc2[nH]5)C=C4)C=C3)cc1
REMARK SMILES IDX 33 1 32 2 31 3 30 4 28 5 29 6 27 8 1 9 2 10 3 11 24 12 26 13
REMARK SMILES IDX 25 14 4 15 5 16 6 18 7 19 8 20 23 21 9 22 11 23 10 24 12 25
REMARK SMILES IDX 13 26 21 27 14 28 20 29 22 30 15 31 19 32 16 33 18 34 17 35
REMARK SMILES IDX 34 36 35 37 36 38 37 39 38 40 39 42 40 43 41 44 105 45 42 46
REMARK SMILES IDX 104 47 43 48 44 49 45 50 98 51 46 52 103 53 97 54 99 55
REMARK SMILES IDX 47 56 102 57 96 58 95 59 48 61 82 62 61 63 81 64 62 65 65 66
REMARK SMILES IDX 80 67 100 68 63 69 64 70 79 72 101 73 66 74 49 75 50 76
REMARK SMILES IDX 59 77 51 78 52 79 58 80 60 81 53 82 54 83 55 84 56 85 57 86
REMARK SMILES IDX 83 87 84 88 93 89 85 90 86 91 92 92 94 93 87 94 88 95 89 96
REMARK SMILES IDX 90 97 91 98 67 99 68 100 77 101 69 102 70 103 76 104 78 105
REMARK SMILES IDX 71 106 72 107 73 108 74 109 75 110
REMARK H PARENT 30 7 4 17 37 41 99 60 65 71
REMARK Flexibility Score: inf
ROOT
ATOM      1  C   UNL A   1      37.440  23.504  25.995  1.00  0.00     0.002 C 
ENDROOT
BRANCH   1   2
ATOM      2  C   UNL A   1      35.952  23.858  26.120  1.00  0.00     0.021 C 
BRANCH   2   3
ATOM      3  C   UNL A   1      35.157  23.057  27.168  1.00  0.00     0.116 C 
BRANCH   3   4
ATOM      4  N   UNL A   1      34.787  21.758  26.639  1.00  0.00    -0.352 N 
ATOM      5  C   UNL A   1      33.986  21.271  25.645  1.00  0.00     0.251 C 
ATOM      6  O   UNL A   1      33.984  20.034  25.562  1.00  0.00    -0.269 OA
ATOM      7  H   UNL A   1      35.234  21.030  27.128  1.00  0.00     0.163 HD
BRANCH   5   8
ATOM      8  C   UNL A   1      33.144  22.022  24.645  1.00  0.00     0.044 A 
ATOM      9  C   UNL A   1      34.929  22.738  22.945  1.00  0.00     0.047 C 
ATOM     10  C   UNL A   1      33.519  22.695  23.459  1.00  0.00    -0.015 A 
ATOM     11  C   UNL A   1      32.547  23.480  22.766  1.00  0.00     0.045 A 
ATOM     12  C   UNL A   1      31.251  23.632  23.267  1.00  0.00     0.026 A 
ATOM     13  C   UNL A   1      31.813  22.197  25.104  1.00  0.00     0.014 A 
ATOM     14  C   UNL A   1      30.886  22.999  24.442  1.00  0.00     0.003 A 
BRANCH  11  15
ATOM     15  N   UNL A   1      32.891  24.090  21.541  1.00  0.00    -0.322 N 
ATOM     16  C   UNL A   1      32.895  25.416  21.162  1.00  0.00     0.255 C 
ATOM     17  H   UNL A   1      33.177  23.464  20.838  1.00  0.00     0.170 HD
ATOM     18  O   UNL A   1      32.799  25.698  19.968  1.00  0.00    -0.269 OA
BRANCH  16  19
ATOM     19  C   UNL A   1      33.161  26.512  22.142  1.00  0.00     0.040 A 
ATOM     20  C   UNL A   1      33.791  27.677  21.689  1.00  0.00     0.014 A 
ATOM     21  C   UNL A   1      32.947  26.348  23.518  1.00  0.00     0.022 A 
ATOM     22  C   UNL A   1      34.165  28.674  22.592  1.00  0.00     0.001 A 
ATOM     23  C   UNL A   1      33.304  27.347  24.438  1.00  0.00    -0.010 A 
ATOM     24  C   UNL A   1      33.918  28.512  23.957  1.00  0.00     0.009 A 
BRANCH  23  25
ATOM     25  C   UNL A   1      33.176  27.172  25.908  1.00  0.00     0.068 A 
ATOM     26  C   UNL A   1      34.144  27.540  26.776  1.00  0.00     0.028 A 
ATOM     27  C   UNL A   1      31.816  27.489  26.453  1.00  0.00     0.344 A 
ATOM     28  C   UNL A   1      34.064  28.973  27.139  1.00  0.00     0.018 A 
ATOM     29  O   UNL A   1      31.656  28.829  26.810  1.00  0.00    -0.422 OA
ATOM     30  O   UNL A   1      30.917  26.659  26.491  1.00  0.00    -0.246 OA
ATOM     31  C   UNL A   1      35.181  29.714  27.510  1.00  0.00     0.012 A 
ATOM     32  C   UNL A   1      32.814  29.599  27.061  1.00  0.00     0.138 A 
ATOM     33  C   UNL A   1      35.040  31.083  27.753  1.00  0.00     0.001 A 
ATOM     34  C   UNL A   1      32.672  30.965  27.258  1.00  0.00     0.048 A 
ATOM     35  C   UNL A   1      33.801  31.712  27.597  1.00  0.00     0.004 A 
ENDBRANCH  23  25
ENDBRANCH  16  19
ENDBRANCH  11  15
ENDBRANCH   5   8
ENDBRANCH   3   4
ENDBRANCH   2   3
ENDBRANCH   1   2
BRANCH   1  36
ATOM     36  C   UNL A   1      37.801  22.397  24.992  1.00  0.00     0.002 C 
BRANCH  36  37
ATOM     37  C   UNL A   1      38.797  21.347  25.488  1.00  0.00     0.021 C 
BRANCH  37  38
ATOM     38  C   UNL A   1      39.557  21.767  26.740  1.00  0.00     0.116 C 
BRANCH  38  39
ATOM     39  N   UNL A   1      40.994  21.842  26.530  1.00  0.00    -0.352 N 
ATOM     40  C   UNL A   1      41.628  22.952  26.000  1.00  0.00     0.251 C 
ATOM     41  H   UNL A   1      41.544  21.063  26.778  1.00  0.00     0.163 HD
ATOM     42  O   UNL A   1      42.522  22.902  25.165  1.00  0.00    -0.269 OA
BRANCH  40  43
ATOM     43  C   UNL A   1      41.225  24.239  26.597  1.00  0.00     0.039 A 
ATOM     44  C   UNL A   1      41.496  25.414  25.889  1.00  0.00     0.014 A 
ATOM     45  C   UNL A   1      40.819  24.274  27.930  1.00  0.00     0.014 A 
ATOM     46  C   UNL A   1      41.483  26.634  26.561  1.00  0.00     0.010 A 
ATOM     47  C   UNL A   1      40.875  25.477  28.609  1.00  0.00     0.010 A 
ATOM     48  C   UNL A   1      41.242  26.653  27.937  1.00  0.00    -0.014 A 
BRANCH  48  49
ATOM     49  C   UNL A   1      41.427  27.837  28.775  1.00  0.00     0.031 A 
ATOM     50  C   UNL A   1      40.343  28.840  28.916  1.00  0.00     0.074 A 
ATOM     51  C   UNL A   1      42.564  27.981  29.493  1.00  0.00     0.049 A 
ATOM     52  N   UNL A   1      40.503  30.032  29.386  1.00  0.00    -0.248 NA
ATOM     53  C   UNL A   1      38.973  28.572  28.490  1.00  0.00     0.031 C 
ATOM     54  C   UNL A   1      42.799  28.899  30.602  1.00  0.00     0.029 A 
ATOM     55  N   UNL A   1      43.827  27.463  29.196  1.00  0.00    -0.354 N 
ATOM     56  C   UNL A   1      39.261  30.605  29.535  1.00  0.00     0.074 A 
ATOM     57  C   UNL A   1      38.342  29.659  28.944  1.00  0.00     0.031 C 
ATOM     58  C   UNL A   1      44.119  29.096  30.729  1.00  0.00     0.029 A 
ATOM     59  C   UNL A   1      44.768  28.429  29.614  1.00  0.00     0.049 A 
ATOM     60  H   UNL A   1      44.022  26.594  28.775  1.00  0.00     0.167 HD
ATOM     61  C   UNL A   1      39.129  31.776  30.222  1.00  0.00     0.037 A 
ATOM     62  C   UNL A   1      45.588  29.037  28.706  1.00  0.00     0.037 A 
ATOM     63  C   UNL A   1      40.423  32.331  30.606  1.00  0.00     0.049 A 
ATOM     64  C   UNL A   1      45.375  30.530  28.562  1.00  0.00     0.074 A 
ATOM     65  C   UNL A   1      41.201  32.273  31.750  1.00  0.00     0.029 A 
ATOM     66  N   UNL A   1      41.237  32.850  29.615  1.00  0.00    -0.354 N 
ATOM     67  N   UNL A   1      44.476  31.217  29.212  1.00  0.00    -0.248 NA
ATOM     68  C   UNL A   1      46.117  31.355  27.605  1.00  0.00     0.031 C 
ATOM     69  C   UNL A   1      42.515  32.705  31.414  1.00  0.00     0.029 A 
ATOM     70  C   UNL A   1      42.529  33.030  30.071  1.00  0.00     0.049 A 
ATOM     71  H   UNL A   1      40.934  33.063  28.703  1.00  0.00     0.167 HD
ATOM     72  C   UNL A   1      44.460  32.500  28.736  1.00  0.00     0.074 A 
ATOM     73  C   UNL A   1      45.523  32.551  27.752  1.00  0.00     0.031 C 
ATOM     74  C   UNL A   1      43.552  33.435  29.128  1.00  0.00     0.037 A 
BRANCH  61  75
ATOM     75  C   UNL A   1      37.806  32.299  30.728  1.00  0.00     0.058 A 
ATOM     76  C   UNL A   1      37.034  33.182  29.941  1.00  0.00     0.135 A 
ATOM     77  C   UNL A   1      37.268  32.013  31.998  1.00  0.00     0.135 A 
ATOM     78  F   UNL A   1      37.380  33.481  28.682  1.00  0.00    -0.206 F 
ATOM     79  C   UNL A   1      35.888  33.819  30.420  1.00  0.00     0.059 A 
ATOM     80  C   UNL A   1      36.159  32.684  32.522  1.00  0.00     0.059 A 
ATOM     81  F   UNL A   1      37.787  31.043  32.764  1.00  0.00    -0.206 F 
ATOM     82  C   UNL A   1      35.480  33.596  31.728  1.00  0.00     0.060 A 
BRANCH  82  83
ATOM     83  S   UNL A   1      34.077  34.529  32.371  1.00  0.00     0.124 S 
ATOM     84  O   UNL A   1      33.435  33.556  33.250  1.00  0.00    -0.237 OA
ATOM     85  O   UNL A   1      34.736  35.647  33.036  1.00  0.00    -0.237 OA
ATOM     86  O   UNL A   1      33.318  34.869  31.170  1.00  0.00    -0.744 OA
ENDBRANCH  82  83
ENDBRANCH  61  75
BRANCH  62  87
ATOM     87  C   UNL A   1      46.011  28.114  27.614  1.00  0.00     0.058 A 
ATOM     88  C   UNL A   1      45.314  28.184  26.391  1.00  0.00     0.135 A 
ATOM     89  C   UNL A   1      47.280  27.524  27.606  1.00  0.00     0.135 A 
ATOM     90  F   UNL A   1      44.082  28.719  26.348  1.00  0.00    -0.206 F 
ATOM     91  C   UNL A   1      45.921  27.853  25.185  1.00  0.00     0.059 A 
ATOM     92  C   UNL A   1      47.902  27.168  26.408  1.00  0.00     0.059 A 
ATOM     93  F   UNL A   1      47.987  27.419  28.740  1.00  0.00    -0.206 F 
ATOM     94  C   UNL A   1      47.243  27.416  25.201  1.00  0.00     0.060 A 
BRANCH  94  95
ATOM     95  S   UNL A   1      48.130  27.325  23.627  1.00  0.00     0.124 S 
ATOM     96  O   UNL A   1      48.140  25.890  23.366  1.00  0.00    -0.237 OA
ATOM     97  O   UNL A   1      47.277  28.122  22.743  1.00  0.00    -0.237 OA
ATOM     98  O   UNL A   1      49.424  27.921  23.939  1.00  0.00    -0.744 OA
ENDBRANCH  94  95
ENDBRANCH  62  87
BRANCH  74  99
ATOM     99  C   UNL A   1      43.590  34.837  28.620  1.00  0.00     0.058 A 
ATOM    100  C   UNL A   1      43.891  35.910  29.472  1.00  0.00     0.135 A 
ATOM    101  C   UNL A   1      43.205  35.151  27.304  1.00  0.00     0.135 A 
ATOM    102  F   UNL A   1      44.246  35.686  30.748  1.00  0.00    -0.206 F 
ATOM    103  C   UNL A   1      43.829  37.231  29.038  1.00  0.00     0.059 A 
ATOM    104  C   UNL A   1      43.105  36.465  26.857  1.00  0.00     0.059 A 
ATOM    105  F   UNL A   1      42.932  34.180  26.418  1.00  0.00    -0.206 F 
ATOM    106  C   UNL A   1      43.432  37.499  27.729  1.00  0.00     0.060 A 
BRANCH 106 107
ATOM    107  S   UNL A   1      43.306  39.210  27.171  1.00  0.00     0.124 S 
ATOM    108  O   UNL A   1      42.044  39.222  26.437  1.00  0.00    -0.237 OA
ATOM    109  O   UNL A   1      43.303  39.929  28.440  1.00  0.00    -0.237 OA
ATOM    110  O   UNL A   1      44.501  39.380  26.350  1.00  0.00    -0.744 OA
ENDBRANCH 106 107
ENDBRANCH  74  99
ENDBRANCH  48  49
ENDBRANCH  40  43
ENDBRANCH  38  39
ENDBRANCH  37  38
ENDBRANCH  36  37
ENDBRANCH   1  36
TORSDOF 19
ENDMDL
