MODEL 1
REMARK VINA RESULT:      -8.5      0.000      0.000
REMARK SMILES C[C@H](O)[C@H](C)[NH2+]C1(C(=O)NCCCCCCNC(=O)c2ccc(-c3c4nc(c(-c5c(F)cc(S(=O)(=O)[O-])cc5F)c5ccc([nH]5)c(-c5c(F)cc(S(=O)(=O)[O-])cc5F)c5nc(c(-c6c(F)cc(S(=O)(=O)[O-])cc6F)c6ccc3[nH]6)C=C5)C=C4)cc2)CC1
REMARK SMILES IDX 13 1 12 2 11 3 10 4 8 5 9 6 7 8 86 9 87 10 6 11 4 14 5 15
REMARK SMILES IDX 2 16 1 17 3 18 14 20 15 21 16 22 17 23 18 24 19 26 20 27
REMARK SMILES IDX 21 28 85 29 22 30 84 31 23 32 24 33 25 34 78 35 26 36 83 37
REMARK SMILES IDX 77 38 79 39 27 40 82 41 76 42 75 43 28 45 62 46 41 47 61 48
REMARK SMILES IDX 42 49 45 50 60 51 80 52 43 53 44 54 59 56 81 57 46 58 29 59
REMARK SMILES IDX 30 60 39 61 31 62 32 63 38 64 40 65 33 66 34 67 35 68 36 69
REMARK SMILES IDX 37 70 63 71 64 72 73 73 65 74 66 75 72 76 74 77 67 78 68 79
REMARK SMILES IDX 69 80 70 81 71 82 47 83 48 84 57 85 49 86 50 87 56 88 58 89
REMARK SMILES IDX 51 90 52 91 53 92 54 93 55 94
REMARK H PARENT 10 7 6 12 6 13 3 19 17 25 79 44 45 55
REMARK Flexibility Score: inf
ROOT
ATOM      1  C   UNL A   1      35.243  32.517  31.874  1.00  0.00     0.002 C 
ENDROOT
BRANCH   1   2
ATOM      2  C   UNL A   1      34.832  33.510  32.973  1.00  0.00     0.021 C 
BRANCH   2   3
ATOM      3  C   UNL A   1      35.759  34.720  33.091  1.00  0.00     0.116 C 
BRANCH   3   4
ATOM      4  N   UNL A   1      36.822  34.643  32.115  1.00  0.00    -0.351 N 
ATOM      5  C   UNL A   1      38.161  34.408  32.213  1.00  0.00     0.281 C 
ATOM      6  O   UNL A   1      38.835  34.591  31.191  1.00  0.00    -0.268 OA
ATOM      7  H   UNL A   1      36.517  34.790  31.190  1.00  0.00     0.163 HD
BRANCH   5   8
ATOM      8  C   UNL A   1      38.890  33.911  33.460  1.00  0.00     0.176 C 
ATOM      9  C   UNL A   1      39.188  34.946  34.535  1.00  0.00     0.086 C 
ATOM     10  C   UNL A   1      40.310  34.214  33.869  1.00  0.00     0.086 C 
BRANCH   8  11
ATOM     11  N   UNL A   1      38.267  32.634  33.939  1.00  0.00    -0.329 N 
ATOM     12  H   UNL A   1      37.374  32.872  34.372  1.00  0.00     0.347 HD
ATOM     13  H   UNL A   1      38.199  32.045  33.110  1.00  0.00     0.347 HD
BRANCH  11  14
ATOM     14  C   UNL A   1      39.033  31.839  34.910  1.00  0.00     0.208 C 
ATOM     15  C   UNL A   1      38.130  31.712  36.149  1.00  0.00     0.078 C 
BRANCH  14  16
ATOM     16  C   UNL A   1      39.531  30.408  34.510  1.00  0.00     0.169 C 
ATOM     17  C   UNL A   1      40.651  30.470  33.476  1.00  0.00     0.045 C 
BRANCH  16  18
ATOM     18  O   UNL A   1      38.515  29.557  33.986  1.00  0.00    -0.387 OA
ATOM     19  H   UNL A   1      38.308  29.824  33.077  1.00  0.00     0.211 HD
ENDBRANCH  16  18
ENDBRANCH  14  16
ENDBRANCH  11  14
ENDBRANCH   8  11
ENDBRANCH   5   8
ENDBRANCH   3   4
ENDBRANCH   2   3
ENDBRANCH   1   2
BRANCH   1  20
ATOM     20  C   UNL A   1      34.499  32.676  30.542  1.00  0.00     0.002 C 
BRANCH  20  21
ATOM     21  C   UNL A   1      35.397  32.729  29.305  1.00  0.00     0.021 C 
BRANCH  21  22
ATOM     22  C   UNL A   1      34.663  32.517  27.988  1.00  0.00     0.116 C 
BRANCH  22  23
ATOM     23  N   UNL A   1      33.973  31.237  27.952  1.00  0.00    -0.352 N 
ATOM     24  C   UNL A   1      34.501  29.971  27.966  1.00  0.00     0.251 C 
ATOM     25  H   UNL A   1      32.990  31.287  27.914  1.00  0.00     0.163 HD
ATOM     26  O   UNL A   1      33.787  29.004  27.713  1.00  0.00    -0.269 OA
BRANCH  24  27
ATOM     27  C   UNL A   1      35.936  29.781  28.265  1.00  0.00     0.039 A 
ATOM     28  C   UNL A   1      36.313  29.372  29.547  1.00  0.00     0.014 A 
ATOM     29  C   UNL A   1      36.906  29.997  27.282  1.00  0.00     0.014 A 
ATOM     30  C   UNL A   1      37.659  29.127  29.825  1.00  0.00     0.010 A 
ATOM     31  C   UNL A   1      38.234  29.673  27.537  1.00  0.00     0.010 A 
ATOM     32  C   UNL A   1      38.627  29.243  28.813  1.00  0.00    -0.014 A 
BRANCH  32  33
ATOM     33  C   UNL A   1      40.053  28.916  29.072  1.00  0.00     0.031 A 
ATOM     34  C   UNL A   1      40.981  29.963  29.628  1.00  0.00     0.074 A 
ATOM     35  C   UNL A   1      40.528  27.700  28.742  1.00  0.00     0.049 A 
ATOM     36  N   UNL A   1      42.265  29.889  29.861  1.00  0.00    -0.248 NA
ATOM     37  C   UNL A   1      40.389  31.275  29.935  1.00  0.00     0.031 C 
ATOM     38  C   UNL A   1      39.743  26.621  28.140  1.00  0.00     0.029 A 
ATOM     39  N   UNL A   1      41.790  27.171  28.848  1.00  0.00    -0.354 N 
ATOM     40  C   UNL A   1      42.639  31.143  30.330  1.00  0.00     0.074 A 
ATOM     41  C   UNL A   1      41.457  31.977  30.287  1.00  0.00     0.031 C 
ATOM     42  C   UNL A   1      40.535  25.556  27.942  1.00  0.00     0.029 A 
ATOM     43  C   UNL A   1      41.893  25.888  28.364  1.00  0.00     0.049 A 
ATOM     44  H   UNL A   1      42.551  27.663  29.235  1.00  0.00     0.167 HD
ATOM     45  C   UNL A   1      43.849  31.556  30.778  1.00  0.00     0.037 A 
ATOM     46  C   UNL A   1      42.962  25.075  28.253  1.00  0.00     0.037 A 
ATOM     47  C   UNL A   1      45.017  30.716  30.822  1.00  0.00     0.049 A 
ATOM     48  C   UNL A   1      44.299  25.551  28.752  1.00  0.00     0.074 A 
ATOM     49  C   UNL A   1      46.277  31.018  31.309  1.00  0.00     0.029 A 
ATOM     50  N   UNL A   1      45.076  29.412  30.349  1.00  0.00    -0.354 N 
ATOM     51  N   UNL A   1      44.618  26.714  29.267  1.00  0.00    -0.248 NA
ATOM     52  C   UNL A   1      45.417  24.603  28.666  1.00  0.00     0.031 C 
ATOM     53  C   UNL A   1      47.110  29.918  31.079  1.00  0.00     0.029 A 
ATOM     54  C   UNL A   1      46.356  28.906  30.507  1.00  0.00     0.049 A 
ATOM     55  H   UNL A   1      44.318  28.918  29.958  1.00  0.00     0.167 HD
ATOM     56  C   UNL A   1      45.969  26.633  29.586  1.00  0.00     0.074 A 
ATOM     57  C   UNL A   1      46.401  25.299  29.220  1.00  0.00     0.031 C 
ATOM     58  C   UNL A   1      46.776  27.576  30.134  1.00  0.00     0.037 A 
BRANCH  45  59
ATOM     59  C   UNL A   1      43.965  32.984  31.245  1.00  0.00     0.058 A 
ATOM     60  C   UNL A   1      44.266  34.031  30.358  1.00  0.00     0.135 A 
ATOM     61  C   UNL A   1      43.774  33.313  32.597  1.00  0.00     0.135 A 
ATOM     62  F   UNL A   1      44.470  33.777  29.055  1.00  0.00    -0.206 F 
ATOM     63  C   UNL A   1      44.422  35.341  30.801  1.00  0.00     0.059 A 
ATOM     64  C   UNL A   1      43.889  34.622  33.057  1.00  0.00     0.059 A 
ATOM     65  F   UNL A   1      43.479  32.355  33.491  1.00  0.00    -0.206 F 
ATOM     66  C   UNL A   1      44.238  35.626  32.154  1.00  0.00     0.060 A 
BRANCH  66  67
ATOM     67  S   UNL A   1      44.472  37.323  32.717  1.00  0.00     0.124 S 
ATOM     68  O   UNL A   1      45.777  37.235  33.367  1.00  0.00    -0.237 OA
ATOM     69  O   UNL A   1      44.438  38.076  31.468  1.00  0.00    -0.237 OA
ATOM     70  O   UNL A   1      43.341  37.546  33.612  1.00  0.00    -0.744 OA
ENDBRANCH  66  67
ENDBRANCH  45  59
BRANCH  46  71
ATOM     71  C   UNL A   1      42.795  23.725  27.650  1.00  0.00     0.058 A 
ATOM     72  C   UNL A   1      42.956  23.517  26.274  1.00  0.00     0.135 A 
ATOM     73  C   UNL A   1      42.515  22.606  28.451  1.00  0.00     0.135 A 
ATOM     74  F   UNL A   1      43.217  24.556  25.464  1.00  0.00    -0.206 F 
ATOM     75  C   UNL A   1      42.844  22.250  25.709  1.00  0.00     0.059 A 
ATOM     76  C   UNL A   1      42.425  21.326  27.915  1.00  0.00     0.059 A 
ATOM     77  F   UNL A   1      42.369  22.749  29.777  1.00  0.00    -0.206 F 
ATOM     78  C   UNL A   1      42.586  21.159  26.541  1.00  0.00     0.060 A 
BRANCH  78  79
ATOM     79  S   UNL A   1      42.518  19.509  25.810  1.00  0.00     0.124 S 
ATOM     80  O   UNL A   1      41.114  19.412  25.429  1.00  0.00    -0.237 OA
ATOM     81  O   UNL A   1      43.472  19.624  24.711  1.00  0.00    -0.237 OA
ATOM     82  O   UNL A   1      42.938  18.639  26.904  1.00  0.00    -0.744 OA
ENDBRANCH  78  79
ENDBRANCH  46  71
BRANCH  58  83
ATOM     83  C   UNL A   1      48.208  27.195  30.401  1.00  0.00     0.058 A 
ATOM     84  C   UNL A   1      49.221  27.409  29.453  1.00  0.00     0.135 A 
ATOM     85  C   UNL A   1      48.580  26.661  31.646  1.00  0.00     0.135 A 
ATOM     86  F   UNL A   1      48.921  27.910  28.244  1.00  0.00    -0.206 F 
ATOM     87  C   UNL A   1      50.547  27.088  29.722  1.00  0.00     0.059 A 
ATOM     88  C   UNL A   1      49.905  26.363  31.947  1.00  0.00     0.059 A 
ATOM     89  F   UNL A   1      47.653  26.445  32.593  1.00  0.00    -0.206 F 
ATOM     90  C   UNL A   1      50.881  26.569  30.975  1.00  0.00     0.060 A 
BRANCH  90  91
ATOM     91  S   UNL A   1      52.611  26.194  31.323  1.00  0.00     0.124 S 
ATOM     92  O   UNL A   1      52.514  24.847  31.878  1.00  0.00    -0.237 OA
ATOM     93  O   UNL A   1      53.224  26.293  30.003  1.00  0.00    -0.237 OA
ATOM     94  O   UNL A   1      53.002  27.234  32.270  1.00  0.00    -0.744 OA
ENDBRANCH  90  91
ENDBRANCH  58  83
ENDBRANCH  32  33
ENDBRANCH  24  27
ENDBRANCH  22  23
ENDBRANCH  21  22
ENDBRANCH  20  21
ENDBRANCH   1  20
TORSDOF 20
ENDMDL
MODEL 2
REMARK VINA RESULT:      -8.2      1.157      2.273
REMARK SMILES C[C@H](O)[C@H](C)[NH2+]C1(C(=O)NCCCCCCNC(=O)c2ccc(-c3c4nc(c(-c5c(F)cc(S(=O)(=O)[O-])cc5F)c5ccc([nH]5)c(-c5c(F)cc(S(=O)(=O)[O-])cc5F)c5nc(c(-c6c(F)cc(S(=O)(=O)[O-])cc6F)c6ccc3[nH]6)C=C5)C=C4)cc2)CC1
REMARK SMILES IDX 13 1 12 2 11 3 10 4 8 5 9 6 7 8 86 9 87 10 6 11 4 14 5 15
REMARK SMILES IDX 2 16 1 17 3 18 14 20 15 21 16 22 17 23 18 24 19 26 20 27
REMARK SMILES IDX 21 28 85 29 22 30 84 31 23 32 24 33 25 34 78 35 26 36 83 37
REMARK SMILES IDX 77 38 79 39 27 40 82 41 76 42 75 43 28 45 62 46 41 47 61 48
REMARK SMILES IDX 42 49 45 50 60 51 80 52 43 53 44 54 59 56 81 57 46 58 29 59
REMARK SMILES IDX 30 60 39 61 31 62 32 63 38 64 40 65 33 66 34 67 35 68 36 69
REMARK SMILES IDX 37 70 63 71 64 72 73 73 65 74 66 75 72 76 74 77 67 78 68 79
REMARK SMILES IDX 69 80 70 81 71 82 47 83 48 84 57 85 49 86 50 87 56 88 58 89
REMARK SMILES IDX 51 90 52 91 53 92 54 93 55 94
REMARK H PARENT 10 7 6 12 6 13 3 19 17 25 79 44 45 55
REMARK Flexibility Score: inf
ROOT
ATOM      1  C   UNL A   1      37.220  33.068  31.340  1.00  0.00     0.002 C 
ENDROOT
BRANCH   1   2
ATOM      2  C   UNL A   1      37.562  31.870  32.240  1.00  0.00     0.021 C 
BRANCH   2   3
ATOM      3  C   UNL A   1      36.907  31.926  33.619  1.00  0.00     0.116 C 
BRANCH   3   4
ATOM      4  N   UNL A   1      37.558  31.011  34.530  1.00  0.00    -0.351 N 
ATOM      5  C   UNL A   1      38.242  31.186  35.695  1.00  0.00     0.281 C 
ATOM      6  O   UNL A   1      38.840  30.199  36.143  1.00  0.00    -0.268 OA
ATOM      7  H   UNL A   1      37.492  30.069  34.251  1.00  0.00     0.163 HD
BRANCH   5   8
ATOM      8  C   UNL A   1      38.309  32.480  36.505  1.00  0.00     0.176 C 
ATOM      9  C   UNL A   1      37.931  32.385  37.976  1.00  0.00     0.086 C 
ATOM     10  C   UNL A   1      37.150  33.271  37.058  1.00  0.00     0.086 C 
BRANCH   8  11
ATOM     11  N   UNL A   1      39.588  33.202  36.205  1.00  0.00    -0.329 N 
ATOM     12  H   UNL A   1      39.575  34.080  36.726  1.00  0.00     0.347 HD
ATOM     13  H   UNL A   1      40.327  32.554  36.474  1.00  0.00     0.347 HD
BRANCH  11  14
ATOM     14  C   UNL A   1      39.859  33.527  34.797  1.00  0.00     0.208 C 
ATOM     15  C   UNL A   1      39.554  35.028  34.650  1.00  0.00     0.078 C 
BRANCH  14  16
ATOM     16  C   UNL A   1      41.282  33.249  34.203  1.00  0.00     0.169 C 
ATOM     17  C   UNL A   1      41.517  31.758  33.979  1.00  0.00     0.045 C 
BRANCH  16  18
ATOM     18  O   UNL A   1      42.358  33.733  35.003  1.00  0.00    -0.387 OA
ATOM     19  H   UNL A   1      43.156  33.215  34.819  1.00  0.00     0.211 HD
ENDBRANCH  16  18
ENDBRANCH  14  16
ENDBRANCH  11  14
ENDBRANCH   8  11
ENDBRANCH   5   8
ENDBRANCH   3   4
ENDBRANCH   2   3
ENDBRANCH   1   2
BRANCH   1  20
ATOM     20  C   UNL A   1      35.751  33.505  31.368  1.00  0.00     0.002 C 
BRANCH  20  21
ATOM     21  C   UNL A   1      34.774  32.525  30.715  1.00  0.00     0.021 C 
BRANCH  21  22
ATOM     22  C   UNL A   1      34.999  32.315  29.224  1.00  0.00     0.116 C 
BRANCH  22  23
ATOM     23  N   UNL A   1      34.390  31.080  28.754  1.00  0.00    -0.352 N 
ATOM     24  C   UNL A   1      34.998  29.923  28.335  1.00  0.00     0.251 C 
ATOM     25  H   UNL A   1      33.405  31.074  28.733  1.00  0.00     0.163 HD
ATOM     26  O   UNL A   1      34.340  29.054  27.766  1.00  0.00    -0.269 OA
BRANCH  24  27
ATOM     27  C   UNL A   1      36.448  29.739  28.553  1.00  0.00     0.039 A 
ATOM     28  C   UNL A   1      36.895  29.293  29.799  1.00  0.00     0.014 A 
ATOM     29  C   UNL A   1      37.363  29.997  27.528  1.00  0.00     0.014 A 
ATOM     30  C   UNL A   1      38.256  29.053  29.998  1.00  0.00     0.010 A 
ATOM     31  C   UNL A   1      38.706  29.679  27.702  1.00  0.00     0.010 A 
ATOM     32  C   UNL A   1      39.169  29.212  28.942  1.00  0.00    -0.014 A 
BRANCH  32  33
ATOM     33  C   UNL A   1      40.609  28.893  29.115  1.00  0.00     0.031 A 
ATOM     34  C   UNL A   1      41.571  29.956  29.571  1.00  0.00     0.074 A 
ATOM     35  C   UNL A   1      41.062  27.664  28.795  1.00  0.00     0.049 A 
ATOM     36  N   UNL A   1      42.868  29.889  29.719  1.00  0.00    -0.248 NA
ATOM     37  C   UNL A   1      41.000  31.279  29.872  1.00  0.00     0.031 C 
ATOM     38  C   UNL A   1      40.238  26.567  28.285  1.00  0.00     0.029 A 
ATOM     39  N   UNL A   1      42.328  27.138  28.835  1.00  0.00    -0.354 N 
ATOM     40  C   UNL A   1      43.271  31.157  30.118  1.00  0.00     0.074 A 
ATOM     41  C   UNL A   1      42.088  31.990  30.127  1.00  0.00     0.031 C 
ATOM     42  C   UNL A   1      41.016  25.495  28.071  1.00  0.00     0.029 A 
ATOM     43  C   UNL A   1      42.399  25.839  28.389  1.00  0.00     0.049 A 
ATOM     44  H   UNL A   1      43.113  27.642  29.152  1.00  0.00     0.167 HD
ATOM     45  C   UNL A   1      44.509  31.584  30.470  1.00  0.00     0.037 A 
ATOM     46  C   UNL A   1      43.460  25.021  28.234  1.00  0.00     0.037 A 
ATOM     47  C   UNL A   1      45.678  30.744  30.464  1.00  0.00     0.049 A 
ATOM     48  C   UNL A   1      44.826  25.512  28.626  1.00  0.00     0.074 A 
ATOM     49  C   UNL A   1      46.968  31.061  30.855  1.00  0.00     0.029 A 
ATOM     50  N   UNL A   1      45.706  29.424  30.033  1.00  0.00    -0.354 N 
ATOM     51  N   UNL A   1      45.178  26.692  29.078  1.00  0.00    -0.248 NA
ATOM     52  C   UNL A   1      45.937  24.560  28.497  1.00  0.00     0.031 C 
ATOM     53  C   UNL A   1      47.784  29.952  30.607  1.00  0.00     0.029 A 
ATOM     54  C   UNL A   1      46.995  28.922  30.122  1.00  0.00     0.049 A 
ATOM     55  H   UNL A   1      44.924  28.919  29.712  1.00  0.00     0.167 HD
ATOM     56  C   UNL A   1      46.548  26.619  29.307  1.00  0.00     0.074 A 
ATOM     57  C   UNL A   1      46.956  25.273  28.959  1.00  0.00     0.031 C 
ATOM     58  C   UNL A   1      47.389  27.579  29.768  1.00  0.00     0.037 A 
BRANCH  45  59
ATOM     59  C   UNL A   1      44.655  33.027  30.879  1.00  0.00     0.058 A 
ATOM     60  C   UNL A   1      44.629  33.420  32.228  1.00  0.00     0.135 A 
ATOM     61  C   UNL A   1      44.824  34.031  29.912  1.00  0.00     0.135 A 
ATOM     62  F   UNL A   1      44.460  32.506  33.197  1.00  0.00    -0.206 F 
ATOM     63  C   UNL A   1      44.714  34.759  32.599  1.00  0.00     0.059 A 
ATOM     64  C   UNL A   1      44.948  35.372  30.262  1.00  0.00     0.059 A 
ATOM     65  F   UNL A   1      44.862  33.714  28.608  1.00  0.00    -0.206 F 
ATOM     66  C   UNL A   1      44.867  35.729  31.607  1.00  0.00     0.060 A 
BRANCH  66  67
ATOM     67  S   UNL A   1      44.947  37.462  32.103  1.00  0.00     0.124 S 
ATOM     68  O   UNL A   1      45.069  38.128  30.809  1.00  0.00    -0.237 OA
ATOM     69  O   UNL A   1      43.675  37.649  32.792  1.00  0.00    -0.237 OA
ATOM     70  O   UNL A   1      46.132  37.520  32.951  1.00  0.00    -0.744 OA
ENDBRANCH  66  67
ENDBRANCH  45  59
BRANCH  46  71
ATOM     71  C   UNL A   1      43.254  23.651  27.691  1.00  0.00     0.058 A 
ATOM     72  C   UNL A   1      42.757  22.616  28.494  1.00  0.00     0.135 A 
ATOM     73  C   UNL A   1      43.507  23.365  26.339  1.00  0.00     0.135 A 
ATOM     74  F   UNL A   1      42.506  22.837  29.794  1.00  0.00    -0.206 F 
ATOM     75  C   UNL A   1      42.521  21.344  27.981  1.00  0.00     0.059 A 
ATOM     76  C   UNL A   1      43.254  22.110  25.797  1.00  0.00     0.059 A 
ATOM     77  F   UNL A   1      43.967  24.326  25.524  1.00  0.00    -0.206 F 
ATOM     78  C   UNL A   1      42.766  21.104  26.628  1.00  0.00     0.060 A 
BRANCH  78  79
ATOM     79  S   UNL A   1      42.383  19.472  25.954  1.00  0.00     0.124 S 
ATOM     80  O   UNL A   1      40.933  19.541  25.820  1.00  0.00    -0.237 OA
ATOM     81  O   UNL A   1      43.141  19.472  24.707  1.00  0.00    -0.237 OA
ATOM     82  O   UNL A   1      42.881  18.560  26.979  1.00  0.00    -0.744 OA
ENDBRANCH  78  79
ENDBRANCH  46  71
BRANCH  58  83
ATOM     83  C   UNL A   1      48.837  27.206  29.950  1.00  0.00     0.058 A 
ATOM     84  C   UNL A   1      49.803  27.484  28.971  1.00  0.00     0.135 A 
ATOM     85  C   UNL A   1      49.270  26.613  31.147  1.00  0.00     0.135 A 
ATOM     86  F   UNL A   1      49.443  28.042  27.805  1.00  0.00    -0.206 F 
ATOM     87  C   UNL A   1      51.144  27.168  29.164  1.00  0.00     0.059 A 
ATOM     88  C   UNL A   1      50.611  26.319  31.374  1.00  0.00     0.059 A 
ATOM     89  F   UNL A   1      48.389  26.335  32.122  1.00  0.00    -0.206 F 
ATOM     90  C   UNL A   1      51.539  26.589  30.371  1.00  0.00     0.060 A 
BRANCH  90  91
ATOM     91  S   UNL A   1      53.288  26.221  30.623  1.00  0.00     0.124 S 
ATOM     92  O   UNL A   1      53.774  27.475  31.192  1.00  0.00    -0.237 OA
ATOM     93  O   UNL A   1      53.239  25.086  31.539  1.00  0.00    -0.237 OA
ATOM     94  O   UNL A   1      53.768  25.914  29.279  1.00  0.00    -0.744 OA
ENDBRANCH  90  91
ENDBRANCH  58  83
ENDBRANCH  32  33
ENDBRANCH  24  27
ENDBRANCH  22  23
ENDBRANCH  21  22
ENDBRANCH  20  21
ENDBRANCH   1  20
TORSDOF 20
ENDMDL
MODEL 3
REMARK VINA RESULT:      -8.2      0.901      8.594
REMARK SMILES C[C@H](O)[C@H](C)[NH2+]C1(C(=O)NCCCCCCNC(=O)c2ccc(-c3c4nc(c(-c5c(F)cc(S(=O)(=O)[O-])cc5F)c5ccc([nH]5)c(-c5c(F)cc(S(=O)(=O)[O-])cc5F)c5nc(c(-c6c(F)cc(S(=O)(=O)[O-])cc6F)c6ccc3[nH]6)C=C5)C=C4)cc2)CC1
REMARK SMILES IDX 13 1 12 2 11 3 10 4 8 5 9 6 7 8 86 9 87 10 6 11 4 14 5 15
REMARK SMILES IDX 2 16 1 17 3 18 14 20 15 21 16 22 17 23 18 24 19 26 20 27
REMARK SMILES IDX 21 28 85 29 22 30 84 31 23 32 24 33 25 34 78 35 26 36 83 37
REMARK SMILES IDX 77 38 79 39 27 40 82 41 76 42 75 43 28 45 62 46 41 47 61 48
REMARK SMILES IDX 42 49 45 50 60 51 80 52 43 53 44 54 59 56 81 57 46 58 29 59
REMARK SMILES IDX 30 60 39 61 31 62 32 63 38 64 40 65 33 66 34 67 35 68 36 69
REMARK SMILES IDX 37 70 63 71 64 72 73 73 65 74 66 75 72 76 74 77 67 78 68 79
REMARK SMILES IDX 69 80 70 81 71 82 47 83 48 84 57 85 49 86 50 87 56 88 58 89
REMARK SMILES IDX 51 90 52 91 53 92 54 93 55 94
REMARK H PARENT 10 7 6 12 6 13 3 19 17 25 79 44 45 55
REMARK Flexibility Score: inf
ROOT
ATOM      1  C   UNL A   1      35.525  32.362  31.806  1.00  0.00     0.002 C 
ENDROOT
BRANCH   1   2
ATOM      2  C   UNL A   1      34.969  33.031  33.072  1.00  0.00     0.021 C 
BRANCH   2   3
ATOM      3  C   UNL A   1      35.791  34.227  33.551  1.00  0.00     0.116 C 
BRANCH   3   4
ATOM      4  N   UNL A   1      37.017  34.339  32.792  1.00  0.00    -0.351 N 
ATOM      5  C   UNL A   1      38.275  33.849  32.977  1.00  0.00     0.281 C 
ATOM      6  O   UNL A   1      39.158  34.284  32.227  1.00  0.00    -0.268 OA
ATOM      7  H   UNL A   1      36.922  34.879  31.974  1.00  0.00     0.163 HD
BRANCH   5   8
ATOM      8  C   UNL A   1      38.679  32.793  34.005  1.00  0.00     0.176 C 
ATOM      9  C   UNL A   1      39.120  31.443  33.460  1.00  0.00     0.086 C 
ATOM     10  C   UNL A   1      37.930  31.534  34.362  1.00  0.00     0.086 C 
BRANCH   8  11
ATOM     11  N   UNL A   1      39.578  33.406  35.037  1.00  0.00    -0.329 N 
ATOM     12  H   UNL A   1      39.837  32.670  35.694  1.00  0.00     0.347 HD
ATOM     13  H   UNL A   1      40.354  33.803  34.509  1.00  0.00     0.347 HD
BRANCH  11  14
ATOM     14  C   UNL A   1      39.034  34.527  35.818  1.00  0.00     0.208 C 
ATOM     15  C   UNL A   1      38.346  33.889  37.037  1.00  0.00     0.078 C 
BRANCH  14  16
ATOM     16  C   UNL A   1      40.000  35.651  36.324  1.00  0.00     0.169 C 
ATOM     17  C   UNL A   1      39.669  36.079  37.751  1.00  0.00     0.045 C 
BRANCH  16  18
ATOM     18  O   UNL A   1      40.006  36.827  35.519  1.00  0.00    -0.387 OA
ATOM     19  H   UNL A   1      40.539  36.671  34.723  1.00  0.00     0.211 HD
ENDBRANCH  16  18
ENDBRANCH  14  16
ENDBRANCH  11  14
ENDBRANCH   8  11
ENDBRANCH   5   8
ENDBRANCH   3   4
ENDBRANCH   2   3
ENDBRANCH   1   2
BRANCH   1  20
ATOM     20  C   UNL A   1      34.673  32.545  30.544  1.00  0.00     0.002 C 
BRANCH  20  21
ATOM     21  C   UNL A   1      35.358  33.307  29.408  1.00  0.00     0.021 C 
BRANCH  21  22
ATOM     22  C   UNL A   1      35.087  32.742  28.021  1.00  0.00     0.116 C 
BRANCH  22  23
ATOM     23  N   UNL A   1      34.236  31.563  28.073  1.00  0.00    -0.352 N 
ATOM     24  C   UNL A   1      34.598  30.239  28.097  1.00  0.00     0.251 C 
ATOM     25  H   UNL A   1      33.267  31.739  28.095  1.00  0.00     0.163 HD
ATOM     26  O   UNL A   1      33.749  29.367  27.923  1.00  0.00    -0.269 OA
BRANCH  24  27
ATOM     27  C   UNL A   1      36.012  29.871  28.312  1.00  0.00     0.039 A 
ATOM     28  C   UNL A   1      36.913  29.988  27.250  1.00  0.00     0.014 A 
ATOM     29  C   UNL A   1      36.451  29.418  29.559  1.00  0.00     0.014 A 
ATOM     30  C   UNL A   1      38.265  29.705  27.457  1.00  0.00     0.010 A 
ATOM     31  C   UNL A   1      37.809  29.216  29.785  1.00  0.00     0.010 A 
ATOM     32  C   UNL A   1      38.729  29.348  28.734  1.00  0.00    -0.014 A 
BRANCH  32  33
ATOM     33  C   UNL A   1      40.174  29.113  28.990  1.00  0.00     0.031 A 
ATOM     34  C   UNL A   1      40.794  27.783  28.659  1.00  0.00     0.074 A 
ATOM     35  C   UNL A   1      40.911  30.074  29.581  1.00  0.00     0.049 A 
ATOM     36  N   UNL A   1      42.016  27.366  28.867  1.00  0.00    -0.248 NA
ATOM     37  C   UNL A   1      39.914  26.778  28.041  1.00  0.00     0.031 C 
ATOM     38  C   UNL A   1      40.409  31.383  30.003  1.00  0.00     0.029 A 
ATOM     39  N   UNL A   1      42.233  30.092  29.947  1.00  0.00    -0.354 N 
ATOM     40  C   UNL A   1      42.051  26.052  28.416  1.00  0.00     0.074 A 
ATOM     41  C   UNL A   1      40.710  25.720  27.985  1.00  0.00     0.031 C 
ATOM     42  C   UNL A   1      41.412  32.081  30.558  1.00  0.00     0.029 A 
ATOM     43  C   UNL A   1      42.617  31.256  30.569  1.00  0.00     0.049 A 
ATOM     44  H   UNL A   1      42.849  29.342  29.780  1.00  0.00     0.167 HD
ATOM     45  C   UNL A   1      43.108  25.207  28.345  1.00  0.00     0.037 A 
ATOM     46  C   UNL A   1      43.801  31.615  31.106  1.00  0.00     0.037 A 
ATOM     47  C   UNL A   1      44.439  25.550  28.773  1.00  0.00     0.049 A 
ATOM     48  C   UNL A   1      44.961  30.662  31.022  1.00  0.00     0.074 A 
ATOM     49  C   UNL A   1      45.592  24.787  28.693  1.00  0.00     0.029 A 
ATOM     50  N   UNL A   1      44.797  26.749  29.372  1.00  0.00    -0.354 N 
ATOM     51  N   UNL A   1      44.997  29.451  30.521  1.00  0.00    -0.248 NA
ATOM     52  C   UNL A   1      46.244  31.127  31.566  1.00  0.00     0.031 C 
ATOM     53  C   UNL A   1      46.632  25.504  29.295  1.00  0.00     0.029 A 
ATOM     54  C   UNL A   1      46.145  26.738  29.692  1.00  0.00     0.049 A 
ATOM     55  H   UNL A   1      44.182  27.500  29.544  1.00  0.00     0.167 HD
ATOM     56  C   UNL A   1      46.309  29.015  30.670  1.00  0.00     0.074 A 
ATOM     57  C   UNL A   1      47.038  30.101  31.293  1.00  0.00     0.031 C 
ATOM     58  C   UNL A   1      46.859  27.826  30.318  1.00  0.00     0.037 A 
BRANCH  45  59
ATOM     59  C   UNL A   1      42.856  23.826  27.795  1.00  0.00     0.058 A 
ATOM     60  C   UNL A   1      42.847  23.570  26.414  1.00  0.00     0.135 A 
ATOM     61  C   UNL A   1      42.620  22.744  28.659  1.00  0.00     0.135 A 
ATOM     62  F   UNL A   1      43.055  24.567  25.539  1.00  0.00    -0.206 F 
ATOM     63  C   UNL A   1      42.565  22.304  25.908  1.00  0.00     0.059 A 
ATOM     64  C   UNL A   1      42.372  21.462  28.177  1.00  0.00     0.059 A 
ATOM     65  F   UNL A   1      42.622  22.927  29.989  1.00  0.00    -0.206 F 
ATOM     66  C   UNL A   1      42.322  21.258  26.798  1.00  0.00     0.060 A 
BRANCH  66  67
ATOM     67  S   UNL A   1      41.929  19.630  26.127  1.00  0.00     0.124 S 
ATOM     68  O   UNL A   1      40.501  19.767  25.852  1.00  0.00    -0.237 OA
ATOM     69  O   UNL A   1      42.793  19.558  24.954  1.00  0.00    -0.237 OA
ATOM     70  O   UNL A   1      42.272  18.720  27.214  1.00  0.00    -0.744 OA
ENDBRANCH  66  67
ENDBRANCH  45  59
BRANCH  46  71
ATOM     71  C   UNL A   1      43.934  32.945  31.759  1.00  0.00     0.058 A 
ATOM     72  C   UNL A   1      44.358  34.070  31.039  1.00  0.00     0.135 A 
ATOM     73  C   UNL A   1      43.593  33.124  33.110  1.00  0.00     0.135 A 
ATOM     74  F   UNL A   1      44.703  33.950  29.748  1.00  0.00    -0.206 F 
ATOM     75  C   UNL A   1      44.444  35.326  31.633  1.00  0.00     0.059 A 
ATOM     76  C   UNL A   1      43.644  34.373  33.719  1.00  0.00     0.059 A 
ATOM     77  F   UNL A   1      43.164  32.082  33.838  1.00  0.00    -0.206 F 
ATOM     78  C   UNL A   1      44.076  35.468  32.973  1.00  0.00     0.060 A 
BRANCH  78  79
ATOM     79  S   UNL A   1      44.117  37.115  33.713  1.00  0.00     0.124 S 
ATOM     80  O   UNL A   1      42.796  37.196  34.325  1.00  0.00    -0.237 OA
ATOM     81  O   UNL A   1      45.243  37.007  34.635  1.00  0.00    -0.237 OA
ATOM     82  O   UNL A   1      44.338  37.993  32.568  1.00  0.00    -0.744 OA
ENDBRANCH  78  79
ENDBRANCH  46  71
BRANCH  58  83
ATOM     83  C   UNL A   1      48.331  27.638  30.574  1.00  0.00     0.058 A 
ATOM     84  C   UNL A   1      48.812  27.088  31.772  1.00  0.00     0.135 A 
ATOM     85  C   UNL A   1      49.270  27.961  29.580  1.00  0.00     0.135 A 
ATOM     86  F   UNL A   1      47.960  26.768  32.759  1.00  0.00    -0.206 F 
ATOM     87  C   UNL A   1      50.171  26.884  31.984  1.00  0.00     0.059 A 
ATOM     88  C   UNL A   1      50.631  27.737  29.758  1.00  0.00     0.059 A 
ATOM     89  F   UNL A   1      48.864  28.482  28.410  1.00  0.00    -0.206 F 
ATOM     90  C   UNL A   1      51.074  27.208  30.969  1.00  0.00     0.060 A 
BRANCH  90  91
ATOM     91  S   UNL A   1      52.831  26.903  31.244  1.00  0.00     0.124 S 
ATOM     92  O   UNL A   1      52.810  25.568  31.834  1.00  0.00    -0.237 OA
ATOM     93  O   UNL A   1      53.377  26.990  29.893  1.00  0.00    -0.237 OA
ATOM     94  O   UNL A   1      53.228  27.980  32.145  1.00  0.00    -0.744 OA
ENDBRANCH  90  91
ENDBRANCH  58  83
ENDBRANCH  32  33
ENDBRANCH  24  27
ENDBRANCH  22  23
ENDBRANCH  21  22
ENDBRANCH  20  21
ENDBRANCH   1  20
TORSDOF 20
ENDMDL
