MODEL 1
REMARK VINA RESULT:     -11.5      0.000      0.000
REMARK SMILES COc1ccc(-n2c(SCc3cn(-c4ccc(C(=O)NCCCCCCNC(=O)c5ccc(-c6c7nc(c(-c8c(F)cc(S(=O)(=O)[O-])cc8F)c8ccc([nH]8)c(-c8c(F)cc(S(=O)(=O)[O-])cc8F)c8nc(c(-c9c(F)cc(S(=O)(=O)[O-])cc9F)c9ccc6[nH]9)C=C8)C=C7)cc5)cc4)nn3)nc3ccccc3c2=O)cc1
REMARK SMILES IDX 22 1 21 2 20 3 18 4 19 5 17 7 14 8 15 9 97 10 16 11 96 12
REMARK SMILES IDX 13 13 11 14 12 15 99 16 98 17 10 18 9 19 8 20 7 21 107 22
REMARK SMILES IDX 100 23 106 24 108 25 101 26 105 27 102 28 104 29 103 30 6 31
REMARK SMILES IDX 3 32 4 33 110 34 5 35 109 36 2 37 1 38 23 39 24 40 25 41
REMARK SMILES IDX 26 42 27 43 28 44 29 46 30 47 31 48 95 49 32 50 94 51 33 52
REMARK SMILES IDX 34 53 35 54 88 55 36 56 93 57 87 58 89 59 37 60 92 61 86 62
REMARK SMILES IDX 85 63 38 65 72 66 51 67 71 68 52 69 55 70 70 71 90 72 53 73
REMARK SMILES IDX 54 74 69 76 91 77 56 78 39 79 40 80 49 81 41 82 42 83 48 84
REMARK SMILES IDX 50 85 43 86 44 87 45 88 46 89 47 90 73 91 74 92 83 93 75 94
REMARK SMILES IDX 76 95 82 96 84 97 77 98 78 99 79 100 80 101 81 102 57 103
REMARK SMILES IDX 58 104 67 105 59 106 60 107 66 108 68 109 61 110 62 111
REMARK SMILES IDX 63 112 64 113 65 114
REMARK H PARENT 20 6 27 45 89 64 55 75
REMARK Flexibility Score: inf
ROOT
ATOM      1  C   UNL A   1      39.613  29.554  30.309  1.00  0.00     0.021 C 
ENDROOT
BRANCH   1   2
ATOM      2  C   UNL A   1      40.005  28.079  30.440  1.00  0.00     0.116 C 
BRANCH   2   3
ATOM      3  N   UNL A   1      41.369  27.873  29.992  1.00  0.00    -0.352 N 
ATOM      4  C   UNL A   1      41.959  26.983  29.134  1.00  0.00     0.251 C 
ATOM      5  O   UNL A   1      43.166  27.115  28.929  1.00  0.00    -0.269 OA
ATOM      6  H   UNL A   1      42.008  28.508  30.390  1.00  0.00     0.163 HD
BRANCH   4   7
ATOM      7  C   UNL A   1      41.218  25.909  28.415  1.00  0.00     0.039 A 
ATOM      8  C   UNL A   1      39.697  24.001  27.047  1.00  0.00     0.066 A 
ATOM      9  C   UNL A   1      39.354  25.348  26.940  1.00  0.00     0.029 A 
ATOM     10  C   UNL A   1      40.803  23.607  27.799  1.00  0.00     0.029 A 
ATOM     11  C   UNL A   1      40.098  26.292  27.652  1.00  0.00     0.016 A 
ATOM     12  C   UNL A   1      41.591  24.567  28.419  1.00  0.00     0.016 A 
BRANCH   8  13
ATOM     13  N   UNL A   1      38.964  23.017  26.372  1.00  0.00    -0.220 N 
ATOM     14  C   UNL A   1      37.397  21.919  25.361  1.00  0.00     0.093 A 
ATOM     15  C   UNL A   1      37.659  23.108  25.978  1.00  0.00     0.141 A 
ATOM     16  N   UNL A   1      38.502  21.119  25.453  1.00  0.00    -0.134 NA
ATOM     17  N   UNL A   1      39.482  21.835  25.988  1.00  0.00    -0.062 NA
BRANCH  14  18
ATOM     18  C   UNL A   1      36.200  21.571  24.586  1.00  0.00     0.138 C 
BRANCH  18  19
ATOM     19  S   UNL A   1      35.198  22.987  24.174  1.00  0.00    -0.081 SA
BRANCH  19  20
ATOM     20  C   UNL A   1      33.767  22.830  25.291  1.00  0.00     0.176 A 
ATOM     21  N   UNL A   1      32.636  22.430  24.602  1.00  0.00    -0.255 N 
ATOM     22  C   UNL A   1      31.907  23.457  24.015  1.00  0.00     0.266 A 
ATOM     23  N   UNL A   1      33.624  23.784  26.165  1.00  0.00    -0.223 NA
ATOM     24  C   UNL A   1      32.446  24.827  24.323  1.00  0.00     0.066 A 
ATOM     25  O   UNL A   1      30.943  23.331  23.268  1.00  0.00    -0.268 OA
ATOM     26  C   UNL A   1      33.217  24.955  25.496  1.00  0.00     0.079 A 
ATOM     27  C   UNL A   1      32.471  25.834  23.363  1.00  0.00     0.016 A 
ATOM     28  C   UNL A   1      33.873  26.149  25.788  1.00  0.00     0.029 A 
ATOM     29  C   UNL A   1      33.231  26.984  23.608  1.00  0.00     0.001 A 
ATOM     30  C   UNL A   1      33.893  27.160  24.831  1.00  0.00     0.002 A 
BRANCH  21  31
ATOM     31  C   UNL A   1      32.404  21.054  24.373  1.00  0.00     0.052 A 
ATOM     32  C   UNL A   1      32.649  18.326  23.762  1.00  0.00     0.119 A 
ATOM     33  C   UNL A   1      32.723  18.752  25.089  1.00  0.00     0.048 A 
ATOM     34  C   UNL A   1      32.315  19.242  22.765  1.00  0.00     0.048 A 
ATOM     35  C   UNL A   1      32.641  20.118  25.390  1.00  0.00     0.030 A 
ATOM     36  C   UNL A   1      32.161  20.600  23.075  1.00  0.00     0.030 A 
BRANCH  32  37
ATOM     37  O   UNL A   1      32.887  16.999  23.524  1.00  0.00    -0.497 OA
ATOM     38  C   UNL A   1      34.265  16.670  23.324  1.00  0.00     0.278 C 
ENDBRANCH  32  37
ENDBRANCH  21  31
ENDBRANCH  19  20
ENDBRANCH  18  19
ENDBRANCH  14  18
ENDBRANCH   8  13
ENDBRANCH   4   7
ENDBRANCH   2   3
ENDBRANCH   1   2
BRANCH   1  39
ATOM     39  C   UNL A   1      39.073  29.904  28.916  1.00  0.00     0.002 C 
BRANCH  39  40
ATOM     40  C   UNL A   1      37.883  29.051  28.444  1.00  0.00     0.002 C 
BRANCH  40  41
ATOM     41  C   UNL A   1      37.034  29.652  27.312  1.00  0.00     0.021 C 
BRANCH  41  42
ATOM     42  C   UNL A   1      35.546  29.401  27.490  1.00  0.00     0.116 C 
BRANCH  42  43
ATOM     43  N   UNL A   1      34.749  30.576  27.142  1.00  0.00    -0.352 N 
ATOM     44  C   UNL A   1      34.525  31.724  27.886  1.00  0.00     0.251 C 
ATOM     45  H   UNL A   1      34.312  30.547  26.260  1.00  0.00     0.163 HD
ATOM     46  O   UNL A   1      33.552  32.416  27.674  1.00  0.00    -0.269 OA
BRANCH  44  47
ATOM     47  C   UNL A   1      35.511  32.093  28.924  1.00  0.00     0.039 A 
ATOM     48  C   UNL A   1      35.494  31.508  30.193  1.00  0.00     0.014 A 
ATOM     49  C   UNL A   1      36.464  33.059  28.607  1.00  0.00     0.014 A 
ATOM     50  C   UNL A   1      36.476  31.883  31.112  1.00  0.00     0.010 A 
ATOM     51  C   UNL A   1      37.537  33.270  29.427  1.00  0.00     0.010 A 
ATOM     52  C   UNL A   1      37.501  32.759  30.713  1.00  0.00    -0.014 A 
BRANCH  52  53
ATOM     53  C   UNL A   1      38.674  33.006  31.542  1.00  0.00     0.031 A 
ATOM     54  C   UNL A   1      39.770  33.621  30.761  1.00  0.00     0.074 A 
ATOM     55  C   UNL A   1      38.679  32.899  32.892  1.00  0.00     0.049 A 
ATOM     56  N   UNL A   1      40.814  33.010  30.311  1.00  0.00    -0.248 NA
ATOM     57  C   UNL A   1      39.582  34.965  30.185  1.00  0.00     0.031 C 
ATOM     58  C   UNL A   1      37.571  32.526  33.778  1.00  0.00     0.029 A 
ATOM     59  N   UNL A   1      39.674  33.187  33.783  1.00  0.00    -0.354 N 
ATOM     60  C   UNL A   1      41.574  33.997  29.700  1.00  0.00     0.074 A 
ATOM     61  C   UNL A   1      40.659  35.062  29.398  1.00  0.00     0.031 C 
ATOM     62  C   UNL A   1      37.885  32.827  35.060  1.00  0.00     0.029 A 
ATOM     63  C   UNL A   1      39.260  33.288  35.118  1.00  0.00     0.049 A 
ATOM     64  H   UNL A   1      40.611  33.314  33.507  1.00  0.00     0.167 HD
ATOM     65  C   UNL A   1      42.929  33.986  29.845  1.00  0.00     0.037 A 
ATOM     66  C   UNL A   1      39.998  33.729  36.179  1.00  0.00     0.037 A 
ATOM     67  C   UNL A   1      43.374  32.699  30.342  1.00  0.00     0.049 A 
ATOM     68  C   UNL A   1      41.428  33.570  35.796  1.00  0.00     0.074 A 
ATOM     69  C   UNL A   1      43.186  31.386  29.946  1.00  0.00     0.029 A 
ATOM     70  N   UNL A   1      43.772  32.638  31.657  1.00  0.00    -0.354 N 
ATOM     71  N   UNL A   1      41.991  32.403  35.636  1.00  0.00    -0.248 NA
ATOM     72  C   UNL A   1      42.053  34.667  35.072  1.00  0.00     0.031 C 
ATOM     73  C   UNL A   1      42.991  30.660  31.157  1.00  0.00     0.029 A 
ATOM     74  C   UNL A   1      43.191  31.533  32.225  1.00  0.00     0.049 A 
ATOM     75  H   UNL A   1      44.369  33.275  32.112  1.00  0.00     0.167 HD
ATOM     76  C   UNL A   1      42.698  32.519  34.449  1.00  0.00     0.074 A 
ATOM     77  C   UNL A   1      42.754  33.958  34.181  1.00  0.00     0.031 C 
ATOM     78  C   UNL A   1      42.887  31.439  33.634  1.00  0.00     0.037 A 
BRANCH  65  79
ATOM     79  C   UNL A   1      43.777  35.230  29.998  1.00  0.00     0.058 A 
ATOM     80  C   UNL A   1      44.893  35.384  29.150  1.00  0.00     0.135 A 
ATOM     81  C   UNL A   1      43.733  36.105  31.108  1.00  0.00     0.135 A 
ATOM     82  F   UNL A   1      45.039  34.608  28.064  1.00  0.00    -0.206 F 
ATOM     83  C   UNL A   1      45.932  36.268  29.435  1.00  0.00     0.059 A 
ATOM     84  C   UNL A   1      44.732  37.029  31.381  1.00  0.00     0.059 A 
ATOM     85  F   UNL A   1      42.775  36.056  32.037  1.00  0.00    -0.206 F 
ATOM     86  C   UNL A   1      45.846  37.079  30.562  1.00  0.00     0.060 A 
BRANCH  86  87
ATOM     87  S   UNL A   1      47.208  38.180  30.965  1.00  0.00     0.124 S 
ATOM     88  O   UNL A   1      46.549  39.480  30.936  1.00  0.00    -0.237 OA
ATOM     89  O   UNL A   1      47.606  37.689  32.279  1.00  0.00    -0.237 OA
ATOM     90  O   UNL A   1      48.166  37.931  29.891  1.00  0.00    -0.744 OA
ENDBRANCH  86  87
ENDBRANCH  65  79
BRANCH  66  91
ATOM     91  C   UNL A   1      39.578  34.559  37.352  1.00  0.00     0.058 A 
ATOM     92  C   UNL A   1      39.280  33.980  38.607  1.00  0.00     0.135 A 
ATOM     93  C   UNL A   1      39.751  35.956  37.360  1.00  0.00     0.135 A 
ATOM     94  F   UNL A   1      39.096  32.654  38.712  1.00  0.00    -0.206 F 
ATOM     95  C   UNL A   1      39.242  34.725  39.796  1.00  0.00     0.059 A 
ATOM     96  C   UNL A   1      39.709  36.720  38.528  1.00  0.00     0.059 A 
ATOM     97  F   UNL A   1      40.067  36.622  36.241  1.00  0.00    -0.206 F 
ATOM     98  C   UNL A   1      39.492  36.095  39.750  1.00  0.00     0.060 A 
BRANCH  98  99
ATOM     99  S   UNL A   1      39.689  37.036  41.286  1.00  0.00     0.124 S 
ATOM    100  O   UNL A   1      38.994  36.196  42.253  1.00  0.00    -0.237 OA
ATOM    101  O   UNL A   1      41.141  37.105  41.425  1.00  0.00    -0.237 OA
ATOM    102  O   UNL A   1      39.040  38.310  40.984  1.00  0.00    -0.744 OA
ENDBRANCH  98  99
ENDBRANCH  66  91
BRANCH  78 103
ATOM    103  C   UNL A   1      42.591  30.065  34.177  1.00  0.00     0.058 A 
ATOM    104  C   UNL A   1      41.359  29.392  34.068  1.00  0.00     0.135 A 
ATOM    105  C   UNL A   1      43.659  29.348  34.737  1.00  0.00     0.135 A 
ATOM    106  F   UNL A   1      40.319  29.954  33.435  1.00  0.00    -0.206 F 
ATOM    107  C   UNL A   1      41.182  28.097  34.560  1.00  0.00     0.059 A 
ATOM    108  C   UNL A   1      43.516  28.046  35.200  1.00  0.00     0.059 A 
ATOM    109  F   UNL A   1      44.880  29.904  34.806  1.00  0.00    -0.206 F 
ATOM    110  C   UNL A   1      42.267  27.436  35.136  1.00  0.00     0.060 A 
BRANCH 110 111
ATOM    111  S   UNL A   1      42.047  25.764  35.778  1.00  0.00     0.124 S 
ATOM    112  O   UNL A   1      40.595  25.660  35.868  1.00  0.00    -0.237 OA
ATOM    113  O   UNL A   1      42.681  24.943  34.752  1.00  0.00    -0.237 OA
ATOM    114  O   UNL A   1      42.749  25.796  37.059  1.00  0.00    -0.744 OA
ENDBRANCH 110 111
ENDBRANCH  78 103
ENDBRANCH  52  53
ENDBRANCH  44  47
ENDBRANCH  42  43
ENDBRANCH  41  42
ENDBRANCH  40  41
ENDBRANCH  39  40
ENDBRANCH   1  39
TORSDOF 22
ENDMDL
MODEL 2
REMARK VINA RESULT:     -10.9      5.567     11.083
REMARK SMILES COc1ccc(-n2c(SCc3cn(-c4ccc(C(=O)NCCCCCCNC(=O)c5ccc(-c6c7nc(c(-c8c(F)cc(S(=O)(=O)[O-])cc8F)c8ccc([nH]8)c(-c8c(F)cc(S(=O)(=O)[O-])cc8F)c8nc(c(-c9c(F)cc(S(=O)(=O)[O-])cc9F)c9ccc6[nH]9)C=C8)C=C7)cc5)cc4)nn3)nc3ccccc3c2=O)cc1
REMARK SMILES IDX 22 1 21 2 20 3 18 4 19 5 17 7 14 8 15 9 97 10 16 11 96 12
REMARK SMILES IDX 13 13 11 14 12 15 99 16 98 17 10 18 9 19 8 20 7 21 107 22
REMARK SMILES IDX 100 23 106 24 108 25 101 26 105 27 102 28 104 29 103 30 6 31
REMARK SMILES IDX 3 32 4 33 110 34 5 35 109 36 2 37 1 38 23 39 24 40 25 41
REMARK SMILES IDX 26 42 27 43 28 44 29 46 30 47 31 48 95 49 32 50 94 51 33 52
REMARK SMILES IDX 34 53 35 54 88 55 36 56 93 57 87 58 89 59 37 60 92 61 86 62
REMARK SMILES IDX 85 63 38 65 72 66 51 67 71 68 52 69 55 70 70 71 90 72 53 73
REMARK SMILES IDX 54 74 69 76 91 77 56 78 39 79 40 80 49 81 41 82 42 83 48 84
REMARK SMILES IDX 50 85 43 86 44 87 45 88 46 89 47 90 73 91 74 92 83 93 75 94
REMARK SMILES IDX 76 95 82 96 84 97 77 98 78 99 79 100 80 101 81 102 57 103
REMARK SMILES IDX 58 104 67 105 59 106 60 107 66 108 68 109 61 110 62 111
REMARK SMILES IDX 63 112 64 113 65 114
REMARK H PARENT 20 6 27 45 89 64 55 75
REMARK Flexibility Score: inf
ROOT
ATOM      1  C   UNL A   1      37.510  29.467  29.855  1.00  0.00     0.021 C 
ENDROOT
BRANCH   1   2
ATOM      2  C   UNL A   1      38.305  30.102  28.710  1.00  0.00     0.116 C 
BRANCH   2   3
ATOM      3  N   UNL A   1      39.731  29.981  28.953  1.00  0.00    -0.352 N 
ATOM      4  C   UNL A   1      40.629  28.956  28.820  1.00  0.00     0.251 C 
ATOM      5  O   UNL A   1      41.810  29.207  29.069  1.00  0.00    -0.269 OA
ATOM      6  H   UNL A   1      40.139  30.814  29.283  1.00  0.00     0.163 HD
BRANCH   4   7
ATOM      7  C   UNL A   1      40.265  27.588  28.357  1.00  0.00     0.039 A 
ATOM      8  C   UNL A   1      39.603  25.073  27.326  1.00  0.00     0.066 A 
ATOM      9  C   UNL A   1      40.302  25.974  26.524  1.00  0.00     0.029 A 
ATOM     10  C   UNL A   1      39.264  25.404  28.638  1.00  0.00     0.029 A 
ATOM     11  C   UNL A   1      40.601  27.240  27.035  1.00  0.00     0.016 A 
ATOM     12  C   UNL A   1      39.655  26.628  29.162  1.00  0.00     0.016 A 
BRANCH   8  13
ATOM     13  N   UNL A   1      39.260  23.802  26.848  1.00  0.00    -0.220 N 
ATOM     14  C   UNL A   1      38.230  22.133  25.933  1.00  0.00     0.093 A 
ATOM     15  C   UNL A   1      38.102  23.464  26.208  1.00  0.00     0.141 A 
ATOM     16  N   UNL A   1      39.406  21.683  26.466  1.00  0.00    -0.134 NA
ATOM     17  N   UNL A   1      40.069  22.730  26.938  1.00  0.00    -0.062 NA
BRANCH  14  18
ATOM     18  C   UNL A   1      37.352  21.318  25.087  1.00  0.00     0.138 C 
BRANCH  18  19
ATOM     19  S   UNL A   1      36.110  22.276  24.240  1.00  0.00    -0.081 SA
BRANCH  19  20
ATOM     20  C   UNL A   1      34.641  22.093  25.303  1.00  0.00     0.176 A 
ATOM     21  N   UNL A   1      33.737  21.200  24.757  1.00  0.00    -0.255 N 
ATOM     22  C   UNL A   1      32.849  21.744  23.837  1.00  0.00     0.266 A 
ATOM     23  N   UNL A   1      34.160  23.197  25.799  1.00  0.00    -0.223 NA
ATOM     24  C   UNL A   1      32.987  23.234  23.678  1.00  0.00     0.066 A 
ATOM     25  O   UNL A   1      32.043  21.127  23.148  1.00  0.00    -0.268 OA
ATOM     26  C   UNL A   1      33.556  23.935  24.761  1.00  0.00     0.079 A 
ATOM     27  C   UNL A   1      32.875  23.850  22.436  1.00  0.00     0.016 A 
ATOM     28  C   UNL A   1      33.853  25.291  24.652  1.00  0.00     0.029 A 
ATOM     29  C   UNL A   1      33.287  25.181  22.300  1.00  0.00     0.001 A 
ATOM     30  C   UNL A   1      33.733  25.910  23.410  1.00  0.00     0.002 A 
BRANCH  21  31
ATOM     31  C   UNL A   1      33.885  19.815  24.999  1.00  0.00     0.052 A 
ATOM     32  C   UNL A   1      33.744  17.013  24.905  1.00  0.00     0.119 A 
ATOM     33  C   UNL A   1      34.813  17.678  24.301  1.00  0.00     0.048 A 
ATOM     34  C   UNL A   1      32.830  17.738  25.670  1.00  0.00     0.048 A 
ATOM     35  C   UNL A   1      34.862  19.078  24.313  1.00  0.00     0.030 A 
ATOM     36  C   UNL A   1      32.919  19.135  25.744  1.00  0.00     0.030 A 
BRANCH  32  37
ATOM     37  O   UNL A   1      33.678  15.658  24.727  1.00  0.00    -0.497 OA
ATOM     38  C   UNL A   1      32.627  15.015  25.455  1.00  0.00     0.278 C 
ENDBRANCH  32  37
ENDBRANCH  21  31
ENDBRANCH  19  20
ENDBRANCH  18  19
ENDBRANCH  14  18
ENDBRANCH   8  13
ENDBRANCH   4   7
ENDBRANCH   2   3
ENDBRANCH   1   2
BRANCH   1  39
ATOM     39  C   UNL A   1      37.471  30.348  31.111  1.00  0.00     0.002 C 
BRANCH  39  40
ATOM     40  C   UNL A   1      37.863  29.637  32.418  1.00  0.00     0.002 C 
BRANCH  40  41
ATOM     41  C   UNL A   1      39.156  30.130  33.088  1.00  0.00     0.021 C 
BRANCH  41  42
ATOM     42  C   UNL A   1      40.081  28.997  33.497  1.00  0.00     0.116 C 
BRANCH  42  43
ATOM     43  N   UNL A   1      40.432  29.062  34.914  1.00  0.00    -0.352 N 
ATOM     44  C   UNL A   1      41.440  28.393  35.590  1.00  0.00     0.251 C 
ATOM     45  H   UNL A   1      39.877  29.662  35.463  1.00  0.00     0.163 HD
ATOM     46  O   UNL A   1      41.371  28.219  36.788  1.00  0.00    -0.269 OA
BRANCH  44  47
ATOM     47  C   UNL A   1      42.610  27.918  34.818  1.00  0.00     0.039 A 
ATOM     48  C   UNL A   1      42.764  26.573  34.473  1.00  0.00     0.014 A 
ATOM     49  C   UNL A   1      43.572  28.854  34.448  1.00  0.00     0.014 A 
ATOM     50  C   UNL A   1      43.876  26.203  33.717  1.00  0.00     0.010 A 
ATOM     51  C   UNL A   1      44.542  28.530  33.541  1.00  0.00     0.010 A 
ATOM     52  C   UNL A   1      44.756  27.195  33.246  1.00  0.00    -0.014 A 
BRANCH  52  53
ATOM     53  C   UNL A   1      45.796  26.904  32.267  1.00  0.00     0.031 A 
ATOM     54  C   UNL A   1      47.070  26.535  32.924  1.00  0.00     0.074 A 
ATOM     55  C   UNL A   1      45.566  26.767  30.940  1.00  0.00     0.049 A 
ATOM     56  N   UNL A   1      48.097  27.304  33.072  1.00  0.00    -0.248 NA
ATOM     57  C   UNL A   1      47.137  25.305  33.734  1.00  0.00     0.031 C 
ATOM     58  C   UNL A   1      44.291  26.878  30.223  1.00  0.00     0.029 A 
ATOM     59  N   UNL A   1      46.427  26.409  29.941  1.00  0.00    -0.354 N 
ATOM     60  C   UNL A   1      49.056  26.512  33.685  1.00  0.00     0.074 A 
ATOM     61  C   UNL A   1      48.332  25.443  34.318  1.00  0.00     0.031 C 
ATOM     62  C   UNL A   1      44.423  26.380  28.971  1.00  0.00     0.029 A 
ATOM     63  C   UNL A   1      45.813  26.035  28.738  1.00  0.00     0.049 A 
ATOM     64  H   UNL A   1      47.405  26.415  30.058  1.00  0.00     0.167 HD
ATOM     65  C   UNL A   1      50.357  26.612  33.295  1.00  0.00     0.037 A 
ATOM     66  C   UNL A   1      46.411  25.476  27.646  1.00  0.00     0.037 A 
ATOM     67  C   UNL A   1      50.563  27.822  32.524  1.00  0.00     0.049 A 
ATOM     68  C   UNL A   1      47.857  25.822  27.731  1.00  0.00     0.074 A 
ATOM     69  C   UNL A   1      50.292  29.163  32.730  1.00  0.00     0.029 A 
ATOM     70  N   UNL A   1      50.728  27.679  31.166  1.00  0.00    -0.354 N 
ATOM     71  N   UNL A   1      48.299  27.043  27.594  1.00  0.00    -0.248 NA
ATOM     72  C   UNL A   1      48.715  24.930  28.497  1.00  0.00     0.031 C 
ATOM     73  C   UNL A   1      49.817  29.641  31.473  1.00  0.00     0.029 A 
ATOM     74  C   UNL A   1      49.938  28.610  30.542  1.00  0.00     0.049 A 
ATOM     75  H   UNL A   1      51.311  27.024  30.719  1.00  0.00     0.167 HD
ATOM     76  C   UNL A   1      49.202  27.202  28.635  1.00  0.00     0.074 A 
ATOM     77  C   UNL A   1      49.467  25.845  29.118  1.00  0.00     0.031 C 
ATOM     78  C   UNL A   1      49.397  28.424  29.217  1.00  0.00     0.037 A 
BRANCH  65  79
ATOM     79  C   UNL A   1      51.306  25.438  33.193  1.00  0.00     0.058 A 
ATOM     80  C   UNL A   1      50.933  24.347  32.381  1.00  0.00     0.135 A 
ATOM     81  C   UNL A   1      52.391  25.198  34.069  1.00  0.00     0.135 A 
ATOM     82  F   UNL A   1      49.917  24.460  31.510  1.00  0.00    -0.206 F 
ATOM     83  C   UNL A   1      51.523  23.090  32.499  1.00  0.00     0.059 A 
ATOM     84  C   UNL A   1      53.028  23.969  34.163  1.00  0.00     0.059 A 
ATOM     85  F   UNL A   1      52.836  26.105  34.943  1.00  0.00    -0.206 F 
ATOM     86  C   UNL A   1      52.564  22.909  33.403  1.00  0.00     0.060 A 
BRANCH  86  87
ATOM     87  S   UNL A   1      53.292  21.278  33.599  1.00  0.00     0.124 S 
ATOM     88  O   UNL A   1      54.544  21.596  34.275  1.00  0.00    -0.237 OA
ATOM     89  O   UNL A   1      52.281  20.598  34.401  1.00  0.00    -0.237 OA
ATOM     90  O   UNL A   1      53.418  20.802  32.224  1.00  0.00    -0.744 OA
ENDBRANCH  86  87
ENDBRANCH  65  79
BRANCH  66  91
ATOM     91  C   UNL A   1      45.902  24.415  26.720  1.00  0.00     0.058 A 
ATOM     92  C   UNL A   1      46.392  24.280  25.401  1.00  0.00     0.135 A 
ATOM     93  C   UNL A   1      45.150  23.325  27.197  1.00  0.00     0.135 A 
ATOM     94  F   UNL A   1      47.122  25.262  24.847  1.00  0.00    -0.206 F 
ATOM     95  C   UNL A   1      46.219  23.110  24.643  1.00  0.00     0.059 A 
ATOM     96  C   UNL A   1      44.957  22.155  26.460  1.00  0.00     0.059 A 
ATOM     97  F   UNL A   1      44.657  23.316  28.443  1.00  0.00    -0.206 F 
ATOM     98  C   UNL A   1      45.526  22.037  25.198  1.00  0.00     0.060 A 
BRANCH  98  99
ATOM     99  S   UNL A   1      45.495  20.436  24.347  1.00  0.00     0.124 S 
ATOM    100  O   UNL A   1      46.912  20.111  24.254  1.00  0.00    -0.237 OA
ATOM    101  O   UNL A   1      44.708  19.613  25.261  1.00  0.00    -0.237 OA
ATOM    102  O   UNL A   1      44.839  20.744  23.078  1.00  0.00    -0.744 OA
ENDBRANCH  98  99
ENDBRANCH  66  91
BRANCH  78 103
ATOM    103  C   UNL A   1      48.858  29.648  28.521  1.00  0.00     0.058 A 
ATOM    104  C   UNL A   1      49.485  30.324  27.458  1.00  0.00     0.135 A 
ATOM    105  C   UNL A   1      47.574  30.082  28.881  1.00  0.00     0.135 A 
ATOM    106  F   UNL A   1      50.658  29.899  26.965  1.00  0.00    -0.206 F 
ATOM    107  C   UNL A   1      48.894  31.426  26.836  1.00  0.00     0.059 A 
ATOM    108  C   UNL A   1      46.951  31.153  28.253  1.00  0.00     0.059 A 
ATOM    109  F   UNL A   1      46.888  29.436  29.839  1.00  0.00    -0.206 F 
ATOM    110  C   UNL A   1      47.628  31.840  27.250  1.00  0.00     0.060 A 
BRANCH 110 111
ATOM    111  S   UNL A   1      46.858  33.266  26.456  1.00  0.00     0.124 S 
ATOM    112  O   UNL A   1      45.786  32.644  25.687  1.00  0.00    -0.237 OA
ATOM    113  O   UNL A   1      46.437  34.075  27.595  1.00  0.00    -0.237 OA
ATOM    114  O   UNL A   1      47.941  33.841  25.662  1.00  0.00    -0.744 OA
ENDBRANCH 110 111
ENDBRANCH  78 103
ENDBRANCH  52  53
ENDBRANCH  44  47
ENDBRANCH  42  43
ENDBRANCH  41  42
ENDBRANCH  40  41
ENDBRANCH  39  40
ENDBRANCH   1  39
TORSDOF 22
ENDMDL
MODEL 3
REMARK VINA RESULT:     -10.7      4.956      9.303
REMARK SMILES COc1ccc(-n2c(SCc3cn(-c4ccc(C(=O)NCCCCCCNC(=O)c5ccc(-c6c7nc(c(-c8c(F)cc(S(=O)(=O)[O-])cc8F)c8ccc([nH]8)c(-c8c(F)cc(S(=O)(=O)[O-])cc8F)c8nc(c(-c9c(F)cc(S(=O)(=O)[O-])cc9F)c9ccc6[nH]9)C=C8)C=C7)cc5)cc4)nn3)nc3ccccc3c2=O)cc1
REMARK SMILES IDX 22 1 21 2 20 3 18 4 19 5 17 7 14 8 15 9 97 10 16 11 96 12
REMARK SMILES IDX 13 13 11 14 12 15 99 16 98 17 10 18 9 19 8 20 7 21 107 22
REMARK SMILES IDX 100 23 106 24 108 25 101 26 105 27 102 28 104 29 103 30 6 31
REMARK SMILES IDX 3 32 4 33 110 34 5 35 109 36 2 37 1 38 23 39 24 40 25 41
REMARK SMILES IDX 26 42 27 43 28 44 29 46 30 47 31 48 95 49 32 50 94 51 33 52
REMARK SMILES IDX 34 53 35 54 88 55 36 56 93 57 87 58 89 59 37 60 92 61 86 62
REMARK SMILES IDX 85 63 38 65 72 66 51 67 71 68 52 69 55 70 70 71 90 72 53 73
REMARK SMILES IDX 54 74 69 76 91 77 56 78 39 79 40 80 49 81 41 82 42 83 48 84
REMARK SMILES IDX 50 85 43 86 44 87 45 88 46 89 47 90 73 91 74 92 83 93 75 94
REMARK SMILES IDX 76 95 82 96 84 97 77 98 78 99 79 100 80 101 81 102 57 103
REMARK SMILES IDX 58 104 67 105 59 106 60 107 66 108 68 109 61 110 62 111
REMARK SMILES IDX 63 112 64 113 65 114
REMARK H PARENT 20 6 27 45 89 64 55 75
REMARK Flexibility Score: inf
ROOT
ATOM      1  C   UNL A   1      44.417  39.615  29.952  1.00  0.00     0.021 C 
ENDROOT
BRANCH   1   2
ATOM      2  C   UNL A   1      43.777  38.250  29.682  1.00  0.00     0.116 C 
BRANCH   2   3
ATOM      3  N   UNL A   1      42.822  38.341  28.594  1.00  0.00    -0.352 N 
ATOM      4  C   UNL A   1      42.422  37.475  27.611  1.00  0.00     0.251 C 
ATOM      5  O   UNL A   1      41.528  37.857  26.855  1.00  0.00    -0.269 OA
ATOM      6  H   UNL A   1      42.363  39.212  28.553  1.00  0.00     0.163 HD
BRANCH   4   7
ATOM      7  C   UNL A   1      42.973  36.102  27.441  1.00  0.00     0.039 A 
ATOM      8  C   UNL A   1      43.956  33.527  26.962  1.00  0.00     0.066 A 
ATOM      9  C   UNL A   1      43.689  34.365  25.880  1.00  0.00     0.029 A 
ATOM     10  C   UNL A   1      43.769  33.972  28.270  1.00  0.00     0.029 A 
ATOM     11  C   UNL A   1      43.168  35.638  26.126  1.00  0.00     0.016 A 
ATOM     12  C   UNL A   1      43.345  35.274  28.499  1.00  0.00     0.016 A 
BRANCH   8  13
ATOM     13  N   UNL A   1      44.455  32.234  26.762  1.00  0.00    -0.220 N 
ATOM     14  C   UNL A   1      44.878  30.118  26.936  1.00  0.00     0.093 A 
ATOM     15  C   UNL A   1      44.170  31.131  27.516  1.00  0.00     0.141 A 
ATOM     16  N   UNL A   1      45.619  30.629  25.907  1.00  0.00    -0.134 NA
ATOM     17  N   UNL A   1      45.280  31.902  25.751  1.00  0.00    -0.062 NA
BRANCH  14  18
ATOM     18  C   UNL A   1      44.777  28.686  27.236  1.00  0.00     0.138 C 
BRANCH  18  19
ATOM     19  S   UNL A   1      43.240  27.964  26.693  1.00  0.00    -0.081 SA
BRANCH  19  20
ATOM     20  C   UNL A   1      42.917  26.674  27.938  1.00  0.00     0.176 A 
ATOM     21  N   UNL A   1      42.216  25.614  27.390  1.00  0.00    -0.255 N 
ATOM     22  C   UNL A   1      40.835  25.765  27.371  1.00  0.00     0.266 A 
ATOM     23  N   UNL A   1      42.534  27.098  29.107  1.00  0.00    -0.223 NA
ATOM     24  C   UNL A   1      40.361  27.027  28.039  1.00  0.00     0.066 A 
ATOM     25  O   UNL A   1      40.027  25.014  26.836  1.00  0.00    -0.268 OA
ATOM     26  C   UNL A   1      41.220  27.595  29.001  1.00  0.00     0.079 A 
ATOM     27  C   UNL A   1      39.306  27.774  27.523  1.00  0.00     0.016 A 
ATOM     28  C   UNL A   1      40.931  28.835  29.568  1.00  0.00     0.029 A 
ATOM     29  C   UNL A   1      39.092  29.069  28.011  1.00  0.00     0.001 A 
ATOM     30  C   UNL A   1      39.872  29.580  29.057  1.00  0.00     0.002 A 
BRANCH  21  31
ATOM     31  C   UNL A   1      42.915  24.576  26.730  1.00  0.00     0.052 A 
ATOM     32  C   UNL A   1      43.638  22.230  25.371  1.00  0.00     0.119 A 
ATOM     33  C   UNL A   1      43.413  23.408  24.657  1.00  0.00     0.048 A 
ATOM     34  C   UNL A   1      43.639  22.263  26.766  1.00  0.00     0.048 A 
ATOM     35  C   UNL A   1      43.012  24.569  25.331  1.00  0.00     0.030 A 
ATOM     36  C   UNL A   1      43.309  23.444  27.446  1.00  0.00     0.030 A 
BRANCH  32  37
ATOM     37  O   UNL A   1      43.879  21.098  24.640  1.00  0.00    -0.497 OA
ATOM     38  C   UNL A   1      45.242  20.663  24.651  1.00  0.00     0.278 C 
ENDBRANCH  32  37
ENDBRANCH  21  31
ENDBRANCH  19  20
ENDBRANCH  18  19
ENDBRANCH  14  18
ENDBRANCH   8  13
ENDBRANCH   4   7
ENDBRANCH   2   3
ENDBRANCH   1   2
BRANCH   1  39
ATOM     39  C   UNL A   1      43.381  40.735  30.121  1.00  0.00     0.002 C 
BRANCH  39  40
ATOM     40  C   UNL A   1      42.725  40.810  31.511  1.00  0.00     0.002 C 
BRANCH  40  41
ATOM     41  C   UNL A   1      43.116  42.021  32.373  1.00  0.00     0.021 C 
BRANCH  41  42
ATOM     42  C   UNL A   1      43.406  41.652  33.818  1.00  0.00     0.116 C 
BRANCH  42  43
ATOM     43  N   UNL A   1      44.770  41.159  33.993  1.00  0.00    -0.352 N 
ATOM     44  C   UNL A   1      45.195  39.959  34.542  1.00  0.00     0.251 C 
ATOM     45  H   UNL A   1      45.484  41.761  33.679  1.00  0.00     0.163 HD
ATOM     46  O   UNL A   1      46.315  39.849  34.993  1.00  0.00    -0.269 OA
BRANCH  44  47
ATOM     47  C   UNL A   1      44.257  38.815  34.544  1.00  0.00     0.039 A 
ATOM     48  C   UNL A   1      43.863  38.188  33.360  1.00  0.00     0.014 A 
ATOM     49  C   UNL A   1      43.762  38.380  35.771  1.00  0.00     0.014 A 
ATOM     50  C   UNL A   1      43.000  37.094  33.441  1.00  0.00     0.010 A 
ATOM     51  C   UNL A   1      43.089  37.193  35.864  1.00  0.00     0.010 A 
ATOM     52  C   UNL A   1      42.627  36.598  34.703  1.00  0.00    -0.014 A 
BRANCH  52  53
ATOM     53  C   UNL A   1      41.924  35.330  34.859  1.00  0.00     0.031 A 
ATOM     54  C   UNL A   1      42.678  34.213  34.247  1.00  0.00     0.074 A 
ATOM     55  C   UNL A   1      40.841  35.161  35.654  1.00  0.00     0.049 A 
ATOM     56  N   UNL A   1      42.424  33.663  33.107  1.00  0.00    -0.248 NA
ATOM     57  C   UNL A   1      43.994  33.841  34.798  1.00  0.00     0.031 C 
ATOM     58  C   UNL A   1      40.163  36.158  36.490  1.00  0.00     0.029 A 
ATOM     59  N   UNL A   1      40.154  34.019  35.955  1.00  0.00    -0.354 N 
ATOM     60  C   UNL A   1      43.350  32.638  32.986  1.00  0.00     0.074 A 
ATOM     61  C   UNL A   1      44.431  32.985  33.868  1.00  0.00     0.031 C 
ATOM     62  C   UNL A   1      39.326  35.539  37.356  1.00  0.00     0.029 A 
ATOM     63  C   UNL A   1      39.298  34.119  37.060  1.00  0.00     0.049 A 
ATOM     64  H   UNL A   1      40.253  33.189  35.435  1.00  0.00     0.167 HD
ATOM     65  C   UNL A   1      42.964  31.443  32.461  1.00  0.00     0.037 A 
ATOM     66  C   UNL A   1      38.629  33.103  37.680  1.00  0.00     0.037 A 
ATOM     67  C   UNL A   1      41.692  31.577  31.779  1.00  0.00     0.049 A 
ATOM     68  C   UNL A   1      38.531  31.994  36.691  1.00  0.00     0.074 A 
ATOM     69  C   UNL A   1      41.202  32.418  30.794  1.00  0.00     0.029 A 
ATOM     70  N   UNL A   1      40.585  31.050  32.404  1.00  0.00    -0.354 N 
ATOM     71  N   UNL A   1      37.804  32.076  35.609  1.00  0.00    -0.248 NA
ATOM     72  C   UNL A   1      39.640  31.053  36.627  1.00  0.00     0.031 C 
ATOM     73  C   UNL A   1      39.874  32.734  31.206  1.00  0.00     0.029 A 
ATOM     74  C   UNL A   1      39.581  31.981  32.343  1.00  0.00     0.049 A 
ATOM     75  H   UNL A   1      40.525  30.161  32.821  1.00  0.00     0.167 HD
ATOM     76  C   UNL A   1      38.628  31.595  34.602  1.00  0.00     0.074 A 
ATOM     77  C   UNL A   1      39.723  30.917  35.299  1.00  0.00     0.031 C 
ATOM     78  C   UNL A   1      38.524  32.066  33.323  1.00  0.00     0.037 A 
BRANCH  65  79
ATOM     79  C   UNL A   1      43.461  30.100  32.950  1.00  0.00     0.058 A 
ATOM     80  C   UNL A   1      43.823  29.133  31.989  1.00  0.00     0.135 A 
ATOM     81  C   UNL A   1      43.313  29.616  34.270  1.00  0.00     0.135 A 
ATOM     82  F   UNL A   1      43.993  29.478  30.702  1.00  0.00    -0.206 F 
ATOM     83  C   UNL A   1      43.932  27.777  32.296  1.00  0.00     0.059 A 
ATOM     84  C   UNL A   1      43.470  28.278  34.607  1.00  0.00     0.059 A 
ATOM     85  F   UNL A   1      42.921  30.386  35.289  1.00  0.00    -0.206 F 
ATOM     86  C   UNL A   1      43.742  27.360  33.608  1.00  0.00     0.060 A 
BRANCH  86  87
ATOM     87  S   UNL A   1      43.827  25.607  33.999  1.00  0.00     0.124 S 
ATOM     88  O   UNL A   1      44.150  25.034  32.698  1.00  0.00    -0.237 OA
ATOM     89  O   UNL A   1      44.889  25.579  34.998  1.00  0.00    -0.237 OA
ATOM     90  O   UNL A   1      42.489  25.314  34.506  1.00  0.00    -0.744 OA
ENDBRANCH  86  87
ENDBRANCH  65  79
BRANCH  66  91
ATOM     91  C   UNL A   1      38.355  32.893  39.137  1.00  0.00     0.058 A 
ATOM     92  C   UNL A   1      39.364  33.047  40.115  1.00  0.00     0.135 A 
ATOM     93  C   UNL A   1      37.038  32.839  39.634  1.00  0.00     0.135 A 
ATOM     94  F   UNL A   1      40.655  33.111  39.750  1.00  0.00    -0.206 F 
ATOM     95  C   UNL A   1      39.078  33.218  41.479  1.00  0.00     0.059 A 
ATOM     96  C   UNL A   1      36.730  32.998  40.987  1.00  0.00     0.059 A 
ATOM     97  F   UNL A   1      35.990  32.727  38.807  1.00  0.00    -0.206 F 
ATOM     98  C   UNL A   1      37.751  33.226  41.901  1.00  0.00     0.060 A 
BRANCH  98  99
ATOM     99  S   UNL A   1      37.340  33.684  43.606  1.00  0.00     0.124 S 
ATOM    100  O   UNL A   1      36.652  34.956  43.425  1.00  0.00    -0.237 OA
ATOM    101  O   UNL A   1      36.511  32.564  44.039  1.00  0.00    -0.237 OA
ATOM    102  O   UNL A   1      38.647  33.768  44.255  1.00  0.00    -0.744 OA
ENDBRANCH  98  99
ENDBRANCH  66  91
BRANCH  78 103
ATOM    103  C   UNL A   1      37.310  32.879  32.951  1.00  0.00     0.058 A 
ATOM    104  C   UNL A   1      37.176  34.269  33.124  1.00  0.00     0.135 A 
ATOM    105  C   UNL A   1      36.275  32.219  32.271  1.00  0.00     0.135 A 
ATOM    106  F   UNL A   1      38.170  34.999  33.651  1.00  0.00    -0.206 F 
ATOM    107  C   UNL A   1      36.033  34.955  32.708  1.00  0.00     0.059 A 
ATOM    108  C   UNL A   1      35.146  32.887  31.816  1.00  0.00     0.059 A 
ATOM    109  F   UNL A   1      36.372  30.906  32.008  1.00  0.00    -0.206 F 
ATOM    110  C   UNL A   1      35.016  34.251  32.063  1.00  0.00     0.060 A 
BRANCH 110 111
ATOM    111  S   UNL A   1      33.533  35.127  31.524  1.00  0.00     0.124 S 
ATOM    112  O   UNL A   1      33.970  36.518  31.562  1.00  0.00    -0.237 OA
ATOM    113  O   UNL A   1      33.299  34.569  30.196  1.00  0.00    -0.237 OA
ATOM    114  O   UNL A   1      32.537  34.760  32.528  1.00  0.00    -0.744 OA
ENDBRANCH 110 111
ENDBRANCH  78 103
ENDBRANCH  52  53
ENDBRANCH  44  47
ENDBRANCH  42  43
ENDBRANCH  41  42
ENDBRANCH  40  41
ENDBRANCH  39  40
ENDBRANCH   1  39
TORSDOF 22
ENDMDL
