MODEL 1
REMARK VINA RESULT:     -10.7      0.000      0.000
REMARK SMILES CC[NH2+][C@]1(C(=O)NCCCCCCNC(=O)c2ccc(-c3c4nc(c(-c5c(F)cc(S(=O)(=O)[O-])cc5F)c5ccc([nH]5)c(-c5c(F)cc(S(=O)(=O)[O-])cc5F)c5nc(c(-c6c(F)cc(S(=O)(=O)[O-])cc6F)c6ccc3[nH]6)C=C5)C=C4)cc2)CCC[C@H]1CC[N@H+]1CCC[C@@H](CC)C1
REMARK SMILES IDX 10 1 9 2 8 3 7 4 5 5 6 6 4 8 83 9 86 10 84 11 85 12 3 13
REMARK SMILES IDX 2 16 1 17 87 18 88 19 89 20 90 21 96 22 91 24 93 25 92 26
REMARK SMILES IDX 94 27 95 28 11 29 12 30 13 31 14 32 15 33 16 35 17 36 18 37
REMARK SMILES IDX 82 38 19 39 81 40 20 41 21 42 22 43 75 44 23 45 80 46 74 47
REMARK SMILES IDX 76 48 24 49 79 50 73 51 72 52 25 54 59 55 38 56 58 57 39 58
REMARK SMILES IDX 42 59 57 60 77 61 40 62 41 63 56 65 78 66 43 67 26 68 27 69
REMARK SMILES IDX 36 70 28 71 29 72 35 73 37 74 30 75 31 76 32 77 33 78 34 79
REMARK SMILES IDX 60 80 61 81 70 82 62 83 63 84 69 85 71 86 64 87 65 88 66 89
REMARK SMILES IDX 67 90 68 91 44 92 45 93 54 94 46 95 47 96 53 97 55 98 48 99
REMARK SMILES IDX 49 100 50 101 51 102 52 103
REMARK H PARENT 7 7 3 14 3 15 89 23 14 34 76 53 42 64
REMARK Flexibility Score: inf
ROOT
ATOM      1  C   UNL A   1      38.928  22.119  26.146  1.00  0.00     0.002 C 
ENDROOT
BRANCH   1   2
ATOM      2  C   UNL A   1      37.749  21.644  25.288  1.00  0.00     0.021 C 
BRANCH   2   3
ATOM      3  C   UNL A   1      36.512  22.533  25.348  1.00  0.00     0.116 C 
BRANCH   3   4
ATOM      4  N   UNL A   1      35.716  22.227  26.510  1.00  0.00    -0.351 N 
ATOM      5  C   UNL A   1      34.390  22.356  26.737  1.00  0.00     0.281 C 
ATOM      6  O   UNL A   1      34.127  22.628  27.913  1.00  0.00    -0.268 OA
ATOM      7  H   UNL A   1      36.226  21.862  27.269  1.00  0.00     0.163 HD
BRANCH   5   8
ATOM      8  C   UNL A   1      33.278  22.237  25.643  1.00  0.00     0.178 C 
ATOM      9  C   UNL A   1      31.855  22.047  26.212  1.00  0.00     0.079 C 
ATOM     10  C   UNL A   1      33.077  23.552  24.797  1.00  0.00     0.066 C 
ATOM     11  C   UNL A   1      30.863  22.527  25.169  1.00  0.00     0.008 C 
ATOM     12  C   UNL A   1      31.640  23.431  24.233  1.00  0.00     0.011 C 
BRANCH   8  13
ATOM     13  N   UNL A   1      33.571  21.056  24.762  1.00  0.00    -0.334 N 
ATOM     14  H   UNL A   1      33.333  21.304  23.801  1.00  0.00     0.347 HD
ATOM     15  H   UNL A   1      34.562  20.839  24.875  1.00  0.00     0.347 HD
BRANCH  13  16
ATOM     16  C   UNL A   1      32.823  19.843  25.128  1.00  0.00     0.257 C 
ATOM     17  C   UNL A   1      32.541  18.992  23.897  1.00  0.00     0.071 C 
ENDBRANCH  13  16
ENDBRANCH   8  13
BRANCH  10  18
ATOM     18  C   UNL A   1      33.216  24.917  25.535  1.00  0.00     0.072 C 
BRANCH  18  19
ATOM     19  C   UNL A   1      33.852  26.075  24.736  1.00  0.00     0.262 C 
BRANCH  19  20
ATOM     20  N   UNL A   1      33.430  27.390  25.237  1.00  0.00    -0.335 N 
ATOM     21  C   UNL A   1      32.025  27.409  25.650  1.00  0.00     0.262 C 
ATOM     22  C   UNL A   1      34.307  27.886  26.305  1.00  0.00     0.265 C 
ATOM     23  H   UNL A   1      33.517  28.031  24.448  1.00  0.00     0.348 HD
ATOM     24  C   UNL A   1      31.588  28.818  26.063  1.00  0.00     0.062 C 
ATOM     25  C   UNL A   1      33.972  29.356  26.613  1.00  0.00     0.044 C 
ATOM     26  C   UNL A   1      32.523  29.428  27.107  1.00  0.00     0.015 C 
BRANCH  25  27
ATOM     27  C   UNL A   1      34.956  29.966  27.626  1.00  0.00     0.006 C 
ATOM     28  C   UNL A   1      34.797  31.481  27.735  1.00  0.00     0.004 C 
ENDBRANCH  25  27
ENDBRANCH  19  20
ENDBRANCH  18  19
ENDBRANCH  10  18
ENDBRANCH   5   8
ENDBRANCH   3   4
ENDBRANCH   2   3
ENDBRANCH   1   2
BRANCH   1  29
ATOM     29  C   UNL A   1      40.076  21.118  26.300  1.00  0.00     0.002 C 
BRANCH  29  30
ATOM     30  C   UNL A   1      41.228  21.577  27.195  1.00  0.00     0.021 C 
BRANCH  30  31
ATOM     31  C   UNL A   1      41.244  23.067  27.493  1.00  0.00     0.116 C 
BRANCH  31  32
ATOM     32  N   UNL A   1      41.497  23.855  26.300  1.00  0.00    -0.352 N 
ATOM     33  C   UNL A   1      41.441  25.218  26.143  1.00  0.00     0.251 C 
ATOM     34  H   UNL A   1      41.742  23.343  25.495  1.00  0.00     0.163 HD
ATOM     35  O   UNL A   1      41.470  25.711  25.023  1.00  0.00    -0.269 OA
BRANCH  33  36
ATOM     36  C   UNL A   1      41.321  26.079  27.340  1.00  0.00     0.039 A 
ATOM     37  C   UNL A   1      42.324  27.012  27.603  1.00  0.00     0.014 A 
ATOM     38  C   UNL A   1      40.217  25.969  28.191  1.00  0.00     0.014 A 
ATOM     39  C   UNL A   1      42.195  27.872  28.695  1.00  0.00     0.010 A 
ATOM     40  C   UNL A   1      40.050  26.881  29.228  1.00  0.00     0.010 A 
ATOM     41  C   UNL A   1      41.042  27.835  29.499  1.00  0.00    -0.014 A 
BRANCH  41  42
ATOM     42  C   UNL A   1      40.863  28.782  30.629  1.00  0.00     0.031 A 
ATOM     43  C   UNL A   1      41.705  28.644  31.869  1.00  0.00     0.074 A 
ATOM     44  C   UNL A   1      39.905  29.726  30.562  1.00  0.00     0.049 A 
ATOM     45  N   UNL A   1      41.660  29.337  32.978  1.00  0.00    -0.248 NA
ATOM     46  C   UNL A   1      42.710  27.567  31.876  1.00  0.00     0.031 C 
ATOM     47  C   UNL A   1      38.990  29.923  29.434  1.00  0.00     0.029 A 
ATOM     48  N   UNL A   1      39.529  30.690  31.463  1.00  0.00    -0.354 N 
ATOM     49  C   UNL A   1      42.616  28.772  33.816  1.00  0.00     0.074 A 
ATOM     50  C   UNL A   1      43.186  27.646  33.110  1.00  0.00     0.031 C 
ATOM     51  C   UNL A   1      38.177  30.956  29.703  1.00  0.00     0.029 A 
ATOM     52  C   UNL A   1      38.480  31.469  31.035  1.00  0.00     0.049 A 
ATOM     53  H   UNL A   1      39.971  30.813  32.334  1.00  0.00     0.167 HD
ATOM     54  C   UNL A   1      42.998  29.171  35.052  1.00  0.00     0.037 A 
ATOM     55  C   UNL A   1      37.827  32.474  31.650  1.00  0.00     0.037 A 
ATOM     56  C   UNL A   1      42.440  30.308  35.737  1.00  0.00     0.049 A 
ATOM     57  C   UNL A   1      38.270  32.901  33.023  1.00  0.00     0.074 A 
ATOM     58  C   UNL A   1      42.804  30.837  36.963  1.00  0.00     0.029 A 
ATOM     59  N   UNL A   1      41.393  31.086  35.263  1.00  0.00    -0.354 N 
ATOM     60  N   UNL A   1      39.227  32.405  33.771  1.00  0.00    -0.248 NA
ATOM     61  C   UNL A   1      37.552  34.028  33.634  1.00  0.00     0.031 C 
ATOM     62  C   UNL A   1      41.941  31.898  37.256  1.00  0.00     0.029 A 
ATOM     63  C   UNL A   1      41.079  32.073  36.184  1.00  0.00     0.049 A 
ATOM     64  H   UNL A   1      40.941  30.956  34.398  1.00  0.00     0.167 HD
ATOM     65  C   UNL A   1      39.246  33.177  34.928  1.00  0.00     0.074 A 
ATOM     66  C   UNL A   1      38.212  34.180  34.774  1.00  0.00     0.031 C 
ATOM     67  C   UNL A   1      40.048  33.068  36.016  1.00  0.00     0.037 A 
BRANCH  54  68
ATOM     68  C   UNL A   1      44.067  28.370  35.748  1.00  0.00     0.058 A 
ATOM     69  C   UNL A   1      45.434  28.637  35.562  1.00  0.00     0.135 A 
ATOM     70  C   UNL A   1      43.719  27.343  36.640  1.00  0.00     0.135 A 
ATOM     71  F   UNL A   1      45.827  29.598  34.710  1.00  0.00    -0.206 F 
ATOM     72  C   UNL A   1      46.416  27.893  36.209  1.00  0.00     0.059 A 
ATOM     73  C   UNL A   1      44.684  26.607  37.323  1.00  0.00     0.059 A 
ATOM     74  F   UNL A   1      42.429  27.045  36.857  1.00  0.00    -0.206 F 
ATOM     75  C   UNL A   1      46.030  26.880  37.089  1.00  0.00     0.060 A 
BRANCH  75  76
ATOM     76  S   UNL A   1      47.317  25.928  37.922  1.00  0.00     0.124 S 
ATOM     77  O   UNL A   1      46.971  24.565  37.530  1.00  0.00    -0.237 OA
ATOM     78  O   UNL A   1      48.537  26.466  37.329  1.00  0.00    -0.237 OA
ATOM     79  O   UNL A   1      47.117  26.243  39.333  1.00  0.00    -0.744 OA
ENDBRANCH  75  76
ENDBRANCH  54  68
BRANCH  55  80
ATOM     80  C   UNL A   1      36.695  33.151  30.962  1.00  0.00     0.058 A 
ATOM     81  C   UNL A   1      35.369  32.943  31.368  1.00  0.00     0.135 A 
ATOM     82  C   UNL A   1      36.919  34.040  29.899  1.00  0.00     0.135 A 
ATOM     83  F   UNL A   1      35.101  32.098  32.375  1.00  0.00    -0.206 F 
ATOM     84  C   UNL A   1      34.304  33.581  30.740  1.00  0.00     0.059 A 
ATOM     85  C   UNL A   1      35.874  34.712  29.273  1.00  0.00     0.059 A 
ATOM     86  F   UNL A   1      38.170  34.288  29.482  1.00  0.00    -0.206 F 
ATOM     87  C   UNL A   1      34.568  34.469  29.694  1.00  0.00     0.060 A 
BRANCH  87  88
ATOM     88  S   UNL A   1      33.183  35.334  28.923  1.00  0.00     0.124 S 
ATOM     89  O   UNL A   1      32.581  34.274  28.125  1.00  0.00    -0.237 OA
ATOM     90  O   UNL A   1      32.415  35.777  30.083  1.00  0.00    -0.237 OA
ATOM     91  O   UNL A   1      33.834  36.401  28.168  1.00  0.00    -0.744 OA
ENDBRANCH  87  88
ENDBRANCH  55  80
BRANCH  67  92
ATOM     92  C   UNL A   1      39.868  34.077  37.118  1.00  0.00     0.058 A 
ATOM     93  C   UNL A   1      40.410  35.369  37.036  1.00  0.00     0.135 A 
ATOM     94  C   UNL A   1      39.093  33.762  38.247  1.00  0.00     0.135 A 
ATOM     95  F   UNL A   1      41.164  35.721  35.982  1.00  0.00    -0.206 F 
ATOM     96  C   UNL A   1      40.211  36.306  38.045  1.00  0.00     0.059 A 
ATOM     97  C   UNL A   1      38.854  34.693  39.252  1.00  0.00     0.059 A 
ATOM     98  F   UNL A   1      38.543  32.544  38.371  1.00  0.00    -0.206 F 
ATOM     99  C   UNL A   1      39.427  35.960  39.147  1.00  0.00     0.060 A 
BRANCH  99 100
ATOM    100  S   UNL A   1      39.146  37.197  40.432  1.00  0.00     0.124 S 
ATOM    101  O   UNL A   1      38.502  36.400  41.471  1.00  0.00    -0.237 OA
ATOM    102  O   UNL A   1      40.502  37.650  40.729  1.00  0.00    -0.237 OA
ATOM    103  O   UNL A   1      38.292  38.182  39.776  1.00  0.00    -0.744 OA
ENDBRANCH  99 100
ENDBRANCH  67  92
ENDBRANCH  41  42
ENDBRANCH  33  36
ENDBRANCH  31  32
ENDBRANCH  30  31
ENDBRANCH  29  30
ENDBRANCH   1  29
TORSDOF 22
ENDMDL
MODEL 2
REMARK VINA RESULT:     -10.1      4.931      7.007
REMARK SMILES CC[NH2+][C@]1(C(=O)NCCCCCCNC(=O)c2ccc(-c3c4nc(c(-c5c(F)cc(S(=O)(=O)[O-])cc5F)c5ccc([nH]5)c(-c5c(F)cc(S(=O)(=O)[O-])cc5F)c5nc(c(-c6c(F)cc(S(=O)(=O)[O-])cc6F)c6ccc3[nH]6)C=C5)C=C4)cc2)CCC[C@H]1CC[N@H+]1CCC[C@@H](CC)C1
REMARK SMILES IDX 10 1 9 2 8 3 7 4 5 5 6 6 4 8 83 9 86 10 84 11 85 12 3 13
REMARK SMILES IDX 2 16 1 17 87 18 88 19 89 20 90 21 96 22 91 24 93 25 92 26
REMARK SMILES IDX 94 27 95 28 11 29 12 30 13 31 14 32 15 33 16 35 17 36 18 37
REMARK SMILES IDX 82 38 19 39 81 40 20 41 21 42 22 43 75 44 23 45 80 46 74 47
REMARK SMILES IDX 76 48 24 49 79 50 73 51 72 52 25 54 59 55 38 56 58 57 39 58
REMARK SMILES IDX 42 59 57 60 77 61 40 62 41 63 56 65 78 66 43 67 26 68 27 69
REMARK SMILES IDX 36 70 28 71 29 72 35 73 37 74 30 75 31 76 32 77 33 78 34 79
REMARK SMILES IDX 60 80 61 81 70 82 62 83 63 84 69 85 71 86 64 87 65 88 66 89
REMARK SMILES IDX 67 90 68 91 44 92 45 93 54 94 46 95 47 96 53 97 55 98 48 99
REMARK SMILES IDX 49 100 50 101 51 102 52 103
REMARK H PARENT 7 7 3 14 3 15 89 23 14 34 76 53 42 64
REMARK Flexibility Score: inf
ROOT
ATOM      1  C   UNL A   1      33.666  23.028  27.252  1.00  0.00     0.002 C 
ENDROOT
BRANCH   1   2
ATOM      2  C   UNL A   1      32.391  23.801  26.899  1.00  0.00     0.021 C 
BRANCH   2   3
ATOM      3  C   UNL A   1      32.623  25.203  26.343  1.00  0.00     0.116 C 
BRANCH   3   4
ATOM      4  N   UNL A   1      31.646  26.127  26.860  1.00  0.00    -0.351 N 
ATOM      5  C   UNL A   1      31.627  27.479  26.882  1.00  0.00     0.281 C 
ATOM      6  O   UNL A   1      31.060  27.936  27.880  1.00  0.00    -0.268 OA
ATOM      7  H   UNL A   1      30.857  25.701  27.267  1.00  0.00     0.163 HD
BRANCH   5   8
ATOM      8  C   UNL A   1      32.290  28.402  25.807  1.00  0.00     0.178 C 
ATOM      9  C   UNL A   1      33.628  27.863  25.256  1.00  0.00     0.079 C 
ATOM     10  C   UNL A   1      31.457  28.525  24.475  1.00  0.00     0.066 C 
ATOM     11  C   UNL A   1      33.853  28.475  23.886  1.00  0.00     0.008 C 
ATOM     12  C   UNL A   1      32.496  28.953  23.410  1.00  0.00     0.011 C 
BRANCH   8  13
ATOM     13  N   UNL A   1      32.564  29.750  26.411  1.00  0.00    -0.334 N 
ATOM     14  H   UNL A   1      32.551  30.446  25.665  1.00  0.00     0.347 HD
ATOM     15  H   UNL A   1      31.840  29.916  27.111  1.00  0.00     0.347 HD
BRANCH  13  16
ATOM     16  C   UNL A   1      33.858  29.838  27.105  1.00  0.00     0.257 C 
ATOM     17  C   UNL A   1      34.074  31.236  27.667  1.00  0.00     0.071 C 
ENDBRANCH  13  16
ENDBRANCH   8  13
BRANCH  10  18
ATOM     18  C   UNL A   1      30.709  27.256  23.969  1.00  0.00     0.072 C 
BRANCH  18  19
ATOM     19  C   UNL A   1      30.711  27.013  22.443  1.00  0.00     0.262 C 
BRANCH  19  20
ATOM     20  N   UNL A   1      31.328  25.728  22.089  1.00  0.00    -0.335 N 
ATOM     21  C   UNL A   1      32.656  25.888  21.493  1.00  0.00     0.262 C 
ATOM     22  C   UNL A   1      31.361  24.795  23.223  1.00  0.00     0.265 C 
ATOM     23  H   UNL A   1      30.728  25.317  21.373  1.00  0.00     0.348 HD
ATOM     24  C   UNL A   1      33.224  24.541  21.036  1.00  0.00     0.062 C 
ATOM     25  C   UNL A   1      31.782  23.397  22.735  1.00  0.00     0.044 C 
ATOM     26  C   UNL A   1      33.195  23.495  22.150  1.00  0.00     0.015 C 
BRANCH  25  27
ATOM     27  C   UNL A   1      31.696  22.351  23.859  1.00  0.00     0.006 C 
ATOM     28  C   UNL A   1      32.419  21.058  23.491  1.00  0.00     0.004 C 
ENDBRANCH  25  27
ENDBRANCH  19  20
ENDBRANCH  18  19
ENDBRANCH  10  18
ENDBRANCH   5   8
ENDBRANCH   3   4
ENDBRANCH   2   3
ENDBRANCH   1   2
BRANCH   1  29
ATOM     29  C   UNL A   1      34.525  22.594  26.061  1.00  0.00     0.002 C 
BRANCH  29  30
ATOM     30  C   UNL A   1      35.303  23.717  25.373  1.00  0.00     0.021 C 
BRANCH  30  31
ATOM     31  C   UNL A   1      36.663  24.012  25.985  1.00  0.00     0.116 C 
BRANCH  31  32
ATOM     32  N   UNL A   1      37.498  22.826  26.044  1.00  0.00    -0.352 N 
ATOM     33  C   UNL A   1      38.847  22.736  26.281  1.00  0.00     0.251 C 
ATOM     34  H   UNL A   1      37.034  21.970  25.895  1.00  0.00     0.163 HD
ATOM     35  O   UNL A   1      39.439  21.683  26.084  1.00  0.00    -0.269 OA
BRANCH  33  36
ATOM     36  C   UNL A   1      39.579  23.932  26.753  1.00  0.00     0.039 A 
ATOM     37  C   UNL A   1      40.053  24.849  25.814  1.00  0.00     0.014 A 
ATOM     38  C   UNL A   1      39.785  24.151  28.119  1.00  0.00     0.014 A 
ATOM     39  C   UNL A   1      40.692  26.011  26.247  1.00  0.00     0.010 A 
ATOM     40  C   UNL A   1      40.347  25.348  28.551  1.00  0.00     0.010 A 
ATOM     41  C   UNL A   1      40.817  26.286  27.620  1.00  0.00    -0.014 A 
BRANCH  41  42
ATOM     42  C   UNL A   1      41.442  27.545  28.097  1.00  0.00     0.031 A 
ATOM     43  C   UNL A   1      42.940  27.694  28.089  1.00  0.00     0.074 A 
ATOM     44  C   UNL A   1      40.666  28.529  28.591  1.00  0.00     0.049 A 
ATOM     45  N   UNL A   1      43.672  28.692  28.514  1.00  0.00    -0.248 NA
ATOM     46  C   UNL A   1      43.719  26.561  27.562  1.00  0.00     0.031 C 
ATOM     47  C   UNL A   1      39.206  28.480  28.701  1.00  0.00     0.029 A 
ATOM     48  N   UNL A   1      40.993  29.759  29.105  1.00  0.00    -0.354 N 
ATOM     49  C   UNL A   1      44.993  28.302  28.319  1.00  0.00     0.074 A 
ATOM     50  C   UNL A   1      44.963  26.956  27.790  1.00  0.00     0.031 C 
ATOM     51  C   UNL A   1      38.764  29.632  29.226  1.00  0.00     0.029 A 
ATOM     52  C   UNL A   1      39.907  30.487  29.531  1.00  0.00     0.049 A 
ATOM     53  H   UNL A   1      41.919  30.088  29.163  1.00  0.00     0.167 HD
ATOM     54  C   UNL A   1      46.125  29.011  28.540  1.00  0.00     0.037 A 
ATOM     55  C   UNL A   1      39.839  31.700  30.113  1.00  0.00     0.037 A 
ATOM     56  C   UNL A   1      46.143  30.359  29.046  1.00  0.00     0.049 A 
ATOM     57  C   UNL A   1      41.111  32.470  30.347  1.00  0.00     0.074 A 
ATOM     58  C   UNL A   1      47.232  31.190  29.242  1.00  0.00     0.029 A 
ATOM     59  N   UNL A   1      45.021  31.072  29.445  1.00  0.00    -0.354 N 
ATOM     60  N   UNL A   1      42.347  32.118  30.086  1.00  0.00    -0.248 NA
ATOM     61  C   UNL A   1      40.980  33.805  30.947  1.00  0.00     0.031 C 
ATOM     62  C   UNL A   1      46.776  32.381  29.813  1.00  0.00     0.029 A 
ATOM     63  C   UNL A   1      45.395  32.321  29.914  1.00  0.00     0.049 A 
ATOM     64  H   UNL A   1      44.096  30.739  29.401  1.00  0.00     0.167 HD
ATOM     65  C   UNL A   1      43.139  33.197  30.463  1.00  0.00     0.074 A 
ATOM     66  C   UNL A   1      42.240  34.219  30.958  1.00  0.00     0.031 C 
ATOM     67  C   UNL A   1      44.487  33.331  30.402  1.00  0.00     0.037 A 
BRANCH  54  68
ATOM     68  C   UNL A   1      47.441  28.340  28.243  1.00  0.00     0.058 A 
ATOM     69  C   UNL A   1      48.035  28.403  26.971  1.00  0.00     0.135 A 
ATOM     70  C   UNL A   1      48.135  27.655  29.253  1.00  0.00     0.135 A 
ATOM     71  F   UNL A   1      47.412  29.032  25.963  1.00  0.00    -0.206 F 
ATOM     72  C   UNL A   1      49.251  27.781  26.705  1.00  0.00     0.059 A 
ATOM     73  C   UNL A   1      49.368  27.054  29.018  1.00  0.00     0.059 A 
ATOM     74  F   UNL A   1      47.616  27.564  30.488  1.00  0.00    -0.206 F 
ATOM     75  C   UNL A   1      49.911  27.110  27.735  1.00  0.00     0.060 A 
BRANCH  75  76
ATOM     76  S   UNL A   1      51.489  26.313  27.372  1.00  0.00     0.124 S 
ATOM     77  O   UNL A   1      51.068  24.942  27.101  1.00  0.00    -0.237 OA
ATOM     78  O   UNL A   1      51.962  27.069  26.217  1.00  0.00    -0.237 OA
ATOM     79  O   UNL A   1      52.257  26.501  28.599  1.00  0.00    -0.744 OA
ENDBRANCH  75  76
ENDBRANCH  54  68
BRANCH  55  80
ATOM     80  C   UNL A   1      38.517  32.263  30.498  1.00  0.00     0.058 A 
ATOM     81  C   UNL A   1      37.873  33.217  29.696  1.00  0.00     0.135 A 
ATOM     82  C   UNL A   1      37.860  31.841  31.664  1.00  0.00     0.135 A 
ATOM     83  F   UNL A   1      38.462  33.659  28.575  1.00  0.00    -0.206 F 
ATOM     84  C   UNL A   1      36.631  33.741  30.041  1.00  0.00     0.059 A 
ATOM     85  C   UNL A   1      36.606  32.329  32.016  1.00  0.00     0.059 A 
ATOM     86  F   UNL A   1      38.425  30.918  32.458  1.00  0.00    -0.206 F 
ATOM     87  C   UNL A   1      36.002  33.286  31.202  1.00  0.00     0.060 A 
BRANCH  87  88
ATOM     88  S   UNL A   1      34.366  33.931  31.610  1.00  0.00     0.124 S 
ATOM     89  O   UNL A   1      33.835  32.873  32.460  1.00  0.00    -0.237 OA
ATOM     90  O   UNL A   1      34.690  35.187  32.279  1.00  0.00    -0.237 OA
ATOM     91  O   UNL A   1      33.726  34.072  30.304  1.00  0.00    -0.744 OA
ENDBRANCH  87  88
ENDBRANCH  55  80
BRANCH  67  92
ATOM     92  C   UNL A   1      45.078  34.642  30.848  1.00  0.00     0.058 A 
ATOM     93  C   UNL A   1      45.500  34.854  32.169  1.00  0.00     0.135 A 
ATOM     94  C   UNL A   1      45.275  35.681  29.922  1.00  0.00     0.135 A 
ATOM     95  F   UNL A   1      45.329  33.897  33.095  1.00  0.00    -0.206 F 
ATOM     96  C   UNL A   1      46.075  36.057  32.564  1.00  0.00     0.059 A 
ATOM     97  C   UNL A   1      45.878  36.880  30.287  1.00  0.00     0.059 A 
ATOM     98  F   UNL A   1      44.900  35.527  28.643  1.00  0.00    -0.206 F 
ATOM     99  C   UNL A   1      46.264  37.063  31.614  1.00  0.00     0.060 A 
BRANCH  99 100
ATOM    100  S   UNL A   1      47.045  38.607  32.131  1.00  0.00     0.124 S 
ATOM    101  O   UNL A   1      47.662  38.215  33.394  1.00  0.00    -0.237 OA
ATOM    102  O   UNL A   1      47.965  38.874  31.030  1.00  0.00    -0.237 OA
ATOM    103  O   UNL A   1      45.924  39.535  32.242  1.00  0.00    -0.744 OA
ENDBRANCH  99 100
ENDBRANCH  67  92
ENDBRANCH  41  42
ENDBRANCH  33  36
ENDBRANCH  31  32
ENDBRANCH  30  31
ENDBRANCH  29  30
ENDBRANCH   1  29
TORSDOF 22
ENDMDL
MODEL 3
REMARK VINA RESULT:     -10.0      1.155      3.827
REMARK SMILES CC[NH2+][C@]1(C(=O)NCCCCCCNC(=O)c2ccc(-c3c4nc(c(-c5c(F)cc(S(=O)(=O)[O-])cc5F)c5ccc([nH]5)c(-c5c(F)cc(S(=O)(=O)[O-])cc5F)c5nc(c(-c6c(F)cc(S(=O)(=O)[O-])cc6F)c6ccc3[nH]6)C=C5)C=C4)cc2)CCC[C@H]1CC[N@H+]1CCC[C@@H](CC)C1
REMARK SMILES IDX 10 1 9 2 8 3 7 4 5 5 6 6 4 8 83 9 86 10 84 11 85 12 3 13
REMARK SMILES IDX 2 16 1 17 87 18 88 19 89 20 90 21 96 22 91 24 93 25 92 26
REMARK SMILES IDX 94 27 95 28 11 29 12 30 13 31 14 32 15 33 16 35 17 36 18 37
REMARK SMILES IDX 82 38 19 39 81 40 20 41 21 42 22 43 75 44 23 45 80 46 74 47
REMARK SMILES IDX 76 48 24 49 79 50 73 51 72 52 25 54 59 55 38 56 58 57 39 58
REMARK SMILES IDX 42 59 57 60 77 61 40 62 41 63 56 65 78 66 43 67 26 68 27 69
REMARK SMILES IDX 36 70 28 71 29 72 35 73 37 74 30 75 31 76 32 77 33 78 34 79
REMARK SMILES IDX 60 80 61 81 70 82 62 83 63 84 69 85 71 86 64 87 65 88 66 89
REMARK SMILES IDX 67 90 68 91 44 92 45 93 54 94 46 95 47 96 53 97 55 98 48 99
REMARK SMILES IDX 49 100 50 101 51 102 52 103
REMARK H PARENT 7 7 3 14 3 15 89 23 14 34 76 53 42 64
REMARK Flexibility Score: inf
ROOT
ATOM      1  C   UNL A   1      37.618  24.012  26.436  1.00  0.00     0.002 C 
ENDROOT
BRANCH   1   2
ATOM      2  C   UNL A   1      36.234  23.564  25.955  1.00  0.00     0.021 C 
BRANCH   2   3
ATOM      3  C   UNL A   1      35.375  24.670  25.349  1.00  0.00     0.116 C 
BRANCH   3   4
ATOM      4  N   UNL A   1      34.043  24.645  25.899  1.00  0.00    -0.351 N 
ATOM      5  C   UNL A   1      32.929  25.330  25.558  1.00  0.00     0.281 C 
ATOM      6  O   UNL A   1      32.204  25.581  26.526  1.00  0.00    -0.268 OA
ATOM      7  H   UNL A   1      33.926  24.022  26.652  1.00  0.00     0.163 HD
BRANCH   5   8
ATOM      8  C   UNL A   1      32.586  25.821  24.113  1.00  0.00     0.178 C 
ATOM      9  C   UNL A   1      33.717  25.592  23.087  1.00  0.00     0.079 C 
ATOM     10  C   UNL A   1      31.412  25.018  23.433  1.00  0.00     0.066 C 
ATOM     11  C   UNL A   1      33.094  25.540  21.704  1.00  0.00     0.008 C 
ATOM     12  C   UNL A   1      31.623  25.239  21.915  1.00  0.00     0.011 C 
BRANCH   8  13
ATOM     13  N   UNL A   1      32.299  27.295  24.144  1.00  0.00    -0.334 N 
ATOM     14  H   UNL A   1      31.876  27.560  23.254  1.00  0.00     0.347 HD
ATOM     15  H   UNL A   1      31.676  27.461  24.935  1.00  0.00     0.347 HD
BRANCH  13  16
ATOM     16  C   UNL A   1      33.493  28.128  24.357  1.00  0.00     0.257 C 
ATOM     17  C   UNL A   1      33.733  29.040  23.162  1.00  0.00     0.071 C 
ENDBRANCH  13  16
ENDBRANCH   8  13
BRANCH  10  18
ATOM     18  C   UNL A   1      31.323  23.488  23.712  1.00  0.00     0.072 C 
BRANCH  18  19
ATOM     19  C   UNL A   1      32.329  22.587  22.963  1.00  0.00     0.262 C 
BRANCH  19  20
ATOM     20  N   UNL A   1      32.881  21.537  23.829  1.00  0.00    -0.335 N 
ATOM     21  C   UNL A   1      32.697  21.828  25.252  1.00  0.00     0.262 C 
ATOM     22  C   UNL A   1      32.366  20.205  23.485  1.00  0.00     0.265 C 
ATOM     23  H   UNL A   1      33.886  21.530  23.653  1.00  0.00     0.348 HD
ATOM     24  C   UNL A   1      33.379  20.770  26.126  1.00  0.00     0.062 C 
ATOM     25  C   UNL A   1      33.159  19.128  24.247  1.00  0.00     0.044 C 
ATOM     26  C   UNL A   1      32.955  19.351  25.750  1.00  0.00     0.015 C 
BRANCH  25  27
ATOM     27  C   UNL A   1      32.753  17.708  23.816  1.00  0.00     0.006 C 
ATOM     28  C   UNL A   1      33.871  17.003  23.052  1.00  0.00     0.004 C 
ENDBRANCH  25  27
ENDBRANCH  19  20
ENDBRANCH  18  19
ENDBRANCH  10  18
ENDBRANCH   5   8
ENDBRANCH   3   4
ENDBRANCH   2   3
ENDBRANCH   1   2
BRANCH   1  29
ATOM     29  C   UNL A   1      38.802  23.250  25.835  1.00  0.00     0.002 C 
BRANCH  29  30
ATOM     30  C   UNL A   1      39.701  22.537  26.846  1.00  0.00     0.021 C 
BRANCH  30  31
ATOM     31  C   UNL A   1      40.920  23.333  27.283  1.00  0.00     0.116 C 
BRANCH  31  32
ATOM     32  N   UNL A   1      41.567  23.991  26.162  1.00  0.00    -0.352 N 
ATOM     33  C   UNL A   1      41.764  25.333  25.951  1.00  0.00     0.251 C 
ATOM     34  H   UNL A   1      41.910  23.394  25.457  1.00  0.00     0.163 HD
ATOM     35  O   UNL A   1      42.132  25.738  24.856  1.00  0.00    -0.269 OA
BRANCH  33  36
ATOM     36  C   UNL A   1      41.504  26.283  27.055  1.00  0.00     0.039 A 
ATOM     37  C   UNL A   1      40.467  26.014  27.948  1.00  0.00     0.014 A 
ATOM     38  C   UNL A   1      42.291  27.430  27.210  1.00  0.00     0.014 A 
ATOM     39  C   UNL A   1      40.249  26.870  29.028  1.00  0.00     0.010 A 
ATOM     40  C   UNL A   1      42.126  28.235  28.333  1.00  0.00     0.010 A 
ATOM     41  C   UNL A   1      41.096  27.971  29.248  1.00  0.00    -0.014 A 
BRANCH  41  42
ATOM     42  C   UNL A   1      40.913  28.858  30.425  1.00  0.00     0.031 A 
ATOM     43  C   UNL A   1      41.760  28.664  31.654  1.00  0.00     0.074 A 
ATOM     44  C   UNL A   1      39.946  29.796  30.408  1.00  0.00     0.049 A 
ATOM     45  N   UNL A   1      41.714  29.300  32.796  1.00  0.00    -0.248 NA
ATOM     46  C   UNL A   1      42.774  27.597  31.603  1.00  0.00     0.031 C 
ATOM     47  C   UNL A   1      39.026  30.042  29.296  1.00  0.00     0.029 A 
ATOM     48  N   UNL A   1      39.566  30.710  31.359  1.00  0.00    -0.354 N 
ATOM     49  C   UNL A   1      42.677  28.702  33.602  1.00  0.00     0.074 A 
ATOM     50  C   UNL A   1      43.254  27.618  32.838  1.00  0.00     0.031 C 
ATOM     51  C   UNL A   1      38.205  31.052  29.618  1.00  0.00     0.029 A 
ATOM     52  C   UNL A   1      38.509  31.500  30.974  1.00  0.00     0.049 A 
ATOM     53  H   UNL A   1      40.010  30.792  32.234  1.00  0.00     0.167 HD
ATOM     54  C   UNL A   1      43.060  29.041  34.855  1.00  0.00     0.037 A 
ATOM     55  C   UNL A   1      37.849  32.467  31.641  1.00  0.00     0.037 A 
ATOM     56  C   UNL A   1      42.494  30.138  35.599  1.00  0.00     0.049 A 
ATOM     57  C   UNL A   1      38.294  32.828  33.033  1.00  0.00     0.074 A 
ATOM     58  C   UNL A   1      42.859  30.607  36.849  1.00  0.00     0.029 A 
ATOM     59  N   UNL A   1      41.440  30.929  35.168  1.00  0.00    -0.354 N 
ATOM     60  N   UNL A   1      39.258  32.304  33.751  1.00  0.00    -0.248 NA
ATOM     61  C   UNL A   1      37.569  33.916  33.702  1.00  0.00     0.031 C 
ATOM     62  C   UNL A   1      41.987  31.643  37.197  1.00  0.00     0.029 A 
ATOM     63  C   UNL A   1      41.121  31.865  36.138  1.00  0.00     0.049 A 
ATOM     64  H   UNL A   1      40.986  30.839  34.298  1.00  0.00     0.167 HD
ATOM     65  C   UNL A   1      39.274  33.016  34.946  1.00  0.00     0.074 A 
ATOM     66  C   UNL A   1      38.231  34.016  34.846  1.00  0.00     0.031 C 
ATOM     67  C   UNL A   1      40.080  32.859  36.024  1.00  0.00     0.037 A 
BRANCH  54  68
ATOM     68  C   UNL A   1      44.138  28.215  35.507  1.00  0.00     0.058 A 
ATOM     69  C   UNL A   1      43.837  27.107  36.315  1.00  0.00     0.135 A 
ATOM     70  C   UNL A   1      45.493  28.516  35.292  1.00  0.00     0.135 A 
ATOM     71  F   UNL A   1      42.559  26.779  36.567  1.00  0.00    -0.206 F 
ATOM     72  C   UNL A   1      44.838  26.348  36.914  1.00  0.00     0.059 A 
ATOM     73  C   UNL A   1      46.512  27.752  35.854  1.00  0.00     0.059 A 
ATOM     74  F   UNL A   1      45.840  29.564  34.529  1.00  0.00    -0.206 F 
ATOM     75  C   UNL A   1      46.173  26.678  36.676  1.00  0.00     0.060 A 
BRANCH  75  76
ATOM     76  S   UNL A   1      47.458  25.681  37.457  1.00  0.00     0.124 S 
ATOM     77  O   UNL A   1      46.781  25.227  38.668  1.00  0.00    -0.237 OA
ATOM     78  O   UNL A   1      47.711  24.654  36.451  1.00  0.00    -0.237 OA
ATOM     79  O   UNL A   1      48.547  26.630  37.668  1.00  0.00    -0.744 OA
ENDBRANCH  75  76
ENDBRANCH  54  68
BRANCH  55  80
ATOM     80  C   UNL A   1      36.710  33.169  30.992  1.00  0.00     0.058 A 
ATOM     81  C   UNL A   1      36.920  34.098  29.962  1.00  0.00     0.135 A 
ATOM     82  C   UNL A   1      35.384  32.907  31.371  1.00  0.00     0.135 A 
ATOM     83  F   UNL A   1      38.169  34.389  29.566  1.00  0.00    -0.206 F 
ATOM     84  C   UNL A   1      35.861  34.751  29.340  1.00  0.00     0.059 A 
ATOM     85  C   UNL A   1      34.306  33.525  30.745  1.00  0.00     0.059 A 
ATOM     86  F   UNL A   1      35.126  32.014  32.339  1.00  0.00    -0.206 F 
ATOM     87  C   UNL A   1      34.555  34.453  29.736  1.00  0.00     0.060 A 
BRANCH  87  88
ATOM     88  S   UNL A   1      33.186  35.264  28.883  1.00  0.00     0.124 S 
ATOM     89  O   UNL A   1      32.378  35.733  30.002  1.00  0.00    -0.237 OA
ATOM     90  O   UNL A   1      33.873  36.296  28.113  1.00  0.00    -0.237 OA
ATOM     91  O   UNL A   1      32.600  34.187  28.089  1.00  0.00    -0.744 OA
ENDBRANCH  87  88
ENDBRANCH  55  80
BRANCH  67  92
ATOM     92  C   UNL A   1      39.896  33.810  37.176  1.00  0.00     0.058 A 
ATOM     93  C   UNL A   1      40.583  35.031  37.248  1.00  0.00     0.135 A 
ATOM     94  C   UNL A   1      38.974  33.517  38.195  1.00  0.00     0.135 A 
ATOM     95  F   UNL A   1      41.481  35.357  36.304  1.00  0.00    -0.206 F 
ATOM     96  C   UNL A   1      40.382  35.918  38.300  1.00  0.00     0.059 A 
ATOM     97  C   UNL A   1      38.732  34.403  39.239  1.00  0.00     0.059 A 
ATOM     98  F   UNL A   1      38.281  32.367  38.170  1.00  0.00    -0.206 F 
ATOM     99  C   UNL A   1      39.450  35.597  39.289  1.00  0.00     0.060 A 
BRANCH  99 100
ATOM    100  S   UNL A   1      39.171  36.773  40.630  1.00  0.00     0.124 S 
ATOM    101  O   UNL A   1      38.566  35.921  41.648  1.00  0.00    -0.237 OA
ATOM    102  O   UNL A   1      40.523  37.243  40.917  1.00  0.00    -0.237 OA
ATOM    103  O   UNL A   1      38.283  37.766  40.033  1.00  0.00    -0.744 OA
ENDBRANCH  99 100
ENDBRANCH  67  92
ENDBRANCH  41  42
ENDBRANCH  33  36
ENDBRANCH  31  32
ENDBRANCH  30  31
ENDBRANCH  29  30
ENDBRANCH   1  29
TORSDOF 22
ENDMDL
