MODEL 1
REMARK VINA RESULT:     -11.9      0.000      0.000
REMARK SMILES CC(C)(C)c1ccc(NS(=O)(=O)c2cccc(C(=O)NCCCCCCNC(=O)c3ccc(-c4c5nc(c(-c6c(F)cc(S(=O)(=O)[O-])cc6F)c6ccc([nH]6)c(-c6c(F)cc(S(=O)(=O)[O-])cc6F)c6nc(c(-c7c(F)cc(S(=O)(=O)[O-])cc7F)c7ccc4[nH]7)C=C6)C=C5)cc3)c2)cc1
REMARK SMILES IDX 23 1 22 2 21 3 20 4 18 5 19 6 17 8 13 9 14 10 96 11 15 12
REMARK SMILES IDX 16 13 10 14 11 15 12 16 9 17 8 19 5 20 6 21 98 22 7 23 97 24
REMARK SMILES IDX 2 25 1 26 3 27 4 28 24 29 25 30 26 31 27 32 28 33 29 35
REMARK SMILES IDX 30 36 31 37 95 38 32 39 94 40 33 41 34 42 35 43 88 44 36 45
REMARK SMILES IDX 93 46 87 47 89 48 37 49 92 50 86 51 85 52 38 54 72 55 51 56
REMARK SMILES IDX 71 57 52 58 55 59 70 60 90 61 53 62 54 63 69 65 91 66 56 67
REMARK SMILES IDX 39 68 40 69 49 70 41 71 42 72 48 73 50 74 43 75 44 76 45 77
REMARK SMILES IDX 46 78 47 79 73 80 74 81 83 82 75 83 76 84 82 85 84 86 77 87
REMARK SMILES IDX 78 88 79 89 80 90 81 91 57 92 58 93 67 94 59 95 60 96 66 97
REMARK SMILES IDX 68 98 61 99 62 100 63 101 64 102 65 103
REMARK H PARENT 20 7 9 18 27 34 89 53 55 64
REMARK Flexibility Score: inf
ROOT
ATOM      1  C   UNL A   1      37.142  23.433  25.573  1.00  0.00     0.002 C 
ENDROOT
BRANCH   1   2
ATOM      2  C   UNL A   1      37.379  22.151  24.781  1.00  0.00     0.021 C 
BRANCH   2   3
ATOM      3  C   UNL A   1      36.685  20.894  25.287  1.00  0.00     0.116 C 
BRANCH   3   4
ATOM      4  N   UNL A   1      35.619  21.162  26.227  1.00  0.00    -0.352 N 
ATOM      5  C   UNL A   1      34.327  21.605  26.085  1.00  0.00     0.251 C 
ATOM      6  O   UNL A   1      33.679  21.717  27.129  1.00  0.00    -0.269 OA
ATOM      7  H   UNL A   1      35.872  20.993  27.163  1.00  0.00     0.163 HD
BRANCH   5   8
ATOM      8  C   UNL A   1      33.658  21.966  24.788  1.00  0.00     0.041 A 
ATOM      9  C   UNL A   1      32.957  23.441  22.978  1.00  0.00     0.088 A 
ATOM     10  C   UNL A   1      32.358  22.378  22.306  1.00  0.00     0.022 A 
ATOM     11  C   UNL A   1      33.680  23.213  24.157  1.00  0.00     0.036 A 
ATOM     12  C   UNL A   1      32.326  21.125  22.909  1.00  0.00     0.002 A 
ATOM     13  C   UNL A   1      32.943  20.933  24.149  1.00  0.00     0.014 A 
BRANCH   9  14
ATOM     14  S   UNL A   1      32.839  25.096  22.317  1.00  0.00     0.261 S 
ATOM     15  O   UNL A   1      31.912  25.070  21.213  1.00  0.00    -0.201 OA
ATOM     16  O   UNL A   1      34.197  25.585  22.139  1.00  0.00    -0.201 OA
BRANCH  14  17
ATOM     17  N   UNL A   1      32.177  26.069  23.566  1.00  0.00    -0.280 N 
ATOM     18  H   UNL A   1      32.422  25.929  24.509  1.00  0.00     0.180 HD
BRANCH  17  19
ATOM     19  C   UNL A   1      31.254  27.089  23.179  1.00  0.00     0.049 A 
ATOM     20  C   UNL A   1      29.574  29.343  22.879  1.00  0.00    -0.042 A 
ATOM     21  C   UNL A   1      30.941  29.407  22.564  1.00  0.00     0.006 A 
ATOM     22  C   UNL A   1      29.056  28.085  23.255  1.00  0.00     0.006 A 
ATOM     23  C   UNL A   1      31.766  28.287  22.691  1.00  0.00     0.027 A 
ATOM     24  C   UNL A   1      29.891  26.970  23.421  1.00  0.00     0.027 A 
BRANCH  20  25
ATOM     25  C   UNL A   1      28.681  30.596  22.904  1.00  0.00    -0.013 C 
ATOM     26  C   UNL A   1      29.284  31.681  23.818  1.00  0.00     0.016 C 
ATOM     27  C   UNL A   1      27.243  30.321  23.403  1.00  0.00     0.016 C 
ATOM     28  C   UNL A   1      28.566  31.150  21.466  1.00  0.00     0.016 C 
ENDBRANCH  20  25
ENDBRANCH  17  19
ENDBRANCH  14  17
ENDBRANCH   9  14
ENDBRANCH   5   8
ENDBRANCH   3   4
ENDBRANCH   2   3
ENDBRANCH   1   2
BRANCH   1  29
ATOM     29  C   UNL A   1      38.308  23.922  26.435  1.00  0.00     0.002 C 
BRANCH  29  30
ATOM     30  C   UNL A   1      39.509  22.980  26.552  1.00  0.00     0.021 C 
BRANCH  30  31
ATOM     31  C   UNL A   1      40.802  23.614  27.052  1.00  0.00     0.116 C 
BRANCH  31  32
ATOM     32  N   UNL A   1      41.476  24.385  26.022  1.00  0.00    -0.352 N 
ATOM     33  C   UNL A   1      41.706  25.737  25.967  1.00  0.00     0.251 C 
ATOM     34  H   UNL A   1      41.816  23.865  25.258  1.00  0.00     0.163 HD
ATOM     35  O   UNL A   1      42.136  26.247  24.937  1.00  0.00    -0.269 OA
BRANCH  33  36
ATOM     36  C   UNL A   1      41.413  26.575  27.148  1.00  0.00     0.039 A 
ATOM     37  C   UNL A   1      40.471  26.130  28.079  1.00  0.00     0.014 A 
ATOM     38  C   UNL A   1      42.070  27.794  27.337  1.00  0.00     0.014 A 
ATOM     39  C   UNL A   1      40.230  26.882  29.231  1.00  0.00     0.010 A 
ATOM     40  C   UNL A   1      41.880  28.506  28.517  1.00  0.00     0.010 A 
ATOM     41  C   UNL A   1      40.955  28.061  29.474  1.00  0.00    -0.014 A 
BRANCH  41  42
ATOM     42  C   UNL A   1      40.761  28.851  30.716  1.00  0.00     0.031 A 
ATOM     43  C   UNL A   1      39.689  29.906  30.772  1.00  0.00     0.074 A 
ATOM     44  C   UNL A   1      41.596  28.675  31.759  1.00  0.00     0.049 A 
ATOM     45  N   UNL A   1      39.436  30.779  31.712  1.00  0.00    -0.248 NA
ATOM     46  C   UNL A   1      38.805  30.013  29.600  1.00  0.00     0.031 C 
ATOM     47  C   UNL A   1      42.696  27.709  31.809  1.00  0.00     0.029 A 
ATOM     48  N   UNL A   1      41.665  29.316  32.971  1.00  0.00    -0.354 N 
ATOM     49  C   UNL A   1      38.379  31.548  31.239  1.00  0.00     0.074 A 
ATOM     50  C   UNL A   1      38.070  31.072  29.910  1.00  0.00     0.031 C 
ATOM     51  C   UNL A   1      43.320  27.812  32.993  1.00  0.00     0.029 A 
ATOM     52  C   UNL A   1      42.696  28.879  33.769  1.00  0.00     0.049 A 
ATOM     53  H   UNL A   1      41.034  30.021  33.243  1.00  0.00     0.167 HD
ATOM     54  C   UNL A   1      37.715  32.548  31.867  1.00  0.00     0.037 A 
ATOM     55  C   UNL A   1      43.104  29.302  34.982  1.00  0.00     0.037 A 
ATOM     56  C   UNL A   1      38.016  32.998  33.201  1.00  0.00     0.049 A 
ATOM     57  C   UNL A   1      42.354  30.420  35.656  1.00  0.00     0.074 A 
ATOM     58  C   UNL A   1      37.369  33.969  33.947  1.00  0.00     0.029 A 
ATOM     59  N   UNL A   1      39.047  32.509  33.989  1.00  0.00    -0.354 N 
ATOM     60  N   UNL A   1      41.323  31.103  35.218  1.00  0.00    -0.248 NA
ATOM     61  C   UNL A   1      42.816  30.822  36.993  1.00  0.00     0.031 C 
ATOM     62  C   UNL A   1      38.039  34.099  35.168  1.00  0.00     0.029 A 
ATOM     63  C   UNL A   1      39.067  33.169  35.207  1.00  0.00     0.049 A 
ATOM     64  H   UNL A   1      39.673  31.798  33.722  1.00  0.00     0.167 HD
ATOM     65  C   UNL A   1      40.991  31.988  36.238  1.00  0.00     0.074 A 
ATOM     66  C   UNL A   1      41.928  31.753  37.316  1.00  0.00     0.031 C 
ATOM     67  C   UNL A   1      39.996  32.908  36.278  1.00  0.00     0.037 A 
BRANCH  54  68
ATOM     68  C   UNL A   1      36.597  33.223  31.118  1.00  0.00     0.058 A 
ATOM     69  C   UNL A   1      35.252  33.047  31.481  1.00  0.00     0.135 A 
ATOM     70  C   UNL A   1      36.875  34.087  30.046  1.00  0.00     0.135 A 
ATOM     71  F   UNL A   1      34.927  32.220  32.488  1.00  0.00    -0.206 F 
ATOM     72  C   UNL A   1      34.222  33.676  30.791  1.00  0.00     0.059 A 
ATOM     73  C   UNL A   1      35.864  34.753  29.361  1.00  0.00     0.059 A 
ATOM     74  F   UNL A   1      38.144  34.294  29.656  1.00  0.00    -0.206 F 
ATOM     75  C   UNL A   1      34.538  34.528  29.731  1.00  0.00     0.060 A 
BRANCH  75  76
ATOM     76  S   UNL A   1      33.190  35.342  28.848  1.00  0.00     0.124 S 
ATOM     77  O   UNL A   1      33.905  36.393  28.131  1.00  0.00    -0.237 OA
ATOM     78  O   UNL A   1      32.661  34.260  28.023  1.00  0.00    -0.237 OA
ATOM     79  O   UNL A   1      32.309  35.800  29.918  1.00  0.00    -0.744 OA
ENDBRANCH  75  76
ENDBRANCH  54  68
BRANCH  55  80
ATOM     80  C   UNL A   1      44.268  28.653  35.643  1.00  0.00     0.058 A 
ATOM     81  C   UNL A   1      45.576  29.102  35.403  1.00  0.00     0.135 A 
ATOM     82  C   UNL A   1      44.098  27.585  36.537  1.00  0.00     0.135 A 
ATOM     83  F   UNL A   1      45.790  30.116  34.552  1.00  0.00    -0.206 F 
ATOM     84  C   UNL A   1      46.674  28.505  36.012  1.00  0.00     0.059 A 
ATOM     85  C   UNL A   1      45.180  26.989  37.180  1.00  0.00     0.059 A 
ATOM     86  F   UNL A   1      42.866  27.129  36.815  1.00  0.00    -0.206 F 
ATOM     87  C   UNL A   1      46.465  27.450  36.902  1.00  0.00     0.060 A 
BRANCH  87  88
ATOM     88  S   UNL A   1      47.897  26.712  37.720  1.00  0.00     0.124 S 
ATOM     89  O   UNL A   1      48.957  27.644  37.354  1.00  0.00    -0.237 OA
ATOM     90  O   UNL A   1      47.489  26.727  39.121  1.00  0.00    -0.237 OA
ATOM     91  O   UNL A   1      47.984  25.388  37.115  1.00  0.00    -0.744 OA
ENDBRANCH  87  88
ENDBRANCH  55  80
BRANCH  67  92
ATOM     92  C   UNL A   1      39.824  33.695  37.548  1.00  0.00     0.058 A 
ATOM     93  C   UNL A   1      40.480  34.918  37.756  1.00  0.00     0.135 A 
ATOM     94  C   UNL A   1      38.929  33.253  38.535  1.00  0.00     0.135 A 
ATOM     95  F   UNL A   1      41.351  35.382  36.846  1.00  0.00    -0.206 F 
ATOM     96  C   UNL A   1      40.262  35.670  38.906  1.00  0.00     0.059 A 
ATOM     97  C   UNL A   1      38.675  34.001  39.680  1.00  0.00     0.059 A 
ATOM     98  F   UNL A   1      38.270  32.094  38.380  1.00  0.00    -0.206 F 
ATOM     99  C   UNL A   1      39.353  35.206  39.860  1.00  0.00     0.060 A 
BRANCH  99 100
ATOM    100  S   UNL A   1      39.038  36.220  41.321  1.00  0.00     0.124 S 
ATOM    101  O   UNL A   1      38.881  37.545  40.731  1.00  0.00    -0.237 OA
ATOM    102  O   UNL A   1      37.823  35.618  41.860  1.00  0.00    -0.237 OA
ATOM    103  O   UNL A   1      40.238  36.031  42.132  1.00  0.00    -0.744 OA
ENDBRANCH  99 100
ENDBRANCH  67  92
ENDBRANCH  41  42
ENDBRANCH  33  36
ENDBRANCH  31  32
ENDBRANCH  30  31
ENDBRANCH  29  30
ENDBRANCH   1  29
TORSDOF 20
ENDMDL
MODEL 2
REMARK VINA RESULT:     -11.8      0.437      8.084
REMARK SMILES CC(C)(C)c1ccc(NS(=O)(=O)c2cccc(C(=O)NCCCCCCNC(=O)c3ccc(-c4c5nc(c(-c6c(F)cc(S(=O)(=O)[O-])cc6F)c6ccc([nH]6)c(-c6c(F)cc(S(=O)(=O)[O-])cc6F)c6nc(c(-c7c(F)cc(S(=O)(=O)[O-])cc7F)c7ccc4[nH]7)C=C6)C=C5)cc3)c2)cc1
REMARK SMILES IDX 23 1 22 2 21 3 20 4 18 5 19 6 17 8 13 9 14 10 96 11 15 12
REMARK SMILES IDX 16 13 10 14 11 15 12 16 9 17 8 19 5 20 6 21 98 22 7 23 97 24
REMARK SMILES IDX 2 25 1 26 3 27 4 28 24 29 25 30 26 31 27 32 28 33 29 35
REMARK SMILES IDX 30 36 31 37 95 38 32 39 94 40 33 41 34 42 35 43 88 44 36 45
REMARK SMILES IDX 93 46 87 47 89 48 37 49 92 50 86 51 85 52 38 54 72 55 51 56
REMARK SMILES IDX 71 57 52 58 55 59 70 60 90 61 53 62 54 63 69 65 91 66 56 67
REMARK SMILES IDX 39 68 40 69 49 70 41 71 42 72 48 73 50 74 43 75 44 76 45 77
REMARK SMILES IDX 46 78 47 79 73 80 74 81 83 82 75 83 76 84 82 85 84 86 77 87
REMARK SMILES IDX 78 88 79 89 80 90 81 91 57 92 58 93 67 94 59 95 60 96 66 97
REMARK SMILES IDX 68 98 61 99 62 100 63 101 64 102 65 103
REMARK H PARENT 20 7 9 18 27 34 89 53 55 64
REMARK Flexibility Score: inf
ROOT
ATOM      1  C   UNL A   1      37.172  23.409  25.584  1.00  0.00     0.002 C 
ENDROOT
BRANCH   1   2
ATOM      2  C   UNL A   1      37.443  22.168  24.739  1.00  0.00     0.021 C 
BRANCH   2   3
ATOM      3  C   UNL A   1      36.722  20.890  25.146  1.00  0.00     0.116 C 
BRANCH   3   4
ATOM      4  N   UNL A   1      35.717  21.095  26.167  1.00  0.00    -0.352 N 
ATOM      5  C   UNL A   1      34.418  21.537  26.135  1.00  0.00     0.251 C 
ATOM      6  O   UNL A   1      33.838  21.582  27.224  1.00  0.00    -0.269 OA
ATOM      7  H   UNL A   1      36.030  20.872  27.073  1.00  0.00     0.163 HD
BRANCH   5   8
ATOM      8  C   UNL A   1      33.666  21.970  24.907  1.00  0.00     0.041 A 
ATOM      9  C   UNL A   1      32.846  23.545  23.237  1.00  0.00     0.088 A 
ATOM     10  C   UNL A   1      32.206  22.521  22.543  1.00  0.00     0.022 A 
ATOM     11  C   UNL A   1      33.645  23.252  24.351  1.00  0.00     0.036 A 
ATOM     12  C   UNL A   1      32.215  21.235  23.073  1.00  0.00     0.002 A 
ATOM     13  C   UNL A   1      32.911  20.973  24.257  1.00  0.00     0.014 A 
BRANCH   9  14
ATOM     14  S   UNL A   1      32.684  25.236  22.684  1.00  0.00     0.261 S 
ATOM     15  O   UNL A   1      32.038  25.223  21.395  1.00  0.00    -0.201 OA
ATOM     16  O   UNL A   1      33.979  25.872  22.862  1.00  0.00    -0.201 OA
BRANCH  14  17
ATOM     17  N   UNL A   1      31.648  26.015  23.808  1.00  0.00    -0.280 N 
ATOM     18  H   UNL A   1      31.636  25.757  24.758  1.00  0.00     0.180 HD
BRANCH  17  19
ATOM     19  C   UNL A   1      30.803  27.053  23.307  1.00  0.00     0.049 A 
ATOM     20  C   UNL A   1      29.266  29.364  22.772  1.00  0.00    -0.042 A 
ATOM     21  C   UNL A   1      30.649  29.337  22.527  1.00  0.00     0.006 A 
ATOM     22  C   UNL A   1      28.662  28.163  23.200  1.00  0.00     0.006 A 
ATOM     23  C   UNL A   1      31.404  28.187  22.771  1.00  0.00     0.027 A 
ATOM     24  C   UNL A   1      29.425  27.021  23.483  1.00  0.00     0.027 A 
BRANCH  20  25
ATOM     25  C   UNL A   1      28.444  30.661  22.668  1.00  0.00    -0.013 C 
ATOM     26  C   UNL A   1      28.036  30.937  21.208  1.00  0.00     0.016 C 
ATOM     27  C   UNL A   1      29.196  31.913  23.180  1.00  0.00     0.016 C 
ATOM     28  C   UNL A   1      27.171  30.510  23.532  1.00  0.00     0.016 C 
ENDBRANCH  20  25
ENDBRANCH  17  19
ENDBRANCH  14  17
ENDBRANCH   9  14
ENDBRANCH   5   8
ENDBRANCH   3   4
ENDBRANCH   2   3
ENDBRANCH   1   2
BRANCH   1  29
ATOM     29  C   UNL A   1      38.324  23.892  26.468  1.00  0.00     0.002 C 
BRANCH  29  30
ATOM     30  C   UNL A   1      39.493  22.920  26.652  1.00  0.00     0.021 C 
BRANCH  30  31
ATOM     31  C   UNL A   1      40.784  23.532  27.183  1.00  0.00     0.116 C 
BRANCH  31  32
ATOM     32  N   UNL A   1      41.566  24.170  26.138  1.00  0.00    -0.352 N 
ATOM     33  C   UNL A   1      41.887  25.497  25.990  1.00  0.00     0.251 C 
ATOM     34  H   UNL A   1      41.915  23.568  25.442  1.00  0.00     0.163 HD
ATOM     35  O   UNL A   1      42.408  25.891  24.951  1.00  0.00    -0.269 OA
BRANCH  33  36
ATOM     36  C   UNL A   1      41.582  26.448  27.079  1.00  0.00     0.039 A 
ATOM     37  C   UNL A   1      40.759  26.035  28.130  1.00  0.00     0.014 A 
ATOM     38  C   UNL A   1      42.110  27.741  27.064  1.00  0.00     0.014 A 
ATOM     39  C   UNL A   1      40.512  26.902  29.196  1.00  0.00     0.010 A 
ATOM     40  C   UNL A   1      41.921  28.578  28.159  1.00  0.00     0.010 A 
ATOM     41  C   UNL A   1      41.117  28.170  29.234  1.00  0.00    -0.014 A 
BRANCH  41  42
ATOM     42  C   UNL A   1      40.919  29.092  30.382  1.00  0.00     0.031 A 
ATOM     43  C   UNL A   1      41.756  28.931  31.622  1.00  0.00     0.074 A 
ATOM     44  C   UNL A   1      39.939  30.016  30.337  1.00  0.00     0.049 A 
ATOM     45  N   UNL A   1      41.661  29.550  32.770  1.00  0.00    -0.248 NA
ATOM     46  C   UNL A   1      42.822  27.916  31.575  1.00  0.00     0.031 C 
ATOM     47  C   UNL A   1      39.039  30.241  29.204  1.00  0.00     0.029 A 
ATOM     48  N   UNL A   1      39.521  30.924  31.278  1.00  0.00    -0.354 N 
ATOM     49  C   UNL A   1      42.638  28.990  33.584  1.00  0.00     0.074 A 
ATOM     50  C   UNL A   1      43.282  27.948  32.817  1.00  0.00     0.031 C 
ATOM     51  C   UNL A   1      38.185  31.231  29.510  1.00  0.00     0.029 A 
ATOM     52  C   UNL A   1      38.446  31.681  30.874  1.00  0.00     0.049 A 
ATOM     53  H   UNL A   1      39.951  31.025  32.157  1.00  0.00     0.167 HD
ATOM     54  C   UNL A   1      42.979  29.329  34.850  1.00  0.00     0.037 A 
ATOM     55  C   UNL A   1      37.739  32.619  31.534  1.00  0.00     0.037 A 
ATOM     56  C   UNL A   1      42.346  30.385  35.597  1.00  0.00     0.049 A 
ATOM     57  C   UNL A   1      38.132  32.973  32.944  1.00  0.00     0.074 A 
ATOM     58  C   UNL A   1      42.651  30.842  36.868  1.00  0.00     0.029 A 
ATOM     59  N   UNL A   1      41.282  31.149  35.142  1.00  0.00    -0.354 N 
ATOM     60  N   UNL A   1      39.092  32.470  33.682  1.00  0.00    -0.248 NA
ATOM     61  C   UNL A   1      37.352  34.027  33.609  1.00  0.00     0.031 C 
ATOM     62  C   UNL A   1      41.741  31.851  37.199  1.00  0.00     0.029 A 
ATOM     63  C   UNL A   1      40.906  32.064  36.112  1.00  0.00     0.049 A 
ATOM     64  H   UNL A   1      40.856  31.056  34.259  1.00  0.00     0.167 HD
ATOM     65  C   UNL A   1      39.055  33.170  34.884  1.00  0.00     0.074 A 
ATOM     66  C   UNL A   1      37.980  34.133  34.772  1.00  0.00     0.031 C 
ATOM     67  C   UNL A   1      39.845  33.031  35.977  1.00  0.00     0.037 A 
BRANCH  54  68
ATOM     68  C   UNL A   1      44.085  28.549  35.510  1.00  0.00     0.058 A 
ATOM     69  C   UNL A   1      45.431  28.930  35.387  1.00  0.00     0.135 A 
ATOM     70  C   UNL A   1      43.794  27.429  36.305  1.00  0.00     0.135 A 
ATOM     71  F   UNL A   1      45.769  29.984  34.627  1.00  0.00    -0.206 F 
ATOM     72  C   UNL A   1      46.451  28.211  36.002  1.00  0.00     0.059 A 
ATOM     73  C   UNL A   1      44.795  26.713  36.955  1.00  0.00     0.059 A 
ATOM     74  F   UNL A   1      42.524  27.020  36.458  1.00  0.00    -0.206 F 
ATOM     75  C   UNL A   1      46.123  27.103  36.785  1.00  0.00     0.060 A 
BRANCH  75  76
ATOM     76  S   UNL A   1      47.457  26.184  37.580  1.00  0.00     0.124 S 
ATOM     77  O   UNL A   1      48.590  27.081  37.375  1.00  0.00    -0.237 OA
ATOM     78  O   UNL A   1      46.980  26.070  38.955  1.00  0.00    -0.237 OA
ATOM     79  O   UNL A   1      47.504  24.933  36.829  1.00  0.00    -0.744 OA
ENDBRANCH  75  76
ENDBRANCH  54  68
BRANCH  55  80
ATOM     80  C   UNL A   1      36.600  33.301  30.862  1.00  0.00     0.058 A 
ATOM     81  C   UNL A   1      35.278  33.069  31.271  1.00  0.00     0.135 A 
ATOM     82  C   UNL A   1      36.808  34.209  29.813  1.00  0.00     0.135 A 
ATOM     83  F   UNL A   1      35.027  32.205  32.267  1.00  0.00    -0.206 F 
ATOM     84  C   UNL A   1      34.203  33.697  30.653  1.00  0.00     0.059 A 
ATOM     85  C   UNL A   1      35.751  34.871  29.196  1.00  0.00     0.059 A 
ATOM     86  F   UNL A   1      38.056  34.480  29.395  1.00  0.00    -0.206 F 
ATOM     87  C   UNL A   1      34.450  34.600  29.616  1.00  0.00     0.060 A 
BRANCH  87  88
ATOM     88  S   UNL A   1      33.048  35.443  28.851  1.00  0.00     0.124 S 
ATOM     89  O   UNL A   1      33.716  36.489  28.087  1.00  0.00    -0.237 OA
ATOM     90  O   UNL A   1      32.436  34.373  28.070  1.00  0.00    -0.237 OA
ATOM     91  O   UNL A   1      32.266  35.899  29.996  1.00  0.00    -0.744 OA
ENDBRANCH  87  88
ENDBRANCH  55  80
BRANCH  67  92
ATOM     92  C   UNL A   1      39.621  33.975  37.125  1.00  0.00     0.058 A 
ATOM     93  C   UNL A   1      38.781  33.649  38.201  1.00  0.00     0.135 A 
ATOM     94  C   UNL A   1      40.320  35.192  37.183  1.00  0.00     0.135 A 
ATOM     95  F   UNL A   1      38.085  32.502  38.192  1.00  0.00    -0.206 F 
ATOM     96  C   UNL A   1      38.633  34.503  39.289  1.00  0.00     0.059 A 
ATOM     97  C   UNL A   1      40.209  36.048  38.273  1.00  0.00     0.059 A 
ATOM     98  F   UNL A   1      41.143  35.546  36.183  1.00  0.00    -0.206 F 
ATOM     99  C   UNL A   1      39.356  35.698  39.319  1.00  0.00     0.060 A 
BRANCH  99 100
ATOM    100  S   UNL A   1      39.198  36.770  40.763  1.00  0.00     0.124 S 
ATOM    101  O   UNL A   1      38.526  35.889  41.712  1.00  0.00    -0.237 OA
ATOM    102  O   UNL A   1      40.589  37.087  41.069  1.00  0.00    -0.237 OA
ATOM    103  O   UNL A   1      38.400  37.890  40.271  1.00  0.00    -0.744 OA
ENDBRANCH  99 100
ENDBRANCH  67  92
ENDBRANCH  41  42
ENDBRANCH  33  36
ENDBRANCH  31  32
ENDBRANCH  30  31
ENDBRANCH  29  30
ENDBRANCH   1  29
TORSDOF 20
ENDMDL
MODEL 3
REMARK VINA RESULT:     -11.7      2.702      9.333
REMARK SMILES CC(C)(C)c1ccc(NS(=O)(=O)c2cccc(C(=O)NCCCCCCNC(=O)c3ccc(-c4c5nc(c(-c6c(F)cc(S(=O)(=O)[O-])cc6F)c6ccc([nH]6)c(-c6c(F)cc(S(=O)(=O)[O-])cc6F)c6nc(c(-c7c(F)cc(S(=O)(=O)[O-])cc7F)c7ccc4[nH]7)C=C6)C=C5)cc3)c2)cc1
REMARK SMILES IDX 23 1 22 2 21 3 20 4 18 5 19 6 17 8 13 9 14 10 96 11 15 12
REMARK SMILES IDX 16 13 10 14 11 15 12 16 9 17 8 19 5 20 6 21 98 22 7 23 97 24
REMARK SMILES IDX 2 25 1 26 3 27 4 28 24 29 25 30 26 31 27 32 28 33 29 35
REMARK SMILES IDX 30 36 31 37 95 38 32 39 94 40 33 41 34 42 35 43 88 44 36 45
REMARK SMILES IDX 93 46 87 47 89 48 37 49 92 50 86 51 85 52 38 54 72 55 51 56
REMARK SMILES IDX 71 57 52 58 55 59 70 60 90 61 53 62 54 63 69 65 91 66 56 67
REMARK SMILES IDX 39 68 40 69 49 70 41 71 42 72 48 73 50 74 43 75 44 76 45 77
REMARK SMILES IDX 46 78 47 79 73 80 74 81 83 82 75 83 76 84 82 85 84 86 77 87
REMARK SMILES IDX 78 88 79 89 80 90 81 91 57 92 58 93 67 94 59 95 60 96 66 97
REMARK SMILES IDX 68 98 61 99 62 100 63 101 64 102 65 103
REMARK H PARENT 20 7 9 18 27 34 89 53 55 64
REMARK Flexibility Score: inf
ROOT
ATOM      1  C   UNL A   1      35.673  32.305  28.001  1.00  0.00     0.002 C 
ENDROOT
BRANCH   1   2
ATOM      2  C   UNL A   1      35.481  30.812  28.253  1.00  0.00     0.021 C 
BRANCH   2   3
ATOM      3  C   UNL A   1      34.617  30.054  27.254  1.00  0.00     0.116 C 
BRANCH   3   4
ATOM      4  N   UNL A   1      33.423  30.771  26.863  1.00  0.00    -0.352 N 
ATOM      5  C   UNL A   1      32.219  30.378  26.334  1.00  0.00     0.251 C 
ATOM      6  O   UNL A   1      31.403  31.281  26.124  1.00  0.00    -0.269 OA
ATOM      7  H   UNL A   1      33.488  31.743  27.005  1.00  0.00     0.163 HD
BRANCH   5   8
ATOM      8  C   UNL A   1      31.828  28.969  25.988  1.00  0.00     0.041 A 
ATOM      9  C   UNL A   1      31.391  27.075  24.515  1.00  0.00     0.088 A 
ATOM     10  C   UNL A   1      31.093  26.260  25.605  1.00  0.00     0.022 A 
ATOM     11  C   UNL A   1      31.846  28.386  24.717  1.00  0.00     0.036 A 
ATOM     12  C   UNL A   1      31.073  26.813  26.881  1.00  0.00     0.002 A 
ATOM     13  C   UNL A   1      31.407  28.159  27.063  1.00  0.00     0.014 A 
BRANCH   9  14
ATOM     14  S   UNL A   1      31.231  26.439  22.854  1.00  0.00     0.261 S 
ATOM     15  O   UNL A   1      30.662  27.478  22.032  1.00  0.00    -0.201 OA
ATOM     16  O   UNL A   1      30.596  25.135  22.953  1.00  0.00    -0.201 OA
BRANCH  14  17
ATOM     17  N   UNL A   1      32.825  26.116  22.305  1.00  0.00    -0.280 N 
ATOM     18  H   UNL A   1      33.251  26.671  21.614  1.00  0.00     0.180 HD
BRANCH  17  19
ATOM     19  C   UNL A   1      33.506  25.006  22.895  1.00  0.00     0.049 A 
ATOM     20  C   UNL A   1      34.372  22.706  24.291  1.00  0.00    -0.042 A 
ATOM     21  C   UNL A   1      33.673  22.601  23.078  1.00  0.00     0.006 A 
ATOM     22  C   UNL A   1      34.710  24.004  24.731  1.00  0.00     0.006 A 
ATOM     23  C   UNL A   1      33.264  23.738  22.378  1.00  0.00     0.027 A 
ATOM     24  C   UNL A   1      34.266  25.147  24.049  1.00  0.00     0.027 A 
BRANCH  20  25
ATOM     25  C   UNL A   1      34.689  21.477  25.162  1.00  0.00    -0.013 C 
ATOM     26  C   UNL A   1      34.350  21.750  26.640  1.00  0.00     0.016 C 
ATOM     27  C   UNL A   1      36.173  21.043  25.102  1.00  0.00     0.016 C 
ATOM     28  C   UNL A   1      33.845  20.284  24.658  1.00  0.00     0.016 C 
ENDBRANCH  20  25
ENDBRANCH  17  19
ENDBRANCH  14  17
ENDBRANCH   9  14
ENDBRANCH   5   8
ENDBRANCH   3   4
ENDBRANCH   2   3
ENDBRANCH   1   2
BRANCH   1  29
ATOM     29  C   UNL A   1      35.199  33.246  29.111  1.00  0.00     0.002 C 
BRANCH  29  30
ATOM     30  C   UNL A   1      33.828  33.898  28.910  1.00  0.00     0.021 C 
BRANCH  30  31
ATOM     31  C   UNL A   1      33.790  35.415  29.055  1.00  0.00     0.116 C 
BRANCH  31  32
ATOM     32  N   UNL A   1      32.854  35.850  30.077  1.00  0.00    -0.352 N 
ATOM     33  C   UNL A   1      32.838  35.550  31.416  1.00  0.00     0.251 C 
ATOM     34  H   UNL A   1      32.133  36.444  29.766  1.00  0.00     0.163 HD
ATOM     35  O   UNL A   1      31.871  35.860  32.106  1.00  0.00    -0.269 OA
BRANCH  33  36
ATOM     36  C   UNL A   1      33.982  34.833  32.017  1.00  0.00     0.039 A 
ATOM     37  C   UNL A   1      33.781  33.553  32.541  1.00  0.00     0.014 A 
ATOM     38  C   UNL A   1      35.249  35.421  32.060  1.00  0.00     0.014 A 
ATOM     39  C   UNL A   1      34.866  32.839  33.056  1.00  0.00     0.010 A 
ATOM     40  C   UNL A   1      36.339  34.683  32.508  1.00  0.00     0.010 A 
ATOM     41  C   UNL A   1      36.159  33.387  33.015  1.00  0.00    -0.014 A 
BRANCH  41  42
ATOM     42  C   UNL A   1      37.340  32.629  33.503  1.00  0.00     0.031 A 
ATOM     43  C   UNL A   1      37.998  33.024  34.797  1.00  0.00     0.074 A 
ATOM     44  C   UNL A   1      37.863  31.645  32.746  1.00  0.00     0.049 A 
ATOM     45  N   UNL A   1      39.101  32.571  35.335  1.00  0.00    -0.248 NA
ATOM     46  C   UNL A   1      37.345  34.090  35.574  1.00  0.00     0.031 C 
ATOM     47  C   UNL A   1      37.335  31.199  31.455  1.00  0.00     0.029 A 
ATOM     48  N   UNL A   1      38.969  30.855  32.941  1.00  0.00    -0.354 N 
ATOM     49  C   UNL A   1      39.284  33.307  36.500  1.00  0.00     0.074 A 
ATOM     50  C   UNL A   1      38.206  34.269  36.566  1.00  0.00     0.031 C 
ATOM     51  C   UNL A   1      38.108  30.208  30.981  1.00  0.00     0.029 A 
ATOM     52  C   UNL A   1      39.210  29.978  31.910  1.00  0.00     0.049 A 
ATOM     53  H   UNL A   1      39.535  30.912  33.744  1.00  0.00     0.167 HD
ATOM     54  C   UNL A   1      40.252  33.179  37.438  1.00  0.00     0.037 A 
ATOM     55  C   UNL A   1      40.215  29.100  31.725  1.00  0.00     0.037 A 
ATOM     56  C   UNL A   1      41.308  32.201  37.374  1.00  0.00     0.049 A 
ATOM     57  C   UNL A   1      41.284  28.980  32.778  1.00  0.00     0.074 A 
ATOM     58  C   UNL A   1      42.308  31.954  38.298  1.00  0.00     0.029 A 
ATOM     59  N   UNL A   1      41.498  31.309  36.329  1.00  0.00    -0.354 N 
ATOM     60  N   UNL A   1      41.414  29.648  33.900  1.00  0.00    -0.248 NA
ATOM     61  C   UNL A   1      42.339  27.983  32.547  1.00  0.00     0.031 C 
ATOM     62  C   UNL A   1      43.131  30.944  37.790  1.00  0.00     0.029 A 
ATOM     63  C   UNL A   1      42.611  30.521  36.577  1.00  0.00     0.049 A 
ATOM     64  H   UNL A   1      40.928  31.245  35.529  1.00  0.00     0.167 HD
ATOM     65  C   UNL A   1      42.543  29.127  34.524  1.00  0.00     0.074 A 
ATOM     66  C   UNL A   1      43.057  28.088  33.657  1.00  0.00     0.031 C 
ATOM     67  C   UNL A   1      43.098  29.476  35.711  1.00  0.00     0.037 A 
BRANCH  54  68
ATOM     68  C   UNL A   1      40.216  34.117  38.614  1.00  0.00     0.058 A 
ATOM     69  C   UNL A   1      39.484  33.819  39.775  1.00  0.00     0.135 A 
ATOM     70  C   UNL A   1      40.952  35.314  38.596  1.00  0.00     0.135 A 
ATOM     71  F   UNL A   1      38.749  32.697  39.842  1.00  0.00    -0.206 F 
ATOM     72  C   UNL A   1      39.458  34.686  40.862  1.00  0.00     0.059 A 
ATOM     73  C   UNL A   1      40.966  36.181  39.684  1.00  0.00     0.059 A 
ATOM     74  F   UNL A   1      41.671  35.649  37.513  1.00  0.00    -0.206 F 
ATOM     75  C   UNL A   1      40.202  35.866  40.808  1.00  0.00     0.060 A 
BRANCH  75  76
ATOM     76  S   UNL A   1      40.161  36.978  42.229  1.00  0.00     0.124 S 
ATOM     77  O   UNL A   1      39.473  38.138  41.670  1.00  0.00    -0.237 OA
ATOM     78  O   UNL A   1      39.403  36.203  43.208  1.00  0.00    -0.237 OA
ATOM     79  O   UNL A   1      41.571  37.177  42.547  1.00  0.00    -0.744 OA
ENDBRANCH  75  76
ENDBRANCH  54  68
BRANCH  55  80
ATOM     80  C   UNL A   1      40.246  28.253  30.502  1.00  0.00     0.058 A 
ATOM     81  C   UNL A   1      41.146  28.524  29.460  1.00  0.00     0.135 A 
ATOM     82  C   UNL A   1      39.392  27.149  30.356  1.00  0.00     0.135 A 
ATOM     83  F   UNL A   1      41.980  29.571  29.551  1.00  0.00    -0.206 F 
ATOM     84  C   UNL A   1      41.188  27.743  28.311  1.00  0.00     0.059 A 
ATOM     85  C   UNL A   1      39.433  26.336  29.227  1.00  0.00     0.059 A 
ATOM     86  F   UNL A   1      38.524  26.835  31.331  1.00  0.00    -0.206 F 
ATOM     87  C   UNL A   1      40.327  26.648  28.204  1.00  0.00     0.060 A 
BRANCH  87  88
ATOM     88  S   UNL A   1      40.421  25.615  26.725  1.00  0.00     0.124 S 
ATOM     89  O   UNL A   1      39.067  25.079  26.656  1.00  0.00    -0.237 OA
ATOM     90  O   UNL A   1      40.778  26.586  25.696  1.00  0.00    -0.237 OA
ATOM     91  O   UNL A   1      41.466  24.651  27.056  1.00  0.00    -0.744 OA
ENDBRANCH  87  88
ENDBRANCH  55  80
BRANCH  67  92
ATOM     92  C   UNL A   1      44.294  28.694  36.179  1.00  0.00     0.058 A 
ATOM     93  C   UNL A   1      45.606  29.130  35.938  1.00  0.00     0.135 A 
ATOM     94  C   UNL A   1      44.119  27.531  36.947  1.00  0.00     0.135 A 
ATOM     95  F   UNL A   1      45.828  30.231  35.203  1.00  0.00    -0.206 F 
ATOM     96  C   UNL A   1      46.703  28.433  36.432  1.00  0.00     0.059 A 
ATOM     97  C   UNL A   1      45.200  26.834  37.474  1.00  0.00     0.059 A 
ATOM     98  F   UNL A   1      42.884  27.077  37.213  1.00  0.00    -0.206 F 
ATOM     99  C   UNL A   1      46.491  27.289  37.204  1.00  0.00     0.060 A 
BRANCH  99 100
ATOM    100  S   UNL A   1      47.922  26.425  37.887  1.00  0.00     0.124 S 
ATOM    101  O   UNL A   1      48.476  25.789  36.697  1.00  0.00    -0.237 OA
ATOM    102  O   UNL A   1      48.709  27.520  38.444  1.00  0.00    -0.237 OA
ATOM    103  O   UNL A   1      47.336  25.518  38.870  1.00  0.00    -0.744 OA
ENDBRANCH  99 100
ENDBRANCH  67  92
ENDBRANCH  41  42
ENDBRANCH  33  36
ENDBRANCH  31  32
ENDBRANCH  30  31
ENDBRANCH  29  30
ENDBRANCH   1  29
TORSDOF 20
ENDMDL
