MODEL 1
REMARK VINA RESULT:     -10.7      0.000      0.000
REMARK SMILES O=C(C[C@H]1C[C@H]2CC[C@@H](C1)N2C(=O)NCCC1CC1)NCCCCCCNC(=O)c1ccc(-c2c3nc(c(-c4c(F)cc(S(=O)(=O)[O-])cc4F)c4ccc([nH]4)c(-c4c(F)cc(S(=O)(=O)[O-])cc4F)c4nc(c(-c5c(F)cc(S(=O)(=O)[O-])cc5F)c5ccc2[nH]5)C=C4)C=C3)cc1
REMARK SMILES IDX 22 1 21 2 20 3 1 4 2 5 3 7 4 8 5 9 10 10 6 11 9 12 7 13
REMARK SMILES IDX 11 14 8 15 12 16 13 17 14 18 15 20 16 21 17 22 18 23 19 24
REMARK SMILES IDX 23 25 24 26 25 27 26 28 27 29 28 30 29 32 30 33 31 34 95 35
REMARK SMILES IDX 32 36 94 37 33 38 34 39 35 40 88 41 36 42 93 43 87 44 89 45
REMARK SMILES IDX 37 46 92 47 86 48 85 49 38 51 72 52 51 53 71 54 52 55 55 56
REMARK SMILES IDX 70 57 90 58 53 59 54 60 69 62 91 63 56 64 39 65 40 66 49 67
REMARK SMILES IDX 41 68 42 69 48 70 50 71 43 72 44 73 45 74 46 75 47 76 73 77
REMARK SMILES IDX 74 78 83 79 75 80 76 81 82 82 84 83 77 84 78 85 79 86 80 87
REMARK SMILES IDX 81 88 57 89 58 90 67 91 59 92 60 93 66 94 68 95 61 96 62 97
REMARK SMILES IDX 63 98 64 99 65 100
REMARK H PARENT 20 6 14 19 27 31 89 50 55 61
REMARK Flexibility Score: inf
ROOT
ATOM      1  C   UNL A   1      41.992  19.639  25.941  1.00  0.00     0.021 C 
ENDROOT
BRANCH   1   2
ATOM      2  C   UNL A   1      40.847  20.155  26.816  1.00  0.00     0.116 C 
BRANCH   2   3
ATOM      3  N   UNL A   1      39.856  20.862  26.029  1.00  0.00    -0.356 N 
ATOM      4  O   UNL A   1      39.950  22.771  27.264  1.00  0.00    -0.275 OA
ATOM      5  C   UNL A   1      39.405  22.097  26.389  1.00  0.00     0.220 C 
ATOM      6  H   UNL A   1      39.499  20.439  25.215  1.00  0.00     0.163 HD
BRANCH   5   7
ATOM      7  C   UNL A   1      38.103  22.589  25.785  1.00  0.00     0.103 C 
BRANCH   7   8
ATOM      8  C   UNL A   1      37.060  21.669  25.116  1.00  0.00     0.002 C 
ATOM      9  C   UNL A   1      35.775  21.340  25.921  1.00  0.00     0.029 C 
ATOM     10  C   UNL A   1      36.661  22.270  23.734  1.00  0.00     0.029 C 
ATOM     11  C   UNL A   1      34.606  22.322  25.729  1.00  0.00     0.087 C 
ATOM     12  C   UNL A   1      35.432  23.209  23.775  1.00  0.00     0.087 C 
ATOM     13  C   UNL A   1      34.994  23.755  26.106  1.00  0.00     0.027 C 
ATOM     14  N   UNL A   1      34.319  22.447  24.306  1.00  0.00    -0.319 N 
ATOM     15  C   UNL A   1      35.526  24.352  24.793  1.00  0.00     0.027 C 
BRANCH  14  16
ATOM     16  C   UNL A   1      33.092  22.127  23.831  1.00  0.00     0.317 C 
ATOM     17  O   UNL A   1      32.466  22.900  23.096  1.00  0.00    -0.249 OA
ATOM     18  N   UNL A   1      32.470  20.966  24.082  1.00  0.00    -0.338 N 
ATOM     19  H   UNL A   1      31.706  20.834  23.476  1.00  0.00     0.165 HD
BRANCH  18  20
ATOM     20  C   UNL A   1      32.610  19.849  24.999  1.00  0.00     0.118 C 
BRANCH  20  21
ATOM     21  C   UNL A   1      33.729  18.901  24.565  1.00  0.00     0.025 C 
BRANCH  21  22
ATOM     22  C   UNL A   1      33.186  17.652  23.929  1.00  0.00    -0.009 C 
ATOM     23  C   UNL A   1      32.589  17.704  22.548  1.00  0.00     0.004 C 
ATOM     24  C   UNL A   1      33.889  16.985  22.776  1.00  0.00     0.004 C 
ENDBRANCH  21  22
ENDBRANCH  20  21
ENDBRANCH  18  20
ENDBRANCH  14  16
ENDBRANCH   7   8
ENDBRANCH   5   7
ENDBRANCH   2   3
ENDBRANCH   1   2
BRANCH   1  25
ATOM     25  C   UNL A   1      43.306  20.420  26.058  1.00  0.00     0.002 C 
BRANCH  25  26
ATOM     26  C   UNL A   1      43.169  21.944  26.058  1.00  0.00     0.002 C 
BRANCH  26  27
ATOM     27  C   UNL A   1      43.601  22.634  27.352  1.00  0.00     0.021 C 
BRANCH  27  28
ATOM     28  C   UNL A   1      43.101  24.064  27.509  1.00  0.00     0.116 C 
BRANCH  28  29
ATOM     29  N   UNL A   1      42.536  24.589  26.277  1.00  0.00    -0.352 N 
ATOM     30  C   UNL A   1      41.685  25.654  26.096  1.00  0.00     0.251 C 
ATOM     31  H   UNL A   1      42.799  24.113  25.456  1.00  0.00     0.163 HD
ATOM     32  O   UNL A   1      41.160  25.838  25.004  1.00  0.00    -0.269 OA
BRANCH  30  33
ATOM     33  C   UNL A   1      41.386  26.559  27.229  1.00  0.00     0.039 A 
ATOM     34  C   UNL A   1      40.374  26.207  28.126  1.00  0.00     0.014 A 
ATOM     35  C   UNL A   1      42.104  27.745  27.413  1.00  0.00     0.014 A 
ATOM     36  C   UNL A   1      40.126  27.012  29.241  1.00  0.00     0.010 A 
ATOM     37  C   UNL A   1      41.910  28.501  28.565  1.00  0.00     0.010 A 
ATOM     38  C   UNL A   1      40.917  28.145  29.492  1.00  0.00    -0.014 A 
BRANCH  38  39
ATOM     39  C   UNL A   1      40.727  28.965  30.719  1.00  0.00     0.031 A 
ATOM     40  C   UNL A   1      39.667  30.032  30.761  1.00  0.00     0.074 A 
ATOM     41  C   UNL A   1      41.547  28.786  31.774  1.00  0.00     0.049 A 
ATOM     42  N   UNL A   1      39.392  30.885  31.715  1.00  0.00    -0.248 NA
ATOM     43  C   UNL A   1      38.818  30.175  29.566  1.00  0.00     0.031 C 
ATOM     44  C   UNL A   1      42.641  27.815  31.840  1.00  0.00     0.029 A 
ATOM     45  N   UNL A   1      41.596  29.420  32.991  1.00  0.00    -0.354 N 
ATOM     46  C   UNL A   1      38.349  31.670  31.234  1.00  0.00     0.074 A 
ATOM     47  C   UNL A   1      38.081  31.230  29.881  1.00  0.00     0.031 C 
ATOM     48  C   UNL A   1      43.236  27.901  33.041  1.00  0.00     0.029 A 
ATOM     49  C   UNL A   1      42.597  28.960  33.815  1.00  0.00     0.049 A 
ATOM     50  H   UNL A   1      40.974  30.137  33.249  1.00  0.00     0.167 HD
ATOM     51  C   UNL A   1      37.663  32.650  31.869  1.00  0.00     0.037 A 
ATOM     52  C   UNL A   1      42.967  29.352  35.050  1.00  0.00     0.037 A 
ATOM     53  C   UNL A   1      37.926  33.073  33.221  1.00  0.00     0.049 A 
ATOM     54  C   UNL A   1      42.202  30.459  35.728  1.00  0.00     0.074 A 
ATOM     55  C   UNL A   1      37.255  34.024  33.969  1.00  0.00     0.029 A 
ATOM     56  N   UNL A   1      38.944  32.577  34.024  1.00  0.00    -0.354 N 
ATOM     57  N   UNL A   1      41.180  31.148  35.280  1.00  0.00    -0.248 NA
ATOM     58  C   UNL A   1      42.636  30.836  37.079  1.00  0.00     0.031 C 
ATOM     59  C   UNL A   1      37.899  34.142  35.206  1.00  0.00     0.029 A 
ATOM     60  C   UNL A   1      38.933  33.219  35.252  1.00  0.00     0.049 A 
ATOM     61  H   UNL A   1      39.578  31.872  33.761  1.00  0.00     0.167 HD
ATOM     62  C   UNL A   1      40.831  32.019  36.306  1.00  0.00     0.074 A 
ATOM     63  C   UNL A   1      41.743  31.761  37.401  1.00  0.00     0.031 C 
ATOM     64  C   UNL A   1      39.843  32.948  36.339  1.00  0.00     0.037 A 
BRANCH  51  65
ATOM     65  C   UNL A   1      36.557  33.334  31.109  1.00  0.00     0.058 A 
ATOM     66  C   UNL A   1      36.825  34.207  30.042  1.00  0.00     0.135 A 
ATOM     67  C   UNL A   1      35.211  33.084  31.423  1.00  0.00     0.135 A 
ATOM     68  F   UNL A   1      38.093  34.494  29.705  1.00  0.00    -0.206 F 
ATOM     69  C   UNL A   1      35.803  34.832  29.336  1.00  0.00     0.059 A 
ATOM     70  C   UNL A   1      34.171  33.673  30.711  1.00  0.00     0.059 A 
ATOM     71  F   UNL A   1      34.894  32.257  32.433  1.00  0.00    -0.206 F 
ATOM     72  C   UNL A   1      34.477  34.558  29.678  1.00  0.00     0.060 A 
BRANCH  72  73
ATOM     73  S   UNL A   1      33.163  35.373  28.747  1.00  0.00     0.124 S 
ATOM     74  O   UNL A   1      33.927  36.284  27.900  1.00  0.00    -0.237 OA
ATOM     75  O   UNL A   1      32.528  34.253  28.060  1.00  0.00    -0.237 OA
ATOM     76  O   UNL A   1      32.355  36.010  29.783  1.00  0.00    -0.744 OA
ENDBRANCH  72  73
ENDBRANCH  51  65
BRANCH  52  77
ATOM     77  C   UNL A   1      44.105  28.680  35.734  1.00  0.00     0.058 A 
ATOM     78  C   UNL A   1      43.892  27.586  36.585  1.00  0.00     0.135 A 
ATOM     79  C   UNL A   1      45.428  29.107  35.539  1.00  0.00     0.135 A 
ATOM     80  F   UNL A   1      42.645  27.144  36.809  1.00  0.00    -0.206 F 
ATOM     81  C   UNL A   1      44.945  26.948  37.232  1.00  0.00     0.059 A 
ATOM     82  C   UNL A   1      46.501  28.468  36.153  1.00  0.00     0.059 A 
ATOM     83  F   UNL A   1      45.689  30.140  34.723  1.00  0.00    -0.206 F 
ATOM     84  C   UNL A   1      46.248  27.394  37.005  1.00  0.00     0.060 A 
BRANCH  84  85
ATOM     85  S   UNL A   1      47.612  26.526  37.810  1.00  0.00     0.124 S 
ATOM     86  O   UNL A   1      46.991  26.095  39.057  1.00  0.00    -0.237 OA
ATOM     87  O   UNL A   1      47.911  25.470  36.848  1.00  0.00    -0.237 OA
ATOM     88  O   UNL A   1      48.637  27.557  37.938  1.00  0.00    -0.744 OA
ENDBRANCH  84  85
ENDBRANCH  52  77
BRANCH  64  89
ATOM     89  C   UNL A   1      39.665  33.731  37.612  1.00  0.00     0.058 A 
ATOM     90  C   UNL A   1      38.809  33.297  38.636  1.00  0.00     0.135 A 
ATOM     91  C   UNL A   1      40.405  34.904  37.831  1.00  0.00     0.135 A 
ATOM     92  F   UNL A   1      38.073  32.185  38.476  1.00  0.00    -0.206 F 
ATOM     93  C   UNL A   1      38.675  34.012  39.822  1.00  0.00     0.059 A 
ATOM     94  C   UNL A   1      40.310  35.618  39.022  1.00  0.00     0.059 A 
ATOM     95  F   UNL A   1      41.247  35.360  36.889  1.00  0.00    -0.206 F 
ATOM     96  C   UNL A   1      39.433  35.170  40.007  1.00  0.00     0.060 A 
BRANCH  96  97
ATOM     97  S   UNL A   1      39.275  36.066  41.567  1.00  0.00     0.124 S 
ATOM     98  O   UNL A   1      40.470  35.629  42.281  1.00  0.00    -0.237 OA
ATOM     99  O   UNL A   1      39.272  37.458  41.127  1.00  0.00    -0.237 OA
ATOM    100  O   UNL A   1      38.008  35.584  42.109  1.00  0.00    -0.744 OA
ENDBRANCH  96  97
ENDBRANCH  64  89
ENDBRANCH  38  39
ENDBRANCH  30  33
ENDBRANCH  28  29
ENDBRANCH  27  28
ENDBRANCH  26  27
ENDBRANCH  25  26
ENDBRANCH   1  25
TORSDOF 21
ENDMDL
MODEL 2
REMARK VINA RESULT:     -10.5      0.807      8.094
REMARK SMILES O=C(C[C@H]1C[C@H]2CC[C@@H](C1)N2C(=O)NCCC1CC1)NCCCCCCNC(=O)c1ccc(-c2c3nc(c(-c4c(F)cc(S(=O)(=O)[O-])cc4F)c4ccc([nH]4)c(-c4c(F)cc(S(=O)(=O)[O-])cc4F)c4nc(c(-c5c(F)cc(S(=O)(=O)[O-])cc5F)c5ccc2[nH]5)C=C4)C=C3)cc1
REMARK SMILES IDX 22 1 21 2 20 3 1 4 2 5 3 7 4 8 5 9 10 10 6 11 9 12 7 13
REMARK SMILES IDX 11 14 8 15 12 16 13 17 14 18 15 20 16 21 17 22 18 23 19 24
REMARK SMILES IDX 23 25 24 26 25 27 26 28 27 29 28 30 29 32 30 33 31 34 95 35
REMARK SMILES IDX 32 36 94 37 33 38 34 39 35 40 88 41 36 42 93 43 87 44 89 45
REMARK SMILES IDX 37 46 92 47 86 48 85 49 38 51 72 52 51 53 71 54 52 55 55 56
REMARK SMILES IDX 70 57 90 58 53 59 54 60 69 62 91 63 56 64 39 65 40 66 49 67
REMARK SMILES IDX 41 68 42 69 48 70 50 71 43 72 44 73 45 74 46 75 47 76 73 77
REMARK SMILES IDX 74 78 83 79 75 80 76 81 82 82 84 83 77 84 78 85 79 86 80 87
REMARK SMILES IDX 81 88 57 89 58 90 67 91 59 92 60 93 66 94 68 95 61 96 62 97
REMARK SMILES IDX 63 98 64 99 65 100
REMARK H PARENT 20 6 14 19 27 31 89 50 55 61
REMARK Flexibility Score: inf
ROOT
ATOM      1  C   UNL A   1      41.831  20.364  26.274  1.00  0.00     0.021 C 
ENDROOT
BRANCH   1   2
ATOM      2  C   UNL A   1      40.402  20.544  26.793  1.00  0.00     0.116 C 
BRANCH   2   3
ATOM      3  N   UNL A   1      39.558  21.189  25.807  1.00  0.00    -0.356 N 
ATOM      4  O   UNL A   1      39.225  23.075  27.037  1.00  0.00    -0.275 OA
ATOM      5  C   UNL A   1      38.942  22.379  26.061  1.00  0.00     0.220 C 
ATOM      6  H   UNL A   1      39.426  20.757  24.932  1.00  0.00     0.163 HD
BRANCH   5   7
ATOM      7  C   UNL A   1      37.772  22.783  25.184  1.00  0.00     0.103 C 
BRANCH   7   8
ATOM      8  C   UNL A   1      36.679  21.806  24.701  1.00  0.00     0.002 C 
ATOM      9  C   UNL A   1      35.833  21.086  25.784  1.00  0.00     0.029 C 
ATOM     10  C   UNL A   1      35.727  22.552  23.717  1.00  0.00     0.029 C 
ATOM     11  C   UNL A   1      34.564  21.831  26.234  1.00  0.00     0.087 C 
ATOM     12  C   UNL A   1      34.493  23.201  24.388  1.00  0.00     0.087 C 
ATOM     13  C   UNL A   1      34.882  23.221  26.791  1.00  0.00     0.027 C 
ATOM     14  N   UNL A   1      33.758  22.148  25.061  1.00  0.00    -0.319 N 
ATOM     15  C   UNL A   1      34.813  24.139  25.559  1.00  0.00     0.027 C 
BRANCH  14  16
ATOM     16  C   UNL A   1      32.493  21.678  24.960  1.00  0.00     0.317 C 
ATOM     17  O   UNL A   1      31.544  22.268  25.490  1.00  0.00    -0.249 OA
ATOM     18  N   UNL A   1      32.154  20.578  24.273  1.00  0.00    -0.338 N 
ATOM     19  H   UNL A   1      31.181  20.531  24.134  1.00  0.00     0.165 HD
BRANCH  18  20
ATOM     20  C   UNL A   1      32.824  19.435  23.678  1.00  0.00     0.118 C 
BRANCH  20  21
ATOM     21  C   UNL A   1      33.392  18.497  24.744  1.00  0.00     0.025 C 
BRANCH  21  22
ATOM     22  C   UNL A   1      33.571  17.100  24.218  1.00  0.00    -0.009 C 
ATOM     23  C   UNL A   1      34.728  16.258  24.688  1.00  0.00     0.004 C 
ATOM     24  C   UNL A   1      33.326  15.895  25.087  1.00  0.00     0.004 C 
ENDBRANCH  21  22
ENDBRANCH  20  21
ENDBRANCH  18  20
ENDBRANCH  14  16
ENDBRANCH   7   8
ENDBRANCH   5   7
ENDBRANCH   2   3
ENDBRANCH   1   2
BRANCH   1  25
ATOM     25  C   UNL A   1      42.753  21.575  26.463  1.00  0.00     0.002 C 
BRANCH  25  26
ATOM     26  C   UNL A   1      42.454  22.446  27.685  1.00  0.00     0.002 C 
BRANCH  26  27
ATOM     27  C   UNL A   1      43.672  23.120  28.316  1.00  0.00     0.021 C 
BRANCH  27  28
ATOM     28  C   UNL A   1      44.333  24.184  27.448  1.00  0.00     0.116 C 
BRANCH  28  29
ATOM     29  N   UNL A   1      43.574  24.458  26.240  1.00  0.00    -0.352 N 
ATOM     30  C   UNL A   1      42.513  25.314  26.056  1.00  0.00     0.251 C 
ATOM     31  H   UNL A   1      43.859  23.960  25.440  1.00  0.00     0.163 HD
ATOM     32  O   UNL A   1      41.874  25.280  25.011  1.00  0.00    -0.269 OA
BRANCH  30  33
ATOM     33  C   UNL A   1      42.133  26.258  27.132  1.00  0.00     0.039 A 
ATOM     34  C   UNL A   1      41.136  25.883  28.036  1.00  0.00     0.014 A 
ATOM     35  C   UNL A   1      42.760  27.501  27.256  1.00  0.00     0.014 A 
ATOM     36  C   UNL A   1      40.813  26.729  29.101  1.00  0.00     0.010 A 
ATOM     37  C   UNL A   1      42.494  28.305  28.361  1.00  0.00     0.010 A 
ATOM     38  C   UNL A   1      41.516  27.930  29.296  1.00  0.00    -0.014 A 
BRANCH  38  39
ATOM     39  C   UNL A   1      41.247  28.800  30.471  1.00  0.00     0.031 A 
ATOM     40  C   UNL A   1      42.062  28.651  31.728  1.00  0.00     0.074 A 
ATOM     41  C   UNL A   1      40.231  29.685  30.428  1.00  0.00     0.049 A 
ATOM     42  N   UNL A   1      41.937  29.273  32.872  1.00  0.00    -0.248 NA
ATOM     43  C   UNL A   1      43.146  27.655  31.704  1.00  0.00     0.031 C 
ATOM     44  C   UNL A   1      39.340  29.894  29.284  1.00  0.00     0.029 A 
ATOM     45  N   UNL A   1      39.769  30.569  31.371  1.00  0.00    -0.354 N 
ATOM     46  C   UNL A   1      42.915  28.740  33.704  1.00  0.00     0.074 A 
ATOM     47  C   UNL A   1      43.587  27.702  32.953  1.00  0.00     0.031 C 
ATOM     48  C   UNL A   1      38.457  30.860  29.583  1.00  0.00     0.029 A 
ATOM     49  C   UNL A   1      38.688  31.310  30.953  1.00  0.00     0.049 A 
ATOM     50  H   UNL A   1      40.173  30.664  32.263  1.00  0.00     0.167 HD
ATOM     51  C   UNL A   1      43.240  29.100  34.970  1.00  0.00     0.037 A 
ATOM     52  C   UNL A   1      37.957  32.239  31.599  1.00  0.00     0.037 A 
ATOM     53  C   UNL A   1      42.576  30.144  35.707  1.00  0.00     0.049 A 
ATOM     54  C   UNL A   1      38.323  32.607  33.013  1.00  0.00     0.074 A 
ATOM     55  C   UNL A   1      42.862  30.614  36.977  1.00  0.00     0.029 A 
ATOM     56  N   UNL A   1      41.490  30.875  35.245  1.00  0.00    -0.354 N 
ATOM     57  N   UNL A   1      39.290  32.134  33.763  1.00  0.00    -0.248 NA
ATOM     58  C   UNL A   1      37.505  33.636  33.666  1.00  0.00     0.031 C 
ATOM     59  C   UNL A   1      41.917  31.593  37.304  1.00  0.00     0.029 A 
ATOM     60  C   UNL A   1      41.081  31.777  36.214  1.00  0.00     0.049 A 
ATOM     61  H   UNL A   1      41.074  30.769  34.360  1.00  0.00     0.167 HD
ATOM     62  C   UNL A   1      39.215  32.830  34.964  1.00  0.00     0.074 A 
ATOM     63  C   UNL A   1      38.115  33.764  34.836  1.00  0.00     0.031 C 
ATOM     64  C   UNL A   1      39.987  32.708  36.073  1.00  0.00     0.037 A 
BRANCH  51  65
ATOM     65  C   UNL A   1      44.366  28.358  35.639  1.00  0.00     0.058 A 
ATOM     66  C   UNL A   1      45.697  28.801  35.553  1.00  0.00     0.135 A 
ATOM     67  C   UNL A   1      44.111  27.211  36.409  1.00  0.00     0.135 A 
ATOM     68  F   UNL A   1      46.003  29.883  34.820  1.00  0.00    -0.206 F 
ATOM     69  C   UNL A   1      46.734  28.119  36.179  1.00  0.00     0.059 A 
ATOM     70  C   UNL A   1      45.129  26.530  37.070  1.00  0.00     0.059 A 
ATOM     71  F   UNL A   1      42.858  26.741  36.529  1.00  0.00    -0.206 F 
ATOM     72  C   UNL A   1      46.441  26.984  36.936  1.00  0.00     0.060 A 
BRANCH  72  73
ATOM     73  S   UNL A   1      47.799  26.114  37.746  1.00  0.00     0.124 S 
ATOM     74  O   UNL A   1      48.899  26.365  36.819  1.00  0.00    -0.237 OA
ATOM     75  O   UNL A   1      47.885  26.799  39.031  1.00  0.00    -0.237 OA
ATOM     76  O   UNL A   1      47.334  24.732  37.805  1.00  0.00    -0.744 OA
ENDBRANCH  72  73
ENDBRANCH  51  65
BRANCH  52  77
ATOM     77  C   UNL A   1      36.816  32.901  30.909  1.00  0.00     0.058 A 
ATOM     78  C   UNL A   1      35.490  32.556  31.212  1.00  0.00     0.135 A 
ATOM     79  C   UNL A   1      37.027  33.900  29.946  1.00  0.00     0.135 A 
ATOM     80  F   UNL A   1      35.237  31.602  32.121  1.00  0.00    -0.206 F 
ATOM     81  C   UNL A   1      34.414  33.165  30.576  1.00  0.00     0.059 A 
ATOM     82  C   UNL A   1      35.966  34.544  29.315  1.00  0.00     0.059 A 
ATOM     83  F   UNL A   1      38.275  34.278  29.630  1.00  0.00    -0.206 F 
ATOM     84  C   UNL A   1      34.663  34.163  29.631  1.00  0.00     0.060 A 
BRANCH  84  85
ATOM     85  S   UNL A   1      33.257  34.983  28.848  1.00  0.00     0.124 S 
ATOM     86  O   UNL A   1      32.447  35.346  30.005  1.00  0.00    -0.237 OA
ATOM     87  O   UNL A   1      33.900  36.089  28.147  1.00  0.00    -0.237 OA
ATOM     88  O   UNL A   1      32.700  33.944  27.988  1.00  0.00    -0.744 OA
ENDBRANCH  84  85
ENDBRANCH  52  77
BRANCH  64  89
ATOM     89  C   UNL A   1      39.701  33.632  37.226  1.00  0.00     0.058 A 
ATOM     90  C   UNL A   1      38.802  33.289  38.246  1.00  0.00     0.135 A 
ATOM     91  C   UNL A   1      40.381  34.856  37.337  1.00  0.00     0.135 A 
ATOM     92  F   UNL A   1      38.120  32.133  38.186  1.00  0.00    -0.206 F 
ATOM     93  C   UNL A   1      38.568  34.137  39.324  1.00  0.00     0.059 A 
ATOM     94  C   UNL A   1      40.186  35.706  38.422  1.00  0.00     0.059 A 
ATOM     95  F   UNL A   1      41.261  35.231  36.395  1.00  0.00    -0.206 F 
ATOM     96  C   UNL A   1      39.268  35.342  39.406  1.00  0.00     0.060 A 
BRANCH  96  97
ATOM     97  S   UNL A   1      38.980  36.415  40.829  1.00  0.00     0.124 S 
ATOM     98  O   UNL A   1      37.949  35.676  41.551  1.00  0.00    -0.237 OA
ATOM     99  O   UNL A   1      40.295  36.452  41.462  1.00  0.00    -0.237 OA
ATOM    100  O   UNL A   1      38.546  37.671  40.226  1.00  0.00    -0.744 OA
ENDBRANCH  96  97
ENDBRANCH  64  89
ENDBRANCH  38  39
ENDBRANCH  30  33
ENDBRANCH  28  29
ENDBRANCH  27  28
ENDBRANCH  26  27
ENDBRANCH  25  26
ENDBRANCH   1  25
TORSDOF 21
ENDMDL
MODEL 3
REMARK VINA RESULT:      -9.9      5.437     12.664
REMARK SMILES O=C(C[C@H]1C[C@H]2CC[C@@H](C1)N2C(=O)NCCC1CC1)NCCCCCCNC(=O)c1ccc(-c2c3nc(c(-c4c(F)cc(S(=O)(=O)[O-])cc4F)c4ccc([nH]4)c(-c4c(F)cc(S(=O)(=O)[O-])cc4F)c4nc(c(-c5c(F)cc(S(=O)(=O)[O-])cc5F)c5ccc2[nH]5)C=C4)C=C3)cc1
REMARK SMILES IDX 22 1 21 2 20 3 1 4 2 5 3 7 4 8 5 9 10 10 6 11 9 12 7 13
REMARK SMILES IDX 11 14 8 15 12 16 13 17 14 18 15 20 16 21 17 22 18 23 19 24
REMARK SMILES IDX 23 25 24 26 25 27 26 28 27 29 28 30 29 32 30 33 31 34 95 35
REMARK SMILES IDX 32 36 94 37 33 38 34 39 35 40 88 41 36 42 93 43 87 44 89 45
REMARK SMILES IDX 37 46 92 47 86 48 85 49 38 51 72 52 51 53 71 54 52 55 55 56
REMARK SMILES IDX 70 57 90 58 53 59 54 60 69 62 91 63 56 64 39 65 40 66 49 67
REMARK SMILES IDX 41 68 42 69 48 70 50 71 43 72 44 73 45 74 46 75 47 76 73 77
REMARK SMILES IDX 74 78 83 79 75 80 76 81 82 82 84 83 77 84 78 85 79 86 80 87
REMARK SMILES IDX 81 88 57 89 58 90 67 91 59 92 60 93 66 94 68 95 61 96 62 97
REMARK SMILES IDX 63 98 64 99 65 100
REMARK H PARENT 20 6 14 19 27 31 89 50 55 61
REMARK Flexibility Score: inf
ROOT
ATOM      1  C   UNL A   1      35.052  34.024  32.821  1.00  0.00     0.021 C 
ENDROOT
BRANCH   1   2
ATOM      2  C   UNL A   1      35.226  34.263  34.323  1.00  0.00     0.116 C 
BRANCH   2   3
ATOM      3  N   UNL A   1      36.580  33.978  34.752  1.00  0.00    -0.356 N 
ATOM      4  O   UNL A   1      37.569  35.253  33.147  1.00  0.00    -0.275 OA
ATOM      5  C   UNL A   1      37.662  34.421  34.050  1.00  0.00     0.220 C 
ATOM      6  H   UNL A   1      36.722  33.450  35.571  1.00  0.00     0.163 HD
BRANCH   5   7
ATOM      7  C   UNL A   1      39.002  33.754  34.302  1.00  0.00     0.103 C 
BRANCH   7   8
ATOM      8  C   UNL A   1      39.685  32.789  33.310  1.00  0.00     0.002 C 
ATOM      9  C   UNL A   1      40.848  31.914  33.848  1.00  0.00     0.029 C 
ATOM     10  C   UNL A   1      38.603  31.868  32.668  1.00  0.00     0.029 C 
ATOM     11  C   UNL A   1      40.434  30.555  34.438  1.00  0.00     0.087 C 
ATOM     12  C   UNL A   1      38.374  30.533  33.415  1.00  0.00     0.087 C 
ATOM     13  C   UNL A   1      39.442  30.711  35.595  1.00  0.00     0.027 C 
ATOM     14  N   UNL A   1      39.642  29.830  33.452  1.00  0.00    -0.319 N 
ATOM     15  C   UNL A   1      38.066  30.674  34.911  1.00  0.00     0.027 C 
BRANCH  14  16
ATOM     16  C   UNL A   1      40.055  28.621  33.008  1.00  0.00     0.317 C 
ATOM     17  O   UNL A   1      39.246  27.735  32.709  1.00  0.00    -0.249 OA
ATOM     18  N   UNL A   1      41.341  28.287  32.827  1.00  0.00    -0.338 N 
ATOM     19  H   UNL A   1      41.424  27.463  32.295  1.00  0.00     0.165 HD
BRANCH  18  20
ATOM     20  C   UNL A   1      42.647  28.803  33.200  1.00  0.00     0.118 C 
BRANCH  20  21
ATOM     21  C   UNL A   1      43.391  27.838  34.123  1.00  0.00     0.025 C 
BRANCH  21  22
ATOM     22  C   UNL A   1      44.773  27.534  33.615  1.00  0.00    -0.009 C 
ATOM     23  C   UNL A   1      45.928  28.426  33.986  1.00  0.00     0.004 C 
ATOM     24  C   UNL A   1      45.855  27.028  34.531  1.00  0.00     0.004 C 
ENDBRANCH  21  22
ENDBRANCH  20  21
ENDBRANCH  18  20
ENDBRANCH  14  16
ENDBRANCH   7   8
ENDBRANCH   5   7
ENDBRANCH   2   3
ENDBRANCH   1   2
BRANCH   1  25
ATOM     25  C   UNL A   1      35.106  32.555  32.382  1.00  0.00     0.002 C 
BRANCH  25  26
ATOM     26  C   UNL A   1      34.770  32.294  30.913  1.00  0.00     0.002 C 
BRANCH  26  27
ATOM     27  C   UNL A   1      35.624  33.063  29.905  1.00  0.00     0.021 C 
BRANCH  27  28
ATOM     28  C   UNL A   1      35.391  32.681  28.448  1.00  0.00     0.116 C 
BRANCH  28  29
ATOM     29  N   UNL A   1      34.522  31.523  28.315  1.00  0.00    -0.352 N 
ATOM     30  C   UNL A   1      34.858  30.197  28.175  1.00  0.00     0.251 C 
ATOM     31  H   UNL A   1      33.557  31.716  28.325  1.00  0.00     0.163 HD
ATOM     32  O   UNL A   1      33.997  29.376  27.887  1.00  0.00    -0.269 OA
BRANCH  30  33
ATOM     33  C   UNL A   1      36.267  29.772  28.348  1.00  0.00     0.039 A 
ATOM     34  C   UNL A   1      37.135  29.851  27.256  1.00  0.00     0.014 A 
ATOM     35  C   UNL A   1      36.732  29.305  29.581  1.00  0.00     0.014 A 
ATOM     36  C   UNL A   1      38.483  29.523  27.419  1.00  0.00     0.010 A 
ATOM     37  C   UNL A   1      38.090  29.055  29.760  1.00  0.00     0.010 A 
ATOM     38  C   UNL A   1      38.981  29.159  28.681  1.00  0.00    -0.014 A 
BRANCH  38  39
ATOM     39  C   UNL A   1      40.429  28.891  28.892  1.00  0.00     0.031 A 
ATOM     40  C   UNL A   1      41.010  27.546  28.547  1.00  0.00     0.074 A 
ATOM     41  C   UNL A   1      41.208  29.839  29.450  1.00  0.00     0.049 A 
ATOM     42  N   UNL A   1      42.231  27.105  28.718  1.00  0.00    -0.248 NA
ATOM     43  C   UNL A   1      40.094  26.558  27.955  1.00  0.00     0.031 C 
ATOM     44  C   UNL A   1      40.755  31.167  29.869  1.00  0.00     0.029 A 
ATOM     45  N   UNL A   1      42.544  29.832  29.769  1.00  0.00    -0.354 N 
ATOM     46  C   UNL A   1      42.227  25.791  28.263  1.00  0.00     0.074 A 
ATOM     47  C   UNL A   1      40.870  25.487  27.865  1.00  0.00     0.031 C 
ATOM     48  C   UNL A   1      41.797  31.853  30.366  1.00  0.00     0.029 A 
ATOM     49  C   UNL A   1      42.983  31.002  30.343  1.00  0.00     0.049 A 
ATOM     50  H   UNL A   1      43.132  29.060  29.603  1.00  0.00     0.167 HD
ATOM     51  C   UNL A   1      43.265  24.926  28.163  1.00  0.00     0.037 A 
ATOM     52  C   UNL A   1      44.199  31.350  30.807  1.00  0.00     0.037 A 
ATOM     53  C   UNL A   1      44.617  25.241  28.549  1.00  0.00     0.049 A 
ATOM     54  C   UNL A   1      45.332  30.363  30.706  1.00  0.00     0.074 A 
ATOM     55  C   UNL A   1      45.747  24.449  28.442  1.00  0.00     0.029 A 
ATOM     56  N   UNL A   1      45.022  26.440  29.119  1.00  0.00    -0.354 N 
ATOM     57  N   UNL A   1      45.323  29.146  30.217  1.00  0.00    -0.248 NA
ATOM     58  C   UNL A   1      46.640  30.799  31.212  1.00  0.00     0.031 C 
ATOM     59  C   UNL A   1      46.825  25.148  28.996  1.00  0.00     0.029 A 
ATOM     60  C   UNL A   1      46.380  26.400  29.390  1.00  0.00     0.049 A 
ATOM     61  H   UNL A   1      44.432  27.206  29.301  1.00  0.00     0.167 HD
ATOM     62  C   UNL A   1      46.630  28.682  30.330  1.00  0.00     0.074 A 
ATOM     63  C   UNL A   1      47.403  29.754  30.922  1.00  0.00     0.031 C 
ATOM     64  C   UNL A   1      47.142  27.477  29.974  1.00  0.00     0.037 A 
BRANCH  51  65
ATOM     65  C   UNL A   1      42.979  23.553  27.615  1.00  0.00     0.058 A 
ATOM     66  C   UNL A   1      43.125  23.258  26.249  1.00  0.00     0.135 A 
ATOM     67  C   UNL A   1      42.593  22.506  28.469  1.00  0.00     0.135 A 
ATOM     68  F   UNL A   1      43.478  24.222  25.383  1.00  0.00    -0.206 F 
ATOM     69  C   UNL A   1      42.868  21.988  25.746  1.00  0.00     0.059 A 
ATOM     70  C   UNL A   1      42.362  21.220  27.992  1.00  0.00     0.059 A 
ATOM     71  F   UNL A   1      42.439  22.728  29.784  1.00  0.00    -0.206 F 
ATOM     72  C   UNL A   1      42.488  20.974  26.625  1.00  0.00     0.060 A 
BRANCH  72  73
ATOM     73  S   UNL A   1      42.164  19.329  25.955  1.00  0.00     0.124 S 
ATOM     74  O   UNL A   1      40.720  19.378  25.749  1.00  0.00    -0.237 OA
ATOM     75  O   UNL A   1      42.977  19.322  24.743  1.00  0.00    -0.237 OA
ATOM     76  O   UNL A   1      42.615  18.433  27.016  1.00  0.00    -0.744 OA
ENDBRANCH  72  73
ENDBRANCH  51  65
BRANCH  52  77
ATOM     77  C   UNL A   1      44.413  32.701  31.393  1.00  0.00     0.058 A 
ATOM     78  C   UNL A   1      44.644  33.816  30.573  1.00  0.00     0.135 A 
ATOM     79  C   UNL A   1      44.376  32.909  32.781  1.00  0.00     0.135 A 
ATOM     80  F   UNL A   1      44.696  33.668  29.240  1.00  0.00    -0.206 F 
ATOM     81  C   UNL A   1      44.847  35.084  31.105  1.00  0.00     0.059 A 
ATOM     82  C   UNL A   1      44.548  34.173  33.336  1.00  0.00     0.059 A 
ATOM     83  F   UNL A   1      44.143  31.879  33.610  1.00  0.00    -0.206 F 
ATOM     84  C   UNL A   1      44.792  35.254  32.490  1.00  0.00     0.060 A 
BRANCH  84  85
ATOM     85  S   UNL A   1      45.005  36.915  33.167  1.00  0.00     0.124 S 
ATOM     86  O   UNL A   1      44.870  36.669  34.598  1.00  0.00    -0.237 OA
ATOM     87  O   UNL A   1      46.343  37.264  32.703  1.00  0.00    -0.237 OA
ATOM     88  O   UNL A   1      43.918  37.670  32.551  1.00  0.00    -0.744 OA
ENDBRANCH  84  85
ENDBRANCH  52  77
BRANCH  64  89
ATOM     89  C   UNL A   1      48.618  27.262  30.175  1.00  0.00     0.058 A 
ATOM     90  C   UNL A   1      49.560  27.623  29.201  1.00  0.00     0.135 A 
ATOM     91  C   UNL A   1      49.098  26.736  31.386  1.00  0.00     0.135 A 
ATOM     92  F   UNL A   1      49.155  28.124  28.022  1.00  0.00    -0.206 F 
ATOM     93  C   UNL A   1      50.925  27.448  29.409  1.00  0.00     0.059 A 
ATOM     94  C   UNL A   1      50.460  26.581  31.628  1.00  0.00     0.059 A 
ATOM     95  F   UNL A   1      48.241  26.382  32.358  1.00  0.00    -0.206 F 
ATOM     96  C   UNL A   1      51.365  26.929  30.628  1.00  0.00     0.060 A 
BRANCH  96  97
ATOM     97  S   UNL A   1      53.141  26.742  30.897  1.00  0.00     0.124 S 
ATOM     98  O   UNL A   1      53.188  25.550  31.737  1.00  0.00    -0.237 OA
ATOM     99  O   UNL A   1      53.646  26.580  29.537  1.00  0.00    -0.237 OA
ATOM    100  O   UNL A   1      53.519  27.990  31.555  1.00  0.00    -0.744 OA
ENDBRANCH  96  97
ENDBRANCH  64  89
ENDBRANCH  38  39
ENDBRANCH  30  33
ENDBRANCH  28  29
ENDBRANCH  27  28
ENDBRANCH  26  27
ENDBRANCH  25  26
ENDBRANCH   1  25
TORSDOF 21
ENDMDL
