MODEL 1
REMARK VINA RESULT:     -10.7      0.000      0.000
REMARK SMILES Cc1cscc1-c1noc(SCC(=O)NCCCCCCNC(=O)c2ccc(-c3c4nc(c(-c5c(F)cc(S(=O)(=O)[O-])cc5F)c5ccc([nH]5)c(-c5c(F)cc(S(=O)(=O)[O-])cc5F)c5nc(c(-c6c(F)cc(S(=O)(=O)[O-])cc6F)c6ccc3[nH]6)C=C5)C=C4)cc2)n1
REMARK SMILES IDX 18 1 17 2 16 3 15 4 13 5 14 6 12 8 11 9 10 10 7 11 8 12
REMARK SMILES IDX 91 13 9 14 6 15 1 16 2 17 3 18 4 19 5 20 19 21 20 22 21 23
REMARK SMILES IDX 22 24 23 25 24 27 25 28 26 29 90 30 27 31 89 32 28 33 29 34
REMARK SMILES IDX 30 35 83 36 31 37 88 38 82 39 84 40 32 41 87 42 81 43 80 44
REMARK SMILES IDX 33 46 67 47 46 48 66 49 47 50 50 51 65 52 85 53 48 54 49 55
REMARK SMILES IDX 64 57 86 58 51 59 34 60 35 61 44 62 36 63 37 64 43 65 45 66
REMARK SMILES IDX 38 67 39 68 40 69 41 70 42 71 68 72 69 73 78 74 70 75 71 76
REMARK SMILES IDX 77 77 79 78 72 79 73 80 74 81 75 82 76 83 52 84 53 85 62 86
REMARK SMILES IDX 54 87 55 88 61 89 63 90 56 91 57 92 58 93 59 94 60 95
REMARK H PARENT 15 7 22 26 84 45 50 56
REMARK Flexibility Score: inf
ROOT
ATOM      1  C   UNL A   1      38.815  21.768  25.848  1.00  0.00     0.002 C 
ENDROOT
BRANCH   1   2
ATOM      2  C   UNL A   1      38.163  23.098  26.253  1.00  0.00     0.021 C 
BRANCH   2   3
ATOM      3  C   UNL A   1      36.706  23.233  25.807  1.00  0.00     0.116 C 
BRANCH   3   4
ATOM      4  N   UNL A   1      35.817  22.644  26.791  1.00  0.00    -0.355 N 
ATOM      5  C   UNL A   1      34.644  21.969  26.628  1.00  0.00     0.230 C 
ATOM      6  O   UNL A   1      34.050  21.613  27.650  1.00  0.00    -0.274 OA
ATOM      7  H   UNL A   1      36.107  22.748  27.725  1.00  0.00     0.163 HD
BRANCH   5   8
ATOM      8  C   UNL A   1      34.165  21.546  25.253  1.00  0.00     0.179 C 
BRANCH   8   9
ATOM      9  S   UNL A   1      32.373  21.462  25.052  1.00  0.00    -0.055 SA
BRANCH   9  10
ATOM     10  C   UNL A   1      31.830  22.989  25.659  1.00  0.00     0.286 A 
ATOM     11  C   UNL A   1      31.477  25.017  25.999  1.00  0.00     0.204 A 
ATOM     12  N   UNL A   1      30.909  24.440  27.062  1.00  0.00    -0.056 NA
ATOM     13  N   UNL A   1      32.058  24.156  25.105  1.00  0.00    -0.181 NA
ATOM     14  O   UNL A   1      31.124  23.082  26.828  1.00  0.00    -0.327 OA
BRANCH  11  15
ATOM     15  C   UNL A   1      31.568  26.465  25.822  1.00  0.00     0.036 A 
ATOM     16  C   UNL A   1      30.111  26.576  23.663  1.00  0.00     0.046 C 
ATOM     17  C   UNL A   1      30.949  27.182  24.741  1.00  0.00    -0.029 A 
ATOM     18  C   UNL A   1      31.214  28.537  24.848  1.00  0.00     0.069 A 
ATOM     19  S   UNL A   1      32.172  28.929  26.209  1.00  0.00    -0.151 S 
ATOM     20  C   UNL A   1      32.243  27.294  26.693  1.00  0.00     0.077 A 
ENDBRANCH  11  15
ENDBRANCH   9  10
ENDBRANCH   8   9
ENDBRANCH   5   8
ENDBRANCH   3   4
ENDBRANCH   2   3
ENDBRANCH   1   2
BRANCH   1  21
ATOM     21  C   UNL A   1      40.202  21.518  26.449  1.00  0.00     0.002 C 
BRANCH  21  22
ATOM     22  C   UNL A   1      40.529  22.358  27.684  1.00  0.00     0.021 C 
BRANCH  22  23
ATOM     23  C   UNL A   1      41.902  23.021  27.651  1.00  0.00     0.116 C 
BRANCH  23  24
ATOM     24  N   UNL A   1      42.133  23.733  26.405  1.00  0.00    -0.352 N 
ATOM     25  C   UNL A   1      41.964  25.066  26.127  1.00  0.00     0.251 C 
ATOM     26  H   UNL A   1      42.455  23.183  25.655  1.00  0.00     0.163 HD
ATOM     27  O   UNL A   1      42.012  25.460  24.962  1.00  0.00    -0.269 OA
BRANCH  25  28
ATOM     28  C   UNL A   1      41.710  26.024  27.225  1.00  0.00     0.039 A 
ATOM     29  C   UNL A   1      40.566  25.868  28.011  1.00  0.00     0.014 A 
ATOM     30  C   UNL A   1      42.593  27.081  27.472  1.00  0.00     0.014 A 
ATOM     31  C   UNL A   1      40.329  26.747  29.070  1.00  0.00     0.010 A 
ATOM     32  C   UNL A   1      42.398  27.903  28.578  1.00  0.00     0.010 A 
ATOM     33  C   UNL A   1      41.255  27.757  29.378  1.00  0.00    -0.014 A 
BRANCH  33  34
ATOM     34  C   UNL A   1      41.028  28.692  30.511  1.00  0.00     0.031 A 
ATOM     35  C   UNL A   1      41.863  28.578  31.759  1.00  0.00     0.074 A 
ATOM     36  C   UNL A   1      40.043  29.608  30.438  1.00  0.00     0.049 A 
ATOM     37  N   UNL A   1      41.784  29.261  32.872  1.00  0.00    -0.248 NA
ATOM     38  C   UNL A   1      42.906  27.538  31.769  1.00  0.00     0.031 C 
ATOM     39  C   UNL A   1      39.136  29.788  29.303  1.00  0.00     0.029 A 
ATOM     40  N   UNL A   1      39.632  30.557  31.342  1.00  0.00    -0.354 N 
ATOM     41  C   UNL A   1      42.752  28.726  33.716  1.00  0.00     0.074 A 
ATOM     42  C   UNL A   1      43.362  27.622  33.009  1.00  0.00     0.031 C 
ATOM     43  C   UNL A   1      38.294  30.800  29.567  1.00  0.00     0.029 A 
ATOM     44  C   UNL A   1      38.574  31.317  30.902  1.00  0.00     0.049 A 
ATOM     45  H   UNL A   1      40.057  30.682  32.221  1.00  0.00     0.167 HD
ATOM     46  C   UNL A   1      43.120  29.133  34.954  1.00  0.00     0.037 A 
ATOM     47  C   UNL A   1      37.902  32.315  31.510  1.00  0.00     0.037 A 
ATOM     48  C   UNL A   1      42.522  30.249  35.643  1.00  0.00     0.049 A 
ATOM     49  C   UNL A   1      38.328  32.753  32.886  1.00  0.00     0.074 A 
ATOM     50  C   UNL A   1      42.854  30.775  36.878  1.00  0.00     0.029 A 
ATOM     51  N   UNL A   1      41.468  31.009  35.154  1.00  0.00    -0.354 N 
ATOM     52  N   UNL A   1      39.284  32.274  33.646  1.00  0.00    -0.248 NA
ATOM     53  C   UNL A   1      37.593  33.876  33.482  1.00  0.00     0.031 C 
ATOM     54  C   UNL A   1      41.968  31.821  37.160  1.00  0.00     0.029 A 
ATOM     55  C   UNL A   1      41.126  31.988  36.073  1.00  0.00     0.049 A 
ATOM     56  H   UNL A   1      41.029  30.873  34.284  1.00  0.00     0.167 HD
ATOM     57  C   UNL A   1      39.290  33.061  34.793  1.00  0.00     0.074 A 
ATOM     58  C   UNL A   1      38.247  34.051  34.622  1.00  0.00     0.031 C 
ATOM     59  C   UNL A   1      40.091  32.975  35.885  1.00  0.00     0.037 A 
BRANCH  46  60
ATOM     60  C   UNL A   1      44.218  28.367  35.644  1.00  0.00     0.058 A 
ATOM     61  C   UNL A   1      43.943  27.276  36.484  1.00  0.00     0.135 A 
ATOM     62  C   UNL A   1      45.565  28.713  35.444  1.00  0.00     0.135 A 
ATOM     63  F   UNL A   1      42.674  26.908  36.726  1.00  0.00    -0.206 F 
ATOM     64  C   UNL A   1      44.959  26.580  37.132  1.00  0.00     0.059 A 
ATOM     65  C   UNL A   1      46.599  28.011  36.055  1.00  0.00     0.059 A 
ATOM     66  F   UNL A   1      45.887  29.746  34.650  1.00  0.00    -0.206 F 
ATOM     67  C   UNL A   1      46.285  26.956  36.912  1.00  0.00     0.060 A 
BRANCH  67  68
ATOM     68  S   UNL A   1      47.592  26.045  37.760  1.00  0.00     0.124 S 
ATOM     69  O   UNL A   1      48.456  27.131  38.213  1.00  0.00    -0.237 OA
ATOM     70  O   UNL A   1      46.854  25.345  38.806  1.00  0.00    -0.237 OA
ATOM     71  O   UNL A   1      48.150  25.196  36.714  1.00  0.00    -0.744 OA
ENDBRANCH  67  68
ENDBRANCH  46  60
BRANCH  47  72
ATOM     72  C   UNL A   1      36.776  32.987  30.807  1.00  0.00     0.058 A 
ATOM     73  C   UNL A   1      35.443  32.665  31.105  1.00  0.00     0.135 A 
ATOM     74  C   UNL A   1      37.007  33.974  29.837  1.00  0.00     0.135 A 
ATOM     75  F   UNL A   1      35.169  31.724  32.021  1.00  0.00    -0.206 F 
ATOM     76  C   UNL A   1      34.380  33.282  30.453  1.00  0.00     0.059 A 
ATOM     77  C   UNL A   1      35.961  34.627  29.192  1.00  0.00     0.059 A 
ATOM     78  F   UNL A   1      38.263  34.333  29.527  1.00  0.00    -0.206 F 
ATOM     79  C   UNL A   1      34.649  34.265  29.500  1.00  0.00     0.060 A 
BRANCH  79  80
ATOM     80  S   UNL A   1      33.262  35.098  28.699  1.00  0.00     0.124 S 
ATOM     81  O   UNL A   1      32.663  34.006  27.938  1.00  0.00    -0.237 OA
ATOM     82  O   UNL A   1      32.491  35.577  29.842  1.00  0.00    -0.237 OA
ATOM     83  O   UNL A   1      33.907  36.140  27.906  1.00  0.00    -0.744 OA
ENDBRANCH  79  80
ENDBRANCH  47  72
BRANCH  59  84
ATOM     84  C   UNL A   1      39.909  34.013  36.960  1.00  0.00     0.058 A 
ATOM     85  C   UNL A   1      40.504  35.282  36.882  1.00  0.00     0.135 A 
ATOM     86  C   UNL A   1      39.094  33.741  38.072  1.00  0.00     0.135 A 
ATOM     87  F   UNL A   1      41.296  35.593  35.843  1.00  0.00    -0.206 F 
ATOM     88  C   UNL A   1      40.326  36.231  37.884  1.00  0.00     0.059 A 
ATOM     89  C   UNL A   1      38.875  34.686  39.069  1.00  0.00     0.059 A 
ATOM     90  F   UNL A   1      38.488  32.548  38.192  1.00  0.00    -0.206 F 
ATOM     91  C   UNL A   1      39.510  35.924  38.974  1.00  0.00     0.060 A 
BRANCH  91  92
ATOM     92  S   UNL A   1      39.276  37.169  40.260  1.00  0.00     0.124 S 
ATOM     93  O   UNL A   1      40.656  37.507  40.594  1.00  0.00    -0.237 OA
ATOM     94  O   UNL A   1      38.522  38.203  39.559  1.00  0.00    -0.237 OA
ATOM     95  O   UNL A   1      38.536  36.453  41.295  1.00  0.00    -0.744 OA
ENDBRANCH  91  92
ENDBRANCH  59  84
ENDBRANCH  33  34
ENDBRANCH  25  28
ENDBRANCH  23  24
ENDBRANCH  22  23
ENDBRANCH  21  22
ENDBRANCH   1  21
TORSDOF 19
ENDMDL
MODEL 2
REMARK VINA RESULT:     -10.5      6.383     12.060
REMARK SMILES Cc1cscc1-c1noc(SCC(=O)NCCCCCCNC(=O)c2ccc(-c3c4nc(c(-c5c(F)cc(S(=O)(=O)[O-])cc5F)c5ccc([nH]5)c(-c5c(F)cc(S(=O)(=O)[O-])cc5F)c5nc(c(-c6c(F)cc(S(=O)(=O)[O-])cc6F)c6ccc3[nH]6)C=C5)C=C4)cc2)n1
REMARK SMILES IDX 18 1 17 2 16 3 15 4 13 5 14 6 12 8 11 9 10 10 7 11 8 12
REMARK SMILES IDX 91 13 9 14 6 15 1 16 2 17 3 18 4 19 5 20 19 21 20 22 21 23
REMARK SMILES IDX 22 24 23 25 24 27 25 28 26 29 90 30 27 31 89 32 28 33 29 34
REMARK SMILES IDX 30 35 83 36 31 37 88 38 82 39 84 40 32 41 87 42 81 43 80 44
REMARK SMILES IDX 33 46 67 47 46 48 66 49 47 50 50 51 65 52 85 53 48 54 49 55
REMARK SMILES IDX 64 57 86 58 51 59 34 60 35 61 44 62 36 63 37 64 43 65 45 66
REMARK SMILES IDX 38 67 39 68 40 69 41 70 42 71 68 72 69 73 78 74 70 75 71 76
REMARK SMILES IDX 77 77 79 78 72 79 73 80 74 81 75 82 76 83 52 84 53 85 62 86
REMARK SMILES IDX 54 87 55 88 61 89 63 90 56 91 57 92 58 93 59 94 60 95
REMARK H PARENT 15 7 22 26 84 45 50 56
REMARK Flexibility Score: inf
ROOT
ATOM      1  C   UNL A   1      32.417  29.604  27.069  1.00  0.00     0.002 C 
ENDROOT
BRANCH   1   2
ATOM      2  C   UNL A   1      32.977  28.804  25.883  1.00  0.00     0.021 C 
BRANCH   2   3
ATOM      3  C   UNL A   1      32.474  29.286  24.521  1.00  0.00     0.116 C 
BRANCH   3   4
ATOM      4  N   UNL A   1      33.356  28.828  23.463  1.00  0.00    -0.355 N 
ATOM      5  C   UNL A   1      33.192  27.833  22.546  1.00  0.00     0.230 C 
ATOM      6  O   UNL A   1      34.132  27.612  21.779  1.00  0.00    -0.274 OA
ATOM      7  H   UNL A   1      34.209  29.315  23.397  1.00  0.00     0.163 HD
BRANCH   5   8
ATOM      8  C   UNL A   1      31.860  27.129  22.381  1.00  0.00     0.179 C 
BRANCH   8   9
ATOM      9  S   UNL A   1      31.518  25.830  23.588  1.00  0.00    -0.055 SA
BRANCH   9  10
ATOM     10  C   UNL A   1      32.766  24.669  23.291  1.00  0.00     0.286 A 
ATOM     11  C   UNL A   1      34.328  23.295  23.458  1.00  0.00     0.204 A 
ATOM     12  N   UNL A   1      34.222  23.457  22.135  1.00  0.00    -0.056 NA
ATOM     13  N   UNL A   1      33.446  24.026  24.210  1.00  0.00    -0.181 NA
ATOM     14  O   UNL A   1      33.164  24.358  22.018  1.00  0.00    -0.327 OA
BRANCH  11  15
ATOM     15  C   UNL A   1      35.362  22.476  24.088  1.00  0.00     0.036 A 
ATOM     16  C   UNL A   1      33.805  20.473  24.687  1.00  0.00     0.046 C 
ATOM     17  C   UNL A   1      35.120  21.182  24.664  1.00  0.00    -0.029 A 
ATOM     18  C   UNL A   1      36.293  20.658  25.180  1.00  0.00     0.069 A 
ATOM     19  S   UNL A   1      37.640  21.689  24.970  1.00  0.00    -0.151 S 
ATOM     20  C   UNL A   1      36.684  22.857  24.173  1.00  0.00     0.077 A 
ENDBRANCH  11  15
ENDBRANCH   9  10
ENDBRANCH   8   9
ENDBRANCH   5   8
ENDBRANCH   3   4
ENDBRANCH   2   3
ENDBRANCH   1   2
BRANCH   1  21
ATOM     21  C   UNL A   1      33.313  30.746  27.560  1.00  0.00     0.002 C 
BRANCH  21  22
ATOM     22  C   UNL A   1      34.806  30.553  27.295  1.00  0.00     0.021 C 
BRANCH  22  23
ATOM     23  C   UNL A   1      35.716  31.443  28.134  1.00  0.00     0.116 C 
BRANCH  23  24
ATOM     24  N   UNL A   1      35.535  31.219  29.559  1.00  0.00    -0.352 N 
ATOM     25  C   UNL A   1      36.362  30.576  30.445  1.00  0.00     0.251 C 
ATOM     26  H   UNL A   1      34.702  31.577  29.942  1.00  0.00     0.163 HD
ATOM     27  O   UNL A   1      35.955  30.300  31.573  1.00  0.00    -0.269 OA
BRANCH  25  28
ATOM     28  C   UNL A   1      37.735  30.204  30.039  1.00  0.00     0.039 A 
ATOM     29  C   UNL A   1      38.689  29.947  31.026  1.00  0.00     0.014 A 
ATOM     30  C   UNL A   1      38.083  30.119  28.687  1.00  0.00     0.014 A 
ATOM     31  C   UNL A   1      39.981  29.565  30.658  1.00  0.00     0.010 A 
ATOM     32  C   UNL A   1      39.344  29.658  28.323  1.00  0.00     0.010 A 
ATOM     33  C   UNL A   1      40.313  29.393  29.303  1.00  0.00    -0.014 A 
BRANCH  33  34
ATOM     34  C   UNL A   1      41.677  28.972  28.892  1.00  0.00     0.031 A 
ATOM     35  C   UNL A   1      42.798  29.978  28.862  1.00  0.00     0.074 A 
ATOM     36  C   UNL A   1      41.899  27.702  28.500  1.00  0.00     0.049 A 
ATOM     37  N   UNL A   1      44.041  29.822  28.484  1.00  0.00    -0.248 NA
ATOM     38  C   UNL A   1      42.471  31.350  29.286  1.00  0.00     0.031 C 
ATOM     39  C   UNL A   1      40.887  26.646  28.441  1.00  0.00     0.029 A 
ATOM     40  N   UNL A   1      43.047  27.085  28.068  1.00  0.00    -0.354 N 
ATOM     41  C   UNL A   1      44.636  31.072  28.609  1.00  0.00     0.074 A 
ATOM     42  C   UNL A   1      43.604  31.989  29.038  1.00  0.00     0.031 C 
ATOM     43  C   UNL A   1      41.463  25.506  28.024  1.00  0.00     0.029 A 
ATOM     44  C   UNL A   1      42.874  25.758  27.749  1.00  0.00     0.049 A 
ATOM     45  H   UNL A   1      43.912  27.548  27.996  1.00  0.00     0.167 HD
ATOM     46  C   UNL A   1      45.930  31.421  28.412  1.00  0.00     0.037 A 
ATOM     47  C   UNL A   1      43.753  24.849  27.283  1.00  0.00     0.037 A 
ATOM     48  C   UNL A   1      46.958  30.496  28.006  1.00  0.00     0.049 A 
ATOM     49  C   UNL A   1      45.187  25.257  27.073  1.00  0.00     0.074 A 
ATOM     50  C   UNL A   1      48.308  30.736  27.826  1.00  0.00     0.029 A 
ATOM     51  N   UNL A   1      46.748  29.155  27.715  1.00  0.00    -0.354 N 
ATOM     52  N   UNL A   1      45.746  26.431  27.252  1.00  0.00    -0.248 NA
ATOM     53  C   UNL A   1      46.113  24.215  26.610  1.00  0.00     0.031 C 
ATOM     54  C   UNL A   1      48.907  29.553  27.378  1.00  0.00     0.029 A 
ATOM     55  C   UNL A   1      47.942  28.560  27.340  1.00  0.00     0.049 A 
ATOM     56  H   UNL A   1      45.879  28.696  27.768  1.00  0.00     0.167 HD
ATOM     57  C   UNL A   1      47.096  26.258  26.960  1.00  0.00     0.074 A 
ATOM     58  C   UNL A   1      47.268  24.866  26.600  1.00  0.00     0.031 C 
ATOM     59  C   UNL A   1      48.100  27.169  26.994  1.00  0.00     0.037 A 
BRANCH  46  60
ATOM     60  C   UNL A   1      46.306  32.863  28.632  1.00  0.00     0.058 A 
ATOM     61  C   UNL A   1      46.191  33.821  27.611  1.00  0.00     0.135 A 
ATOM     62  C   UNL A   1      46.765  33.298  29.886  1.00  0.00     0.135 A 
ATOM     63  F   UNL A   1      45.773  33.461  26.387  1.00  0.00    -0.206 F 
ATOM     64  C   UNL A   1      46.554  35.149  27.814  1.00  0.00     0.059 A 
ATOM     65  C   UNL A   1      47.101  34.628  30.121  1.00  0.00     0.059 A 
ATOM     66  F   UNL A   1      46.893  32.427  30.899  1.00  0.00    -0.206 F 
ATOM     67  C   UNL A   1      47.009  35.543  29.073  1.00  0.00     0.060 A 
BRANCH  67  68
ATOM     68  S   UNL A   1      47.477  37.269  29.319  1.00  0.00     0.124 S 
ATOM     69  O   UNL A   1      48.622  37.389  28.421  1.00  0.00    -0.237 OA
ATOM     70  O   UNL A   1      46.271  37.980  28.908  1.00  0.00    -0.237 OA
ATOM     71  O   UNL A   1      47.788  37.337  30.742  1.00  0.00    -0.744 OA
ENDBRANCH  67  68
ENDBRANCH  46  60
BRANCH  47  72
ATOM     72  C   UNL A   1      43.307  23.455  27.014  1.00  0.00     0.058 A 
ATOM     73  C   UNL A   1      43.071  23.012  25.703  1.00  0.00     0.135 A 
ATOM     74  C   UNL A   1      43.121  22.534  28.056  1.00  0.00     0.135 A 
ATOM     75  F   UNL A   1      43.229  23.857  24.672  1.00  0.00    -0.206 F 
ATOM     76  C   UNL A   1      42.650  21.713  25.436  1.00  0.00     0.059 A 
ATOM     77  C   UNL A   1      42.729  21.222  27.813  1.00  0.00     0.059 A 
ATOM     78  F   UNL A   1      43.351  22.900  29.327  1.00  0.00    -0.206 F 
ATOM     79  C   UNL A   1      42.485  20.824  26.498  1.00  0.00     0.060 A 
BRANCH  79  80
ATOM     80  S   UNL A   1      41.989  19.126  26.136  1.00  0.00     0.124 S 
ATOM     81  O   UNL A   1      40.557  19.280  25.905  1.00  0.00    -0.237 OA
ATOM     82  O   UNL A   1      42.796  18.815  24.961  1.00  0.00    -0.237 OA
ATOM     83  O   UNL A   1      42.358  18.402  27.349  1.00  0.00    -0.744 OA
ENDBRANCH  79  80
ENDBRANCH  47  72
BRANCH  59  84
ATOM     84  C   UNL A   1      49.490  26.679  26.685  1.00  0.00     0.058 A 
ATOM     85  C   UNL A   1      49.995  26.639  25.377  1.00  0.00     0.135 A 
ATOM     86  C   UNL A   1      50.342  26.277  27.728  1.00  0.00     0.135 A 
ATOM     87  F   UNL A   1      49.222  27.009  24.343  1.00  0.00    -0.206 F 
ATOM     88  C   UNL A   1      51.283  26.184  25.108  1.00  0.00     0.059 A 
ATOM     89  C   UNL A   1      51.644  25.850  27.486  1.00  0.00     0.059 A 
ATOM     90  F   UNL A   1      49.916  26.307  29.001  1.00  0.00    -0.206 F 
ATOM     91  C   UNL A   1      52.100  25.792  26.170  1.00  0.00     0.060 A 
BRANCH  91  92
ATOM     92  S   UNL A   1      53.773  25.217  25.809  1.00  0.00     0.124 S 
ATOM     93  O   UNL A   1      54.436  25.420  27.093  1.00  0.00    -0.237 OA
ATOM     94  O   UNL A   1      53.548  23.826  25.425  1.00  0.00    -0.237 OA
ATOM     95  O   UNL A   1      54.209  26.097  24.730  1.00  0.00    -0.744 OA
ENDBRANCH  91  92
ENDBRANCH  59  84
ENDBRANCH  33  34
ENDBRANCH  25  28
ENDBRANCH  23  24
ENDBRANCH  22  23
ENDBRANCH  21  22
ENDBRANCH   1  21
TORSDOF 19
ENDMDL
MODEL 3
REMARK VINA RESULT:     -10.5      1.378      2.121
REMARK SMILES Cc1cscc1-c1noc(SCC(=O)NCCCCCCNC(=O)c2ccc(-c3c4nc(c(-c5c(F)cc(S(=O)(=O)[O-])cc5F)c5ccc([nH]5)c(-c5c(F)cc(S(=O)(=O)[O-])cc5F)c5nc(c(-c6c(F)cc(S(=O)(=O)[O-])cc6F)c6ccc3[nH]6)C=C5)C=C4)cc2)n1
REMARK SMILES IDX 18 1 17 2 16 3 15 4 13 5 14 6 12 8 11 9 10 10 7 11 8 12
REMARK SMILES IDX 91 13 9 14 6 15 1 16 2 17 3 18 4 19 5 20 19 21 20 22 21 23
REMARK SMILES IDX 22 24 23 25 24 27 25 28 26 29 90 30 27 31 89 32 28 33 29 34
REMARK SMILES IDX 30 35 83 36 31 37 88 38 82 39 84 40 32 41 87 42 81 43 80 44
REMARK SMILES IDX 33 46 67 47 46 48 66 49 47 50 50 51 65 52 85 53 48 54 49 55
REMARK SMILES IDX 64 57 86 58 51 59 34 60 35 61 44 62 36 63 37 64 43 65 45 66
REMARK SMILES IDX 38 67 39 68 40 69 41 70 42 71 68 72 69 73 78 74 70 75 71 76
REMARK SMILES IDX 77 77 79 78 72 79 73 80 74 81 75 82 76 83 52 84 53 85 62 86
REMARK SMILES IDX 54 87 55 88 61 89 63 90 56 91 57 92 58 93 59 94 60 95
REMARK H PARENT 15 7 22 26 84 45 50 56
REMARK Flexibility Score: inf
ROOT
ATOM      1  C   UNL A   1      42.072  21.868  27.952  1.00  0.00     0.002 C 
ENDROOT
BRANCH   1   2
ATOM      2  C   UNL A   1      40.837  21.066  27.514  1.00  0.00     0.021 C 
BRANCH   2   3
ATOM      3  C   UNL A   1      40.200  21.572  26.218  1.00  0.00     0.116 C 
BRANCH   3   4
ATOM      4  N   UNL A   1      39.667  22.909  26.402  1.00  0.00    -0.355 N 
ATOM      5  C   UNL A   1      38.412  23.396  26.189  1.00  0.00     0.230 C 
ATOM      6  O   UNL A   1      38.235  24.603  26.377  1.00  0.00    -0.274 OA
ATOM      7  H   UNL A   1      40.316  23.570  26.734  1.00  0.00     0.163 HD
BRANCH   5   8
ATOM      8  C   UNL A   1      37.253  22.471  25.876  1.00  0.00     0.179 C 
BRANCH   8   9
ATOM      9  S   UNL A   1      36.891  22.253  24.121  1.00  0.00    -0.055 SA
BRANCH   9  10
ATOM     10  C   UNL A   1      35.608  23.378  23.834  1.00  0.00     0.286 A 
ATOM     11  C   UNL A   1      34.040  24.742  24.015  1.00  0.00     0.204 A 
ATOM     12  N   UNL A   1      34.062  24.497  22.702  1.00  0.00    -0.056 NA
ATOM     13  N   UNL A   1      34.979  24.071  24.753  1.00  0.00    -0.181 NA
ATOM     14  O   UNL A   1      35.124  23.602  22.573  1.00  0.00    -0.327 OA
BRANCH  11  15
ATOM     15  C   UNL A   1      33.036  25.587  24.659  1.00  0.00     0.036 A 
ATOM     16  C   UNL A   1      31.120  23.819  24.629  1.00  0.00     0.046 C 
ATOM     17  C   UNL A   1      31.689  25.168  24.932  1.00  0.00    -0.029 A 
ATOM     18  C   UNL A   1      30.983  26.187  25.550  1.00  0.00     0.069 A 
ATOM     19  S   UNL A   1      31.916  27.598  25.795  1.00  0.00    -0.151 S 
ATOM     20  C   UNL A   1      33.291  26.872  25.092  1.00  0.00     0.077 A 
ENDBRANCH  11  15
ENDBRANCH   9  10
ENDBRANCH   8   9
ENDBRANCH   5   8
ENDBRANCH   3   4
ENDBRANCH   2   3
ENDBRANCH   1   2
BRANCH   1  21
ATOM     21  C   UNL A   1      43.144  22.046  26.871  1.00  0.00     0.002 C 
BRANCH  21  22
ATOM     22  C   UNL A   1      44.324  22.931  27.275  1.00  0.00     0.021 C 
BRANCH  22  23
ATOM     23  C   UNL A   1      44.096  24.423  27.059  1.00  0.00     0.116 C 
BRANCH  23  24
ATOM     24  N   UNL A   1      43.169  24.682  25.970  1.00  0.00    -0.352 N 
ATOM     25  C   UNL A   1      42.045  25.468  25.959  1.00  0.00     0.251 C 
ATOM     26  H   UNL A   1      43.375  24.228  25.121  1.00  0.00     0.163 HD
ATOM     27  O   UNL A   1      41.265  25.408  25.010  1.00  0.00    -0.269 OA
BRANCH  25  28
ATOM     28  C   UNL A   1      41.765  26.373  27.095  1.00  0.00     0.039 A 
ATOM     29  C   UNL A   1      40.899  25.948  28.105  1.00  0.00     0.014 A 
ATOM     30  C   UNL A   1      42.347  27.644  27.158  1.00  0.00     0.014 A 
ATOM     31  C   UNL A   1      40.650  26.780  29.199  1.00  0.00     0.010 A 
ATOM     32  C   UNL A   1      42.163  28.435  28.288  1.00  0.00     0.010 A 
ATOM     33  C   UNL A   1      41.299  28.021  29.312  1.00  0.00    -0.014 A 
BRANCH  33  34
ATOM     34  C   UNL A   1      41.058  28.913  30.475  1.00  0.00     0.031 A 
ATOM     35  C   UNL A   1      41.897  28.771  31.719  1.00  0.00     0.074 A 
ATOM     36  C   UNL A   1      40.058  29.815  30.435  1.00  0.00     0.049 A 
ATOM     37  N   UNL A   1      41.809  29.416  32.854  1.00  0.00    -0.248 NA
ATOM     38  C   UNL A   1      42.957  27.750  31.692  1.00  0.00     0.031 C 
ATOM     39  C   UNL A   1      39.146  30.017  29.307  1.00  0.00     0.029 A 
ATOM     40  N   UNL A   1      39.633  30.726  31.371  1.00  0.00    -0.354 N 
ATOM     41  C   UNL A   1      42.787  28.868  33.678  1.00  0.00     0.074 A 
ATOM     42  C   UNL A   1      43.414  27.799  32.933  1.00  0.00     0.031 C 
ATOM     43  C   UNL A   1      38.288  31.006  29.607  1.00  0.00     0.029 A 
ATOM     44  C   UNL A   1      38.561  31.483  30.958  1.00  0.00     0.049 A 
ATOM     45  H   UNL A   1      40.057  30.828  32.253  1.00  0.00     0.167 HD
ATOM     46  C   UNL A   1      43.150  29.240  34.929  1.00  0.00     0.037 A 
ATOM     47  C   UNL A   1      37.874  32.448  31.600  1.00  0.00     0.037 A 
ATOM     48  C   UNL A   1      42.535  30.322  35.655  1.00  0.00     0.049 A 
ATOM     49  C   UNL A   1      38.295  32.847  32.989  1.00  0.00     0.074 A 
ATOM     50  C   UNL A   1      42.860  30.812  36.907  1.00  0.00     0.029 A 
ATOM     51  N   UNL A   1      41.468  31.080  35.194  1.00  0.00    -0.354 N 
ATOM     52  N   UNL A   1      39.261  32.358  33.732  1.00  0.00    -0.248 NA
ATOM     53  C   UNL A   1      37.543  33.937  33.624  1.00  0.00     0.031 C 
ATOM     54  C   UNL A   1      41.958  31.833  37.225  1.00  0.00     0.029 A 
ATOM     55  C   UNL A   1      41.111  32.022  36.146  1.00  0.00     0.049 A 
ATOM     56  H   UNL A   1      41.030  30.966  34.320  1.00  0.00     0.167 HD
ATOM     57  C   UNL A   1      39.255  33.107  34.905  1.00  0.00     0.074 A 
ATOM     58  C   UNL A   1      38.195  34.084  34.768  1.00  0.00     0.031 C 
ATOM     59  C   UNL A   1      40.059  32.997  35.992  1.00  0.00     0.037 A 
BRANCH  46  60
ATOM     60  C   UNL A   1      44.262  28.470  35.591  1.00  0.00     0.058 A 
ATOM     61  C   UNL A   1      45.611  28.822  35.419  1.00  0.00     0.135 A 
ATOM     62  C   UNL A   1      43.975  27.378  36.428  1.00  0.00     0.135 A 
ATOM     63  F   UNL A   1      45.947  29.846  34.619  1.00  0.00    -0.206 F 
ATOM     64  C   UNL A   1      46.636  28.099  36.021  1.00  0.00     0.059 A 
ATOM     65  C   UNL A   1      44.982  26.661  37.066  1.00  0.00     0.059 A 
ATOM     66  F   UNL A   1      42.704  26.997  36.630  1.00  0.00    -0.206 F 
ATOM     67  C   UNL A   1      46.311  27.018  36.843  1.00  0.00     0.060 A 
BRANCH  67  68
ATOM     68  S   UNL A   1      47.652  26.089  37.614  1.00  0.00     0.124 S 
ATOM     69  O   UNL A   1      48.735  27.068  37.590  1.00  0.00    -0.237 OA
ATOM     70  O   UNL A   1      47.103  25.785  38.931  1.00  0.00    -0.237 OA
ATOM     71  O   UNL A   1      47.825  24.942  36.729  1.00  0.00    -0.744 OA
ENDBRANCH  67  68
ENDBRANCH  46  60
BRANCH  47  72
ATOM     72  C   UNL A   1      36.735  33.124  30.922  1.00  0.00     0.058 A 
ATOM     73  C   UNL A   1      35.409  32.856  31.294  1.00  0.00     0.135 A 
ATOM     74  C   UNL A   1      36.948  34.063  29.900  1.00  0.00     0.135 A 
ATOM     75  F   UNL A   1      35.153  31.962  32.261  1.00  0.00    -0.206 F 
ATOM     76  C   UNL A   1      34.334  33.478  30.666  1.00  0.00     0.059 A 
ATOM     77  C   UNL A   1      35.892  34.720  29.277  1.00  0.00     0.059 A 
ATOM     78  F   UNL A   1      38.198  34.370  29.518  1.00  0.00    -0.206 F 
ATOM     79  C   UNL A   1      34.587  34.412  29.660  1.00  0.00     0.060 A 
BRANCH  79  80
ATOM     80  S   UNL A   1      33.187  35.252  28.888  1.00  0.00     0.124 S 
ATOM     81  O   UNL A   1      32.429  35.693  30.054  1.00  0.00    -0.237 OA
ATOM     82  O   UNL A   1      33.848  36.303  28.121  1.00  0.00    -0.237 OA
ATOM     83  O   UNL A   1      32.563  34.201  28.090  1.00  0.00    -0.744 OA
ENDBRANCH  79  80
ENDBRANCH  47  72
BRANCH  59  84
ATOM     84  C   UNL A   1      39.863  33.996  37.102  1.00  0.00     0.058 A 
ATOM     85  C   UNL A   1      40.397  35.292  37.044  1.00  0.00     0.135 A 
ATOM     86  C   UNL A   1      39.092  33.655  38.227  1.00  0.00     0.135 A 
ATOM     87  F   UNL A   1      41.144  35.668  35.994  1.00  0.00    -0.206 F 
ATOM     88  C   UNL A   1      40.206  36.203  38.078  1.00  0.00     0.059 A 
ATOM     89  C   UNL A   1      38.861  34.561  39.256  1.00  0.00     0.059 A 
ATOM     90  F   UNL A   1      38.545  32.433  38.329  1.00  0.00    -0.206 F 
ATOM     91  C   UNL A   1      39.436  35.829  39.180  1.00  0.00     0.060 A 
BRANCH  91  92
ATOM     92  S   UNL A   1      39.184  37.025  40.509  1.00  0.00     0.124 S 
ATOM     93  O   UNL A   1      38.446  38.078  39.818  1.00  0.00    -0.237 OA
ATOM     94  O   UNL A   1      38.422  36.252  41.484  1.00  0.00    -0.237 OA
ATOM     95  O   UNL A   1      40.542  37.373  40.915  1.00  0.00    -0.744 OA
ENDBRANCH  91  92
ENDBRANCH  59  84
ENDBRANCH  33  34
ENDBRANCH  25  28
ENDBRANCH  23  24
ENDBRANCH  22  23
ENDBRANCH  21  22
ENDBRANCH   1  21
TORSDOF 19
ENDMDL
