MODEL 1
REMARK VINA RESULT:     -11.6      0.000      0.000
REMARK SMILES CS(=O)(=O)c1ccc(/C=C(/C(=O)NCCCCCCNC(=O)c2ccc(-c3c4nc(c(-c5c(F)cc(S(=O)(=O)[O-])cc5F)c5ccc([nH]5)c(-c5c(F)cc(S(=O)(=O)[O-])cc5F)c5nc(c(-c6c(F)cc(S(=O)(=O)[O-])cc6F)c6ccc3[nH]6)C=C5)C=C4)cc2)c2ccccc2)cc1
REMARK SMILES IDX 17 1 16 2 15 3 14 4 13 5 11 6 12 7 10 9 9 10 8 11 5 12 6 13
REMARK SMILES IDX 96 14 7 15 95 16 2 17 1 18 3 19 4 20 89 21 90 22 94 23 91 24
REMARK SMILES IDX 93 25 92 26 18 27 19 28 20 29 21 30 22 32 23 33 24 34 88 35
REMARK SMILES IDX 25 36 87 37 26 38 27 39 28 40 81 41 29 42 86 43 80 44 82 45
REMARK SMILES IDX 30 46 85 47 79 48 78 49 31 51 65 52 44 53 64 54 45 55 48 56
REMARK SMILES IDX 63 57 83 58 46 59 47 60 62 62 84 63 49 64 32 65 33 66 42 67
REMARK SMILES IDX 34 68 35 69 41 70 43 71 36 72 37 73 38 74 39 75 40 76 66 77
REMARK SMILES IDX 67 78 76 79 68 80 69 81 75 82 77 83 70 84 71 85 72 86 73 87
REMARK SMILES IDX 74 88 50 89 51 90 60 91 52 92 53 93 59 94 61 95 54 96 55 97
REMARK SMILES IDX 56 98 57 99 58 100
REMARK H PARENT 13 8 20 31 82 50 48 61
REMARK Flexibility Score: inf
ROOT
ATOM      1  C   UNL A   1      33.959  27.419  24.690  1.00  0.00     0.002 C 
ENDROOT
BRANCH   1   2
ATOM      2  C   UNL A   1      33.480  27.673  23.256  1.00  0.00     0.002 C 
BRANCH   2   3
ATOM      3  C   UNL A   1      33.647  26.490  22.289  1.00  0.00     0.021 C 
BRANCH   3   4
ATOM      4  C   UNL A   1      32.379  25.645  22.125  1.00  0.00     0.116 C 
BRANCH   4   5
ATOM      5  N   UNL A   1      31.642  25.615  23.374  1.00  0.00    -0.352 N 
ATOM      6  C   UNL A   1      31.453  24.680  24.341  1.00  0.00     0.251 C 
ATOM      7  O   UNL A   1      30.677  24.990  25.250  1.00  0.00    -0.269 OA
ATOM      8  H   UNL A   1      31.174  26.460  23.562  1.00  0.00     0.163 HD
BRANCH   6   9
ATOM      9  C   UNL A   1      32.197  23.366  24.391  1.00  0.00     0.047 C 
ATOM     10  C   UNL A   1      31.575  22.181  24.587  1.00  0.00     0.022 C 
BRANCH  10  11
ATOM     11  C   UNL A   1      32.159  20.822  24.555  1.00  0.00    -0.025 A 
ATOM     12  C   UNL A   1      33.348  18.291  24.323  1.00  0.00     0.067 A 
ATOM     13  C   UNL A   1      33.346  18.947  25.555  1.00  0.00     0.021 A 
ATOM     14  C   UNL A   1      32.712  18.857  23.219  1.00  0.00     0.021 A 
ATOM     15  C   UNL A   1      32.740  20.202  25.670  1.00  0.00     0.009 A 
ATOM     16  C   UNL A   1      32.123  20.120  23.339  1.00  0.00     0.009 A 
BRANCH  12  17
ATOM     17  S   UNL A   1      34.149  16.711  24.186  1.00  0.00     0.175 S 
ATOM     18  C   UNL A   1      33.077  15.615  25.078  1.00  0.00     0.163 C 
ATOM     19  O   UNL A   1      35.401  16.780  24.908  1.00  0.00    -0.224 OA
ATOM     20  O   UNL A   1      34.110  16.334  22.783  1.00  0.00    -0.224 OA
ENDBRANCH  12  17
ENDBRANCH  10  11
BRANCH   9  21
ATOM     21  C   UNL A   1      33.681  23.445  24.389  1.00  0.00    -0.013 A 
ATOM     22  C   UNL A   1      34.335  23.892  25.550  1.00  0.00     0.009 A 
ATOM     23  C   UNL A   1      34.450  23.022  23.298  1.00  0.00     0.009 A 
ATOM     24  C   UNL A   1      35.727  23.890  25.633  1.00  0.00     0.001 A 
ATOM     25  C   UNL A   1      35.845  23.017  23.384  1.00  0.00     0.001 A 
ATOM     26  C   UNL A   1      36.481  23.444  24.551  1.00  0.00     0.000 A 
ENDBRANCH   9  21
ENDBRANCH   6   9
ENDBRANCH   4   5
ENDBRANCH   3   4
ENDBRANCH   2   3
ENDBRANCH   1   2
BRANCH   1  27
ATOM     27  C   UNL A   1      32.993  27.869  25.790  1.00  0.00     0.021 C 
BRANCH  27  28
ATOM     28  C   UNL A   1      33.658  28.238  27.114  1.00  0.00     0.116 C 
BRANCH  28  29
ATOM     29  N   UNL A   1      33.507  29.650  27.424  1.00  0.00    -0.352 N 
ATOM     30  C   UNL A   1      34.383  30.497  28.059  1.00  0.00     0.251 C 
ATOM     31  H   UNL A   1      32.656  30.057  27.141  1.00  0.00     0.163 HD
ATOM     32  O   UNL A   1      34.008  31.609  28.419  1.00  0.00    -0.269 OA
BRANCH  30  33
ATOM     33  C   UNL A   1      35.771  30.061  28.322  1.00  0.00     0.039 A 
ATOM     34  C   UNL A   1      36.702  30.099  27.281  1.00  0.00     0.014 A 
ATOM     35  C   UNL A   1      36.151  29.603  29.588  1.00  0.00     0.014 A 
ATOM     36  C   UNL A   1      38.029  29.735  27.523  1.00  0.00     0.010 A 
ATOM     37  C   UNL A   1      37.485  29.293  29.841  1.00  0.00     0.010 A 
ATOM     38  C   UNL A   1      38.437  29.356  28.813  1.00  0.00    -0.014 A 
BRANCH  38  39
ATOM     39  C   UNL A   1      39.856  29.030  29.106  1.00  0.00     0.031 A 
ATOM     40  C   UNL A   1      40.766  30.073  29.695  1.00  0.00     0.074 A 
ATOM     41  C   UNL A   1      40.342  27.817  28.778  1.00  0.00     0.049 A 
ATOM     42  N   UNL A   1      42.048  30.005  29.943  1.00  0.00    -0.248 NA
ATOM     43  C   UNL A   1      40.157  31.372  30.025  1.00  0.00     0.031 C 
ATOM     44  C   UNL A   1      39.570  26.735  28.163  1.00  0.00     0.029 A 
ATOM     45  N   UNL A   1      41.604  27.294  28.902  1.00  0.00    -0.354 N 
ATOM     46  C   UNL A   1      42.404  31.251  30.443  1.00  0.00     0.074 A 
ATOM     47  C   UNL A   1      41.211  32.070  30.424  1.00  0.00     0.031 C 
ATOM     48  C   UNL A   1      40.371  25.674  27.976  1.00  0.00     0.029 A 
ATOM     49  C   UNL A   1      41.719  26.009  28.428  1.00  0.00     0.049 A 
ATOM     50  H   UNL A   1      42.357  27.792  29.294  1.00  0.00     0.167 HD
ATOM     51  C   UNL A   1      43.612  31.670  30.894  1.00  0.00     0.037 A 
ATOM     52  C   UNL A   1      42.790  25.195  28.356  1.00  0.00     0.037 A 
ATOM     53  C   UNL A   1      44.790  30.844  30.936  1.00  0.00     0.049 A 
ATOM     54  C   UNL A   1      44.117  25.679  28.867  1.00  0.00     0.074 A 
ATOM     55  C   UNL A   1      46.045  31.157  31.431  1.00  0.00     0.029 A 
ATOM     56  N   UNL A   1      44.861  29.541  30.465  1.00  0.00    -0.354 N 
ATOM     57  N   UNL A   1      44.425  26.844  29.387  1.00  0.00    -0.248 NA
ATOM     58  C   UNL A   1      45.244  24.739  28.787  1.00  0.00     0.031 C 
ATOM     59  C   UNL A   1      46.883  30.054  31.230  1.00  0.00     0.029 A 
ATOM     60  C   UNL A   1      46.141  29.042  30.643  1.00  0.00     0.049 A 
ATOM     61  H   UNL A   1      44.112  29.045  30.064  1.00  0.00     0.167 HD
ATOM     62  C   UNL A   1      45.774  26.771  29.712  1.00  0.00     0.074 A 
ATOM     63  C   UNL A   1      46.221  25.443  29.341  1.00  0.00     0.031 C 
ATOM     64  C   UNL A   1      46.570  27.718  30.267  1.00  0.00     0.037 A 
BRANCH  51  65
ATOM     65  C   UNL A   1      43.713  33.088  31.383  1.00  0.00     0.058 A 
ATOM     66  C   UNL A   1      43.517  33.413  32.734  1.00  0.00     0.135 A 
ATOM     67  C   UNL A   1      44.028  34.129  30.497  1.00  0.00     0.135 A 
ATOM     68  F   UNL A   1      43.198  32.457  33.621  1.00  0.00    -0.206 F 
ATOM     69  C   UNL A   1      43.595  34.727  33.185  1.00  0.00     0.059 A 
ATOM     70  C   UNL A   1      44.135  35.448  30.929  1.00  0.00     0.059 A 
ATOM     71  F   UNL A   1      44.227  33.873  29.194  1.00  0.00    -0.206 F 
ATOM     72  C   UNL A   1      43.899  35.739  32.273  1.00  0.00     0.060 A 
BRANCH  72  73
ATOM     73  S   UNL A   1      43.987  37.442  32.868  1.00  0.00     0.124 S 
ATOM     74  O   UNL A   1      42.886  37.471  33.825  1.00  0.00    -0.237 OA
ATOM     75  O   UNL A   1      45.327  37.506  33.442  1.00  0.00    -0.237 OA
ATOM     76  O   UNL A   1      43.790  38.234  31.658  1.00  0.00    -0.744 OA
ENDBRANCH  72  73
ENDBRANCH  51  65
BRANCH  52  77
ATOM     77  C   UNL A   1      42.641  23.827  27.795  1.00  0.00     0.058 A 
ATOM     78  C   UNL A   1      42.524  22.715  28.640  1.00  0.00     0.135 A 
ATOM     79  C   UNL A   1      42.588  23.609  26.410  1.00  0.00     0.135 A 
ATOM     80  F   UNL A   1      42.576  22.875  29.971  1.00  0.00    -0.206 F 
ATOM     81  C   UNL A   1      42.366  21.429  28.132  1.00  0.00     0.059 A 
ATOM     82  C   UNL A   1      42.411  22.335  25.880  1.00  0.00     0.059 A 
ATOM     83  F   UNL A   1      42.679  24.644  25.562  1.00  0.00    -0.206 F 
ATOM     84  C   UNL A   1      42.309  21.250  26.749  1.00  0.00     0.060 A 
BRANCH  84  85
ATOM     85  S   UNL A   1      42.038  19.586  26.099  1.00  0.00     0.124 S 
ATOM     86  O   UNL A   1      42.430  18.761  27.235  1.00  0.00    -0.237 OA
ATOM     87  O   UNL A   1      40.613  19.606  25.784  1.00  0.00    -0.237 OA
ATOM     88  O   UNL A   1      42.925  19.533  24.941  1.00  0.00    -0.744 OA
ENDBRANCH  84  85
ENDBRANCH  52  77
BRANCH  64  89
ATOM     89  C   UNL A   1      48.002  27.346  30.525  1.00  0.00     0.058 A 
ATOM     90  C   UNL A   1      48.385  26.665  31.690  1.00  0.00     0.135 A 
ATOM     91  C   UNL A   1      48.995  27.635  29.576  1.00  0.00     0.135 A 
ATOM     92  F   UNL A   1      47.474  26.374  32.632  1.00  0.00    -0.206 F 
ATOM     93  C   UNL A   1      49.707  26.298  31.915  1.00  0.00     0.059 A 
ATOM     94  C   UNL A   1      50.320  27.258  29.769  1.00  0.00     0.059 A 
ATOM     95  F   UNL A   1      48.679  28.278  28.440  1.00  0.00    -0.206 F 
ATOM     96  C   UNL A   1      50.668  26.599  30.948  1.00  0.00     0.060 A 
BRANCH  96  97
ATOM     97  S   UNL A   1      52.377  26.090  31.233  1.00  0.00     0.124 S 
ATOM     98  O   UNL A   1      52.192  24.809  31.908  1.00  0.00    -0.237 OA
ATOM     99  O   UNL A   1      52.914  26.020  29.878  1.00  0.00    -0.237 OA
ATOM    100  O   UNL A   1      52.918  27.164  32.060  1.00  0.00    -0.744 OA
ENDBRANCH  96  97
ENDBRANCH  64  89
ENDBRANCH  38  39
ENDBRANCH  30  33
ENDBRANCH  28  29
ENDBRANCH  27  28
ENDBRANCH   1  27
TORSDOF 19
ENDMDL
MODEL 2
REMARK VINA RESULT:     -11.4      3.462      9.613
REMARK SMILES CS(=O)(=O)c1ccc(/C=C(/C(=O)NCCCCCCNC(=O)c2ccc(-c3c4nc(c(-c5c(F)cc(S(=O)(=O)[O-])cc5F)c5ccc([nH]5)c(-c5c(F)cc(S(=O)(=O)[O-])cc5F)c5nc(c(-c6c(F)cc(S(=O)(=O)[O-])cc6F)c6ccc3[nH]6)C=C5)C=C4)cc2)c2ccccc2)cc1
REMARK SMILES IDX 17 1 16 2 15 3 14 4 13 5 11 6 12 7 10 9 9 10 8 11 5 12 6 13
REMARK SMILES IDX 96 14 7 15 95 16 2 17 1 18 3 19 4 20 89 21 90 22 94 23 91 24
REMARK SMILES IDX 93 25 92 26 18 27 19 28 20 29 21 30 22 32 23 33 24 34 88 35
REMARK SMILES IDX 25 36 87 37 26 38 27 39 28 40 81 41 29 42 86 43 80 44 82 45
REMARK SMILES IDX 30 46 85 47 79 48 78 49 31 51 65 52 44 53 64 54 45 55 48 56
REMARK SMILES IDX 63 57 83 58 46 59 47 60 62 62 84 63 49 64 32 65 33 66 42 67
REMARK SMILES IDX 34 68 35 69 41 70 43 71 36 72 37 73 38 74 39 75 40 76 66 77
REMARK SMILES IDX 67 78 76 79 68 80 69 81 75 82 77 83 70 84 71 85 72 86 73 87
REMARK SMILES IDX 74 88 50 89 51 90 60 91 52 92 53 93 59 94 61 95 54 96 55 97
REMARK SMILES IDX 56 98 57 99 58 100
REMARK H PARENT 13 8 20 31 82 50 48 61
REMARK Flexibility Score: inf
ROOT
ATOM      1  C   UNL A   1      35.284  21.930  24.497  1.00  0.00     0.002 C 
ENDROOT
BRANCH   1   2
ATOM      2  C   UNL A   1      34.078  21.110  24.972  1.00  0.00     0.002 C 
BRANCH   2   3
ATOM      3  C   UNL A   1      32.887  21.073  24.001  1.00  0.00     0.021 C 
BRANCH   3   4
ATOM      4  C   UNL A   1      31.956  22.285  24.122  1.00  0.00     0.116 C 
BRANCH   4   5
ATOM      5  N   UNL A   1      31.687  22.561  25.520  1.00  0.00    -0.352 N 
ATOM      6  C   UNL A   1      31.424  23.689  26.231  1.00  0.00     0.251 C 
ATOM      7  O   UNL A   1      31.320  23.548  27.452  1.00  0.00    -0.269 OA
ATOM      8  H   UNL A   1      31.697  21.750  26.080  1.00  0.00     0.163 HD
BRANCH   6   9
ATOM      9  C   UNL A   1      31.173  25.037  25.596  1.00  0.00     0.047 C 
ATOM     10  C   UNL A   1      30.435  25.190  24.473  1.00  0.00     0.022 C 
BRANCH  10  11
ATOM     11  C   UNL A   1      30.026  26.447  23.808  1.00  0.00    -0.025 A 
ATOM     12  C   UNL A   1      29.132  28.865  22.699  1.00  0.00     0.067 A 
ATOM     13  C   UNL A   1      30.484  28.527  22.630  1.00  0.00     0.021 A 
ATOM     14  C   UNL A   1      28.211  27.984  23.264  1.00  0.00     0.021 A 
ATOM     15  C   UNL A   1      30.923  27.314  23.170  1.00  0.00     0.009 A 
ATOM     16  C   UNL A   1      28.662  26.781  23.818  1.00  0.00     0.009 A 
BRANCH  12  17
ATOM     17  S   UNL A   1      28.594  30.422  22.036  1.00  0.00     0.175 S 
ATOM     18  C   UNL A   1      27.436  31.017  23.242  1.00  0.00     0.163 C 
ATOM     19  O   UNL A   1      27.859  30.160  20.818  1.00  0.00    -0.224 OA
ATOM     20  O   UNL A   1      29.745  31.309  22.044  1.00  0.00    -0.224 OA
ENDBRANCH  12  17
ENDBRANCH  10  11
BRANCH   9  21
ATOM     21  C   UNL A   1      31.923  26.186  26.166  1.00  0.00    -0.013 A 
ATOM     22  C   UNL A   1      33.285  26.327  25.847  1.00  0.00     0.009 A 
ATOM     23  C   UNL A   1      31.304  27.170  26.946  1.00  0.00     0.009 A 
ATOM     24  C   UNL A   1      34.008  27.440  26.275  1.00  0.00     0.001 A 
ATOM     25  C   UNL A   1      32.029  28.288  27.370  1.00  0.00     0.001 A 
ATOM     26  C   UNL A   1      33.376  28.425  27.029  1.00  0.00     0.000 A 
ENDBRANCH   9  21
ENDBRANCH   6   9
ENDBRANCH   4   5
ENDBRANCH   3   4
ENDBRANCH   2   3
ENDBRANCH   1   2
BRANCH   1  27
ATOM     27  C   UNL A   1      35.407  23.326  25.114  1.00  0.00     0.021 C 
BRANCH  27  28
ATOM     28  C   UNL A   1      36.825  23.890  25.143  1.00  0.00     0.116 C 
BRANCH  28  29
ATOM     29  N   UNL A   1      37.815  22.860  25.415  1.00  0.00    -0.352 N 
ATOM     30  C   UNL A   1      39.027  22.968  26.053  1.00  0.00     0.251 C 
ATOM     31  H   UNL A   1      37.584  21.957  25.097  1.00  0.00     0.163 HD
ATOM     32  O   UNL A   1      39.825  22.037  26.014  1.00  0.00    -0.269 OA
BRANCH  30  33
ATOM     33  C   UNL A   1      39.374  24.214  26.770  1.00  0.00     0.039 A 
ATOM     34  C   UNL A   1      38.922  24.391  28.080  1.00  0.00     0.014 A 
ATOM     35  C   UNL A   1      40.132  25.212  26.148  1.00  0.00     0.014 A 
ATOM     36  C   UNL A   1      39.280  25.540  28.789  1.00  0.00     0.010 A 
ATOM     37  C   UNL A   1      40.533  26.331  26.873  1.00  0.00     0.010 A 
ATOM     38  C   UNL A   1      40.112  26.507  28.200  1.00  0.00    -0.014 A 
BRANCH  38  39
ATOM     39  C   UNL A   1      40.559  27.703  28.958  1.00  0.00     0.031 A 
ATOM     40  C   UNL A   1      41.900  27.710  29.639  1.00  0.00     0.074 A 
ATOM     41  C   UNL A   1      39.728  28.755  29.092  1.00  0.00     0.049 A 
ATOM     42  N   UNL A   1      42.429  28.623  30.412  1.00  0.00    -0.248 NA
ATOM     43  C   UNL A   1      42.748  26.523  29.443  1.00  0.00     0.031 C 
ATOM     44  C   UNL A   1      38.385  28.849  28.515  1.00  0.00     0.029 A 
ATOM     45  N   UNL A   1      39.883  29.939  29.767  1.00  0.00    -0.354 N 
ATOM     46  C   UNL A   1      43.661  28.118  30.807  1.00  0.00     0.074 A 
ATOM     47  C   UNL A   1      43.784  26.800  30.222  1.00  0.00     0.031 C 
ATOM     48  C   UNL A   1      37.845  30.032  28.850  1.00  0.00     0.029 A 
ATOM     49  C   UNL A   1      38.788  30.767  29.690  1.00  0.00     0.049 A 
ATOM     50  H   UNL A   1      40.701  30.174  30.261  1.00  0.00     0.167 HD
ATOM     51  C   UNL A   1      44.612  28.706  31.573  1.00  0.00     0.037 A 
ATOM     52  C   UNL A   1      38.565  31.976  30.240  1.00  0.00     0.037 A 
ATOM     53  C   UNL A   1      44.497  30.028  32.131  1.00  0.00     0.049 A 
ATOM     54  C   UNL A   1      39.636  32.611  31.081  1.00  0.00     0.074 A 
ATOM     55  C   UNL A   1      45.430  30.735  32.870  1.00  0.00     0.029 A 
ATOM     56  N   UNL A   1      43.381  30.843  32.013  1.00  0.00    -0.354 N 
ATOM     57  N   UNL A   1      40.818  32.141  31.401  1.00  0.00    -0.248 NA
ATOM     58  C   UNL A   1      39.346  33.941  31.634  1.00  0.00     0.031 C 
ATOM     59  C   UNL A   1      44.866  31.966  33.226  1.00  0.00     0.029 A 
ATOM     60  C   UNL A   1      43.595  32.039  32.678  1.00  0.00     0.049 A 
ATOM     61  H   UNL A   1      42.558  30.606  31.528  1.00  0.00     0.167 HD
ATOM     62  C   UNL A   1      41.420  33.124  32.177  1.00  0.00     0.074 A 
ATOM     63  C   UNL A   1      40.477  34.220  32.268  1.00  0.00     0.031 C 
ATOM     64  C   UNL A   1      42.645  33.119  32.760  1.00  0.00     0.037 A 
BRANCH  51  65
ATOM     65  C   UNL A   1      45.863  27.919  31.846  1.00  0.00     0.058 A 
ATOM     66  C   UNL A   1      46.953  27.944  30.962  1.00  0.00     0.135 A 
ATOM     67  C   UNL A   1      45.983  27.148  33.013  1.00  0.00     0.135 A 
ATOM     68  F   UNL A   1      46.885  28.654  29.825  1.00  0.00    -0.206 F 
ATOM     69  C   UNL A   1      48.105  27.204  31.207  1.00  0.00     0.059 A 
ATOM     70  C   UNL A   1      47.135  26.418  33.290  1.00  0.00     0.059 A 
ATOM     71  F   UNL A   1      44.971  27.089  33.892  1.00  0.00    -0.206 F 
ATOM     72  C   UNL A   1      48.184  26.439  32.371  1.00  0.00     0.060 A 
BRANCH  72  73
ATOM     73  S   UNL A   1      49.681  25.474  32.672  1.00  0.00     0.124 S 
ATOM     74  O   UNL A   1      50.049  25.080  31.316  1.00  0.00    -0.237 OA
ATOM     75  O   UNL A   1      50.561  26.449  33.309  1.00  0.00    -0.237 OA
ATOM     76  O   UNL A   1      49.219  24.394  33.538  1.00  0.00    -0.744 OA
ENDBRANCH  72  73
ENDBRANCH  51  65
BRANCH  52  77
ATOM     77  C   UNL A   1      37.277  32.674  29.990  1.00  0.00     0.058 A 
ATOM     78  C   UNL A   1      36.151  32.406  30.782  1.00  0.00     0.135 A 
ATOM     79  C   UNL A   1      37.153  33.636  28.977  1.00  0.00     0.135 A 
ATOM     80  F   UNL A   1      36.221  31.490  31.758  1.00  0.00    -0.206 F 
ATOM     81  C   UNL A   1      34.942  33.063  30.573  1.00  0.00     0.059 A 
ATOM     82  C   UNL A   1      35.961  34.320  28.762  1.00  0.00     0.059 A 
ATOM     83  F   UNL A   1      38.208  33.938  28.203  1.00  0.00    -0.206 F 
ATOM     84  C   UNL A   1      34.859  34.021  29.561  1.00  0.00     0.060 A 
BRANCH  84  85
ATOM     85  S   UNL A   1      33.305  34.916  29.340  1.00  0.00     0.124 S 
ATOM     86  O   UNL A   1      32.755  34.887  30.689  1.00  0.00    -0.237 OA
ATOM     87  O   UNL A   1      33.765  36.218  28.865  1.00  0.00    -0.237 OA
ATOM     88  O   UNL A   1      32.597  34.113  28.348  1.00  0.00    -0.744 OA
ENDBRANCH  84  85
ENDBRANCH  52  77
BRANCH  64  89
ATOM     89  C   UNL A   1      43.041  34.345  33.534  1.00  0.00     0.058 A 
ATOM     90  C   UNL A   1      42.711  34.495  34.889  1.00  0.00     0.135 A 
ATOM     91  C   UNL A   1      43.798  35.357  32.925  1.00  0.00     0.135 A 
ATOM     92  F   UNL A   1      41.981  33.557  35.514  1.00  0.00    -0.206 F 
ATOM     93  C   UNL A   1      43.102  35.617  35.611  1.00  0.00     0.059 A 
ATOM     94  C   UNL A   1      44.219  36.479  33.634  1.00  0.00     0.059 A 
ATOM     95  F   UNL A   1      44.147  35.258  31.632  1.00  0.00    -0.206 F 
ATOM     96  C   UNL A   1      43.856  36.604  34.975  1.00  0.00     0.060 A 
BRANCH  96  97
ATOM     97  S   UNL A   1      44.388  38.042  35.928  1.00  0.00     0.124 S 
ATOM     98  O   UNL A   1      45.840  37.899  35.888  1.00  0.00    -0.237 OA
ATOM     99  O   UNL A   1      43.838  39.152  35.156  1.00  0.00    -0.237 OA
ATOM    100  O   UNL A   1      43.772  37.830  37.234  1.00  0.00    -0.744 OA
ENDBRANCH  96  97
ENDBRANCH  64  89
ENDBRANCH  38  39
ENDBRANCH  30  33
ENDBRANCH  28  29
ENDBRANCH  27  28
ENDBRANCH   1  27
TORSDOF 19
ENDMDL
MODEL 3
REMARK VINA RESULT:     -11.3      2.528      3.239
REMARK SMILES CS(=O)(=O)c1ccc(/C=C(/C(=O)NCCCCCCNC(=O)c2ccc(-c3c4nc(c(-c5c(F)cc(S(=O)(=O)[O-])cc5F)c5ccc([nH]5)c(-c5c(F)cc(S(=O)(=O)[O-])cc5F)c5nc(c(-c6c(F)cc(S(=O)(=O)[O-])cc6F)c6ccc3[nH]6)C=C5)C=C4)cc2)c2ccccc2)cc1
REMARK SMILES IDX 17 1 16 2 15 3 14 4 13 5 11 6 12 7 10 9 9 10 8 11 5 12 6 13
REMARK SMILES IDX 96 14 7 15 95 16 2 17 1 18 3 19 4 20 89 21 90 22 94 23 91 24
REMARK SMILES IDX 93 25 92 26 18 27 19 28 20 29 21 30 22 32 23 33 24 34 88 35
REMARK SMILES IDX 25 36 87 37 26 38 27 39 28 40 81 41 29 42 86 43 80 44 82 45
REMARK SMILES IDX 30 46 85 47 79 48 78 49 31 51 65 52 44 53 64 54 45 55 48 56
REMARK SMILES IDX 63 57 83 58 46 59 47 60 62 62 84 63 49 64 32 65 33 66 42 67
REMARK SMILES IDX 34 68 35 69 41 70 43 71 36 72 37 73 38 74 39 75 40 76 66 77
REMARK SMILES IDX 67 78 76 79 68 80 69 81 75 82 77 83 70 84 71 85 72 86 73 87
REMARK SMILES IDX 74 88 50 89 51 90 60 91 52 92 53 93 59 94 61 95 54 96 55 97
REMARK SMILES IDX 56 98 57 99 58 100
REMARK H PARENT 13 8 20 31 82 50 48 61
REMARK Flexibility Score: inf
ROOT
ATOM      1  C   UNL A   1      32.197  26.883  26.496  1.00  0.00     0.002 C 
ENDROOT
BRANCH   1   2
ATOM      2  C   UNL A   1      31.280  25.739  26.047  1.00  0.00     0.002 C 
BRANCH   2   3
ATOM      3  C   UNL A   1      30.288  26.095  24.926  1.00  0.00     0.021 C 
BRANCH   3   4
ATOM      4  C   UNL A   1      30.339  25.135  23.732  1.00  0.00     0.116 C 
BRANCH   4   5
ATOM      5  N   UNL A   1      31.429  25.506  22.849  1.00  0.00    -0.352 N 
ATOM      6  C   UNL A   1      32.647  24.973  22.570  1.00  0.00     0.251 C 
ATOM      7  O   UNL A   1      33.359  25.622  21.799  1.00  0.00    -0.269 OA
ATOM      8  H   UNL A   1      31.245  26.328  22.338  1.00  0.00     0.163 HD
BRANCH   6   9
ATOM      9  C   UNL A   1      33.106  23.625  23.076  1.00  0.00     0.047 C 
ATOM     10  C   UNL A   1      32.275  22.562  23.178  1.00  0.00     0.022 C 
BRANCH  10  11
ATOM     11  C   UNL A   1      32.608  21.171  23.555  1.00  0.00    -0.025 A 
ATOM     12  C   UNL A   1      33.298  18.503  24.084  1.00  0.00     0.067 A 
ATOM     13  C   UNL A   1      33.608  19.498  25.012  1.00  0.00     0.021 A 
ATOM     14  C   UNL A   1      32.595  18.814  22.921  1.00  0.00     0.021 A 
ATOM     15  C   UNL A   1      33.249  20.824  24.752  1.00  0.00     0.009 A 
ATOM     16  C   UNL A   1      32.256  20.147  22.660  1.00  0.00     0.009 A 
BRANCH  12  17
ATOM     17  S   UNL A   1      33.788  16.828  24.415  1.00  0.00     0.175 S 
ATOM     18  C   UNL A   1      32.620  16.280  25.634  1.00  0.00     0.163 C 
ATOM     19  O   UNL A   1      35.091  16.857  25.043  1.00  0.00    -0.224 OA
ATOM     20  O   UNL A   1      33.557  16.068  23.199  1.00  0.00    -0.224 OA
ENDBRANCH  12  17
ENDBRANCH  10  11
BRANCH   9  21
ATOM     21  C   UNL A   1      34.483  23.559  23.627  1.00  0.00    -0.013 A 
ATOM     22  C   UNL A   1      34.726  24.092  24.905  1.00  0.00     0.009 A 
ATOM     23  C   UNL A   1      35.530  22.920  22.950  1.00  0.00     0.009 A 
ATOM     24  C   UNL A   1      35.977  23.966  25.507  1.00  0.00     0.001 A 
ATOM     25  C   UNL A   1      36.782  22.790  23.557  1.00  0.00     0.001 A 
ATOM     26  C   UNL A   1      37.003  23.307  24.835  1.00  0.00     0.000 A 
ENDBRANCH   9  21
ENDBRANCH   6   9
ENDBRANCH   4   5
ENDBRANCH   3   4
ENDBRANCH   2   3
ENDBRANCH   1   2
BRANCH   1  27
ATOM     27  C   UNL A   1      33.275  27.289  25.486  1.00  0.00     0.021 C 
BRANCH  27  28
ATOM     28  C   UNL A   1      34.385  28.168  26.055  1.00  0.00     0.116 C 
BRANCH  28  29
ATOM     29  N   UNL A   1      33.920  29.516  26.342  1.00  0.00    -0.352 N 
ATOM     30  C   UNL A   1      34.386  30.415  27.271  1.00  0.00     0.251 C 
ATOM     31  H   UNL A   1      33.164  29.828  25.794  1.00  0.00     0.163 HD
ATOM     32  O   UNL A   1      33.743  31.431  27.515  1.00  0.00    -0.269 OA
BRANCH  30  33
ATOM     33  C   UNL A   1      35.652  30.147  27.986  1.00  0.00     0.039 A 
ATOM     34  C   UNL A   1      35.601  29.649  29.291  1.00  0.00     0.014 A 
ATOM     35  C   UNL A   1      36.886  30.399  27.379  1.00  0.00     0.014 A 
ATOM     36  C   UNL A   1      36.787  29.346  29.965  1.00  0.00     0.010 A 
ATOM     37  C   UNL A   1      38.065  30.046  28.031  1.00  0.00     0.010 A 
ATOM     38  C   UNL A   1      38.028  29.516  29.329  1.00  0.00    -0.014 A 
BRANCH  38  39
ATOM     39  C   UNL A   1      39.296  29.138  30.003  1.00  0.00     0.031 A 
ATOM     40  C   UNL A   1      39.770  29.902  31.208  1.00  0.00     0.074 A 
ATOM     41  C   UNL A   1      40.055  28.151  29.488  1.00  0.00     0.049 A 
ATOM     42  N   UNL A   1      40.885  29.776  31.880  1.00  0.00    -0.248 NA
ATOM     43  C   UNL A   1      38.883  30.965  31.709  1.00  0.00     0.031 C 
ATOM     44  C   UNL A   1      39.724  27.364  28.298  1.00  0.00     0.029 A 
ATOM     45  N   UNL A   1      41.267  27.649  29.890  1.00  0.00    -0.354 N 
ATOM     46  C   UNL A   1      40.843  30.748  32.871  1.00  0.00     0.074 A 
ATOM     47  C   UNL A   1      39.610  31.485  32.687  1.00  0.00     0.031 C 
ATOM     48  C   UNL A   1      40.702  26.471  28.075  1.00  0.00     0.029 A 
ATOM     49  C   UNL A   1      41.743  26.642  29.084  1.00  0.00     0.049 A 
ATOM     50  H   UNL A   1      41.751  27.980  30.681  1.00  0.00     0.167 HD
ATOM     51  C   UNL A   1      41.740  30.995  33.856  1.00  0.00     0.037 A 
ATOM     52  C   UNL A   1      42.892  25.942  29.147  1.00  0.00     0.037 A 
ATOM     53  C   UNL A   1      42.952  30.242  34.053  1.00  0.00     0.049 A 
ATOM     54  C   UNL A   1      43.870  26.228  30.251  1.00  0.00     0.074 A 
ATOM     55  C   UNL A   1      43.896  30.375  35.056  1.00  0.00     0.029 A 
ATOM     56  N   UNL A   1      43.389  29.216  33.227  1.00  0.00    -0.354 N 
ATOM     57  N   UNL A   1      43.789  27.117  31.212  1.00  0.00    -0.248 NA
ATOM     58  C   UNL A   1      45.094  25.416  30.283  1.00  0.00     0.031 C 
ATOM     59  C   UNL A   1      44.920  29.450  34.821  1.00  0.00     0.029 A 
ATOM     60  C   UNL A   1      44.596  28.718  33.690  1.00  0.00     0.049 A 
ATOM     61  H   UNL A   1      42.912  28.891  32.431  1.00  0.00     0.167 HD
ATOM     62  C   UNL A   1      44.941  26.959  31.974  1.00  0.00     0.074 A 
ATOM     63  C   UNL A   1      45.697  25.881  31.368  1.00  0.00     0.031 C 
ATOM     64  C   UNL A   1      45.336  27.645  33.075  1.00  0.00     0.037 A 
BRANCH  51  65
ATOM     65  C   UNL A   1      41.438  32.125  34.800  1.00  0.00     0.058 A 
ATOM     66  C   UNL A   1      41.973  33.407  34.605  1.00  0.00     0.135 A 
ATOM     67  C   UNL A   1      40.588  31.929  35.900  1.00  0.00     0.135 A 
ATOM     68  F   UNL A   1      42.804  33.645  33.577  1.00  0.00    -0.206 F 
ATOM     69  C   UNL A   1      41.706  34.449  35.488  1.00  0.00     0.059 A 
ATOM     70  C   UNL A   1      40.286  32.963  36.782  1.00  0.00     0.059 A 
ATOM     71  F   UNL A   1      40.048  30.722  36.132  1.00  0.00    -0.206 F 
ATOM     72  C   UNL A   1      40.865  34.215  36.577  1.00  0.00     0.060 A 
BRANCH  72  73
ATOM     73  S   UNL A   1      40.534  35.573  37.721  1.00  0.00     0.124 S 
ATOM     74  O   UNL A   1      39.663  34.923  38.696  1.00  0.00    -0.237 OA
ATOM     75  O   UNL A   1      41.870  35.918  38.196  1.00  0.00    -0.237 OA
ATOM     76  O   UNL A   1      39.894  36.578  36.878  1.00  0.00    -0.744 OA
ENDBRANCH  72  73
ENDBRANCH  51  65
BRANCH  52  77
ATOM     77  C   UNL A   1      43.167  24.884  28.140  1.00  0.00     0.058 A 
ATOM     78  C   UNL A   1      43.770  25.199  26.915  1.00  0.00     0.135 A 
ATOM     79  C   UNL A   1      42.856  23.539  28.392  1.00  0.00     0.135 A 
ATOM     80  F   UNL A   1      44.079  26.472  26.627  1.00  0.00    -0.206 F 
ATOM     81  C   UNL A   1      44.050  24.218  25.968  1.00  0.00     0.059 A 
ATOM     82  C   UNL A   1      43.144  22.538  27.470  1.00  0.00     0.059 A 
ATOM     83  F   UNL A   1      42.292  23.186  29.558  1.00  0.00    -0.206 F 
ATOM     84  C   UNL A   1      43.735  22.890  26.257  1.00  0.00     0.060 A 
BRANCH  84  85
ATOM     85  S   UNL A   1      44.161  21.614  25.051  1.00  0.00     0.124 S 
ATOM     86  O   UNL A   1      45.518  21.268  25.458  1.00  0.00    -0.237 OA
ATOM     87  O   UNL A   1      43.142  20.600  25.300  1.00  0.00    -0.237 OA
ATOM     88  O   UNL A   1      44.041  22.310  23.773  1.00  0.00    -0.744 OA
ENDBRANCH  84  85
ENDBRANCH  52  77
BRANCH  64  89
ATOM     89  C   UNL A   1      46.636  27.238  33.708  1.00  0.00     0.058 A 
ATOM     90  C   UNL A   1      46.695  26.225  34.677  1.00  0.00     0.135 A 
ATOM     91  C   UNL A   1      47.841  27.836  33.307  1.00  0.00     0.135 A 
ATOM     92  F   UNL A   1      45.569  25.628  35.099  1.00  0.00    -0.206 F 
ATOM     93  C   UNL A   1      47.902  25.831  35.242  1.00  0.00     0.059 A 
ATOM     94  C   UNL A   1      49.064  27.442  33.843  1.00  0.00     0.059 A 
ATOM     95  F   UNL A   1      47.840  28.804  32.377  1.00  0.00    -0.206 F 
ATOM     96  C   UNL A   1      49.082  26.445  34.819  1.00  0.00     0.060 A 
BRANCH  96  97
ATOM     97  S   UNL A   1      50.649  25.905  35.534  1.00  0.00     0.124 S 
ATOM     98  O   UNL A   1      50.638  24.479  35.220  1.00  0.00    -0.237 OA
ATOM     99  O   UNL A   1      51.623  26.708  34.801  1.00  0.00    -0.237 OA
ATOM    100  O   UNL A   1      50.510  26.238  36.948  1.00  0.00    -0.744 OA
ENDBRANCH  96  97
ENDBRANCH  64  89
ENDBRANCH  38  39
ENDBRANCH  30  33
ENDBRANCH  28  29
ENDBRANCH  27  28
ENDBRANCH   1  27
TORSDOF 19
ENDMDL
