MODEL 1
REMARK VINA RESULT:     -10.8      0.000      0.000
REMARK SMILES O=C(CC1(CC(=O)NNc2ccc([N+](=O)[O-])cc2)CCCC1)NCCCCCCNC(=O)c1ccc(-c2c3nc(c(-c4c(F)cc(S(=O)(=O)[O-])cc4F)c4ccc([nH]4)c(-c4c(F)cc(S(=O)(=O)[O-])cc4F)c4nc(c(-c5c(F)cc(S(=O)(=O)[O-])cc5F)c5ccc2[nH]5)C=C4)C=C3)cc1
REMARK SMILES IDX 25 1 24 2 23 3 1 4 2 5 3 7 4 8 19 9 22 10 20 11 21 12 5 13
REMARK SMILES IDX 6 14 7 15 8 16 9 18 10 20 11 21 18 22 12 23 17 24 13 25
REMARK SMILES IDX 14 26 15 27 16 28 26 29 27 30 28 31 29 32 30 33 31 34 32 36
REMARK SMILES IDX 33 37 34 38 98 39 35 40 97 41 36 42 37 43 38 44 91 45 39 46
REMARK SMILES IDX 96 47 90 48 92 49 40 50 95 51 89 52 88 53 41 55 75 56 54 57
REMARK SMILES IDX 74 58 55 59 58 60 73 61 93 62 56 63 57 64 72 66 94 67 59 68
REMARK SMILES IDX 42 69 43 70 52 71 44 72 45 73 51 74 53 75 46 76 47 77 48 78
REMARK SMILES IDX 49 79 50 80 76 81 77 82 86 83 78 84 79 85 85 86 87 87 80 88
REMARK SMILES IDX 81 89 82 90 83 91 84 92 60 93 61 94 70 95 62 96 63 97 69 98
REMARK SMILES IDX 71 99 64 100 65 101 66 102 67 103 68 104
REMARK H PARENT 23 6 8 17 9 19 30 35 92 54 58 65
REMARK Flexibility Score: inf
ROOT
ATOM      1  C   UNL A   1      34.388  30.679  27.396  1.00  0.00     0.021 C 
ENDROOT
BRANCH   1   2
ATOM      2  C   UNL A   1      32.889  30.683  27.104  1.00  0.00     0.116 C 
BRANCH   2   3
ATOM      3  N   UNL A   1      32.342  29.347  27.171  1.00  0.00    -0.356 N 
ATOM      4  O   UNL A   1      31.514  29.314  25.040  1.00  0.00    -0.275 OA
ATOM      5  C   UNL A   1      31.740  28.740  26.103  1.00  0.00     0.220 C 
ATOM      6  H   UNL A   1      32.404  28.854  28.021  1.00  0.00     0.163 HD
BRANCH   5   7
ATOM      7  C   UNL A   1      31.247  27.324  26.343  1.00  0.00     0.107 C 
BRANCH   7   8
ATOM      8  C   UNL A   1      31.948  26.125  25.657  1.00  0.00    -0.012 C 
ATOM      9  C   UNL A   1      33.473  26.333  25.468  1.00  0.00     0.008 C 
ATOM     10  C   UNL A   1      32.004  24.969  26.682  1.00  0.00     0.008 C 
ATOM     11  C   UNL A   1      34.077  24.926  25.436  1.00  0.00     0.001 C 
ATOM     12  C   UNL A   1      33.100  24.032  26.193  1.00  0.00     0.001 C 
BRANCH   8  13
ATOM     13  C   UNL A   1      31.318  25.714  24.295  1.00  0.00     0.109 C 
BRANCH  13  14
ATOM     14  C   UNL A   1      31.794  26.471  23.064  1.00  0.00     0.238 C 
ATOM     15  O   UNL A   1      32.860  26.195  22.516  1.00  0.00    -0.273 OA
ATOM     16  N   UNL A   1      30.996  27.450  22.534  1.00  0.00    -0.270 N 
ATOM     17  H   UNL A   1      31.332  27.970  21.768  1.00  0.00     0.191 HD
BRANCH  16  18
ATOM     18  N   UNL A   1      29.739  27.738  23.032  1.00  0.00    -0.299 N 
ATOM     19  H   UNL A   1      29.249  27.104  23.605  1.00  0.00     0.188 HD
BRANCH  18  20
ATOM     20  C   UNL A   1      29.200  28.983  22.675  1.00  0.00     0.055 A 
ATOM     21  C   UNL A   1      29.828  29.726  21.667  1.00  0.00     0.034 A 
ATOM     22  C   UNL A   1      28.184  29.581  23.429  1.00  0.00     0.034 A 
ATOM     23  C   UNL A   1      29.436  31.037  21.389  1.00  0.00     0.088 A 
ATOM     24  C   UNL A   1      27.789  30.897  23.171  1.00  0.00     0.088 A 
ATOM     25  C   UNL A   1      28.424  31.622  22.155  1.00  0.00     0.269 A 
BRANCH  25  26
ATOM     26  N   UNL A   1      28.056  33.023  21.920  1.00  0.00     0.062 N 
ATOM     27  O   UNL A   1      27.546  33.310  20.827  1.00  0.00    -0.258 OA
ATOM     28  O   UNL A   1      28.289  33.840  22.822  1.00  0.00    -0.258 OA
ENDBRANCH  25  26
ENDBRANCH  18  20
ENDBRANCH  16  18
ENDBRANCH  13  14
ENDBRANCH   8  13
ENDBRANCH   7   8
ENDBRANCH   5   7
ENDBRANCH   2   3
ENDBRANCH   1   2
BRANCH   1  29
ATOM     29  C   UNL A   1      34.796  31.528  28.610  1.00  0.00     0.002 C 
BRANCH  29  30
ATOM     30  C   UNL A   1      34.897  33.034  28.351  1.00  0.00     0.002 C 
BRANCH  30  31
ATOM     31  C   UNL A   1      33.591  33.810  28.524  1.00  0.00     0.021 C 
BRANCH  31  32
ATOM     32  C   UNL A   1      33.764  35.276  28.906  1.00  0.00     0.116 C 
BRANCH  32  33
ATOM     33  N   UNL A   1      32.868  35.678  29.980  1.00  0.00    -0.352 N 
ATOM     34  C   UNL A   1      32.930  35.369  31.316  1.00  0.00     0.251 C 
ATOM     35  H   UNL A   1      32.114  36.250  29.711  1.00  0.00     0.163 HD
ATOM     36  O   UNL A   1      31.986  35.649  32.053  1.00  0.00    -0.269 OA
BRANCH  34  37
ATOM     37  C   UNL A   1      34.120  34.679  31.859  1.00  0.00     0.039 A 
ATOM     38  C   UNL A   1      33.977  33.394  32.387  1.00  0.00     0.014 A 
ATOM     39  C   UNL A   1      35.374  35.296  31.846  1.00  0.00     0.014 A 
ATOM     40  C   UNL A   1      35.102  32.706  32.849  1.00  0.00     0.010 A 
ATOM     41  C   UNL A   1      36.504  34.581  32.235  1.00  0.00     0.010 A 
ATOM     42  C   UNL A   1      36.380  33.281  32.748  1.00  0.00    -0.014 A 
BRANCH  42  43
ATOM     43  C   UNL A   1      37.596  32.548  33.192  1.00  0.00     0.031 A 
ATOM     44  C   UNL A   1      38.278  32.934  34.478  1.00  0.00     0.074 A 
ATOM     45  C   UNL A   1      38.113  31.572  32.418  1.00  0.00     0.049 A 
ATOM     46  N   UNL A   1      39.391  32.477  34.993  1.00  0.00    -0.248 NA
ATOM     47  C   UNL A   1      37.639  33.992  35.280  1.00  0.00     0.031 C 
ATOM     48  C   UNL A   1      37.570  31.134  31.131  1.00  0.00     0.029 A 
ATOM     49  N   UNL A   1      39.221  30.780  32.593  1.00  0.00    -0.354 N 
ATOM     50  C   UNL A   1      39.585  33.188  36.171  1.00  0.00     0.074 A 
ATOM     51  C   UNL A   1      38.512  34.153  36.265  1.00  0.00     0.031 C 
ATOM     52  C   UNL A   1      38.334  30.145  30.641  1.00  0.00     0.029 A 
ATOM     53  C   UNL A   1      39.447  29.905  31.555  1.00  0.00     0.049 A 
ATOM     54  H   UNL A   1      39.801  30.833  33.387  1.00  0.00     0.167 HD
ATOM     55  C   UNL A   1      40.551  33.032  37.107  1.00  0.00     0.037 A 
ATOM     56  C   UNL A   1      40.445  29.021  31.355  1.00  0.00     0.037 A 
ATOM     57  C   UNL A   1      41.606  32.056  37.020  1.00  0.00     0.049 A 
ATOM     58  C   UNL A   1      41.520  28.883  32.402  1.00  0.00     0.074 A 
ATOM     59  C   UNL A   1      42.617  31.801  37.931  1.00  0.00     0.029 A 
ATOM     60  N   UNL A   1      41.783  31.170  35.968  1.00  0.00    -0.354 N 
ATOM     61  N   UNL A   1      41.660  29.533  33.533  1.00  0.00    -0.248 NA
ATOM     62  C   UNL A   1      42.569  27.884  32.154  1.00  0.00     0.031 C 
ATOM     63  C   UNL A   1      43.430  30.790  37.410  1.00  0.00     0.029 A 
ATOM     64  C   UNL A   1      42.892  30.375  36.203  1.00  0.00     0.049 A 
ATOM     65  H   UNL A   1      41.206  31.116  35.172  1.00  0.00     0.167 HD
ATOM     66  C   UNL A   1      42.786  28.994  34.147  1.00  0.00     0.074 A 
ATOM     67  C   UNL A   1      43.283  27.957  33.268  1.00  0.00     0.031 C 
ATOM     68  C   UNL A   1      43.359  29.327  35.330  1.00  0.00     0.037 A 
BRANCH  55  69
ATOM     69  C   UNL A   1      40.503  33.916  38.323  1.00  0.00     0.058 A 
ATOM     70  C   UNL A   1      39.732  33.573  39.447  1.00  0.00     0.135 A 
ATOM     71  C   UNL A   1      41.288  35.078  38.399  1.00  0.00     0.135 A 
ATOM     72  F   UNL A   1      38.949  32.485  39.422  1.00  0.00    -0.206 F 
ATOM     73  C   UNL A   1      39.732  34.356  40.596  1.00  0.00     0.059 A 
ATOM     74  C   UNL A   1      41.326  35.861  39.550  1.00  0.00     0.059 A 
ATOM     75  F   UNL A   1      42.040  35.455  37.353  1.00  0.00    -0.206 F 
ATOM     76  C   UNL A   1      40.539  35.494  40.641  1.00  0.00     0.060 A 
BRANCH  76  77
ATOM     77  S   UNL A   1      40.557  36.474  42.158  1.00  0.00     0.124 S 
ATOM     78  O   UNL A   1      39.155  36.419  42.557  1.00  0.00    -0.237 OA
ATOM     79  O   UNL A   1      41.485  35.724  42.999  1.00  0.00    -0.237 OA
ATOM     80  O   UNL A   1      41.032  37.780  41.715  1.00  0.00    -0.744 OA
ENDBRANCH  76  77
ENDBRANCH  55  69
BRANCH  56  81
ATOM     81  C   UNL A   1      40.486  28.195  30.116  1.00  0.00     0.058 A 
ATOM     82  C   UNL A   1      39.627  27.100  29.943  1.00  0.00     0.135 A 
ATOM     83  C   UNL A   1      41.412  28.461  29.096  1.00  0.00     0.135 A 
ATOM     84  F   UNL A   1      38.723  26.800  30.890  1.00  0.00    -0.206 F 
ATOM     85  C   UNL A   1      39.711  26.273  28.826  1.00  0.00     0.059 A 
ATOM     86  C   UNL A   1      41.494  27.670  27.954  1.00  0.00     0.059 A 
ATOM     87  F   UNL A   1      42.245  29.509  29.199  1.00  0.00    -0.206 F 
ATOM     88  C   UNL A   1      40.653  26.564  27.840  1.00  0.00     0.060 A 
BRANCH  88  89
ATOM     89  S   UNL A   1      40.757  25.487  26.394  1.00  0.00     0.124 S 
ATOM     90  O   UNL A   1      41.768  24.525  26.818  1.00  0.00    -0.237 OA
ATOM     91  O   UNL A   1      39.393  24.977  26.293  1.00  0.00    -0.237 OA
ATOM     92  O   UNL A   1      41.159  26.396  25.326  1.00  0.00    -0.744 OA
ENDBRANCH  88  89
ENDBRANCH  56  81
BRANCH  68  93
ATOM     93  C   UNL A   1      44.549  28.523  35.779  1.00  0.00     0.058 A 
ATOM     94  C   UNL A   1      45.862  28.893  35.453  1.00  0.00     0.135 A 
ATOM     95  C   UNL A   1      44.370  27.394  36.597  1.00  0.00     0.135 A 
ATOM     96  F   UNL A   1      46.091  29.960  34.671  1.00  0.00    -0.206 F 
ATOM     97  C   UNL A   1      46.956  28.155  35.897  1.00  0.00     0.059 A 
ATOM     98  C   UNL A   1      45.450  26.662  37.079  1.00  0.00     0.059 A 
ATOM     99  F   UNL A   1      43.135  27.003  36.950  1.00  0.00    -0.206 F 
ATOM    100  C   UNL A   1      46.739  27.043  36.713  1.00  0.00     0.060 A 
BRANCH 100 101
ATOM    101  S   UNL A   1      48.168  26.116  37.309  1.00  0.00     0.124 S 
ATOM    102  O   UNL A   1      48.488  25.290  36.150  1.00  0.00    -0.237 OA
ATOM    103  O   UNL A   1      49.123  27.178  37.615  1.00  0.00    -0.237 OA
ATOM    104  O   UNL A   1      47.648  25.396  38.468  1.00  0.00    -0.744 OA
ENDBRANCH 100 101
ENDBRANCH  68  93
ENDBRANCH  42  43
ENDBRANCH  34  37
ENDBRANCH  32  33
ENDBRANCH  31  32
ENDBRANCH  30  31
ENDBRANCH  29  30
ENDBRANCH   1  29
TORSDOF 22
ENDMDL
MODEL 2
REMARK VINA RESULT:     -10.8      2.803      9.099
REMARK SMILES O=C(CC1(CC(=O)NNc2ccc([N+](=O)[O-])cc2)CCCC1)NCCCCCCNC(=O)c1ccc(-c2c3nc(c(-c4c(F)cc(S(=O)(=O)[O-])cc4F)c4ccc([nH]4)c(-c4c(F)cc(S(=O)(=O)[O-])cc4F)c4nc(c(-c5c(F)cc(S(=O)(=O)[O-])cc5F)c5ccc2[nH]5)C=C4)C=C3)cc1
REMARK SMILES IDX 25 1 24 2 23 3 1 4 2 5 3 7 4 8 19 9 22 10 20 11 21 12 5 13
REMARK SMILES IDX 6 14 7 15 8 16 9 18 10 20 11 21 18 22 12 23 17 24 13 25
REMARK SMILES IDX 14 26 15 27 16 28 26 29 27 30 28 31 29 32 30 33 31 34 32 36
REMARK SMILES IDX 33 37 34 38 98 39 35 40 97 41 36 42 37 43 38 44 91 45 39 46
REMARK SMILES IDX 96 47 90 48 92 49 40 50 95 51 89 52 88 53 41 55 75 56 54 57
REMARK SMILES IDX 74 58 55 59 58 60 73 61 93 62 56 63 57 64 72 66 94 67 59 68
REMARK SMILES IDX 42 69 43 70 52 71 44 72 45 73 51 74 53 75 46 76 47 77 48 78
REMARK SMILES IDX 49 79 50 80 76 81 77 82 86 83 78 84 79 85 85 86 87 87 80 88
REMARK SMILES IDX 81 89 82 90 83 91 84 92 60 93 61 94 70 95 62 96 63 97 69 98
REMARK SMILES IDX 71 99 64 100 65 101 66 102 67 103 68 104
REMARK H PARENT 23 6 8 17 9 19 30 35 92 54 58 65
REMARK Flexibility Score: inf
ROOT
ATOM      1  C   UNL A   1      39.273  22.786  26.630  1.00  0.00     0.021 C 
ENDROOT
BRANCH   1   2
ATOM      2  C   UNL A   1      38.206  22.138  25.751  1.00  0.00     0.116 C 
BRANCH   2   3
ATOM      3  N   UNL A   1      36.904  22.716  26.002  1.00  0.00    -0.356 N 
ATOM      4  O   UNL A   1      36.680  23.714  23.958  1.00  0.00    -0.275 OA
ATOM      5  C   UNL A   1      36.212  23.418  25.054  1.00  0.00     0.220 C 
ATOM      6  H   UNL A   1      36.500  22.599  26.893  1.00  0.00     0.163 HD
BRANCH   5   7
ATOM      7  C   UNL A   1      34.847  23.930  25.481  1.00  0.00     0.107 C 
BRANCH   7   8
ATOM      8  C   UNL A   1      33.559  23.290  24.907  1.00  0.00    -0.012 C 
ATOM      9  C   UNL A   1      33.827  22.009  24.076  1.00  0.00     0.008 C 
ATOM     10  C   UNL A   1      32.796  22.640  26.085  1.00  0.00     0.008 C 
ATOM     11  C   UNL A   1      32.541  21.183  24.170  1.00  0.00     0.001 C 
ATOM     12  C   UNL A   1      31.852  21.623  25.457  1.00  0.00     0.001 C 
BRANCH   8  13
ATOM     13  C   UNL A   1      32.684  24.266  24.068  1.00  0.00     0.109 C 
BRANCH  13  14
ATOM     14  C   UNL A   1      33.422  25.306  23.238  1.00  0.00     0.238 C 
ATOM     15  O   UNL A   1      34.060  24.989  22.235  1.00  0.00    -0.273 OA
ATOM     16  N   UNL A   1      33.338  26.626  23.595  1.00  0.00    -0.270 N 
ATOM     17  H   UNL A   1      33.858  27.287  23.084  1.00  0.00     0.191 HD
BRANCH  16  18
ATOM     18  N   UNL A   1      32.552  27.065  24.644  1.00  0.00    -0.299 N 
ATOM     19  H   UNL A   1      32.826  26.949  25.583  1.00  0.00     0.188 HD
BRANCH  18  20
ATOM     20  C   UNL A   1      31.343  27.684  24.297  1.00  0.00     0.055 A 
ATOM     21  C   UNL A   1      30.269  26.884  23.884  1.00  0.00     0.034 A 
ATOM     22  C   UNL A   1      31.247  29.073  24.161  1.00  0.00     0.034 A 
ATOM     23  C   UNL A   1      29.103  27.454  23.369  1.00  0.00     0.088 A 
ATOM     24  C   UNL A   1      30.092  29.659  23.636  1.00  0.00     0.088 A 
ATOM     25  C   UNL A   1      29.026  28.843  23.234  1.00  0.00     0.269 A 
BRANCH  25  26
ATOM     26  N   UNL A   1      27.834  29.446  22.626  1.00  0.00     0.062 N 
ATOM     27  O   UNL A   1      26.749  29.287  23.203  1.00  0.00    -0.258 OA
ATOM     28  O   UNL A   1      27.981  30.069  21.565  1.00  0.00    -0.258 OA
ENDBRANCH  25  26
ENDBRANCH  18  20
ENDBRANCH  16  18
ENDBRANCH  13  14
ENDBRANCH   8  13
ENDBRANCH   7   8
ENDBRANCH   5   7
ENDBRANCH   2   3
ENDBRANCH   1   2
BRANCH   1  29
ATOM     29  C   UNL A   1      40.495  21.894  26.897  1.00  0.00     0.002 C 
BRANCH  29  30
ATOM     30  C   UNL A   1      41.370  22.319  28.080  1.00  0.00     0.002 C 
BRANCH  30  31
ATOM     31  C   UNL A   1      42.871  22.372  27.791  1.00  0.00     0.021 C 
BRANCH  31  32
ATOM     32  C   UNL A   1      43.422  23.769  27.527  1.00  0.00     0.116 C 
BRANCH  32  33
ATOM     33  N   UNL A   1      42.920  24.337  26.285  1.00  0.00    -0.352 N 
ATOM     34  C   UNL A   1      42.125  25.441  26.100  1.00  0.00     0.251 C 
ATOM     35  H   UNL A   1      43.188  23.865  25.464  1.00  0.00     0.163 HD
ATOM     36  O   UNL A   1      41.650  25.674  24.991  1.00  0.00    -0.269 OA
BRANCH  34  37
ATOM     37  C   UNL A   1      41.823  26.332  27.242  1.00  0.00     0.039 A 
ATOM     38  C   UNL A   1      40.809  25.973  28.132  1.00  0.00     0.014 A 
ATOM     39  C   UNL A   1      42.540  27.516  27.437  1.00  0.00     0.014 A 
ATOM     40  C   UNL A   1      40.551  26.774  29.248  1.00  0.00     0.010 A 
ATOM     41  C   UNL A   1      42.336  28.270  28.589  1.00  0.00     0.010 A 
ATOM     42  C   UNL A   1      41.334  27.913  29.503  1.00  0.00    -0.014 A 
BRANCH  42  43
ATOM     43  C   UNL A   1      41.107  28.753  30.710  1.00  0.00     0.031 A 
ATOM     44  C   UNL A   1      40.025  29.801  30.703  1.00  0.00     0.074 A 
ATOM     45  C   UNL A   1      41.903  28.609  31.789  1.00  0.00     0.049 A 
ATOM     46  N   UNL A   1      39.726  30.687  31.618  1.00  0.00    -0.248 NA
ATOM     47  C   UNL A   1      39.182  29.880  29.497  1.00  0.00     0.031 C 
ATOM     48  C   UNL A   1      43.011  27.659  31.904  1.00  0.00     0.029 A 
ATOM     49  N   UNL A   1      41.910  29.271  32.993  1.00  0.00    -0.354 N 
ATOM     50  C   UNL A   1      38.669  31.426  31.101  1.00  0.00     0.074 A 
ATOM     51  C   UNL A   1      38.418  30.930  29.766  1.00  0.00     0.031 C 
ATOM     52  C   UNL A   1      43.581  27.788  33.113  1.00  0.00     0.029 A 
ATOM     53  C   UNL A   1      42.908  28.857  33.846  1.00  0.00     0.049 A 
ATOM     54  H   UNL A   1      41.263  29.975  33.224  1.00  0.00     0.167 HD
ATOM     55  C   UNL A   1      37.950  32.408  31.694  1.00  0.00     0.037 A 
ATOM     56  C   UNL A   1      43.253  29.300  35.072  1.00  0.00     0.037 A 
ATOM     57  C   UNL A   1      38.189  32.885  33.032  1.00  0.00     0.049 A 
ATOM     58  C   UNL A   1      42.450  30.409  35.701  1.00  0.00     0.074 A 
ATOM     59  C   UNL A   1      37.498  33.858  33.734  1.00  0.00     0.029 A 
ATOM     60  N   UNL A   1      39.190  32.422  33.873  1.00  0.00    -0.354 N 
ATOM     61  N   UNL A   1      41.422  31.064  35.213  1.00  0.00    -0.248 NA
ATOM     62  C   UNL A   1      42.844  30.836  37.051  1.00  0.00     0.031 C 
ATOM     63  C   UNL A   1      38.106  34.012  34.982  1.00  0.00     0.029 A 
ATOM     64  C   UNL A   1      39.140  33.096  35.081  1.00  0.00     0.049 A 
ATOM     65  H   UNL A   1      39.840  31.718  33.643  1.00  0.00     0.167 HD
ATOM     66  C   UNL A   1      41.025  31.948  36.211  1.00  0.00     0.074 A 
ATOM     67  C   UNL A   1      41.914  31.737  37.334  1.00  0.00     0.031 C 
ATOM     68  C   UNL A   1      40.016  32.854  36.201  1.00  0.00     0.037 A 
BRANCH  55  69
ATOM     69  C   UNL A   1      36.816  33.019  30.917  1.00  0.00     0.058 A 
ATOM     70  C   UNL A   1      35.478  32.705  31.206  1.00  0.00     0.135 A 
ATOM     71  C   UNL A   1      37.062  33.982  29.925  1.00  0.00     0.135 A 
ATOM     72  F   UNL A   1      35.186  31.778  32.132  1.00  0.00    -0.206 F 
ATOM     73  C   UNL A   1      34.425  33.313  30.531  1.00  0.00     0.059 A 
ATOM     74  C   UNL A   1      36.023  34.624  29.256  1.00  0.00     0.059 A 
ATOM     75  F   UNL A   1      38.322  34.317  29.605  1.00  0.00    -0.206 F 
ATOM     76  C   UNL A   1      34.708  34.278  29.563  1.00  0.00     0.060 A 
BRANCH  76  77
ATOM     77  S   UNL A   1      33.326  35.086  28.728  1.00  0.00     0.124 S 
ATOM     78  O   UNL A   1      32.499  35.492  29.860  1.00  0.00    -0.237 OA
ATOM     79  O   UNL A   1      33.990  36.168  28.008  1.00  0.00    -0.237 OA
ATOM     80  O   UNL A   1      32.768  34.029  27.892  1.00  0.00    -0.744 OA
ENDBRANCH  76  77
ENDBRANCH  55  69
BRANCH  56  81
ATOM     81  C   UNL A   1      44.411  28.703  35.794  1.00  0.00     0.058 A 
ATOM     82  C   UNL A   1      45.701  29.240  35.672  1.00  0.00     0.135 A 
ATOM     83  C   UNL A   1      44.257  27.559  36.593  1.00  0.00     0.135 A 
ATOM     84  F   UNL A   1      45.903  30.333  34.918  1.00  0.00    -0.206 F 
ATOM     85  C   UNL A   1      46.802  28.644  36.277  1.00  0.00     0.059 A 
ATOM     86  C   UNL A   1      45.337  26.963  37.236  1.00  0.00     0.059 A 
ATOM     87  F   UNL A   1      43.042  27.014  36.762  1.00  0.00    -0.206 F 
ATOM     88  C   UNL A   1      46.610  27.500  37.053  1.00  0.00     0.060 A 
BRANCH  88  89
ATOM     89  S   UNL A   1      48.045  26.731  37.835  1.00  0.00     0.124 S 
ATOM     90  O   UNL A   1      48.879  27.893  38.121  1.00  0.00    -0.237 OA
ATOM     91  O   UNL A   1      47.447  26.073  38.993  1.00  0.00    -0.237 OA
ATOM     92  O   UNL A   1      48.549  25.831  36.803  1.00  0.00    -0.744 OA
ENDBRANCH  88  89
ENDBRANCH  56  81
BRANCH  68  93
ATOM     93  C   UNL A   1      39.773  33.642  37.459  1.00  0.00     0.058 A 
ATOM     94  C   UNL A   1      40.387  34.883  37.690  1.00  0.00     0.135 A 
ATOM     95  C   UNL A   1      38.867  33.170  38.424  1.00  0.00     0.135 A 
ATOM     96  F   UNL A   1      41.265  35.379  36.804  1.00  0.00    -0.206 F 
ATOM     97  C   UNL A   1      40.134  35.615  38.847  1.00  0.00     0.059 A 
ATOM     98  C   UNL A   1      38.574  33.900  39.571  1.00  0.00     0.059 A 
ATOM     99  F   UNL A   1      38.242  31.995  38.247  1.00  0.00    -0.206 F 
ATOM    100  C   UNL A   1      39.223  35.116  39.780  1.00  0.00     0.060 A 
BRANCH 100 101
ATOM    101  S   UNL A   1      38.878  36.091  41.259  1.00  0.00     0.124 S 
ATOM    102  O   UNL A   1      38.748  37.434  40.701  1.00  0.00    -0.237 OA
ATOM    103  O   UNL A   1      37.644  35.486  41.751  1.00  0.00    -0.237 OA
ATOM    104  O   UNL A   1      40.055  35.871  42.095  1.00  0.00    -0.744 OA
ENDBRANCH 100 101
ENDBRANCH  68  93
ENDBRANCH  42  43
ENDBRANCH  34  37
ENDBRANCH  32  33
ENDBRANCH  31  32
ENDBRANCH  30  31
ENDBRANCH  29  30
ENDBRANCH   1  29
TORSDOF 22
ENDMDL
MODEL 3
REMARK VINA RESULT:     -10.6      3.810      9.808
REMARK SMILES O=C(CC1(CC(=O)NNc2ccc([N+](=O)[O-])cc2)CCCC1)NCCCCCCNC(=O)c1ccc(-c2c3nc(c(-c4c(F)cc(S(=O)(=O)[O-])cc4F)c4ccc([nH]4)c(-c4c(F)cc(S(=O)(=O)[O-])cc4F)c4nc(c(-c5c(F)cc(S(=O)(=O)[O-])cc5F)c5ccc2[nH]5)C=C4)C=C3)cc1
REMARK SMILES IDX 25 1 24 2 23 3 1 4 2 5 3 7 4 8 19 9 22 10 20 11 21 12 5 13
REMARK SMILES IDX 6 14 7 15 8 16 9 18 10 20 11 21 18 22 12 23 17 24 13 25
REMARK SMILES IDX 14 26 15 27 16 28 26 29 27 30 28 31 29 32 30 33 31 34 32 36
REMARK SMILES IDX 33 37 34 38 98 39 35 40 97 41 36 42 37 43 38 44 91 45 39 46
REMARK SMILES IDX 96 47 90 48 92 49 40 50 95 51 89 52 88 53 41 55 75 56 54 57
REMARK SMILES IDX 74 58 55 59 58 60 73 61 93 62 56 63 57 64 72 66 94 67 59 68
REMARK SMILES IDX 42 69 43 70 52 71 44 72 45 73 51 74 53 75 46 76 47 77 48 78
REMARK SMILES IDX 49 79 50 80 76 81 77 82 86 83 78 84 79 85 85 86 87 87 80 88
REMARK SMILES IDX 81 89 82 90 83 91 84 92 60 93 61 94 70 95 62 96 63 97 69 98
REMARK SMILES IDX 71 99 64 100 65 101 66 102 67 103 68 104
REMARK H PARENT 23 6 8 17 9 19 30 35 92 54 58 65
REMARK Flexibility Score: inf
ROOT
ATOM      1  C   UNL A   1      36.527  21.812  25.112  1.00  0.00     0.021 C 
ENDROOT
BRANCH   1   2
ATOM      2  C   UNL A   1      35.567  21.540  26.268  1.00  0.00     0.116 C 
BRANCH   2   3
ATOM      3  N   UNL A   1      34.219  21.943  25.931  1.00  0.00    -0.356 N 
ATOM      4  O   UNL A   1      33.536  22.332  28.077  1.00  0.00    -0.275 OA
ATOM      5  C   UNL A   1      33.319  22.366  26.869  1.00  0.00     0.220 C 
ATOM      6  H   UNL A   1      33.939  21.910  24.987  1.00  0.00     0.163 HD
BRANCH   5   7
ATOM      7  C   UNL A   1      31.957  22.777  26.334  1.00  0.00     0.107 C 
BRANCH   7   8
ATOM      8  C   UNL A   1      31.821  24.012  25.410  1.00  0.00    -0.012 C 
ATOM      9  C   UNL A   1      30.618  24.920  25.773  1.00  0.00     0.008 C 
ATOM     10  C   UNL A   1      32.961  24.993  25.772  1.00  0.00     0.008 C 
ATOM     11  C   UNL A   1      30.998  26.320  25.281  1.00  0.00     0.001 C 
ATOM     12  C   UNL A   1      32.523  26.352  25.243  1.00  0.00     0.001 C 
BRANCH   8  13
ATOM     13  C   UNL A   1      31.760  23.668  23.894  1.00  0.00     0.109 C 
BRANCH  13  14
ATOM     14  C   UNL A   1      33.011  23.058  23.279  1.00  0.00     0.238 C 
ATOM     15  O   UNL A   1      34.033  23.723  23.116  1.00  0.00    -0.273 OA
ATOM     16  N   UNL A   1      33.008  21.731  22.940  1.00  0.00    -0.270 N 
ATOM     17  H   UNL A   1      33.802  21.354  22.497  1.00  0.00     0.191 HD
BRANCH  16  18
ATOM     18  N   UNL A   1      31.933  20.900  23.195  1.00  0.00    -0.299 N 
ATOM     19  H   UNL A   1      31.002  21.212  23.114  1.00  0.00     0.188 HD
BRANCH  18  20
ATOM     20  C   UNL A   1      32.242  19.586  23.577  1.00  0.00     0.055 A 
ATOM     21  C   UNL A   1      32.466  19.312  24.933  1.00  0.00     0.034 A 
ATOM     22  C   UNL A   1      32.526  18.598  22.628  1.00  0.00     0.034 A 
ATOM     23  C   UNL A   1      32.938  18.065  25.348  1.00  0.00     0.088 A 
ATOM     24  C   UNL A   1      33.012  17.349  23.026  1.00  0.00     0.088 A 
ATOM     25  C   UNL A   1      33.223  17.091  24.386  1.00  0.00     0.269 A 
BRANCH  25  26
ATOM     26  N   UNL A   1      33.790  15.804  24.806  1.00  0.00     0.062 N 
ATOM     27  O   UNL A   1      35.024  15.683  24.784  1.00  0.00    -0.258 OA
ATOM     28  O   UNL A   1      33.002  14.910  25.145  1.00  0.00    -0.258 OA
ENDBRANCH  25  26
ENDBRANCH  18  20
ENDBRANCH  16  18
ENDBRANCH  13  14
ENDBRANCH   8  13
ENDBRANCH   7   8
ENDBRANCH   5   7
ENDBRANCH   2   3
ENDBRANCH   1   2
BRANCH   1  29
ATOM     29  C   UNL A   1      37.980  21.398  25.390  1.00  0.00     0.002 C 
BRANCH  29  30
ATOM     30  C   UNL A   1      38.826  22.437  26.132  1.00  0.00     0.002 C 
BRANCH  30  31
ATOM     31  C   UNL A   1      40.010  21.868  26.917  1.00  0.00     0.021 C 
BRANCH  31  32
ATOM     32  C   UNL A   1      41.057  22.896  27.328  1.00  0.00     0.116 C 
BRANCH  32  33
ATOM     33  N   UNL A   1      41.564  23.655  26.195  1.00  0.00    -0.352 N 
ATOM     34  C   UNL A   1      41.736  25.012  26.072  1.00  0.00     0.251 C 
ATOM     35  H   UNL A   1      41.817  23.122  25.407  1.00  0.00     0.163 HD
ATOM     36  O   UNL A   1      42.009  25.497  24.976  1.00  0.00    -0.269 OA
BRANCH  34  37
ATOM     37  C   UNL A   1      41.568  25.886  27.254  1.00  0.00     0.039 A 
ATOM     38  C   UNL A   1      42.668  26.603  27.728  1.00  0.00     0.014 A 
ATOM     39  C   UNL A   1      40.329  25.999  27.891  1.00  0.00     0.014 A 
ATOM     40  C   UNL A   1      42.511  27.478  28.806  1.00  0.00     0.010 A 
ATOM     41  C   UNL A   1      40.157  26.928  28.913  1.00  0.00     0.010 A 
ATOM     42  C   UNL A   1      41.247  27.672  29.388  1.00  0.00    -0.014 A 
BRANCH  42  43
ATOM     43  C   UNL A   1      41.049  28.633  30.507  1.00  0.00     0.031 A 
ATOM     44  C   UNL A   1      41.901  28.530  31.745  1.00  0.00     0.074 A 
ATOM     45  C   UNL A   1      40.075  29.562  30.431  1.00  0.00     0.049 A 
ATOM     46  N   UNL A   1      41.828  29.213  32.858  1.00  0.00    -0.248 NA
ATOM     47  C   UNL A   1      42.960  27.505  31.743  1.00  0.00     0.031 C 
ATOM     48  C   UNL A   1      39.157  29.738  29.304  1.00  0.00     0.029 A 
ATOM     49  N   UNL A   1      39.685  30.528  31.326  1.00  0.00    -0.354 N 
ATOM     50  C   UNL A   1      42.822  28.704  33.684  1.00  0.00     0.074 A 
ATOM     51  C   UNL A   1      43.445  27.610  32.972  1.00  0.00     0.031 C 
ATOM     52  C   UNL A   1      38.322  30.755  29.567  1.00  0.00     0.029 A 
ATOM     53  C   UNL A   1      38.615  31.280  30.898  1.00  0.00     0.049 A 
ATOM     54  H   UNL A   1      40.129  30.670  32.193  1.00  0.00     0.167 HD
ATOM     55  C   UNL A   1      43.206  29.128  34.911  1.00  0.00     0.037 A 
ATOM     56  C   UNL A   1      37.935  32.269  31.514  1.00  0.00     0.037 A 
ATOM     57  C   UNL A   1      42.597  30.230  35.609  1.00  0.00     0.049 A 
ATOM     58  C   UNL A   1      38.369  32.707  32.889  1.00  0.00     0.074 A 
ATOM     59  C   UNL A   1      42.932  30.755  36.846  1.00  0.00     0.029 A 
ATOM     60  N   UNL A   1      41.536  30.984  35.130  1.00  0.00    -0.354 N 
ATOM     61  N   UNL A   1      39.344  32.242  33.635  1.00  0.00    -0.248 NA
ATOM     62  C   UNL A   1      37.618  33.809  33.506  1.00  0.00     0.031 C 
ATOM     63  C   UNL A   1      42.046  31.797  37.133  1.00  0.00     0.029 A 
ATOM     64  C   UNL A   1      41.197  31.961  36.051  1.00  0.00     0.049 A 
ATOM     65  H   UNL A   1      41.089  30.844  34.264  1.00  0.00     0.167 HD
ATOM     66  C   UNL A   1      39.347  33.022  34.787  1.00  0.00     0.074 A 
ATOM     67  C   UNL A   1      38.286  33.994  34.635  1.00  0.00     0.031 C 
ATOM     68  C   UNL A   1      40.155  32.941  35.873  1.00  0.00     0.037 A 
BRANCH  55  69
ATOM     69  C   UNL A   1      44.354  28.418  35.575  1.00  0.00     0.058 A 
ATOM     70  C   UNL A   1      45.682  28.832  35.379  1.00  0.00     0.135 A 
ATOM     71  C   UNL A   1      44.124  27.361  36.472  1.00  0.00     0.135 A 
ATOM     72  F   UNL A   1      45.961  29.824  34.519  1.00  0.00    -0.206 F 
ATOM     73  C   UNL A   1      46.741  28.217  36.038  1.00  0.00     0.059 A 
ATOM     74  C   UNL A   1      45.167  26.750  37.164  1.00  0.00     0.059 A 
ATOM     75  F   UNL A   1      42.876  26.922  36.694  1.00  0.00    -0.206 F 
ATOM     76  C   UNL A   1      46.473  27.183  36.935  1.00  0.00     0.060 A 
BRANCH  76  77
ATOM     77  S   UNL A   1      47.858  26.426  37.812  1.00  0.00     0.124 S 
ATOM     78  O   UNL A   1      47.169  25.693  38.868  1.00  0.00    -0.237 OA
ATOM     79  O   UNL A   1      48.473  25.609  36.770  1.00  0.00    -0.237 OA
ATOM     80  O   UNL A   1      48.647  27.570  38.255  1.00  0.00    -0.744 OA
ENDBRANCH  76  77
ENDBRANCH  55  69
BRANCH  56  81
ATOM     81  C   UNL A   1      36.774  32.919  30.845  1.00  0.00     0.058 A 
ATOM     82  C   UNL A   1      36.956  33.879  29.839  1.00  0.00     0.135 A 
ATOM     83  C   UNL A   1      35.456  32.618  31.225  1.00  0.00     0.135 A 
ATOM     84  F   UNL A   1      38.196  34.204  29.439  1.00  0.00    -0.206 F 
ATOM     85  C   UNL A   1      35.881  34.549  29.264  1.00  0.00     0.059 A 
ATOM     86  C   UNL A   1      34.362  33.251  30.643  1.00  0.00     0.059 A 
ATOM     87  F   UNL A   1      35.222  31.692  32.169  1.00  0.00    -0.206 F 
ATOM     88  C   UNL A   1      34.587  34.232  29.679  1.00  0.00     0.060 A 
BRANCH  88  89
ATOM     89  S   UNL A   1      33.196  35.107  28.929  1.00  0.00     0.124 S 
ATOM     90  O   UNL A   1      32.353  35.365  30.091  1.00  0.00    -0.237 OA
ATOM     91  O   UNL A   1      33.848  36.273  28.341  1.00  0.00    -0.237 OA
ATOM     92  O   UNL A   1      32.670  34.142  27.969  1.00  0.00    -0.744 OA
ENDBRANCH  88  89
ENDBRANCH  56  81
BRANCH  68  93
ATOM     93  C   UNL A   1      39.970  33.967  36.958  1.00  0.00     0.058 A 
ATOM     94  C   UNL A   1      40.628  35.206  36.930  1.00  0.00     0.135 A 
ATOM     95  C   UNL A   1      39.076  33.724  38.015  1.00  0.00     0.135 A 
ATOM     96  F   UNL A   1      41.497  35.489  35.946  1.00  0.00    -0.206 F 
ATOM     97  C   UNL A   1      40.428  36.157  37.926  1.00  0.00     0.059 A 
ATOM     98  C   UNL A   1      38.837  34.673  39.003  1.00  0.00     0.059 A 
ATOM     99  F   UNL A   1      38.411  32.560  38.084  1.00  0.00    -0.206 F 
ATOM    100  C   UNL A   1      39.528  35.882  38.958  1.00  0.00     0.060 A 
BRANCH 100 101
ATOM    101  S   UNL A   1      39.254  37.138  40.224  1.00  0.00     0.124 S 
ATOM    102  O   UNL A   1      38.503  36.387  41.225  1.00  0.00    -0.237 OA
ATOM    103  O   UNL A   1      40.616  37.507  40.598  1.00  0.00    -0.237 OA
ATOM    104  O   UNL A   1      38.501  38.173  39.521  1.00  0.00    -0.744 OA
ENDBRANCH 100 101
ENDBRANCH  68  93
ENDBRANCH  42  43
ENDBRANCH  34  37
ENDBRANCH  32  33
ENDBRANCH  31  32
ENDBRANCH  30  31
ENDBRANCH  29  30
ENDBRANCH   1  29
TORSDOF 22
ENDMDL
