MODEL 1
REMARK VINA RESULT:     -12.2      0.000      0.000
REMARK SMILES CCc1cc(S(F)(F)(F)(F)F)cc2c1O[C@@H](C(F)(F)F)C(C(=O)NCCCCCCNC(=O)c1ccc(-c3c4nc(c(-c5c(F)cc(S(=O)(=O)[O-])cc5F)c5ccc([nH]5)c(-c5c(F)cc(S(=O)(=O)[O-])cc5F)c5nc(c(-c6c(F)cc(S(=O)(=O)[O-])cc6F)c6ccc3[nH]6)C=C5)C=C4)cc1)=C2
REMARK SMILES IDX 28 1 27 2 26 3 25 4 24 5 22 6 23 7 21 9 3 10 4 11 14 12 5 13
REMARK SMILES IDX 13 14 15 15 12 16 100 17 16 18 2 19 1 20 6 21 7 22 8 23 9 24
REMARK SMILES IDX 10 25 11 26 17 27 18 28 19 29 20 30 29 31 30 32 31 33 32 34
REMARK SMILES IDX 33 36 34 37 35 38 99 39 36 40 98 41 37 42 38 43 39 44 92 45
REMARK SMILES IDX 40 46 97 47 91 48 93 49 41 50 96 51 90 52 89 53 42 55 76 56
REMARK SMILES IDX 55 57 75 58 56 59 59 60 74 61 94 62 57 63 58 64 73 66 95 67
REMARK SMILES IDX 60 68 43 69 44 70 53 71 45 72 46 73 52 74 54 75 47 76 48 77
REMARK SMILES IDX 49 78 50 79 51 80 77 81 78 82 87 83 79 84 80 85 86 86 88 87
REMARK SMILES IDX 81 88 82 89 83 90 84 91 85 92 61 93 62 94 71 95 63 96 64 97
REMARK SMILES IDX 70 98 72 99 65 100 66 101 67 102 68 103 69 104
REMARK H PARENT 24 8 31 35 93 54 59 65
REMARK Flexibility Score: inf
ROOT
ATOM      1  C   UNL A   1      31.974  28.071  27.062  1.00  0.00     0.002 C 
ENDROOT
BRANCH   1   2
ATOM      2  C   UNL A   1      31.068  27.095  26.328  1.00  0.00     0.002 C 
BRANCH   2   3
ATOM      3  C   UNL A   1      31.414  25.673  26.742  1.00  0.00     0.021 C 
BRANCH   3   4
ATOM      4  C   UNL A   1      30.530  24.697  25.983  1.00  0.00     0.116 C 
BRANCH   4   5
ATOM      5  N   UNL A   1      30.453  25.100  24.572  1.00  0.00    -0.352 N 
ATOM      6  C   UNL A   1      31.321  24.458  23.574  1.00  0.00     0.251 C 
ATOM      7  O   UNL A   1      31.254  24.807  22.354  1.00  0.00    -0.270 OA
ATOM      8  H   UNL A   1      29.820  25.802  24.294  1.00  0.00     0.163 HD
BRANCH   6   9
ATOM      9  C   UNL A   1      32.298  23.375  24.003  1.00  0.00     0.067 C 
ATOM     10  C   UNL A   1      35.227  20.489  24.739  1.00  0.00    -0.004 A 
ATOM     11  C   UNL A   1      34.884  19.150  24.768  1.00  0.00     0.032 A 
ATOM     12  C   UNL A   1      34.255  21.412  24.442  1.00  0.00     0.131 A 
ATOM     13  C   UNL A   1      33.603  18.744  24.501  1.00  0.00     0.108 A 
ATOM     14  C   UNL A   1      32.947  21.043  24.186  1.00  0.00     0.019 A 
ATOM     15  O   UNL A   1      34.634  22.726  24.307  1.00  0.00    -0.475 OA
ATOM     16  C   UNL A   1      32.637  19.688  24.219  1.00  0.00     0.036 A 
ATOM     17  C   UNL A   1      32.002  22.091  23.844  1.00  0.00     0.025 C 
ATOM     18  C   UNL A   1      33.640  23.740  24.626  1.00  0.00     0.314 C 
BRANCH  10  19
ATOM     19  C   UNL A   1      36.644  20.951  25.036  1.00  0.00     0.036 C 
ATOM     20  C   UNL A   1      37.589  19.762  24.973  1.00  0.00     0.009 C 
ENDBRANCH  10  19
BRANCH  13  21
ATOM     21  S   UNL A   1      33.179  16.985  24.520  1.00  0.00     0.310 S 
ATOM     22  F   UNL A   1      34.702  16.550  24.618  1.00  0.00    -0.094 F 
ATOM     23  F   UNL A   1      33.344  16.959  22.955  1.00  0.00    -0.094 F 
ATOM     24  F   UNL A   1      32.810  15.474  24.534  1.00  0.00    -0.094 F 
ATOM     25  F   UNL A   1      33.157  16.996  26.100  1.00  0.00    -0.094 F 
ATOM     26  F   UNL A   1      33.663  18.489  24.532  1.00  0.00    -0.094 F 
ENDBRANCH  13  21
BRANCH  18  27
ATOM     27  C   UNL A   1      34.099  25.078  24.068  1.00  0.00     0.429 C 
ATOM     28  F   UNL A   1      34.345  24.954  22.766  1.00  0.00    -0.167 F 
ATOM     29  F   UNL A   1      33.146  25.986  24.254  1.00  0.00    -0.167 F 
ATOM     30  F   UNL A   1      35.208  25.462  24.694  1.00  0.00    -0.167 F 
ENDBRANCH  18  27
ENDBRANCH   6   9
ENDBRANCH   4   5
ENDBRANCH   3   4
ENDBRANCH   2   3
ENDBRANCH   1   2
BRANCH   1  31
ATOM     31  C   UNL A   1      33.426  27.674  26.847  1.00  0.00     0.021 C 
BRANCH  31  32
ATOM     32  C   UNL A   1      34.158  28.799  26.134  1.00  0.00     0.116 C 
BRANCH  32  33
ATOM     33  N   UNL A   1      33.493  30.078  26.424  1.00  0.00    -0.352 N 
ATOM     34  C   UNL A   1      34.087  31.014  27.389  1.00  0.00     0.251 C 
ATOM     35  H   UNL A   1      32.650  30.308  25.971  1.00  0.00     0.163 HD
ATOM     36  O   UNL A   1      33.513  32.119  27.640  1.00  0.00    -0.269 OA
BRANCH  34  37
ATOM     37  C   UNL A   1      35.390  30.659  28.088  1.00  0.00     0.039 A 
ATOM     38  C   UNL A   1      36.561  31.290  27.701  1.00  0.00     0.014 A 
ATOM     39  C   UNL A   1      35.384  29.751  29.056  1.00  0.00     0.014 A 
ATOM     40  C   UNL A   1      37.734  30.679  28.206  1.00  0.00     0.010 A 
ATOM     41  C   UNL A   1      36.562  29.298  29.598  1.00  0.00     0.010 A 
ATOM     42  C   UNL A   1      37.762  29.835  29.221  1.00  0.00    -0.014 A 
BRANCH  42  43
ATOM     43  C   UNL A   1      39.058  29.478  29.932  1.00  0.00     0.031 A 
ATOM     44  C   UNL A   1      39.387  30.186  31.088  1.00  0.00     0.074 A 
ATOM     45  C   UNL A   1      39.838  28.470  29.392  1.00  0.00     0.049 A 
ATOM     46  N   UNL A   1      40.450  30.011  31.875  1.00  0.00    -0.248 NA
ATOM     47  C   UNL A   1      38.577  31.281  31.644  1.00  0.00     0.031 C 
ATOM     48  C   UNL A   1      39.507  27.745  28.232  1.00  0.00     0.029 A 
ATOM     49  N   UNL A   1      41.042  27.993  29.860  1.00  0.00    -0.354 N 
ATOM     50  C   UNL A   1      40.413  30.866  32.898  1.00  0.00     0.074 A 
ATOM     51  C   UNL A   1      39.210  31.699  32.761  1.00  0.00     0.031 C 
ATOM     52  C   UNL A   1      40.503  26.851  27.994  1.00  0.00     0.029 A 
ATOM     53  C   UNL A   1      41.473  27.002  29.004  1.00  0.00     0.049 A 
ATOM     54  H   UNL A   1      41.514  28.305  30.665  1.00  0.00     0.167 HD
ATOM     55  C   UNL A   1      41.333  30.983  33.942  1.00  0.00     0.037 A 
ATOM     56  C   UNL A   1      42.642  26.262  29.082  1.00  0.00     0.037 A 
ATOM     57  C   UNL A   1      42.481  30.213  34.043  1.00  0.00     0.049 A 
ATOM     58  C   UNL A   1      43.592  26.420  30.094  1.00  0.00     0.074 A 
ATOM     59  C   UNL A   1      43.415  30.313  35.093  1.00  0.00     0.029 A 
ATOM     60  N   UNL A   1      42.923  29.240  33.175  1.00  0.00    -0.354 N 
ATOM     61  N   UNL A   1      43.535  27.247  31.139  1.00  0.00    -0.248 NA
ATOM     62  C   UNL A   1      44.850  25.665  30.170  1.00  0.00     0.031 C 
ATOM     63  C   UNL A   1      44.412  29.419  34.856  1.00  0.00     0.029 A 
ATOM     64  C   UNL A   1      44.117  28.747  33.654  1.00  0.00     0.049 A 
ATOM     65  H   UNL A   1      42.466  28.948  32.354  1.00  0.00     0.167 HD
ATOM     66  C   UNL A   1      44.619  27.099  31.902  1.00  0.00     0.074 A 
ATOM     67  C   UNL A   1      45.485  26.084  31.286  1.00  0.00     0.031 C 
ATOM     68  C   UNL A   1      44.921  27.767  33.090  1.00  0.00     0.037 A 
BRANCH  55  69
ATOM     69  C   UNL A   1      41.061  32.012  35.027  1.00  0.00     0.058 A 
ATOM     70  C   UNL A   1      41.623  33.265  34.850  1.00  0.00     0.135 A 
ATOM     71  C   UNL A   1      40.227  31.767  36.031  1.00  0.00     0.135 A 
ATOM     72  F   UNL A   1      42.253  33.626  33.735  1.00  0.00    -0.206 F 
ATOM     73  C   UNL A   1      41.468  34.126  35.962  1.00  0.00     0.059 A 
ATOM     74  C   UNL A   1      40.018  32.705  37.012  1.00  0.00     0.059 A 
ATOM     75  F   UNL A   1      39.588  30.602  36.087  1.00  0.00    -0.206 F 
ATOM     76  C   UNL A   1      40.590  33.945  36.932  1.00  0.00     0.060 A 
BRANCH  76  77
ATOM     77  S   UNL A   1      40.166  35.268  38.092  1.00  0.00     0.124 S 
ATOM     78  O   UNL A   1      39.829  36.541  37.313  1.00  0.00    -0.237 OA
ATOM     79  O   UNL A   1      38.954  34.846  38.927  1.00  0.00    -0.237 OA
ATOM     80  O   UNL A   1      41.495  35.566  39.126  1.00  0.00    -0.744 OA
ENDBRANCH  76  77
ENDBRANCH  55  69
BRANCH  56  81
ATOM     81  C   UNL A   1      42.907  25.223  28.005  1.00  0.00     0.058 A 
ATOM     82  C   UNL A   1      42.456  23.925  28.185  1.00  0.00     0.135 A 
ATOM     83  C   UNL A   1      43.678  25.548  26.975  1.00  0.00     0.135 A 
ATOM     84  F   UNL A   1      41.491  23.604  29.043  1.00  0.00    -0.206 F 
ATOM     85  C   UNL A   1      43.117  22.972  27.375  1.00  0.00     0.059 A 
ATOM     86  C   UNL A   1      44.178  24.576  26.142  1.00  0.00     0.059 A 
ATOM     87  F   UNL A   1      43.968  26.825  26.745  1.00  0.00    -0.206 F 
ATOM     88  C   UNL A   1      43.823  23.265  26.298  1.00  0.00     0.060 A 
BRANCH  88  89
ATOM     89  S   UNL A   1      44.294  21.999  25.093  1.00  0.00     0.124 S 
ATOM     90  O   UNL A   1      43.410  20.764  25.279  1.00  0.00    -0.237 OA
ATOM     91  O   UNL A   1      44.110  22.549  23.677  1.00  0.00    -0.237 OA
ATOM     92  O   UNL A   1      45.932  21.569  25.329  1.00  0.00    -0.744 OA
ENDBRANCH  88  89
ENDBRANCH  56  81
BRANCH  68  93
ATOM     93  C   UNL A   1      46.208  27.399  33.810  1.00  0.00     0.058 A 
ATOM     94  C   UNL A   1      46.199  26.361  34.728  1.00  0.00     0.135 A 
ATOM     95  C   UNL A   1      47.318  28.077  33.546  1.00  0.00     0.135 A 
ATOM     96  F   UNL A   1      45.192  25.499  34.840  1.00  0.00    -0.206 F 
ATOM     97  C   UNL A   1      47.358  26.303  35.537  1.00  0.00     0.059 A 
ATOM     98  C   UNL A   1      48.456  27.871  34.290  1.00  0.00     0.059 A 
ATOM     99  F   UNL A   1      47.331  28.962  32.554  1.00  0.00    -0.206 F 
ATOM    100  C   UNL A   1      48.500  26.902  35.254  1.00  0.00     0.060 A 
BRANCH 100 101
ATOM    101  S   UNL A   1      50.041  26.467  36.098  1.00  0.00     0.124 S 
ATOM    102  O   UNL A   1      50.126  24.947  36.254  1.00  0.00    -0.237 OA
ATOM    103  O   UNL A   1      51.231  26.963  35.274  1.00  0.00    -0.237 OA
ATOM    104  O   UNL A   1      50.072  27.201  37.643  1.00  0.00    -0.744 OA
ENDBRANCH 100 101
ENDBRANCH  68  93
ENDBRANCH  42  43
ENDBRANCH  34  37
ENDBRANCH  32  33
ENDBRANCH  31  32
ENDBRANCH   1  31
TORSDOF 19
ENDMDL
MODEL 2
REMARK VINA RESULT:     -12.1      0.557      7.844
REMARK SMILES CCc1cc(S(F)(F)(F)(F)F)cc2c1O[C@@H](C(F)(F)F)C(C(=O)NCCCCCCNC(=O)c1ccc(-c3c4nc(c(-c5c(F)cc(S(=O)(=O)[O-])cc5F)c5ccc([nH]5)c(-c5c(F)cc(S(=O)(=O)[O-])cc5F)c5nc(c(-c6c(F)cc(S(=O)(=O)[O-])cc6F)c6ccc3[nH]6)C=C5)C=C4)cc1)=C2
REMARK SMILES IDX 28 1 27 2 26 3 25 4 24 5 22 6 23 7 21 9 3 10 4 11 14 12 5 13
REMARK SMILES IDX 13 14 15 15 12 16 100 17 16 18 2 19 1 20 6 21 7 22 8 23 9 24
REMARK SMILES IDX 10 25 11 26 17 27 18 28 19 29 20 30 29 31 30 32 31 33 32 34
REMARK SMILES IDX 33 36 34 37 35 38 99 39 36 40 98 41 37 42 38 43 39 44 92 45
REMARK SMILES IDX 40 46 97 47 91 48 93 49 41 50 96 51 90 52 89 53 42 55 76 56
REMARK SMILES IDX 55 57 75 58 56 59 59 60 74 61 94 62 57 63 58 64 73 66 95 67
REMARK SMILES IDX 60 68 43 69 44 70 53 71 45 72 46 73 52 74 54 75 47 76 48 77
REMARK SMILES IDX 49 78 50 79 51 80 77 81 78 82 87 83 79 84 80 85 86 86 88 87
REMARK SMILES IDX 81 88 82 89 83 90 84 91 85 92 61 93 62 94 71 95 63 96 64 97
REMARK SMILES IDX 70 98 72 99 65 100 66 101 67 102 68 103 69 104
REMARK H PARENT 24 8 31 35 93 54 59 65
REMARK Flexibility Score: inf
ROOT
ATOM      1  C   UNL A   1      31.880  27.879  26.743  1.00  0.00     0.002 C 
ENDROOT
BRANCH   1   2
ATOM      2  C   UNL A   1      30.883  26.867  26.203  1.00  0.00     0.002 C 
BRANCH   2   3
ATOM      3  C   UNL A   1      31.273  25.473  26.669  1.00  0.00     0.021 C 
BRANCH   3   4
ATOM      4  C   UNL A   1      30.504  24.437  25.865  1.00  0.00     0.116 C 
BRANCH   4   5
ATOM      5  N   UNL A   1      30.472  24.839  24.452  1.00  0.00    -0.352 N 
ATOM      6  C   UNL A   1      31.391  24.216  23.489  1.00  0.00     0.251 C 
ATOM      7  O   UNL A   1      31.362  24.565  22.266  1.00  0.00    -0.270 OA
ATOM      8  H   UNL A   1      29.835  25.527  24.150  1.00  0.00     0.163 HD
BRANCH   6   9
ATOM      9  C   UNL A   1      32.375  23.155  23.955  1.00  0.00     0.067 C 
ATOM     10  C   UNL A   1      35.330  20.326  24.799  1.00  0.00    -0.004 A 
ATOM     11  C   UNL A   1      35.008  18.982  24.837  1.00  0.00     0.032 A 
ATOM     12  C   UNL A   1      34.351  21.230  24.467  1.00  0.00     0.131 A 
ATOM     13  C   UNL A   1      33.740  18.553  24.545  1.00  0.00     0.108 A 
ATOM     14  C   UNL A   1      33.055  20.836  24.184  1.00  0.00     0.019 A 
ATOM     15  O   UNL A   1      34.712  22.547  24.323  1.00  0.00    -0.475 OA
ATOM     16  C   UNL A   1      32.766  19.477  24.227  1.00  0.00     0.036 A 
ATOM     17  C   UNL A   1      32.102  21.865  23.805  1.00  0.00     0.025 C 
ATOM     18  C   UNL A   1      33.695  23.550  24.605  1.00  0.00     0.314 C 
BRANCH  10  19
ATOM     19  C   UNL A   1      36.732  20.816  25.123  1.00  0.00     0.036 C 
ATOM     20  C   UNL A   1      37.725  19.684  24.911  1.00  0.00     0.009 C 
ENDBRANCH  10  19
BRANCH  13  21
ATOM     21  S   UNL A   1      33.344  16.787  24.577  1.00  0.00     0.310 S 
ATOM     22  F   UNL A   1      34.813  16.397  25.035  1.00  0.00    -0.094 F 
ATOM     23  F   UNL A   1      33.852  16.677  23.091  1.00  0.00    -0.094 F 
ATOM     24  F   UNL A   1      33.000  15.271  24.602  1.00  0.00    -0.094 F 
ATOM     25  F   UNL A   1      32.972  16.887  26.109  1.00  0.00    -0.094 F 
ATOM     26  F   UNL A   1      33.795  18.301  24.603  1.00  0.00    -0.094 F 
ENDBRANCH  13  21
BRANCH  18  27
ATOM     27  C   UNL A   1      34.146  24.887  24.040  1.00  0.00     0.429 C 
ATOM     28  F   UNL A   1      33.170  25.780  24.181  1.00  0.00    -0.167 F 
ATOM     29  F   UNL A   1      35.225  25.303  24.695  1.00  0.00    -0.167 F 
ATOM     30  F   UNL A   1      34.436  24.748  22.749  1.00  0.00    -0.167 F 
ENDBRANCH  18  27
ENDBRANCH   6   9
ENDBRANCH   4   5
ENDBRANCH   3   4
ENDBRANCH   2   3
ENDBRANCH   1   2
BRANCH   1  31
ATOM     31  C   UNL A   1      33.270  27.264  26.756  1.00  0.00     0.021 C 
BRANCH  31  32
ATOM     32  C   UNL A   1      34.302  28.336  26.446  1.00  0.00     0.116 C 
BRANCH  32  33
ATOM     33  N   UNL A   1      33.707  29.664  26.656  1.00  0.00    -0.352 N 
ATOM     34  C   UNL A   1      34.398  30.655  27.495  1.00  0.00     0.251 C 
ATOM     35  H   UNL A   1      32.847  29.891  26.234  1.00  0.00     0.163 HD
ATOM     36  O   UNL A   1      33.884  31.802  27.676  1.00  0.00    -0.269 OA
BRANCH  34  37
ATOM     37  C   UNL A   1      35.726  30.305  28.145  1.00  0.00     0.039 A 
ATOM     38  C   UNL A   1      36.906  30.596  27.479  1.00  0.00     0.014 A 
ATOM     39  C   UNL A   1      35.735  29.726  29.340  1.00  0.00     0.014 A 
ATOM     40  C   UNL A   1      38.047  29.971  28.035  1.00  0.00     0.010 A 
ATOM     41  C   UNL A   1      36.907  29.260  29.883  1.00  0.00     0.010 A 
ATOM     42  C   UNL A   1      38.104  29.461  29.252  1.00  0.00    -0.014 A 
BRANCH  42  43
ATOM     43  C   UNL A   1      39.427  29.114  29.915  1.00  0.00     0.031 A 
ATOM     44  C   UNL A   1      40.175  28.065  29.377  1.00  0.00     0.074 A 
ATOM     45  C   UNL A   1      39.818  29.859  31.014  1.00  0.00     0.049 A 
ATOM     46  N   UNL A   1      41.367  27.625  29.781  1.00  0.00    -0.248 NA
ATOM     47  C   UNL A   1      39.746  27.251  28.230  1.00  0.00     0.031 C 
ATOM     48  C   UNL A   1      39.073  30.924  31.557  1.00  0.00     0.029 A 
ATOM     49  N   UNL A   1      40.961  29.715  31.769  1.00  0.00    -0.354 N 
ATOM     50  C   UNL A   1      41.773  26.616  29.008  1.00  0.00     0.074 A 
ATOM     51  C   UNL A   1      40.733  26.357  28.002  1.00  0.00     0.031 C 
ATOM     52  C   UNL A   1      39.751  31.409  32.630  1.00  0.00     0.029 A 
ATOM     53  C   UNL A   1      40.931  30.655  32.776  1.00  0.00     0.049 A 
ATOM     54  H   UNL A   1      41.675  29.056  31.615  1.00  0.00     0.167 HD
ATOM     55  C   UNL A   1      42.969  25.903  29.100  1.00  0.00     0.037 A 
ATOM     56  C   UNL A   1      41.871  30.858  33.775  1.00  0.00     0.037 A 
ATOM     57  C   UNL A   1      43.929  26.135  30.073  1.00  0.00     0.049 A 
ATOM     58  C   UNL A   1      43.041  30.106  33.902  1.00  0.00     0.074 A 
ATOM     59  C   UNL A   1      45.144  25.430  30.176  1.00  0.00     0.029 A 
ATOM     60  N   UNL A   1      43.888  27.058  31.094  1.00  0.00    -0.354 N 
ATOM     61  N   UNL A   1      43.465  29.124  33.105  1.00  0.00    -0.248 NA
ATOM     62  C   UNL A   1      44.027  30.290  34.975  1.00  0.00     0.031 C 
ATOM     63  C   UNL A   1      45.823  25.915  31.249  1.00  0.00     0.029 A 
ATOM     64  C   UNL A   1      45.042  26.930  31.836  1.00  0.00     0.049 A 
ATOM     65  H   UNL A   1      43.160  27.698  31.265  1.00  0.00     0.167 HD
ATOM     66  C   UNL A   1      44.638  28.657  33.536  1.00  0.00     0.074 A 
ATOM     67  C   UNL A   1      45.014  29.395  34.749  1.00  0.00     0.031 C 
ATOM     68  C   UNL A   1      45.413  27.646  32.964  1.00  0.00     0.037 A 
BRANCH  55  69
ATOM     69  C   UNL A   1      43.235  24.811  28.076  1.00  0.00     0.058 A 
ATOM     70  C   UNL A   1      43.963  25.175  26.955  1.00  0.00     0.135 A 
ATOM     71  C   UNL A   1      42.897  23.547  28.297  1.00  0.00     0.135 A 
ATOM     72  F   UNL A   1      44.536  26.368  26.818  1.00  0.00    -0.206 F 
ATOM     73  C   UNL A   1      44.041  24.164  25.969  1.00  0.00     0.059 A 
ATOM     74  C   UNL A   1      43.126  22.585  27.343  1.00  0.00     0.059 A 
ATOM     75  F   UNL A   1      42.332  23.208  29.452  1.00  0.00    -0.206 F 
ATOM     76  C   UNL A   1      43.788  22.886  26.185  1.00  0.00     0.060 A 
BRANCH  76  77
ATOM     77  S   UNL A   1      44.290  21.603  25.012  1.00  0.00     0.124 S 
ATOM     78  O   UNL A   1      43.363  20.393  25.150  1.00  0.00    -0.237 OA
ATOM     79  O   UNL A   1      44.202  22.152  23.586  1.00  0.00    -0.237 OA
ATOM     80  O   UNL A   1      45.900  21.129  25.341  1.00  0.00    -0.744 OA
ENDBRANCH  76  77
ENDBRANCH  55  69
BRANCH  56  81
ATOM     81  C   UNL A   1      41.613  31.960  34.789  1.00  0.00     0.058 A 
ATOM     82  C   UNL A   1      40.984  31.653  35.985  1.00  0.00     0.135 A 
ATOM     83  C   UNL A   1      41.877  33.217  34.453  1.00  0.00     0.135 A 
ATOM     84  F   UNL A   1      40.925  30.419  36.477  1.00  0.00    -0.206 F 
ATOM     85  C   UNL A   1      40.409  32.771  36.633  1.00  0.00     0.059 A 
ATOM     86  C   UNL A   1      41.397  34.259  35.209  1.00  0.00     0.059 A 
ATOM     87  F   UNL A   1      42.615  33.470  33.375  1.00  0.00    -0.206 F 
ATOM     88  C   UNL A   1      40.716  34.029  36.372  1.00  0.00     0.060 A 
BRANCH  88  89
ATOM     89  S   UNL A   1      40.259  35.375  37.492  1.00  0.00     0.124 S 
ATOM     90  O   UNL A   1      41.371  35.576  38.526  1.00  0.00    -0.237 OA
ATOM     91  O   UNL A   1      40.068  36.664  36.690  1.00  0.00    -0.237 OA
ATOM     92  O   UNL A   1      38.801  34.980  38.293  1.00  0.00    -0.744 OA
ENDBRANCH  88  89
ENDBRANCH  56  81
BRANCH  68  93
ATOM     93  C   UNL A   1      46.745  27.311  33.616  1.00  0.00     0.058 A 
ATOM     94  C   UNL A   1      46.795  26.325  34.587  1.00  0.00     0.135 A 
ATOM     95  C   UNL A   1      47.836  27.969  33.243  1.00  0.00     0.135 A 
ATOM     96  F   UNL A   1      45.797  25.475  34.812  1.00  0.00    -0.206 F 
ATOM     97  C   UNL A   1      48.005  26.304  35.320  1.00  0.00     0.059 A 
ATOM     98  C   UNL A   1      49.020  27.798  33.920  1.00  0.00     0.059 A 
ATOM     99  F   UNL A   1      47.784  28.800  32.206  1.00  0.00    -0.206 F 
ATOM    100  C   UNL A   1      49.127  26.882  34.930  1.00  0.00     0.060 A 
BRANCH 100 101
ATOM    101  S   UNL A   1      50.719  26.486  35.693  1.00  0.00     0.124 S 
ATOM    102  O   UNL A   1      50.539  26.339  37.205  1.00  0.00    -0.237 OA
ATOM    103  O   UNL A   1      51.250  25.173  35.112  1.00  0.00    -0.237 OA
ATOM    104  O   UNL A   1      51.835  27.742  35.371  1.00  0.00    -0.744 OA
ENDBRANCH 100 101
ENDBRANCH  68  93
ENDBRANCH  42  43
ENDBRANCH  34  37
ENDBRANCH  32  33
ENDBRANCH  31  32
ENDBRANCH   1  31
TORSDOF 19
ENDMDL
MODEL 3
REMARK VINA RESULT:     -12.1      3.560      9.561
REMARK SMILES CCc1cc(S(F)(F)(F)(F)F)cc2c1O[C@@H](C(F)(F)F)C(C(=O)NCCCCCCNC(=O)c1ccc(-c3c4nc(c(-c5c(F)cc(S(=O)(=O)[O-])cc5F)c5ccc([nH]5)c(-c5c(F)cc(S(=O)(=O)[O-])cc5F)c5nc(c(-c6c(F)cc(S(=O)(=O)[O-])cc6F)c6ccc3[nH]6)C=C5)C=C4)cc1)=C2
REMARK SMILES IDX 28 1 27 2 26 3 25 4 24 5 22 6 23 7 21 9 3 10 4 11 14 12 5 13
REMARK SMILES IDX 13 14 15 15 12 16 100 17 16 18 2 19 1 20 6 21 7 22 8 23 9 24
REMARK SMILES IDX 10 25 11 26 17 27 18 28 19 29 20 30 29 31 30 32 31 33 32 34
REMARK SMILES IDX 33 36 34 37 35 38 99 39 36 40 98 41 37 42 38 43 39 44 92 45
REMARK SMILES IDX 40 46 97 47 91 48 93 49 41 50 96 51 90 52 89 53 42 55 76 56
REMARK SMILES IDX 55 57 75 58 56 59 59 60 74 61 94 62 57 63 58 64 73 66 95 67
REMARK SMILES IDX 60 68 43 69 44 70 53 71 45 72 46 73 52 74 54 75 47 76 48 77
REMARK SMILES IDX 49 78 50 79 51 80 77 81 78 82 87 83 79 84 80 85 86 86 88 87
REMARK SMILES IDX 81 88 82 89 83 90 84 91 85 92 61 93 62 94 71 95 63 96 64 97
REMARK SMILES IDX 70 98 72 99 65 100 66 101 67 102 68 103 69 104
REMARK H PARENT 24 8 31 35 93 54 59 65
REMARK Flexibility Score: inf
ROOT
ATOM      1  C   UNL A   1      40.341  21.783  26.196  1.00  0.00     0.002 C 
ENDROOT
BRANCH   1   2
ATOM      2  C   UNL A   1      38.849  21.829  25.911  1.00  0.00     0.002 C 
BRANCH   2   3
ATOM      3  C   UNL A   1      38.333  23.242  26.133  1.00  0.00     0.021 C 
BRANCH   3   4
ATOM      4  C   UNL A   1      36.902  23.342  25.629  1.00  0.00     0.116 C 
BRANCH   4   5
ATOM      5  N   UNL A   1      36.125  22.199  26.127  1.00  0.00    -0.352 N 
ATOM      6  C   UNL A   1      34.656  22.246  26.112  1.00  0.00     0.251 C 
ATOM      7  O   UNL A   1      33.984  21.257  26.544  1.00  0.00    -0.270 OA
ATOM      8  H   UNL A   1      36.588  21.402  26.473  1.00  0.00     0.163 HD
BRANCH   6   9
ATOM      9  C   UNL A   1      33.941  23.477  25.579  1.00  0.00     0.067 C 
ATOM     10  C   UNL A   1      32.366  26.908  23.789  1.00  0.00    -0.004 A 
ATOM     11  C   UNL A   1      32.273  28.082  24.513  1.00  0.00     0.032 A 
ATOM     12  C   UNL A   1      32.937  25.810  24.385  1.00  0.00     0.131 A 
ATOM     13  C   UNL A   1      32.744  28.159  25.797  1.00  0.00     0.108 A 
ATOM     14  C   UNL A   1      33.405  25.843  25.686  1.00  0.00     0.019 A 
ATOM     15  O   UNL A   1      33.124  24.686  23.618  1.00  0.00    -0.475 OA
ATOM     16  C   UNL A   1      33.300  27.040  26.383  1.00  0.00     0.036 A 
ATOM     17  C   UNL A   1      34.027  24.640  26.213  1.00  0.00     0.025 C 
ATOM     18  C   UNL A   1      33.107  23.403  24.306  1.00  0.00     0.314 C 
BRANCH  10  19
ATOM     19  C   UNL A   1      31.846  26.810  22.364  1.00  0.00     0.036 C 
ATOM     20  C   UNL A   1      30.593  27.659  22.223  1.00  0.00     0.009 C 
ENDBRANCH  10  19
BRANCH  13  21
ATOM     21  S   UNL A   1      32.634  29.712  26.719  1.00  0.00     0.310 S 
ATOM     22  F   UNL A   1      33.513  29.145  27.912  1.00  0.00    -0.094 F 
ATOM     23  F   UNL A   1      31.372  29.142  27.469  1.00  0.00    -0.094 F 
ATOM     24  F   UNL A   1      32.534  31.048  27.508  1.00  0.00    -0.094 F 
ATOM     25  F   UNL A   1      33.980  30.211  26.061  1.00  0.00    -0.094 F 
ATOM     26  F   UNL A   1      32.814  28.319  25.994  1.00  0.00    -0.094 F 
ENDBRANCH  13  21
BRANCH  18  27
ATOM     27  C   UNL A   1      33.694  22.341  23.390  1.00  0.00     0.429 C 
ATOM     28  F   UNL A   1      35.013  22.495  23.321  1.00  0.00    -0.167 F 
ATOM     29  F   UNL A   1      33.414  21.135  23.873  1.00  0.00    -0.167 F 
ATOM     30  F   UNL A   1      33.169  22.465  22.174  1.00  0.00    -0.167 F 
ENDBRANCH  18  27
ENDBRANCH   6   9
ENDBRANCH   4   5
ENDBRANCH   3   4
ENDBRANCH   2   3
ENDBRANCH   1   2
BRANCH   1  31
ATOM     31  C   UNL A   1      40.611  22.365  27.574  1.00  0.00     0.021 C 
BRANCH  31  32
ATOM     32  C   UNL A   1      41.841  23.257  27.515  1.00  0.00     0.116 C 
BRANCH  32  33
ATOM     33  N   UNL A   1      41.970  23.824  26.165  1.00  0.00    -0.352 N 
ATOM     34  C   UNL A   1      41.870  25.277  25.965  1.00  0.00     0.251 C 
ATOM     35  H   UNL A   1      42.126  23.231  25.395  1.00  0.00     0.163 HD
ATOM     36  O   UNL A   1      41.982  25.768  24.799  1.00  0.00    -0.269 OA
BRANCH  34  37
ATOM     37  C   UNL A   1      41.631  26.193  27.155  1.00  0.00     0.039 A 
ATOM     38  C   UNL A   1      42.559  27.178  27.450  1.00  0.00     0.014 A 
ATOM     39  C   UNL A   1      40.538  26.033  27.892  1.00  0.00     0.014 A 
ATOM     40  C   UNL A   1      42.386  27.765  28.727  1.00  0.00     0.010 A 
ATOM     41  C   UNL A   1      40.371  26.739  29.058  1.00  0.00     0.010 A 
ATOM     42  C   UNL A   1      41.278  27.687  29.442  1.00  0.00    -0.014 A 
BRANCH  42  43
ATOM     43  C   UNL A   1      41.026  28.603  30.629  1.00  0.00     0.031 A 
ATOM     44  C   UNL A   1      41.823  28.440  31.764  1.00  0.00     0.074 A 
ATOM     45  C   UNL A   1      40.020  29.548  30.519  1.00  0.00     0.049 A 
ATOM     46  N   UNL A   1      41.790  29.153  32.890  1.00  0.00    -0.248 NA
ATOM     47  C   UNL A   1      42.869  27.415  31.896  1.00  0.00     0.031 C 
ATOM     48  C   UNL A   1      39.219  29.724  29.375  1.00  0.00     0.029 A 
ATOM     49  N   UNL A   1      39.616  30.465  31.463  1.00  0.00    -0.354 N 
ATOM     50  C   UNL A   1      42.718  28.712  33.743  1.00  0.00     0.074 A 
ATOM     51  C   UNL A   1      43.422  27.584  33.117  1.00  0.00     0.031 C 
ATOM     52  C   UNL A   1      38.336  30.725  29.629  1.00  0.00     0.029 A 
ATOM     53  C   UNL A   1      38.571  31.192  30.936  1.00  0.00     0.049 A 
ATOM     54  H   UNL A   1      40.007  30.582  32.359  1.00  0.00     0.167 HD
ATOM     55  C   UNL A   1      43.007  29.208  35.015  1.00  0.00     0.037 A 
ATOM     56  C   UNL A   1      37.851  32.207  31.546  1.00  0.00     0.037 A 
ATOM     57  C   UNL A   1      42.315  30.253  35.608  1.00  0.00     0.049 A 
ATOM     58  C   UNL A   1      38.101  32.665  32.842  1.00  0.00     0.074 A 
ATOM     59  C   UNL A   1      42.598  30.769  36.887  1.00  0.00     0.029 A 
ATOM     60  N   UNL A   1      41.255  30.963  35.090  1.00  0.00    -0.354 N 
ATOM     61  N   UNL A   1      39.056  32.250  33.678  1.00  0.00    -0.248 NA
ATOM     62  C   UNL A   1      37.325  33.717  33.510  1.00  0.00     0.031 C 
ATOM     63  C   UNL A   1      41.715  31.771  37.141  1.00  0.00     0.029 A 
ATOM     64  C   UNL A   1      40.865  31.896  36.026  1.00  0.00     0.049 A 
ATOM     65  H   UNL A   1      40.845  30.827  34.205  1.00  0.00     0.167 HD
ATOM     66  C   UNL A   1      38.994  32.936  34.820  1.00  0.00     0.074 A 
ATOM     67  C   UNL A   1      37.876  33.885  34.732  1.00  0.00     0.031 C 
ATOM     68  C   UNL A   1      39.829  32.813  35.933  1.00  0.00     0.037 A 
BRANCH  55  69
ATOM     69  C   UNL A   1      44.144  28.566  35.794  1.00  0.00     0.058 A 
ATOM     70  C   UNL A   1      45.403  29.117  35.622  1.00  0.00     0.135 A 
ATOM     71  C   UNL A   1      43.927  27.609  36.688  1.00  0.00     0.135 A 
ATOM     72  F   UNL A   1      45.618  30.234  34.932  1.00  0.00    -0.206 F 
ATOM     73  C   UNL A   1      46.440  28.383  36.245  1.00  0.00     0.059 A 
ATOM     74  C   UNL A   1      44.976  27.029  37.360  1.00  0.00     0.059 A 
ATOM     75  F   UNL A   1      42.684  27.208  36.935  1.00  0.00    -0.206 F 
ATOM     76  C   UNL A   1      46.255  27.483  37.194  1.00  0.00     0.060 A 
BRANCH  76  77
ATOM     77  S   UNL A   1      47.620  26.885  38.219  1.00  0.00     0.124 S 
ATOM     78  O   UNL A   1      48.725  26.323  37.321  1.00  0.00    -0.237 OA
ATOM     79  O   UNL A   1      48.179  28.041  39.052  1.00  0.00    -0.237 OA
ATOM     80  O   UNL A   1      47.053  25.654  39.261  1.00  0.00    -0.744 OA
ENDBRANCH  76  77
ENDBRANCH  55  69
BRANCH  56  81
ATOM     81  C   UNL A   1      36.725  32.860  30.761  1.00  0.00     0.058 A 
ATOM     82  C   UNL A   1      37.021  33.857  29.845  1.00  0.00     0.135 A 
ATOM     83  C   UNL A   1      35.469  32.552  31.063  1.00  0.00     0.135 A 
ATOM     84  F   UNL A   1      38.233  34.028  29.325  1.00  0.00    -0.206 F 
ATOM     85  C   UNL A   1      35.915  34.676  29.514  1.00  0.00     0.059 A 
ATOM     86  C   UNL A   1      34.430  33.317  30.594  1.00  0.00     0.059 A 
ATOM     87  F   UNL A   1      35.216  31.493  31.827  1.00  0.00    -0.206 F 
ATOM     88  C   UNL A   1      34.653  34.355  29.732  1.00  0.00     0.060 A 
BRANCH  88  89
ATOM     89  S   UNL A   1      33.293  35.242  28.933  1.00  0.00     0.124 S 
ATOM     90  O   UNL A   1      32.541  34.289  28.001  1.00  0.00    -0.237 OA
ATOM     91  O   UNL A   1      32.333  35.773  30.001  1.00  0.00    -0.237 OA
ATOM     92  O   UNL A   1      33.918  36.550  28.027  1.00  0.00    -0.744 OA
ENDBRANCH  88  89
ENDBRANCH  56  81
BRANCH  68  93
ATOM     93  C   UNL A   1      39.588  33.740  37.113  1.00  0.00     0.058 A 
ATOM     94  C   UNL A   1      40.149  35.006  37.107  1.00  0.00     0.135 A 
ATOM     95  C   UNL A   1      38.844  33.320  38.129  1.00  0.00     0.135 A 
ATOM     96  F   UNL A   1      40.681  35.560  36.022  1.00  0.00    -0.206 F 
ATOM     97  C   UNL A   1      40.105  35.657  38.363  1.00  0.00     0.059 A 
ATOM     98  C   UNL A   1      38.736  34.072  39.274  1.00  0.00     0.059 A 
ATOM     99  F   UNL A   1      38.196  32.161  38.039  1.00  0.00    -0.206 F 
ATOM    100  C   UNL A   1      39.314  35.308  39.361  1.00  0.00     0.060 A 
BRANCH 100 101
ATOM    101  S   UNL A   1      39.013  36.405  40.768  1.00  0.00     0.124 S 
ATOM    102  O   UNL A   1      40.324  36.644  41.520  1.00  0.00    -0.237 OA
ATOM    103  O   UNL A   1      38.463  37.742  40.263  1.00  0.00    -0.237 OA
ATOM    104  O   UNL A   1      37.874  35.683  41.821  1.00  0.00    -0.744 OA
ENDBRANCH 100 101
ENDBRANCH  68  93
ENDBRANCH  42  43
ENDBRANCH  34  37
ENDBRANCH  32  33
ENDBRANCH  31  32
ENDBRANCH   1  31
TORSDOF 19
ENDMDL
