MODEL 1
REMARK VINA RESULT:     -12.1      0.000      0.000
REMARK SMILES O=C(NCCCCCCNC(=O)c1ccc(-c2c3nc(c(-c4c(F)cc(S(=O)(=O)[O-])cc4F)c4ccc([nH]4)c(-c4c(F)cc(S(=O)(=O)[O-])cc4F)c4nc(c(-c5c(F)cc(S(=O)(=O)[O-])cc5F)c5ccc2[nH]5)C=C4)C=C3)cc1)C1=Cc2c(ccc(Cl)c2Cl)O[C@H]1C(F)(F)F
REMARK SMILES IDX 7 1 6 2 5 3 4 4 3 5 1 6 2 7 79 9 80 10 90 11 81 12 89 13
REMARK SMILES IDX 82 14 87 15 83 16 85 17 88 18 84 19 86 20 91 21 92 22 93 23
REMARK SMILES IDX 94 24 8 25 9 26 10 27 11 28 12 30 13 31 14 32 78 33 15 34
REMARK SMILES IDX 77 35 16 36 17 37 18 38 71 39 19 40 76 41 70 42 72 43 20 44
REMARK SMILES IDX 75 45 69 46 68 47 21 49 55 50 34 51 54 52 35 53 38 54 53 55
REMARK SMILES IDX 73 56 36 57 37 58 52 60 74 61 39 62 22 63 23 64 32 65 24 66
REMARK SMILES IDX 25 67 31 68 33 69 26 70 27 71 28 72 29 73 30 74 56 75 57 76
REMARK SMILES IDX 66 77 58 78 59 79 65 80 67 81 60 82 61 83 62 84 63 85 64 86
REMARK SMILES IDX 40 87 41 88 50 89 42 90 43 91 49 92 51 93 44 94 45 95 46 96
REMARK SMILES IDX 47 97 48 98
REMARK H PARENT 3 8 10 29 72 48 38 59
REMARK Flexibility Score: inf
ROOT
ATOM      1  C   UNL A   1      34.183  29.546  27.301  1.00  0.00     0.002 C 
ENDROOT
BRANCH   1   2
ATOM      2  C   UNL A   1      33.122  29.117  26.280  1.00  0.00     0.002 C 
BRANCH   2   3
ATOM      3  C   UNL A   1      33.628  28.615  24.926  1.00  0.00     0.021 C 
BRANCH   3   4
ATOM      4  C   UNL A   1      32.609  27.897  24.048  1.00  0.00     0.116 C 
BRANCH   4   5
ATOM      5  N   UNL A   1      33.149  26.941  23.100  1.00  0.00    -0.352 N 
ATOM      6  O   UNL A   1      34.046  24.986  22.420  1.00  0.00    -0.270 OA
ATOM      7  C   UNL A   1      33.542  25.647  23.324  1.00  0.00     0.251 C 
ATOM      8  H   UNL A   1      33.245  27.264  22.176  1.00  0.00     0.163 HD
BRANCH   7   9
ATOM      9  C   UNL A   1      33.397  25.034  24.669  1.00  0.00     0.067 C 
ATOM     10  C   UNL A   1      34.516  24.743  25.354  1.00  0.00     0.027 C 
ATOM     11  C   UNL A   1      32.119  24.293  24.945  1.00  0.00     0.314 C 
ATOM     12  C   UNL A   1      34.741  23.274  25.389  1.00  0.00     0.037 A 
ATOM     13  O   UNL A   1      32.332  22.871  25.201  1.00  0.00    -0.475 OA
ATOM     14  C   UNL A   1      33.629  22.421  25.262  1.00  0.00     0.129 A 
ATOM     15  C   UNL A   1      36.044  22.740  25.355  1.00  0.00     0.070 A 
ATOM     16  C   UNL A   1      33.812  21.056  25.057  1.00  0.00     0.049 A 
ATOM     17  C   UNL A   1      36.217  21.371  25.114  1.00  0.00     0.060 A 
ATOM     18  Cl  UNL A   1      37.411  23.799  25.511  1.00  0.00    -0.082 Cl
ATOM     19  C   UNL A   1      35.104  20.537  24.956  1.00  0.00     0.026 A 
ATOM     20  Cl  UNL A   1      37.779  20.658  24.912  1.00  0.00    -0.083 Cl
BRANCH  11  21
ATOM     21  C   UNL A   1      31.297  24.931  26.085  1.00  0.00     0.429 C 
ATOM     22  F   UNL A   1      31.867  26.053  26.586  1.00  0.00    -0.167 F 
ATOM     23  F   UNL A   1      30.058  25.276  25.656  1.00  0.00    -0.167 F 
ATOM     24  F   UNL A   1      31.131  24.085  27.131  1.00  0.00    -0.167 F 
ENDBRANCH  11  21
ENDBRANCH   7   9
ENDBRANCH   4   5
ENDBRANCH   3   4
ENDBRANCH   2   3
ENDBRANCH   1   2
BRANCH   1  25
ATOM     25  C   UNL A   1      34.325  31.048  27.565  1.00  0.00     0.021 C 
BRANCH  25  26
ATOM     26  C   UNL A   1      35.555  31.487  28.355  1.00  0.00     0.116 C 
BRANCH  26  27
ATOM     27  N   UNL A   1      35.470  31.162  29.767  1.00  0.00    -0.352 N 
ATOM     28  C   UNL A   1      36.364  30.521  30.593  1.00  0.00     0.251 C 
ATOM     29  H   UNL A   1      34.636  31.446  30.205  1.00  0.00     0.163 HD
ATOM     30  O   UNL A   1      36.013  30.223  31.731  1.00  0.00    -0.269 OA
BRANCH  28  31
ATOM     31  C   UNL A   1      37.729  30.170  30.131  1.00  0.00     0.039 A 
ATOM     32  C   UNL A   1      38.723  29.951  31.091  1.00  0.00     0.014 A 
ATOM     33  C   UNL A   1      38.059  30.106  28.774  1.00  0.00     0.014 A 
ATOM     34  C   UNL A   1      40.022  29.617  30.694  1.00  0.00     0.010 A 
ATOM     35  C   UNL A   1      39.335  29.701  28.380  1.00  0.00     0.010 A 
ATOM     36  C   UNL A   1      40.335  29.458  29.335  1.00  0.00    -0.014 A 
BRANCH  36  37
ATOM     37  C   UNL A   1      41.699  29.049  28.901  1.00  0.00     0.031 A 
ATOM     38  C   UNL A   1      42.809  30.063  28.816  1.00  0.00     0.074 A 
ATOM     39  C   UNL A   1      41.928  27.773  28.531  1.00  0.00     0.049 A 
ATOM     40  N   UNL A   1      44.042  29.908  28.403  1.00  0.00    -0.248 NA
ATOM     41  C   UNL A   1      42.485  31.438  29.229  1.00  0.00     0.031 C 
ATOM     42  C   UNL A   1      40.928  26.703  28.522  1.00  0.00     0.029 A 
ATOM     43  N   UNL A   1      43.071  27.159  28.080  1.00  0.00    -0.354 N 
ATOM     44  C   UNL A   1      44.636  31.162  28.499  1.00  0.00     0.074 A 
ATOM     45  C   UNL A   1      43.611  32.078  28.951  1.00  0.00     0.031 C 
ATOM     46  C   UNL A   1      41.502  25.565  28.102  1.00  0.00     0.029 A 
ATOM     47  C   UNL A   1      42.901  25.829  27.776  1.00  0.00     0.049 A 
ATOM     48  H   UNL A   1      43.932  27.628  27.985  1.00  0.00     0.167 HD
ATOM     49  C   UNL A   1      45.924  31.514  28.259  1.00  0.00     0.037 A 
ATOM     50  C   UNL A   1      43.767  24.924  27.278  1.00  0.00     0.037 A 
ATOM     51  C   UNL A   1      46.944  30.596  27.822  1.00  0.00     0.049 A 
ATOM     52  C   UNL A   1      45.188  25.337  27.008  1.00  0.00     0.074 A 
ATOM     53  C   UNL A   1      48.285  30.845  27.589  1.00  0.00     0.029 A 
ATOM     54  N   UNL A   1      46.736  29.251  27.545  1.00  0.00    -0.354 N 
ATOM     55  N   UNL A   1      45.746  26.514  27.158  1.00  0.00    -0.248 NA
ATOM     56  C   UNL A   1      46.102  24.297  26.513  1.00  0.00     0.031 C 
ATOM     57  C   UNL A   1      48.878  29.665  27.129  1.00  0.00     0.029 A 
ATOM     58  C   UNL A   1      47.919  28.665  27.127  1.00  0.00     0.049 A 
ATOM     59  H   UNL A   1      45.875  28.783  27.634  1.00  0.00     0.167 HD
ATOM     60  C   UNL A   1      47.080  26.353  26.799  1.00  0.00     0.074 A 
ATOM     61  C   UNL A   1      47.248  24.960  26.438  1.00  0.00     0.031 C 
ATOM     62  C   UNL A   1      48.074  27.274  26.770  1.00  0.00     0.037 A 
BRANCH  49  63
ATOM     63  C   UNL A   1      46.300  32.958  28.470  1.00  0.00     0.058 A 
ATOM     64  C   UNL A   1      46.214  33.900  27.432  1.00  0.00     0.135 A 
ATOM     65  C   UNL A   1      46.732  33.411  29.727  1.00  0.00     0.135 A 
ATOM     66  F   UNL A   1      45.818  33.523  26.206  1.00  0.00    -0.206 F 
ATOM     67  C   UNL A   1      46.584  35.228  27.620  1.00  0.00     0.059 A 
ATOM     68  C   UNL A   1      47.078  34.742  29.946  1.00  0.00     0.059 A 
ATOM     69  F   UNL A   1      46.830  32.556  30.757  1.00  0.00    -0.206 F 
ATOM     70  C   UNL A   1      47.020  35.639  28.880  1.00  0.00     0.060 A 
BRANCH  70  71
ATOM     71  S   UNL A   1      47.513  37.361  29.103  1.00  0.00     0.124 S 
ATOM     72  O   UNL A   1      46.810  38.008  27.999  1.00  0.00    -0.237 OA
ATOM     73  O   UNL A   1      47.008  37.661  30.438  1.00  0.00    -0.237 OA
ATOM     74  O   UNL A   1      48.967  37.317  28.979  1.00  0.00    -0.744 OA
ENDBRANCH  70  71
ENDBRANCH  49  63
BRANCH  50  75
ATOM     75  C   UNL A   1      43.307  23.533  27.012  1.00  0.00     0.058 A 
ATOM     76  C   UNL A   1      43.069  23.083  25.706  1.00  0.00     0.135 A 
ATOM     77  C   UNL A   1      43.124  22.619  28.061  1.00  0.00     0.135 A 
ATOM     78  F   UNL A   1      43.222  23.922  24.670  1.00  0.00    -0.206 F 
ATOM     79  C   UNL A   1      42.657  21.780  25.447  1.00  0.00     0.059 A 
ATOM     80  C   UNL A   1      42.739  21.302  27.826  1.00  0.00     0.059 A 
ATOM     81  F   UNL A   1      43.352  22.994  29.330  1.00  0.00    -0.206 F 
ATOM     82  C   UNL A   1      42.501  20.894  26.515  1.00  0.00     0.060 A 
BRANCH  82  83
ATOM     83  S   UNL A   1      42.026  19.188  26.163  1.00  0.00     0.124 S 
ATOM     84  O   UNL A   1      42.854  18.886  25.001  1.00  0.00    -0.237 OA
ATOM     85  O   UNL A   1      42.390  18.507  27.401  1.00  0.00    -0.237 OA
ATOM     86  O   UNL A   1      40.592  19.285  25.907  1.00  0.00    -0.744 OA
ENDBRANCH  82  83
ENDBRANCH  50  75
BRANCH  62  87
ATOM     87  C   UNL A   1      49.446  26.806  26.363  1.00  0.00     0.058 A 
ATOM     88  C   UNL A   1      50.297  26.143  27.260  1.00  0.00     0.135 A 
ATOM     89  C   UNL A   1      49.891  26.978  25.042  1.00  0.00     0.135 A 
ATOM     90  F   UNL A   1      49.924  25.958  28.536  1.00  0.00    -0.206 F 
ATOM     91  C   UNL A   1      51.552  25.686  26.868  1.00  0.00     0.059 A 
ATOM     92  C   UNL A   1      51.130  26.503  24.621  1.00  0.00     0.059 A 
ATOM     93  F   UNL A   1      49.113  27.597  24.141  1.00  0.00    -0.206 F 
ATOM     94  C   UNL A   1      51.958  25.869  25.545  1.00  0.00     0.060 A 
BRANCH  94  95
ATOM     95  S   UNL A   1      53.574  25.239  25.041  1.00  0.00     0.124 S 
ATOM     96  O   UNL A   1      53.450  23.821  25.361  1.00  0.00    -0.237 OA
ATOM     97  O   UNL A   1      53.609  25.570  23.620  1.00  0.00    -0.237 OA
ATOM     98  O   UNL A   1      54.507  25.992  25.875  1.00  0.00    -0.744 OA
ENDBRANCH  94  95
ENDBRANCH  62  87
ENDBRANCH  36  37
ENDBRANCH  28  31
ENDBRANCH  26  27
ENDBRANCH  25  26
ENDBRANCH   1  25
TORSDOF 17
ENDMDL
MODEL 2
REMARK VINA RESULT:     -12.0      6.517     11.929
REMARK SMILES O=C(NCCCCCCNC(=O)c1ccc(-c2c3nc(c(-c4c(F)cc(S(=O)(=O)[O-])cc4F)c4ccc([nH]4)c(-c4c(F)cc(S(=O)(=O)[O-])cc4F)c4nc(c(-c5c(F)cc(S(=O)(=O)[O-])cc5F)c5ccc2[nH]5)C=C4)C=C3)cc1)C1=Cc2c(ccc(Cl)c2Cl)O[C@H]1C(F)(F)F
REMARK SMILES IDX 7 1 6 2 5 3 4 4 3 5 1 6 2 7 79 9 80 10 90 11 81 12 89 13
REMARK SMILES IDX 82 14 87 15 83 16 85 17 88 18 84 19 86 20 91 21 92 22 93 23
REMARK SMILES IDX 94 24 8 25 9 26 10 27 11 28 12 30 13 31 14 32 78 33 15 34
REMARK SMILES IDX 77 35 16 36 17 37 18 38 71 39 19 40 76 41 70 42 72 43 20 44
REMARK SMILES IDX 75 45 69 46 68 47 21 49 55 50 34 51 54 52 35 53 38 54 53 55
REMARK SMILES IDX 73 56 36 57 37 58 52 60 74 61 39 62 22 63 23 64 32 65 24 66
REMARK SMILES IDX 25 67 31 68 33 69 26 70 27 71 28 72 29 73 30 74 56 75 57 76
REMARK SMILES IDX 66 77 58 78 59 79 65 80 67 81 60 82 61 83 62 84 63 85 64 86
REMARK SMILES IDX 40 87 41 88 50 89 42 90 43 91 49 92 51 93 44 94 45 95 46 96
REMARK SMILES IDX 47 97 48 98
REMARK H PARENT 3 8 10 29 72 48 38 59
REMARK Flexibility Score: inf
ROOT
ATOM      1  C   UNL A   1      36.428  23.362  26.119  1.00  0.00     0.002 C 
ENDROOT
BRANCH   1   2
ATOM      2  C   UNL A   1      35.532  22.117  26.112  1.00  0.00     0.002 C 
BRANCH   2   3
ATOM      3  C   UNL A   1      34.530  21.980  27.260  1.00  0.00     0.021 C 
BRANCH   3   4
ATOM      4  C   UNL A   1      33.166  21.400  26.901  1.00  0.00     0.116 C 
BRANCH   4   5
ATOM      5  N   UNL A   1      32.017  22.204  27.271  1.00  0.00    -0.352 N 
ATOM      6  O   UNL A   1      30.550  23.910  27.110  1.00  0.00    -0.270 OA
ATOM      7  C   UNL A   1      31.495  23.295  26.625  1.00  0.00     0.251 C 
ATOM      8  H   UNL A   1      31.550  21.930  28.093  1.00  0.00     0.163 HD
BRANCH   7   9
ATOM      9  C   UNL A   1      32.085  23.771  25.348  1.00  0.00     0.067 C 
ATOM     10  C   UNL A   1      32.851  24.875  25.378  1.00  0.00     0.027 C 
ATOM     11  C   UNL A   1      31.385  23.363  24.081  1.00  0.00     0.314 C 
ATOM     12  C   UNL A   1      32.138  26.025  24.762  1.00  0.00     0.037 A 
ATOM     13  O   UNL A   1      30.856  24.501  23.334  1.00  0.00    -0.475 OA
ATOM     14  C   UNL A   1      31.143  25.760  23.802  1.00  0.00     0.129 A 
ATOM     15  C   UNL A   1      32.310  27.332  25.255  1.00  0.00     0.070 A 
ATOM     16  C   UNL A   1      30.296  26.778  23.372  1.00  0.00     0.049 A 
ATOM     17  C   UNL A   1      31.431  28.341  24.842  1.00  0.00     0.060 A 
ATOM     18  Cl  UNL A   1      33.539  27.649  26.440  1.00  0.00    -0.082 Cl
ATOM     19  C   UNL A   1      30.422  28.060  23.912  1.00  0.00     0.026 A 
ATOM     20  Cl  UNL A   1      31.477  29.936  25.505  1.00  0.00    -0.083 Cl
BRANCH  11  21
ATOM     21  C   UNL A   1      32.268  22.482  23.173  1.00  0.00     0.429 C 
ATOM     22  F   UNL A   1      31.605  21.420  22.657  1.00  0.00    -0.167 F 
ATOM     23  F   UNL A   1      32.748  23.194  22.124  1.00  0.00    -0.167 F 
ATOM     24  F   UNL A   1      33.341  21.980  23.833  1.00  0.00    -0.167 F 
ENDBRANCH  11  21
ENDBRANCH   7   9
ENDBRANCH   4   5
ENDBRANCH   3   4
ENDBRANCH   2   3
ENDBRANCH   1   2
BRANCH   1  25
ATOM     25  C   UNL A   1      37.897  23.162  25.736  1.00  0.00     0.021 C 
BRANCH  25  26
ATOM     26  C   UNL A   1      38.936  23.696  26.719  1.00  0.00     0.116 C 
BRANCH  26  27
ATOM     27  N   UNL A   1      40.234  23.916  26.109  1.00  0.00    -0.352 N 
ATOM     28  C   UNL A   1      41.186  24.878  26.355  1.00  0.00     0.251 C 
ATOM     29  H   UNL A   1      40.473  23.273  25.403  1.00  0.00     0.163 HD
ATOM     30  O   UNL A   1      42.157  24.960  25.607  1.00  0.00    -0.269 OA
BRANCH  28  31
ATOM     31  C   UNL A   1      41.053  25.826  27.490  1.00  0.00     0.039 A 
ATOM     32  C   UNL A   1      42.037  26.806  27.658  1.00  0.00     0.014 A 
ATOM     33  C   UNL A   1      40.011  25.730  28.416  1.00  0.00     0.014 A 
ATOM     34  C   UNL A   1      41.946  27.718  28.715  1.00  0.00     0.010 A 
ATOM     35  C   UNL A   1      39.881  26.685  29.427  1.00  0.00     0.010 A 
ATOM     36  C   UNL A   1      40.851  27.686  29.593  1.00  0.00    -0.014 A 
BRANCH  36  37
ATOM     37  C   UNL A   1      40.713  28.684  30.690  1.00  0.00     0.031 A 
ATOM     38  C   UNL A   1      41.568  28.584  31.925  1.00  0.00     0.074 A 
ATOM     39  C   UNL A   1      39.780  29.653  30.598  1.00  0.00     0.049 A 
ATOM     40  N   UNL A   1      41.548  29.322  33.007  1.00  0.00    -0.248 NA
ATOM     41  C   UNL A   1      42.560  27.498  31.960  1.00  0.00     0.031 C 
ATOM     42  C   UNL A   1      38.855  29.832  29.475  1.00  0.00     0.029 A 
ATOM     43  N   UNL A   1      39.444  30.663  31.466  1.00  0.00    -0.354 N 
ATOM     44  C   UNL A   1      42.515  28.786  33.850  1.00  0.00     0.074 A 
ATOM     45  C   UNL A   1      43.060  27.625  33.179  1.00  0.00     0.031 C 
ATOM     46  C   UNL A   1      38.070  30.894  29.716  1.00  0.00     0.029 A 
ATOM     47  C   UNL A   1      38.405  31.449  31.024  1.00  0.00     0.049 A 
ATOM     48  H   UNL A   1      39.904  30.810  32.323  1.00  0.00     0.167 HD
ATOM     49  C   UNL A   1      42.933  29.235  35.060  1.00  0.00     0.037 A 
ATOM     50  C   UNL A   1      37.782  32.492  31.609  1.00  0.00     0.037 A 
ATOM     51  C   UNL A   1      42.397  30.399  35.718  1.00  0.00     0.049 A 
ATOM     52  C   UNL A   1      38.252  32.968  32.956  1.00  0.00     0.074 A 
ATOM     53  C   UNL A   1      42.778  30.958  36.925  1.00  0.00     0.029 A 
ATOM     54  N   UNL A   1      41.360  31.181  35.227  1.00  0.00    -0.354 N 
ATOM     55  N   UNL A   1      39.207  32.483  33.714  1.00  0.00    -0.248 NA
ATOM     56  C   UNL A   1      37.571  34.139  33.524  1.00  0.00     0.031 C 
ATOM     57  C   UNL A   1      41.943  32.050  37.186  1.00  0.00     0.029 A 
ATOM     58  C   UNL A   1      41.077  32.205  36.117  1.00  0.00     0.049 A 
ATOM     59  H   UNL A   1      40.895  31.031  34.373  1.00  0.00     0.167 HD
ATOM     60  C   UNL A   1      39.257  33.303  34.836  1.00  0.00     0.074 A 
ATOM     61  C   UNL A   1      38.245  34.323  34.651  1.00  0.00     0.031 C 
ATOM     62  C   UNL A   1      40.066  33.218  35.921  1.00  0.00     0.037 A 
BRANCH  49  63
ATOM     63  C   UNL A   1      44.028  28.462  35.748  1.00  0.00     0.058 A 
ATOM     64  C   UNL A   1      43.742  27.417  36.642  1.00  0.00     0.135 A 
ATOM     65  C   UNL A   1      45.379  28.754  35.499  1.00  0.00     0.135 A 
ATOM     66  F   UNL A   1      42.469  27.100  36.927  1.00  0.00    -0.206 F 
ATOM     67  C   UNL A   1      44.753  26.719  37.295  1.00  0.00     0.059 A 
ATOM     68  C   UNL A   1      46.407  28.048  36.118  1.00  0.00     0.059 A 
ATOM     69  F   UNL A   1      45.712  29.740  34.651  1.00  0.00    -0.206 F 
ATOM     70  C   UNL A   1      46.083  27.045  37.030  1.00  0.00     0.060 A 
BRANCH  70  71
ATOM     71  S   UNL A   1      47.382  26.142  37.900  1.00  0.00     0.124 S 
ATOM     72  O   UNL A   1      46.920  24.764  37.759  1.00  0.00    -0.237 OA
ATOM     73  O   UNL A   1      48.573  26.492  37.134  1.00  0.00    -0.237 OA
ATOM     74  O   UNL A   1      47.326  26.686  39.253  1.00  0.00    -0.744 OA
ENDBRANCH  70  71
ENDBRANCH  49  63
BRANCH  50  75
ATOM     75  C   UNL A   1      36.649  33.159  30.910  1.00  0.00     0.058 A 
ATOM     76  C   UNL A   1      35.334  33.036  31.379  1.00  0.00     0.135 A 
ATOM     77  C   UNL A   1      36.867  33.955  29.775  1.00  0.00     0.135 A 
ATOM     78  F   UNL A   1      35.073  32.279  32.456  1.00  0.00    -0.206 F 
ATOM     79  C   UNL A   1      34.271  33.671  30.744  1.00  0.00     0.059 A 
ATOM     80  C   UNL A   1      35.825  34.622  29.139  1.00  0.00     0.059 A 
ATOM     81  F   UNL A   1      38.110  34.117  29.294  1.00  0.00    -0.206 F 
ATOM     82  C   UNL A   1      34.528  34.468  29.626  1.00  0.00     0.060 A 
BRANCH  82  83
ATOM     83  S   UNL A   1      33.150  35.337  28.846  1.00  0.00     0.124 S 
ATOM     84  O   UNL A   1      32.544  34.274  28.054  1.00  0.00    -0.237 OA
ATOM     85  O   UNL A   1      32.383  35.791  30.001  1.00  0.00    -0.237 OA
ATOM     86  O   UNL A   1      33.809  36.394  28.085  1.00  0.00    -0.744 OA
ENDBRANCH  82  83
ENDBRANCH  50  75
BRANCH  62  87
ATOM     87  C   UNL A   1      39.917  34.272  36.985  1.00  0.00     0.058 A 
ATOM     88  C   UNL A   1      40.538  35.525  36.876  1.00  0.00     0.135 A 
ATOM     89  C   UNL A   1      39.098  34.041  38.102  1.00  0.00     0.135 A 
ATOM     90  F   UNL A   1      41.338  35.796  35.832  1.00  0.00    -0.206 F 
ATOM     91  C   UNL A   1      40.372  36.506  37.850  1.00  0.00     0.059 A 
ATOM     92  C   UNL A   1      38.894  35.018  39.073  1.00  0.00     0.059 A 
ATOM     93  F   UNL A   1      38.472  32.864  38.251  1.00  0.00    -0.206 F 
ATOM     94  C   UNL A   1      39.545  36.243  38.943  1.00  0.00     0.060 A 
BRANCH  94  95
ATOM     95  S   UNL A   1      39.310  37.538  40.180  1.00  0.00     0.124 S 
ATOM     96  O   UNL A   1      40.626  38.166  40.202  1.00  0.00    -0.237 OA
ATOM     97  O   UNL A   1      38.235  38.335  39.597  1.00  0.00    -0.237 OA
ATOM     98  O   UNL A   1      38.948  36.796  41.384  1.00  0.00    -0.744 OA
ENDBRANCH  94  95
ENDBRANCH  62  87
ENDBRANCH  36  37
ENDBRANCH  28  31
ENDBRANCH  26  27
ENDBRANCH  25  26
ENDBRANCH   1  25
TORSDOF 17
ENDMDL
MODEL 3
REMARK VINA RESULT:     -11.8      1.383      2.210
REMARK SMILES O=C(NCCCCCCNC(=O)c1ccc(-c2c3nc(c(-c4c(F)cc(S(=O)(=O)[O-])cc4F)c4ccc([nH]4)c(-c4c(F)cc(S(=O)(=O)[O-])cc4F)c4nc(c(-c5c(F)cc(S(=O)(=O)[O-])cc5F)c5ccc2[nH]5)C=C4)C=C3)cc1)C1=Cc2c(ccc(Cl)c2Cl)O[C@H]1C(F)(F)F
REMARK SMILES IDX 7 1 6 2 5 3 4 4 3 5 1 6 2 7 79 9 80 10 90 11 81 12 89 13
REMARK SMILES IDX 82 14 87 15 83 16 85 17 88 18 84 19 86 20 91 21 92 22 93 23
REMARK SMILES IDX 94 24 8 25 9 26 10 27 11 28 12 30 13 31 14 32 78 33 15 34
REMARK SMILES IDX 77 35 16 36 17 37 18 38 71 39 19 40 76 41 70 42 72 43 20 44
REMARK SMILES IDX 75 45 69 46 68 47 21 49 55 50 34 51 54 52 35 53 38 54 53 55
REMARK SMILES IDX 73 56 36 57 37 58 52 60 74 61 39 62 22 63 23 64 32 65 24 66
REMARK SMILES IDX 25 67 31 68 33 69 26 70 27 71 28 72 29 73 30 74 56 75 57 76
REMARK SMILES IDX 66 77 58 78 59 79 65 80 67 81 60 82 61 83 62 84 63 85 64 86
REMARK SMILES IDX 40 87 41 88 50 89 42 90 43 91 49 92 51 93 44 94 45 95 46 96
REMARK SMILES IDX 47 97 48 98
REMARK H PARENT 3 8 10 29 72 48 38 59
REMARK Flexibility Score: inf
ROOT
ATOM      1  C   UNL A   1      32.588  28.975  27.203  1.00  0.00     0.002 C 
ENDROOT
BRANCH   1   2
ATOM      2  C   UNL A   1      32.296  27.512  26.848  1.00  0.00     0.002 C 
BRANCH   2   3
ATOM      3  C   UNL A   1      30.871  27.180  26.402  1.00  0.00     0.021 C 
BRANCH   3   4
ATOM      4  C   UNL A   1      30.593  25.721  26.056  1.00  0.00     0.116 C 
BRANCH   4   5
ATOM      5  N   UNL A   1      31.175  24.736  26.947  1.00  0.00    -0.352 N 
ATOM      6  O   UNL A   1      32.477  22.987  27.527  1.00  0.00    -0.270 OA
ATOM      7  C   UNL A   1      32.139  23.801  26.672  1.00  0.00     0.251 C 
ATOM      8  H   UNL A   1      30.834  24.739  27.870  1.00  0.00     0.163 HD
BRANCH   7   9
ATOM      9  C   UNL A   1      32.765  23.733  25.326  1.00  0.00     0.067 C 
ATOM     10  C   UNL A   1      32.575  22.620  24.596  1.00  0.00     0.027 C 
ATOM     11  C   UNL A   1      33.967  24.604  25.090  1.00  0.00     0.314 C 
ATOM     12  C   UNL A   1      33.822  21.813  24.537  1.00  0.00     0.037 A 
ATOM     13  O   UNL A   1      35.178  23.836  24.812  1.00  0.00    -0.475 OA
ATOM     14  C   UNL A   1      35.055  22.472  24.697  1.00  0.00     0.129 A 
ATOM     15  C   UNL A   1      33.773  20.407  24.516  1.00  0.00     0.070 A 
ATOM     16  C   UNL A   1      36.223  21.737  24.879  1.00  0.00     0.049 A 
ATOM     17  C   UNL A   1      34.949  19.677  24.735  1.00  0.00     0.060 A 
ATOM     18  Cl  UNL A   1      32.247  19.602  24.320  1.00  0.00    -0.082 Cl
ATOM     19  C   UNL A   1      36.166  20.343  24.926  1.00  0.00     0.026 A 
ATOM     20  Cl  UNL A   1      34.956  17.954  24.870  1.00  0.00    -0.083 Cl
BRANCH  11  21
ATOM     21  C   UNL A   1      33.729  25.658  23.989  1.00  0.00     0.429 C 
ATOM     22  F   UNL A   1      32.418  25.837  23.700  1.00  0.00    -0.167 F 
ATOM     23  F   UNL A   1      34.220  26.867  24.360  1.00  0.00    -0.167 F 
ATOM     24  F   UNL A   1      34.337  25.327  22.824  1.00  0.00    -0.167 F 
ENDBRANCH  11  21
ENDBRANCH   7   9
ENDBRANCH   4   5
ENDBRANCH   3   4
ENDBRANCH   2   3
ENDBRANCH   1   2
BRANCH   1  25
ATOM     25  C   UNL A   1      33.962  29.524  26.808  1.00  0.00     0.021 C 
BRANCH  25  26
ATOM     26  C   UNL A   1      35.121  29.200  27.747  1.00  0.00     0.116 C 
BRANCH  26  27
ATOM     27  N   UNL A   1      35.197  30.094  28.887  1.00  0.00    -0.352 N 
ATOM     28  C   UNL A   1      36.258  30.423  29.698  1.00  0.00     0.251 C 
ATOM     29  H   UNL A   1      34.350  30.539  29.119  1.00  0.00     0.163 HD
ATOM     30  O   UNL A   1      36.052  31.096  30.704  1.00  0.00    -0.269 OA
BRANCH  28  31
ATOM     31  C   UNL A   1      37.637  29.965  29.392  1.00  0.00     0.039 A 
ATOM     32  C   UNL A   1      38.039  29.912  28.053  1.00  0.00     0.014 A 
ATOM     33  C   UNL A   1      38.515  29.539  30.392  1.00  0.00     0.014 A 
ATOM     34  C   UNL A   1      39.331  29.488  27.725  1.00  0.00     0.010 A 
ATOM     35  C   UNL A   1      39.827  29.186  30.070  1.00  0.00     0.010 A 
ATOM     36  C   UNL A   1      40.249  29.149  28.732  1.00  0.00    -0.014 A 
BRANCH  36  37
ATOM     37  C   UNL A   1      41.644  28.747  28.400  1.00  0.00     0.031 A 
ATOM     38  C   UNL A   1      42.742  29.776  28.343  1.00  0.00     0.074 A 
ATOM     39  C   UNL A   1      41.915  27.462  28.098  1.00  0.00     0.049 A 
ATOM     40  N   UNL A   1      44.000  29.626  28.014  1.00  0.00    -0.248 NA
ATOM     41  C   UNL A   1      42.372  31.160  28.678  1.00  0.00     0.031 C 
ATOM     42  C   UNL A   1      40.933  26.375  28.069  1.00  0.00     0.029 A 
ATOM     43  N   UNL A   1      43.093  26.851  27.744  1.00  0.00    -0.354 N 
ATOM     44  C   UNL A   1      44.568  30.893  28.095  1.00  0.00     0.074 A 
ATOM     45  C   UNL A   1      43.503  31.808  28.445  1.00  0.00     0.031 C 
ATOM     46  C   UNL A   1      41.550  25.231  27.733  1.00  0.00     0.029 A 
ATOM     47  C   UNL A   1      42.962  25.506  27.484  1.00  0.00     0.049 A 
ATOM     48  H   UNL A   1      43.951  27.330  27.683  1.00  0.00     0.167 HD
ATOM     49  C   UNL A   1      45.863  31.258  27.921  1.00  0.00     0.037 A 
ATOM     50  C   UNL A   1      43.871  24.597  27.078  1.00  0.00     0.037 A 
ATOM     51  C   UNL A   1      46.922  30.341  27.586  1.00  0.00     0.049 A 
ATOM     52  C   UNL A   1      45.300  25.024  26.880  1.00  0.00     0.074 A 
ATOM     53  C   UNL A   1      48.271  30.605  27.427  1.00  0.00     0.029 A 
ATOM     54  N   UNL A   1      46.752  28.983  27.352  1.00  0.00    -0.354 N 
ATOM     55  N   UNL A   1      45.830  26.216  27.016  1.00  0.00    -0.248 NA
ATOM     56  C   UNL A   1      46.258  23.982  26.486  1.00  0.00     0.031 C 
ATOM     57  C   UNL A   1      48.909  29.418  27.053  1.00  0.00     0.029 A 
ATOM     58  C   UNL A   1      47.968  28.401  27.032  1.00  0.00     0.049 A 
ATOM     59  H   UNL A   1      45.894  28.504  27.406  1.00  0.00     0.167 HD
ATOM     60  C   UNL A   1      47.186  26.064  26.747  1.00  0.00     0.074 A 
ATOM     61  C   UNL A   1      47.397  24.661  26.455  1.00  0.00     0.031 C 
ATOM     62  C   UNL A   1      48.166  27.001  26.743  1.00  0.00     0.037 A 
BRANCH  49  63
ATOM     63  C   UNL A   1      46.203  32.716  28.096  1.00  0.00     0.058 A 
ATOM     64  C   UNL A   1      46.092  33.630  27.036  1.00  0.00     0.135 A 
ATOM     65  C   UNL A   1      46.627  33.210  29.340  1.00  0.00     0.135 A 
ATOM     66  F   UNL A   1      45.702  33.213  25.820  1.00  0.00    -0.206 F 
ATOM     67  C   UNL A   1      46.429  34.971  27.191  1.00  0.00     0.059 A 
ATOM     68  C   UNL A   1      46.940  34.554  29.526  1.00  0.00     0.059 A 
ATOM     69  F   UNL A   1      46.749  32.383  30.391  1.00  0.00    -0.206 F 
ATOM     70  C   UNL A   1      46.857  35.423  28.439  1.00  0.00     0.060 A 
BRANCH  70  71
ATOM     71  S   UNL A   1      47.308  37.162  28.618  1.00  0.00     0.124 S 
ATOM     72  O   UNL A   1      46.141  37.693  29.316  1.00  0.00    -0.237 OA
ATOM     73  O   UNL A   1      48.535  37.087  29.403  1.00  0.00    -0.237 OA
ATOM     74  O   UNL A   1      47.473  37.614  27.240  1.00  0.00    -0.744 OA
ENDBRANCH  70  71
ENDBRANCH  49  63
BRANCH  50  75
ATOM     75  C   UNL A   1      43.450  23.189  26.841  1.00  0.00     0.058 A 
ATOM     76  C   UNL A   1      43.401  22.653  25.547  1.00  0.00     0.135 A 
ATOM     77  C   UNL A   1      43.114  22.345  27.911  1.00  0.00     0.135 A 
ATOM     78  F   UNL A   1      43.705  23.423  24.490  1.00  0.00    -0.206 F 
ATOM     79  C   UNL A   1      43.027  21.333  25.318  1.00  0.00     0.059 A 
ATOM     80  C   UNL A   1      42.763  21.013  27.711  1.00  0.00     0.059 A 
ATOM     81  F   UNL A   1      43.159  22.804  29.172  1.00  0.00    -0.206 F 
ATOM     82  C   UNL A   1      42.715  20.518  26.408  1.00  0.00     0.060 A 
BRANCH  82  83
ATOM     83  S   UNL A   1      42.290  18.789  26.105  1.00  0.00     0.124 S 
ATOM     84  O   UNL A   1      42.573  18.186  27.402  1.00  0.00    -0.237 OA
ATOM     85  O   UNL A   1      40.881  18.881  25.736  1.00  0.00    -0.237 OA
ATOM     86  O   UNL A   1      43.191  18.408  25.021  1.00  0.00    -0.744 OA
ENDBRANCH  82  83
ENDBRANCH  50  75
BRANCH  62  87
ATOM     87  C   UNL A   1      49.567  26.541  26.441  1.00  0.00     0.058 A 
ATOM     88  C   UNL A   1      50.116  26.639  25.153  1.00  0.00     0.135 A 
ATOM     89  C   UNL A   1      50.388  26.043  27.467  1.00  0.00     0.135 A 
ATOM     90  F   UNL A   1      49.373  27.100  24.134  1.00  0.00    -0.206 F 
ATOM     91  C   UNL A   1      51.422  26.238  24.888  1.00  0.00     0.059 A 
ATOM     92  C   UNL A   1      51.706  25.665  27.229  1.00  0.00     0.059 A 
ATOM     93  F   UNL A   1      49.916  25.937  28.719  1.00  0.00    -0.206 F 
ATOM     94  C   UNL A   1      52.210  25.755  25.933  1.00  0.00     0.060 A 
BRANCH  94  95
ATOM     95  S   UNL A   1      53.915  25.273  25.581  1.00  0.00     0.124 S 
ATOM     96  O   UNL A   1      54.028  25.609  24.166  1.00  0.00    -0.237 OA
ATOM     97  O   UNL A   1      54.673  26.118  26.498  1.00  0.00    -0.237 OA
ATOM     98  O   UNL A   1      53.935  23.847  25.892  1.00  0.00    -0.744 OA
ENDBRANCH  94  95
ENDBRANCH  62  87
ENDBRANCH  36  37
ENDBRANCH  28  31
ENDBRANCH  26  27
ENDBRANCH  25  26
ENDBRANCH   1  25
TORSDOF 17
ENDMDL
