MODEL 1
REMARK VINA RESULT:     -11.9      0.000      0.000
REMARK SMILES COC(=O)[C@]1(C)C[C@H](C(=O)NCCCCCCNC(=O)c2ccc(-c3c4nc(c(-c5c(F)cc(S(=O)(=O)[O-])cc5F)c5ccc([nH]5)c(-c5c(F)cc(S(=O)(=O)[O-])cc5F)c5nc(c(-c6c(F)cc(S(=O)(=O)[O-])cc6F)c6ccc3[nH]6)C=C5)C=C4)cc2)[C@H](c2ccccc2F)[N@@H+]1C
REMARK SMILES IDX 15 1 14 2 13 3 12 4 11 5 9 6 10 7 8 9 5 10 7 11 95 12 6 13
REMARK SMILES IDX 87 14 96 15 3 17 4 18 2 19 1 20 88 21 89 22 93 23 90 24
REMARK SMILES IDX 92 25 94 26 91 27 16 28 17 29 18 30 19 31 20 33 21 34 22 35
REMARK SMILES IDX 86 36 23 37 85 38 24 39 25 40 26 41 79 42 27 43 84 44 78 45
REMARK SMILES IDX 80 46 28 47 83 48 77 49 76 50 29 52 63 53 42 54 62 55 43 56
REMARK SMILES IDX 46 57 61 58 81 59 44 60 45 61 60 63 82 64 47 65 30 66 31 67
REMARK SMILES IDX 40 68 32 69 33 70 39 71 41 72 34 73 35 74 36 75 37 76 38 77
REMARK SMILES IDX 64 78 65 79 74 80 66 81 67 82 73 83 75 84 68 85 69 86 70 87
REMARK SMILES IDX 71 88 72 89 48 90 49 91 58 92 50 93 51 94 57 95 59 96 52 97
REMARK SMILES IDX 53 98 54 99 55 100 56 101
REMARK H PARENT 11 8 95 16 18 32 80 51 46 62
REMARK Flexibility Score: inf
ROOT
ATOM      1  C   UNL A   1      39.298  22.092  26.135  1.00  0.00     0.002 C 
ENDROOT
BRANCH   1   2
ATOM      2  C   UNL A   1      38.503  23.355  26.499  1.00  0.00     0.002 C 
BRANCH   2   3
ATOM      3  C   UNL A   1      37.214  23.640  25.721  1.00  0.00     0.021 C 
BRANCH   3   4
ATOM      4  C   UNL A   1      36.959  22.754  24.497  1.00  0.00     0.116 C 
BRANCH   4   5
ATOM      5  N   UNL A   1      35.988  23.270  23.556  1.00  0.00    -0.356 N 
ATOM      6  C   UNL A   1      34.860  24.015  23.700  1.00  0.00     0.229 C 
ATOM      7  O   UNL A   1      34.356  24.396  22.629  1.00  0.00    -0.275 OA
ATOM      8  H   UNL A   1      36.183  23.034  22.621  1.00  0.00     0.163 HD
BRANCH   6   9
ATOM      9  C   UNL A   1      34.122  24.357  25.010  1.00  0.00     0.148 C 
ATOM     10  C   UNL A   1      32.043  25.585  25.419  1.00  0.00     0.194 C 
ATOM     11  C   UNL A   1      33.561  25.756  25.244  1.00  0.00     0.101 C 
ATOM     12  N   UNL A   1      31.954  24.259  26.058  1.00  0.00    -0.317 N 
ATOM     13  C   UNL A   1      31.511  26.708  26.325  1.00  0.00     0.092 C 
ATOM     14  C   UNL A   1      33.056  23.387  25.604  1.00  0.00     0.231 C 
ATOM     15  C   UNL A   1      30.635  23.751  26.353  1.00  0.00     0.334 C 
ATOM     16  H   UNL A   1      32.153  24.339  27.056  1.00  0.00     0.349 HD
BRANCH  10  17
ATOM     17  C   UNL A   1      31.301  25.601  24.063  1.00  0.00     0.367 C 
ATOM     18  O   UNL A   1      30.356  24.888  23.769  1.00  0.00    -0.245 OA
BRANCH  17  19
ATOM     19  O   UNL A   1      31.934  26.428  23.180  1.00  0.00    -0.464 OA
ATOM     20  C   UNL A   1      31.536  26.294  21.819  1.00  0.00     0.282 C 
ENDBRANCH  17  19
ENDBRANCH  10  17
BRANCH  14  21
ATOM     21  C   UNL A   1      32.906  22.022  24.957  1.00  0.00     0.046 A 
ATOM     22  C   UNL A   1      33.378  20.921  25.716  1.00  0.00     0.013 A 
ATOM     23  C   UNL A   1      32.352  21.710  23.715  1.00  0.00     0.132 A 
ATOM     24  C   UNL A   1      33.332  19.605  25.246  1.00  0.00     0.001 A 
ATOM     25  C   UNL A   1      32.281  20.391  23.244  1.00  0.00     0.040 A 
ATOM     26  F   UNL A   1      31.839  22.644  22.911  1.00  0.00    -0.206 F 
ATOM     27  C   UNL A   1      32.780  19.338  24.003  1.00  0.00     0.003 A 
ENDBRANCH  14  21
ENDBRANCH   6   9
ENDBRANCH   4   5
ENDBRANCH   3   4
ENDBRANCH   2   3
ENDBRANCH   1   2
BRANCH   1  28
ATOM     28  C   UNL A   1      40.683  21.869  26.754  1.00  0.00     0.021 C 
BRANCH  28  29
ATOM     29  C   UNL A   1      41.436  23.076  27.297  1.00  0.00     0.116 C 
BRANCH  29  30
ATOM     30  N   UNL A   1      41.807  23.974  26.222  1.00  0.00    -0.352 N 
ATOM     31  C   UNL A   1      41.609  25.331  26.140  1.00  0.00     0.251 C 
ATOM     32  H   UNL A   1      42.258  23.558  25.453  1.00  0.00     0.163 HD
ATOM     33  O   UNL A   1      41.576  25.863  25.033  1.00  0.00    -0.269 OA
BRANCH  31  34
ATOM     34  C   UNL A   1      41.455  26.161  27.364  1.00  0.00     0.039 A 
ATOM     35  C   UNL A   1      40.312  25.997  28.152  1.00  0.00     0.014 A 
ATOM     36  C   UNL A   1      42.373  27.168  27.688  1.00  0.00     0.014 A 
ATOM     37  C   UNL A   1      40.091  26.832  29.251  1.00  0.00     0.010 A 
ATOM     38  C   UNL A   1      42.188  27.952  28.830  1.00  0.00     0.010 A 
ATOM     39  C   UNL A   1      41.029  27.817  29.608  1.00  0.00    -0.014 A 
BRANCH  39  40
ATOM     40  C   UNL A   1      40.780  28.721  30.766  1.00  0.00     0.031 A 
ATOM     41  C   UNL A   1      41.611  28.612  32.020  1.00  0.00     0.074 A 
ATOM     42  C   UNL A   1      39.797  29.641  30.692  1.00  0.00     0.049 A 
ATOM     43  N   UNL A   1      41.562  29.334  33.112  1.00  0.00    -0.248 NA
ATOM     44  C   UNL A   1      42.615  27.535  32.066  1.00  0.00     0.031 C 
ATOM     45  C   UNL A   1      38.886  29.812  29.558  1.00  0.00     0.029 A 
ATOM     46  N   UNL A   1      39.402  30.609  31.582  1.00  0.00    -0.354 N 
ATOM     47  C   UNL A   1      42.517  28.798  33.971  1.00  0.00     0.074 A 
ATOM     48  C   UNL A   1      43.087  27.651  33.299  1.00  0.00     0.031 C 
ATOM     49  C   UNL A   1      38.066  30.846  29.804  1.00  0.00     0.029 A 
ATOM     50  C   UNL A   1      38.368  31.393  31.123  1.00  0.00     0.049 A 
ATOM     51  H   UNL A   1      39.818  30.731  32.466  1.00  0.00     0.167 HD
ATOM     52  C   UNL A   1      42.903  29.236  35.195  1.00  0.00     0.037 A 
ATOM     53  C   UNL A   1      37.739  32.438  31.695  1.00  0.00     0.037 A 
ATOM     54  C   UNL A   1      42.344  30.391  35.851  1.00  0.00     0.049 A 
ATOM     55  C   UNL A   1      38.197  32.917  33.046  1.00  0.00     0.074 A 
ATOM     56  C   UNL A   1      42.700  30.949  37.066  1.00  0.00     0.029 A 
ATOM     57  N   UNL A   1      41.310  31.166  35.345  1.00  0.00    -0.354 N 
ATOM     58  N   UNL A   1      39.147  32.438  33.813  1.00  0.00    -0.248 NA
ATOM     59  C   UNL A   1      37.508  34.089  33.603  1.00  0.00     0.031 C 
ATOM     60  C   UNL A   1      41.849  32.030  37.320  1.00  0.00     0.029 A 
ATOM     61  C   UNL A   1      41.002  32.184  36.234  1.00  0.00     0.049 A 
ATOM     62  H   UNL A   1      40.860  31.015  34.483  1.00  0.00     0.167 HD
ATOM     63  C   UNL A   1      39.191  33.268  34.928  1.00  0.00     0.074 A 
ATOM     64  C   UNL A   1      38.183  34.289  34.726  1.00  0.00     0.031 C 
ATOM     65  C   UNL A   1      39.994  33.194  36.020  1.00  0.00     0.037 A 
BRANCH  52  66
ATOM     66  C   UNL A   1      43.986  28.465  35.907  1.00  0.00     0.058 A 
ATOM     67  C   UNL A   1      45.346  28.776  35.745  1.00  0.00     0.135 A 
ATOM     68  C   UNL A   1      43.659  27.428  36.796  1.00  0.00     0.135 A 
ATOM     69  F   UNL A   1      45.720  29.750  34.899  1.00  0.00    -0.206 F 
ATOM     70  C   UNL A   1      46.342  28.069  36.410  1.00  0.00     0.059 A 
ATOM     71  C   UNL A   1      44.638  26.726  37.498  1.00  0.00     0.059 A 
ATOM     72  F   UNL A   1      42.376  27.085  36.995  1.00  0.00    -0.206 F 
ATOM     73  C   UNL A   1      45.978  27.045  37.287  1.00  0.00     0.060 A 
BRANCH  73  74
ATOM     74  S   UNL A   1      47.283  26.141  38.146  1.00  0.00     0.124 S 
ATOM     75  O   UNL A   1      46.509  25.172  38.915  1.00  0.00    -0.237 OA
ATOM     76  O   UNL A   1      48.063  25.594  37.040  1.00  0.00    -0.237 OA
ATOM     77  O   UNL A   1      47.953  27.173  38.931  1.00  0.00    -0.744 OA
ENDBRANCH  73  74
ENDBRANCH  52  66
BRANCH  53  78
ATOM     78  C   UNL A   1      36.632  33.124  30.973  1.00  0.00     0.058 A 
ATOM     79  C   UNL A   1      35.294  32.946  31.358  1.00  0.00     0.135 A 
ATOM     80  C   UNL A   1      36.891  33.983  29.893  1.00  0.00     0.135 A 
ATOM     81  F   UNL A   1      34.993  32.131  32.380  1.00  0.00    -0.206 F 
ATOM     82  C   UNL A   1      34.251  33.580  30.688  1.00  0.00     0.059 A 
ATOM     83  C   UNL A   1      35.869  34.650  29.227  1.00  0.00     0.059 A 
ATOM     84  F   UNL A   1      38.155  34.203  29.498  1.00  0.00    -0.206 F 
ATOM     85  C   UNL A   1      34.551  34.433  29.625  1.00  0.00     0.060 A 
BRANCH  85  86
ATOM     86  S   UNL A   1      33.195  35.290  28.794  1.00  0.00     0.124 S 
ATOM     87  O   UNL A   1      32.436  35.807  29.927  1.00  0.00    -0.237 OA
ATOM     88  O   UNL A   1      33.905  36.283  27.994  1.00  0.00    -0.237 OA
ATOM     89  O   UNL A   1      32.545  34.228  28.031  1.00  0.00    -0.744 OA
ENDBRANCH  85  86
ENDBRANCH  53  78
BRANCH  65  90
ATOM     90  C   UNL A   1      39.842  34.271  37.060  1.00  0.00     0.058 A 
ATOM     91  C   UNL A   1      39.050  34.092  38.206  1.00  0.00     0.135 A 
ATOM     92  C   UNL A   1      40.513  35.497  36.914  1.00  0.00     0.135 A 
ATOM     93  F   UNL A   1      38.386  32.941  38.395  1.00  0.00    -0.206 F 
ATOM     94  C   UNL A   1      38.893  35.105  39.146  1.00  0.00     0.059 A 
ATOM     95  C   UNL A   1      40.397  36.512  37.859  1.00  0.00     0.059 A 
ATOM     96  F   UNL A   1      41.295  35.718  35.846  1.00  0.00    -0.206 F 
ATOM     97  C   UNL A   1      39.566  36.314  38.961  1.00  0.00     0.060 A 
BRANCH  97  98
ATOM     98  S   UNL A   1      39.350  37.623  40.185  1.00  0.00     0.124 S 
ATOM     99  O   UNL A   1      38.277  38.409  39.586  1.00  0.00    -0.237 OA
ATOM    100  O   UNL A   1      38.993  36.873  41.385  1.00  0.00    -0.237 OA
ATOM    101  O   UNL A   1      40.657  38.271  40.224  1.00  0.00    -0.744 OA
ENDBRANCH  97  98
ENDBRANCH  65  90
ENDBRANCH  39  40
ENDBRANCH  31  34
ENDBRANCH  29  30
ENDBRANCH  28  29
ENDBRANCH   1  28
TORSDOF 19
ENDMDL
MODEL 2
REMARK VINA RESULT:     -11.8      6.439     12.060
REMARK SMILES COC(=O)[C@]1(C)C[C@H](C(=O)NCCCCCCNC(=O)c2ccc(-c3c4nc(c(-c5c(F)cc(S(=O)(=O)[O-])cc5F)c5ccc([nH]5)c(-c5c(F)cc(S(=O)(=O)[O-])cc5F)c5nc(c(-c6c(F)cc(S(=O)(=O)[O-])cc6F)c6ccc3[nH]6)C=C5)C=C4)cc2)[C@H](c2ccccc2F)[N@@H+]1C
REMARK SMILES IDX 15 1 14 2 13 3 12 4 11 5 9 6 10 7 8 9 5 10 7 11 95 12 6 13
REMARK SMILES IDX 87 14 96 15 3 17 4 18 2 19 1 20 88 21 89 22 93 23 90 24
REMARK SMILES IDX 92 25 94 26 91 27 16 28 17 29 18 30 19 31 20 33 21 34 22 35
REMARK SMILES IDX 86 36 23 37 85 38 24 39 25 40 26 41 79 42 27 43 84 44 78 45
REMARK SMILES IDX 80 46 28 47 83 48 77 49 76 50 29 52 63 53 42 54 62 55 43 56
REMARK SMILES IDX 46 57 61 58 81 59 44 60 45 61 60 63 82 64 47 65 30 66 31 67
REMARK SMILES IDX 40 68 32 69 33 70 39 71 41 72 34 73 35 74 36 75 37 76 38 77
REMARK SMILES IDX 64 78 65 79 74 80 66 81 67 82 73 83 75 84 68 85 69 86 70 87
REMARK SMILES IDX 71 88 72 89 48 90 49 91 58 92 50 93 51 94 57 95 59 96 52 97
REMARK SMILES IDX 53 98 54 99 55 100 56 101
REMARK H PARENT 11 8 95 16 18 32 80 51 46 62
REMARK Flexibility Score: inf
ROOT
ATOM      1  C   UNL A   1      35.312  32.547  27.999  1.00  0.00     0.002 C 
ENDROOT
BRANCH   1   2
ATOM      2  C   UNL A   1      33.908  31.950  27.824  1.00  0.00     0.002 C 
BRANCH   2   3
ATOM      3  C   UNL A   1      33.797  30.529  27.262  1.00  0.00     0.021 C 
BRANCH   3   4
ATOM      4  C   UNL A   1      32.533  30.223  26.454  1.00  0.00     0.116 C 
BRANCH   4   5
ATOM      5  N   UNL A   1      31.890  28.965  26.772  1.00  0.00    -0.356 N 
ATOM      6  C   UNL A   1      32.113  27.683  26.380  1.00  0.00     0.229 C 
ATOM      7  O   UNL A   1      31.438  26.836  26.988  1.00  0.00    -0.275 OA
ATOM      8  H   UNL A   1      31.137  29.057  27.400  1.00  0.00     0.163 HD
BRANCH   6   9
ATOM      9  C   UNL A   1      33.030  27.198  25.239  1.00  0.00     0.148 C 
ATOM     10  C   UNL A   1      33.499  24.948  24.391  1.00  0.00     0.194 C 
ATOM     11  C   UNL A   1      33.939  25.989  25.434  1.00  0.00     0.101 C 
ATOM     12  N   UNL A   1      33.052  25.801  23.275  1.00  0.00    -0.317 N 
ATOM     13  C   UNL A   1      34.705  24.072  24.013  1.00  0.00     0.092 C 
ATOM     14  C   UNL A   1      32.494  27.071  23.780  1.00  0.00     0.231 C 
ATOM     15  C   UNL A   1      32.534  25.139  22.101  1.00  0.00     0.334 C 
ATOM     16  H   UNL A   1      33.858  26.128  22.742  1.00  0.00     0.349 HD
BRANCH  10  17
ATOM     17  C   UNL A   1      32.344  24.062  24.914  1.00  0.00     0.367 C 
ATOM     18  O   UNL A   1      31.548  23.459  24.214  1.00  0.00    -0.245 OA
BRANCH  17  19
ATOM     19  O   UNL A   1      32.246  24.154  26.272  1.00  0.00    -0.464 OA
ATOM     20  C   UNL A   1      31.497  23.122  26.906  1.00  0.00     0.282 C 
ENDBRANCH  17  19
ENDBRANCH  10  17
BRANCH  14  21
ATOM     21  C   UNL A   1      31.107  27.615  23.488  1.00  0.00     0.046 A 
ATOM     22  C   UNL A   1      31.060  28.881  22.851  1.00  0.00     0.013 A 
ATOM     23  C   UNL A   1      29.872  27.025  23.759  1.00  0.00     0.132 A 
ATOM     24  C   UNL A   1      29.858  29.525  22.540  1.00  0.00     0.001 A 
ATOM     25  C   UNL A   1      28.662  27.653  23.430  1.00  0.00     0.040 A 
ATOM     26  F   UNL A   1      29.768  25.821  24.325  1.00  0.00    -0.206 F 
ATOM     27  C   UNL A   1      28.652  28.907  22.831  1.00  0.00     0.003 A 
ENDBRANCH  14  21
ENDBRANCH   6   9
ENDBRANCH   4   5
ENDBRANCH   3   4
ENDBRANCH   2   3
ENDBRANCH   1   2
BRANCH   1  28
ATOM     28  C   UNL A   1      35.576  33.533  29.143  1.00  0.00     0.021 C 
BRANCH  28  29
ATOM     29  C   UNL A   1      36.628  33.172  30.182  1.00  0.00     0.116 C 
BRANCH  29  30
ATOM     30  N   UNL A   1      36.214  32.016  30.951  1.00  0.00    -0.352 N 
ATOM     31  C   UNL A   1      36.683  30.727  30.871  1.00  0.00     0.251 C 
ATOM     32  H   UNL A   1      35.505  32.175  31.615  1.00  0.00     0.163 HD
ATOM     33  O   UNL A   1      35.964  29.806  31.252  1.00  0.00    -0.269 OA
BRANCH  31  34
ATOM     34  C   UNL A   1      38.046  30.436  30.353  1.00  0.00     0.039 A 
ATOM     35  C   UNL A   1      38.225  30.281  28.975  1.00  0.00     0.014 A 
ATOM     36  C   UNL A   1      39.126  30.213  31.215  1.00  0.00     0.014 A 
ATOM     37  C   UNL A   1      39.473  29.907  28.468  1.00  0.00     0.010 A 
ATOM     38  C   UNL A   1      40.390  29.913  30.701  1.00  0.00     0.010 A 
ATOM     39  C   UNL A   1      40.574  29.724  29.324  1.00  0.00    -0.014 A 
BRANCH  39  40
ATOM     40  C   UNL A   1      41.896  29.303  28.782  1.00  0.00     0.031 A 
ATOM     41  C   UNL A   1      43.035  30.287  28.682  1.00  0.00     0.074 A 
ATOM     42  C   UNL A   1      42.073  28.030  28.372  1.00  0.00     0.049 A 
ATOM     43  N   UNL A   1      44.264  30.093  28.271  1.00  0.00    -0.248 NA
ATOM     44  C   UNL A   1      42.754  31.679  29.072  1.00  0.00     0.031 C 
ATOM     45  C   UNL A   1      41.036  26.996  28.364  1.00  0.00     0.029 A 
ATOM     46  N   UNL A   1      43.185  27.387  27.890  1.00  0.00    -0.354 N 
ATOM     47  C   UNL A   1      44.895  31.331  28.346  1.00  0.00     0.074 A 
ATOM     48  C   UNL A   1      43.897  32.283  28.783  1.00  0.00     0.031 C 
ATOM     49  C   UNL A   1      41.571  25.840  27.938  1.00  0.00     0.029 A 
ATOM     50  C   UNL A   1      42.977  26.055  27.611  1.00  0.00     0.049 A 
ATOM     51  H   UNL A   1      44.051  27.835  27.755  1.00  0.00     0.167 HD
ATOM     52  C   UNL A   1      46.191  31.643  28.101  1.00  0.00     0.037 A 
ATOM     53  C   UNL A   1      43.822  25.111  27.153  1.00  0.00     0.037 A 
ATOM     54  C   UNL A   1      47.185  30.685  27.685  1.00  0.00     0.049 A 
ATOM     55  C   UNL A   1      45.260  25.477  26.905  1.00  0.00     0.074 A 
ATOM     56  C   UNL A   1      48.536  30.887  27.460  1.00  0.00     0.029 A 
ATOM     57  N   UNL A   1      46.936  29.345  27.430  1.00  0.00    -0.354 N 
ATOM     58  N   UNL A   1      45.853  26.639  27.047  1.00  0.00    -0.248 NA
ATOM     59  C   UNL A   1      46.150  24.399  26.450  1.00  0.00     0.031 C 
ATOM     60  C   UNL A   1      49.094  29.681  27.021  1.00  0.00     0.029 A 
ATOM     61  C   UNL A   1      48.104  28.712  27.031  1.00  0.00     0.049 A 
ATOM     62  H   UNL A   1      46.060  28.906  27.518  1.00  0.00     0.167 HD
ATOM     63  C   UNL A   1      47.190  26.425  26.729  1.00  0.00     0.074 A 
ATOM     64  C   UNL A   1      47.320  25.019  26.404  1.00  0.00     0.031 C 
ATOM     65  C   UNL A   1      48.218  27.310  26.709  1.00  0.00     0.037 A 
BRANCH  52  66
ATOM     66  C   UNL A   1      46.615  33.079  28.280  1.00  0.00     0.058 A 
ATOM     67  C   UNL A   1      47.126  33.555  29.498  1.00  0.00     0.135 A 
ATOM     68  C   UNL A   1      46.547  33.983  27.207  1.00  0.00     0.135 A 
ATOM     69  F   UNL A   1      47.203  32.740  30.563  1.00  0.00    -0.206 F 
ATOM     70  C   UNL A   1      47.524  34.879  29.657  1.00  0.00     0.059 A 
ATOM     71  C   UNL A   1      46.969  35.306  27.333  1.00  0.00     0.059 A 
ATOM     72  F   UNL A   1      46.069  33.587  26.016  1.00  0.00    -0.206 F 
ATOM     73  C   UNL A   1      47.443  35.747  28.568  1.00  0.00     0.060 A 
BRANCH  73  74
ATOM     74  S   UNL A   1      47.969  37.460  28.790  1.00  0.00     0.124 S 
ATOM     75  O   UNL A   1      49.356  37.400  28.342  1.00  0.00    -0.237 OA
ATOM     76  O   UNL A   1      47.052  38.183  27.913  1.00  0.00    -0.237 OA
ATOM     77  O   UNL A   1      47.780  37.692  30.218  1.00  0.00    -0.744 OA
ENDBRANCH  73  74
ENDBRANCH  52  66
BRANCH  53  78
ATOM     78  C   UNL A   1      43.335  23.722  26.934  1.00  0.00     0.058 A 
ATOM     79  C   UNL A   1      43.122  23.222  25.640  1.00  0.00     0.135 A 
ATOM     80  C   UNL A   1      43.088  22.860  28.014  1.00  0.00     0.135 A 
ATOM     81  F   UNL A   1      43.339  24.008  24.573  1.00  0.00    -0.206 F 
ATOM     82  C   UNL A   1      42.664  21.926  25.423  1.00  0.00     0.059 A 
ATOM     83  C   UNL A   1      42.658  21.551  27.822  1.00  0.00     0.059 A 
ATOM     84  F   UNL A   1      43.294  23.282  29.271  1.00  0.00    -0.206 F 
ATOM     85  C   UNL A   1      42.438  21.097  26.523  1.00  0.00     0.060 A 
BRANCH  85  86
ATOM     86  S   UNL A   1      41.892  19.400  26.230  1.00  0.00     0.124 S 
ATOM     87  O   UNL A   1      42.718  19.018  25.090  1.00  0.00    -0.237 OA
ATOM     88  O   UNL A   1      42.213  18.752  27.498  1.00  0.00    -0.237 OA
ATOM     89  O   UNL A   1      40.466  19.550  25.954  1.00  0.00    -0.744 OA
ENDBRANCH  85  86
ENDBRANCH  53  78
BRANCH  65  90
ATOM     90  C   UNL A   1      49.581  26.775  26.364  1.00  0.00     0.058 A 
ATOM     91  C   UNL A   1      50.128  26.905  25.077  1.00  0.00     0.135 A 
ATOM     92  C   UNL A   1      50.361  26.135  27.343  1.00  0.00     0.135 A 
ATOM     93  F   UNL A   1      49.427  27.507  24.104  1.00  0.00    -0.206 F 
ATOM     94  C   UNL A   1      51.377  26.380  24.761  1.00  0.00     0.059 A 
ATOM     95  C   UNL A   1      51.626  25.632  27.057  1.00  0.00     0.059 A 
ATOM     96  F   UNL A   1      49.895  25.995  28.594  1.00  0.00    -0.206 F 
ATOM     97  C   UNL A   1      52.116  25.740  25.757  1.00  0.00     0.060 A 
BRANCH  97  98
ATOM     98  S   UNL A   1      53.733  25.058  25.333  1.00  0.00     0.124 S 
ATOM     99  O   UNL A   1      54.549  25.525  26.449  1.00  0.00    -0.237 OA
ATOM    100  O   UNL A   1      53.468  23.624  25.296  1.00  0.00    -0.237 OA
ATOM    101  O   UNL A   1      54.031  25.668  24.041  1.00  0.00    -0.744 OA
ENDBRANCH  97  98
ENDBRANCH  65  90
ENDBRANCH  39  40
ENDBRANCH  31  34
ENDBRANCH  29  30
ENDBRANCH  28  29
ENDBRANCH   1  28
TORSDOF 19
ENDMDL
MODEL 3
REMARK VINA RESULT:     -11.7      6.438     11.984
REMARK SMILES COC(=O)[C@]1(C)C[C@H](C(=O)NCCCCCCNC(=O)c2ccc(-c3c4nc(c(-c5c(F)cc(S(=O)(=O)[O-])cc5F)c5ccc([nH]5)c(-c5c(F)cc(S(=O)(=O)[O-])cc5F)c5nc(c(-c6c(F)cc(S(=O)(=O)[O-])cc6F)c6ccc3[nH]6)C=C5)C=C4)cc2)[C@H](c2ccccc2F)[N@@H+]1C
REMARK SMILES IDX 15 1 14 2 13 3 12 4 11 5 9 6 10 7 8 9 5 10 7 11 95 12 6 13
REMARK SMILES IDX 87 14 96 15 3 17 4 18 2 19 1 20 88 21 89 22 93 23 90 24
REMARK SMILES IDX 92 25 94 26 91 27 16 28 17 29 18 30 19 31 20 33 21 34 22 35
REMARK SMILES IDX 86 36 23 37 85 38 24 39 25 40 26 41 79 42 27 43 84 44 78 45
REMARK SMILES IDX 80 46 28 47 83 48 77 49 76 50 29 52 63 53 42 54 62 55 43 56
REMARK SMILES IDX 46 57 61 58 81 59 44 60 45 61 60 63 82 64 47 65 30 66 31 67
REMARK SMILES IDX 40 68 32 69 33 70 39 71 41 72 34 73 35 74 36 75 37 76 38 77
REMARK SMILES IDX 64 78 65 79 74 80 66 81 67 82 73 83 75 84 68 85 69 86 70 87
REMARK SMILES IDX 71 88 72 89 48 90 49 91 58 92 50 93 51 94 57 95 59 96 52 97
REMARK SMILES IDX 53 98 54 99 55 100 56 101
REMARK H PARENT 11 8 95 16 18 32 80 51 46 62
REMARK Flexibility Score: inf
ROOT
ATOM      1  C   UNL A   1      35.345  32.549  28.035  1.00  0.00     0.002 C 
ENDROOT
BRANCH   1   2
ATOM      2  C   UNL A   1      34.143  31.593  28.014  1.00  0.00     0.002 C 
BRANCH   2   3
ATOM      3  C   UNL A   1      34.382  30.151  27.554  1.00  0.00     0.021 C 
BRANCH   3   4
ATOM      4  C   UNL A   1      33.494  29.657  26.408  1.00  0.00     0.116 C 
BRANCH   4   5
ATOM      5  N   UNL A   1      32.667  28.510  26.722  1.00  0.00    -0.356 N 
ATOM      6  C   UNL A   1      32.722  27.200  26.365  1.00  0.00     0.229 C 
ATOM      7  O   UNL A   1      31.910  26.471  26.960  1.00  0.00    -0.275 OA
ATOM      8  H   UNL A   1      31.910  28.722  27.315  1.00  0.00     0.163 HD
BRANCH   6   9
ATOM      9  C   UNL A   1      33.607  26.561  25.275  1.00  0.00     0.148 C 
ATOM     10  C   UNL A   1      33.700  24.272  24.408  1.00  0.00     0.194 C 
ATOM     11  C   UNL A   1      34.257  25.200  25.501  1.00  0.00     0.101 C 
ATOM     12  N   UNL A   1      33.499  25.206  23.285  1.00  0.00    -0.317 N 
ATOM     13  C   UNL A   1      34.742  23.188  24.088  1.00  0.00     0.092 C 
ATOM     14  C   UNL A   1      33.157  26.554  23.782  1.00  0.00     0.231 C 
ATOM     15  C   UNL A   1      32.946  24.668  22.064  1.00  0.00     0.334 C 
ATOM     16  H   UNL A   1      34.386  25.380  22.813  1.00  0.00     0.349 HD
BRANCH  10  17
ATOM     17  C   UNL A   1      32.366  23.616  24.834  1.00  0.00     0.367 C 
ATOM     18  O   UNL A   1      31.376  23.513  24.129  1.00  0.00    -0.245 OA
BRANCH  17  19
ATOM     19  O   UNL A   1      32.394  23.289  26.158  1.00  0.00    -0.464 OA
ATOM     20  C   UNL A   1      31.124  23.078  26.767  1.00  0.00     0.282 C 
ENDBRANCH  17  19
ENDBRANCH  10  17
BRANCH  14  21
ATOM     21  C   UNL A   1      31.920  27.354  23.414  1.00  0.00     0.046 A 
ATOM     22  C   UNL A   1      30.676  26.751  23.728  1.00  0.00     0.013 A 
ATOM     23  C   UNL A   1      31.852  28.613  22.815  1.00  0.00     0.132 A 
ATOM     24  C   UNL A   1      29.449  27.352  23.428  1.00  0.00     0.001 A 
ATOM     25  C   UNL A   1      30.627  29.234  22.532  1.00  0.00     0.040 A 
ATOM     26  F   UNL A   1      32.945  29.309  22.498  1.00  0.00    -0.206 F 
ATOM     27  C   UNL A   1      29.424  28.602  22.827  1.00  0.00     0.003 A 
ENDBRANCH  14  21
ENDBRANCH   6   9
ENDBRANCH   4   5
ENDBRANCH   3   4
ENDBRANCH   2   3
ENDBRANCH   1   2
BRANCH   1  28
ATOM     28  C   UNL A   1      35.534  33.498  29.225  1.00  0.00     0.021 C 
BRANCH  28  29
ATOM     29  C   UNL A   1      36.615  33.171  30.246  1.00  0.00     0.116 C 
BRANCH  29  30
ATOM     30  N   UNL A   1      36.232  32.029  31.051  1.00  0.00    -0.352 N 
ATOM     31  C   UNL A   1      36.718  30.745  30.994  1.00  0.00     0.251 C 
ATOM     32  H   UNL A   1      35.533  32.194  31.724  1.00  0.00     0.163 HD
ATOM     33  O   UNL A   1      36.020  29.824  31.411  1.00  0.00    -0.269 OA
BRANCH  31  34
ATOM     34  C   UNL A   1      38.075  30.460  30.458  1.00  0.00     0.039 A 
ATOM     35  C   UNL A   1      38.234  30.292  29.078  1.00  0.00     0.014 A 
ATOM     36  C   UNL A   1      39.171  30.256  31.305  1.00  0.00     0.014 A 
ATOM     37  C   UNL A   1      39.478  29.924  28.556  1.00  0.00     0.010 A 
ATOM     38  C   UNL A   1      40.429  29.962  30.774  1.00  0.00     0.010 A 
ATOM     39  C   UNL A   1      40.593  29.760  29.396  1.00  0.00    -0.014 A 
BRANCH  39  40
ATOM     40  C   UNL A   1      41.911  29.344  28.838  1.00  0.00     0.031 A 
ATOM     41  C   UNL A   1      43.044  30.334  28.724  1.00  0.00     0.074 A 
ATOM     42  C   UNL A   1      42.088  28.073  28.426  1.00  0.00     0.049 A 
ATOM     43  N   UNL A   1      44.268  30.146  28.297  1.00  0.00    -0.248 NA
ATOM     44  C   UNL A   1      42.761  31.724  29.117  1.00  0.00     0.031 C 
ATOM     45  C   UNL A   1      41.056  27.033  28.432  1.00  0.00     0.029 A 
ATOM     46  N   UNL A   1      43.198  27.434  27.931  1.00  0.00    -0.354 N 
ATOM     47  C   UNL A   1      44.895  31.386  28.364  1.00  0.00     0.074 A 
ATOM     48  C   UNL A   1      43.897  32.333  28.813  1.00  0.00     0.031 C 
ATOM     49  C   UNL A   1      41.591  25.880  27.999  1.00  0.00     0.029 A 
ATOM     50  C   UNL A   1      42.992  26.102  27.655  1.00  0.00     0.049 A 
ATOM     51  H   UNL A   1      44.060  27.886  27.785  1.00  0.00     0.167 HD
ATOM     52  C   UNL A   1      46.186  31.704  28.104  1.00  0.00     0.037 A 
ATOM     53  C   UNL A   1      43.836  25.161  27.186  1.00  0.00     0.037 A 
ATOM     54  C   UNL A   1      47.179  30.751  27.675  1.00  0.00     0.049 A 
ATOM     55  C   UNL A   1      45.269  25.533  26.921  1.00  0.00     0.074 A 
ATOM     56  C   UNL A   1      48.526  30.959  27.434  1.00  0.00     0.029 A 
ATOM     57  N   UNL A   1      46.934  29.409  27.424  1.00  0.00    -0.354 N 
ATOM     58  N   UNL A   1      45.858  26.698  27.055  1.00  0.00    -0.248 NA
ATOM     59  C   UNL A   1      46.158  24.460  26.456  1.00  0.00     0.031 C 
ATOM     60  C   UNL A   1      49.084  29.756  26.988  1.00  0.00     0.029 A 
ATOM     61  C   UNL A   1      48.099  28.782  27.010  1.00  0.00     0.049 A 
ATOM     62  H   UNL A   1      46.060  28.966  27.523  1.00  0.00     0.167 HD
ATOM     63  C   UNL A   1      47.193  26.490  26.721  1.00  0.00     0.074 A 
ATOM     64  C   UNL A   1      47.325  25.084  26.395  1.00  0.00     0.031 C 
ATOM     65  C   UNL A   1      48.216  27.380  26.688  1.00  0.00     0.037 A 
BRANCH  52  66
ATOM     66  C   UNL A   1      46.605  33.142  28.276  1.00  0.00     0.058 A 
ATOM     67  C   UNL A   1      46.515  34.071  27.227  1.00  0.00     0.135 A 
ATOM     68  C   UNL A   1      47.065  33.610  29.519  1.00  0.00     0.135 A 
ATOM     69  F   UNL A   1      46.094  33.681  26.013  1.00  0.00    -0.206 F 
ATOM     70  C   UNL A   1      46.893  35.400  27.392  1.00  0.00     0.059 A 
ATOM     71  C   UNL A   1      47.420  34.943  29.716  1.00  0.00     0.059 A 
ATOM     72  F   UNL A   1      47.171  32.769  30.561  1.00  0.00    -0.206 F 
ATOM     73  C   UNL A   1      47.344  35.827  28.642  1.00  0.00     0.060 A 
BRANCH  73  74
ATOM     74  S   UNL A   1      47.827  37.556  28.840  1.00  0.00     0.124 S 
ATOM     75  O   UNL A   1      46.575  38.244  28.541  1.00  0.00    -0.237 OA
ATOM     76  O   UNL A   1      48.257  37.601  30.234  1.00  0.00    -0.237 OA
ATOM     77  O   UNL A   1      48.888  37.729  27.853  1.00  0.00    -0.744 OA
ENDBRANCH  73  74
ENDBRANCH  52  66
BRANCH  53  78
ATOM     78  C   UNL A   1      43.352  23.769  26.974  1.00  0.00     0.058 A 
ATOM     79  C   UNL A   1      43.152  22.898  28.055  1.00  0.00     0.135 A 
ATOM     80  C   UNL A   1      43.066  23.288  25.687  1.00  0.00     0.135 A 
ATOM     81  F   UNL A   1      43.416  23.308  29.306  1.00  0.00    -0.206 F 
ATOM     82  C   UNL A   1      42.703  21.593  27.869  1.00  0.00     0.059 A 
ATOM     83  C   UNL A   1      42.589  21.998  25.477  1.00  0.00     0.059 A 
ATOM     84  F   UNL A   1      43.222  24.087  24.620  1.00  0.00    -0.206 F 
ATOM     85  C   UNL A   1      42.421  21.155  26.574  1.00  0.00     0.060 A 
BRANCH  85  86
ATOM     86  S   UNL A   1      41.792  19.477  26.347  1.00  0.00     0.124 S 
ATOM     87  O   UNL A   1      42.241  18.825  27.571  1.00  0.00    -0.237 OA
ATOM     88  O   UNL A   1      40.354  19.702  26.232  1.00  0.00    -0.237 OA
ATOM     89  O   UNL A   1      42.449  19.036  25.119  1.00  0.00    -0.744 OA
ENDBRANCH  85  86
ENDBRANCH  53  78
BRANCH  65  90
ATOM     90  C   UNL A   1      49.577  26.851  26.326  1.00  0.00     0.058 A 
ATOM     91  C   UNL A   1      50.121  27.013  25.042  1.00  0.00     0.135 A 
ATOM     92  C   UNL A   1      50.357  26.185  27.287  1.00  0.00     0.135 A 
ATOM     93  F   UNL A   1      49.419  27.641  24.085  1.00  0.00    -0.206 F 
ATOM     94  C   UNL A   1      51.368  26.494  24.709  1.00  0.00     0.059 A 
ATOM     95  C   UNL A   1      51.621  25.687  26.985  1.00  0.00     0.059 A 
ATOM     96  F   UNL A   1      49.894  26.014  28.535  1.00  0.00    -0.206 F 
ATOM     97  C   UNL A   1      52.108  25.827  25.687  1.00  0.00     0.060 A 
BRANCH  97  98
ATOM     98  S   UNL A   1      53.723  25.153  25.242  1.00  0.00     0.124 S 
ATOM     99  O   UNL A   1      53.489  23.720  25.377  1.00  0.00    -0.237 OA
ATOM    100  O   UNL A   1      53.901  25.642  23.879  1.00  0.00    -0.237 OA
ATOM    101  O   UNL A   1      54.621  25.738  26.234  1.00  0.00    -0.744 OA
ENDBRANCH  97  98
ENDBRANCH  65  90
ENDBRANCH  39  40
ENDBRANCH  31  34
ENDBRANCH  29  30
ENDBRANCH  28  29
ENDBRANCH   1  28
TORSDOF 19
ENDMDL
