MODEL 1
REMARK VINA RESULT:     -12.7      0.000      0.000
REMARK SMILES Cc1ccc(Nc2c(F)cccc2Cl)c(CC(=O)NCCCCCCNC(=O)c2ccc(-c3c4nc(c(-c5c(F)cc(S(=O)(=O)[O-])cc5F)c5ccc([nH]5)c(-c5c(F)cc(S(=O)(=O)[O-])cc5F)c5nc(c(-c6c(F)cc(S(=O)(=O)[O-])cc6F)c6ccc3[nH]6)C=C5)C=C4)cc2)c1
REMARK SMILES IDX 22 1 21 2 20 3 19 4 17 5 18 6 16 8 15 9 1 10 2 11 3 12 95 13
REMARK SMILES IDX 4 14 5 15 6 16 7 18 8 19 13 20 9 21 10 22 12 23 14 24 11 25
REMARK SMILES IDX 23 26 24 27 25 28 26 29 27 30 28 32 29 33 30 34 94 35 31 36
REMARK SMILES IDX 93 37 32 38 33 39 34 40 87 41 35 42 92 43 86 44 88 45 36 46
REMARK SMILES IDX 91 47 85 48 84 49 37 51 71 52 50 53 70 54 51 55 54 56 69 57
REMARK SMILES IDX 89 58 52 59 53 60 68 62 90 63 55 64 38 65 39 66 48 67 40 68
REMARK SMILES IDX 41 69 47 70 49 71 42 72 43 73 44 74 45 75 46 76 72 77 73 78
REMARK SMILES IDX 82 79 74 80 75 81 81 82 83 83 76 84 77 85 78 86 79 87 80 88
REMARK SMILES IDX 56 89 57 90 66 91 58 92 59 93 65 94 67 95 60 96 61 97 62 98
REMARK SMILES IDX 63 99 64 100
REMARK H PARENT 19 7 6 17 26 31 88 50 54 61
REMARK Flexibility Score: inf
ROOT
ATOM      1  C   UNL A   1      31.832  27.899  25.907  1.00  0.00     0.002 C 
ENDROOT
BRANCH   1   2
ATOM      2  C   UNL A   1      33.169  27.171  26.113  1.00  0.00     0.021 C 
BRANCH   2   3
ATOM      3  C   UNL A   1      33.599  26.262  24.961  1.00  0.00     0.116 C 
BRANCH   3   4
ATOM      4  N   UNL A   1      33.974  27.013  23.778  1.00  0.00    -0.356 N 
ATOM      5  C   UNL A   1      33.476  26.926  22.514  1.00  0.00     0.224 C 
ATOM      6  O   UNL A   1      34.008  27.591  21.620  1.00  0.00    -0.275 OA
ATOM      7  H   UNL A   1      34.688  27.678  23.908  1.00  0.00     0.163 HD
BRANCH   5   8
ATOM      8  C   UNL A   1      32.294  26.028  22.201  1.00  0.00     0.137 C 
BRANCH   8   9
ATOM      9  C   UNL A   1      30.960  26.569  22.669  1.00  0.00    -0.015 A 
ATOM     10  C   UNL A   1      29.211  29.977  22.565  1.00  0.00     0.044 C 
ATOM     11  C   UNL A   1      29.488  28.525  22.819  1.00  0.00    -0.051 A 
ATOM     12  C   UNL A   1      28.564  27.752  23.515  1.00  0.00     0.005 A 
ATOM     13  C   UNL A   1      30.669  27.922  22.383  1.00  0.00     0.009 A 
ATOM     14  C   UNL A   1      28.823  26.402  23.771  1.00  0.00     0.026 A 
ATOM     15  C   UNL A   1      30.019  25.783  23.371  1.00  0.00     0.042 A 
BRANCH  15  16
ATOM     16  N   UNL A   1      30.250  24.413  23.625  1.00  0.00    -0.352 N 
ATOM     17  H   UNL A   1      29.728  23.787  23.073  1.00  0.00     0.167 HD
BRANCH  16  18
ATOM     18  C   UNL A   1      31.126  23.813  24.560  1.00  0.00     0.094 A 
ATOM     19  C   UNL A   1      32.145  22.929  24.172  1.00  0.00     0.148 A 
ATOM     20  C   UNL A   1      30.938  24.010  25.942  1.00  0.00     0.067 A 
ATOM     21  F   UNL A   1      32.399  22.719  22.870  1.00  0.00    -0.205 F 
ATOM     22  C   UNL A   1      32.936  22.260  25.105  1.00  0.00     0.041 A 
ATOM     23  C   UNL A   1      31.724  23.336  26.885  1.00  0.00     0.023 A 
ATOM     24  Cl  UNL A   1      29.702  25.068  26.529  1.00  0.00    -0.082 Cl
ATOM     25  C   UNL A   1      32.721  22.457  26.466  1.00  0.00     0.005 A 
ENDBRANCH  16  18
ENDBRANCH  15  16
ENDBRANCH   8   9
ENDBRANCH   5   8
ENDBRANCH   3   4
ENDBRANCH   2   3
ENDBRANCH   1   2
BRANCH   1  26
ATOM     26  C   UNL A   1      31.910  29.391  25.559  1.00  0.00     0.002 C 
BRANCH  26  27
ATOM     27  C   UNL A   1      32.186  30.350  26.720  1.00  0.00     0.021 C 
BRANCH  27  28
ATOM     28  C   UNL A   1      33.603  30.251  27.280  1.00  0.00     0.116 C 
BRANCH  28  29
ATOM     29  N   UNL A   1      34.019  31.469  27.962  1.00  0.00    -0.352 N 
ATOM     30  C   UNL A   1      35.128  31.681  28.766  1.00  0.00     0.251 C 
ATOM     31  H   UNL A   1      33.432  32.249  27.834  1.00  0.00     0.163 HD
ATOM     32  O   UNL A   1      35.283  32.718  29.371  1.00  0.00    -0.269 OA
BRANCH  30  33
ATOM     33  C   UNL A   1      36.163  30.623  28.793  1.00  0.00     0.039 A 
ATOM     34  C   UNL A   1      36.319  29.897  29.979  1.00  0.00     0.014 A 
ATOM     35  C   UNL A   1      37.083  30.505  27.755  1.00  0.00     0.014 A 
ATOM     36  C   UNL A   1      37.496  29.183  30.196  1.00  0.00     0.010 A 
ATOM     37  C   UNL A   1      38.276  29.850  27.998  1.00  0.00     0.010 A 
ATOM     38  C   UNL A   1      38.508  29.236  29.241  1.00  0.00    -0.014 A 
BRANCH  38  39
ATOM     39  C   UNL A   1      39.885  28.812  29.486  1.00  0.00     0.031 A 
ATOM     40  C   UNL A   1      40.338  27.444  29.137  1.00  0.00     0.074 A 
ATOM     41  C   UNL A   1      40.796  29.731  29.878  1.00  0.00     0.049 A 
ATOM     42  N   UNL A   1      41.520  26.987  29.388  1.00  0.00    -0.248 NA
ATOM     43  C   UNL A   1      39.459  26.441  28.537  1.00  0.00     0.031 C 
ATOM     44  C   UNL A   1      42.246  29.661  29.726  1.00  0.00     0.029 A 
ATOM     45  N   UNL A   1      40.590  30.827  30.720  1.00  0.00    -0.354 N 
ATOM     46  C   UNL A   1      41.653  25.790  28.732  1.00  0.00     0.074 A 
ATOM     47  C   UNL A   1      40.314  25.432  28.340  1.00  0.00     0.031 C 
ATOM     48  C   UNL A   1      42.819  30.484  30.613  1.00  0.00     0.029 A 
ATOM     49  C   UNL A   1      41.771  30.985  31.480  1.00  0.00     0.049 A 
ATOM     50  H   UNL A   1      39.780  31.383  30.773  1.00  0.00     0.167 HD
ATOM     51  C   UNL A   1      42.904  25.312  28.481  1.00  0.00     0.037 A 
ATOM     52  C   UNL A   1      41.749  30.825  32.838  1.00  0.00     0.037 A 
ATOM     53  C   UNL A   1      43.897  25.950  29.347  1.00  0.00     0.049 A 
ATOM     54  C   UNL A   1      42.555  29.654  33.360  1.00  0.00     0.074 A 
ATOM     55  C   UNL A   1      44.918  26.868  29.183  1.00  0.00     0.029 A 
ATOM     56  N   UNL A   1      43.752  25.784  30.716  1.00  0.00    -0.354 N 
ATOM     57  N   UNL A   1      43.278  28.859  32.619  1.00  0.00    -0.248 NA
ATOM     58  C   UNL A   1      42.545  29.240  34.767  1.00  0.00     0.031 C 
ATOM     59  C   UNL A   1      45.302  27.333  30.481  1.00  0.00     0.029 A 
ATOM     60  C   UNL A   1      44.541  26.666  31.425  1.00  0.00     0.049 A 
ATOM     61  H   UNL A   1      43.159  25.117  31.132  1.00  0.00     0.167 HD
ATOM     62  C   UNL A   1      43.724  27.814  33.381  1.00  0.00     0.074 A 
ATOM     63  C   UNL A   1      43.277  28.114  34.729  1.00  0.00     0.031 C 
ATOM     64  C   UNL A   1      44.375  26.734  32.868  1.00  0.00     0.037 A 
BRANCH  51  65
ATOM     65  C   UNL A   1      43.255  24.353  27.359  1.00  0.00     0.058 A 
ATOM     66  C   UNL A   1      43.152  22.957  27.552  1.00  0.00     0.135 A 
ATOM     67  C   UNL A   1      43.836  24.731  26.127  1.00  0.00     0.135 A 
ATOM     68  F   UNL A   1      42.643  22.451  28.685  1.00  0.00    -0.206 F 
ATOM     69  C   UNL A   1      43.604  22.022  26.612  1.00  0.00     0.059 A 
ATOM     70  C   UNL A   1      44.243  23.819  25.153  1.00  0.00     0.059 A 
ATOM     71  F   UNL A   1      44.119  26.004  25.827  1.00  0.00    -0.206 F 
ATOM     72  C   UNL A   1      44.154  22.463  25.415  1.00  0.00     0.060 A 
BRANCH  72  73
ATOM     73  S   UNL A   1      44.795  21.274  24.223  1.00  0.00     0.124 S 
ATOM     74  O   UNL A   1      44.022  20.080  24.550  1.00  0.00    -0.237 OA
ATOM     75  O   UNL A   1      44.484  21.906  22.945  1.00  0.00    -0.237 OA
ATOM     76  O   UNL A   1      46.218  21.203  24.547  1.00  0.00    -0.744 OA
ENDBRANCH  72  73
ENDBRANCH  51  65
BRANCH  52  77
ATOM     77  C   UNL A   1      40.503  31.361  33.451  1.00  0.00     0.058 A 
ATOM     78  C   UNL A   1      39.510  30.430  33.812  1.00  0.00     0.135 A 
ATOM     79  C   UNL A   1      40.482  32.617  34.072  1.00  0.00     0.135 A 
ATOM     80  F   UNL A   1      39.479  29.221  33.227  1.00  0.00    -0.206 F 
ATOM     81  C   UNL A   1      38.655  30.661  34.879  1.00  0.00     0.059 A 
ATOM     82  C   UNL A   1      39.618  32.876  35.136  1.00  0.00     0.059 A 
ATOM     83  F   UNL A   1      41.400  33.543  33.760  1.00  0.00    -0.206 F 
ATOM     84  C   UNL A   1      38.770  31.860  35.580  1.00  0.00     0.060 A 
BRANCH  84  85
ATOM     85  S   UNL A   1      37.956  31.973  37.190  1.00  0.00     0.124 S 
ATOM     86  O   UNL A   1      39.035  32.456  38.044  1.00  0.00    -0.237 OA
ATOM     87  O   UNL A   1      36.891  32.933  36.909  1.00  0.00    -0.237 OA
ATOM     88  O   UNL A   1      37.517  30.604  37.438  1.00  0.00    -0.744 OA
ENDBRANCH  84  85
ENDBRANCH  52  77
BRANCH  64  89
ATOM     89  C   UNL A   1      44.877  25.629  33.743  1.00  0.00     0.058 A 
ATOM     90  C   UNL A   1      46.252  25.406  33.912  1.00  0.00     0.135 A 
ATOM     91  C   UNL A   1      44.002  24.702  34.338  1.00  0.00     0.135 A 
ATOM     92  F   UNL A   1      47.149  26.241  33.364  1.00  0.00    -0.206 F 
ATOM     93  C   UNL A   1      46.738  24.320  34.638  1.00  0.00     0.059 A 
ATOM     94  C   UNL A   1      44.464  23.591  35.039  1.00  0.00     0.059 A 
ATOM     95  F   UNL A   1      42.672  24.867  34.267  1.00  0.00    -0.206 F 
ATOM     96  C   UNL A   1      45.837  23.414  35.192  1.00  0.00     0.060 A 
BRANCH  96  97
ATOM     97  S   UNL A   1      46.456  21.972  36.082  1.00  0.00     0.124 S 
ATOM     98  O   UNL A   1      47.789  21.785  35.513  1.00  0.00    -0.237 OA
ATOM     99  O   UNL A   1      46.423  22.444  37.462  1.00  0.00    -0.237 OA
ATOM    100  O   UNL A   1      45.489  20.932  35.745  1.00  0.00    -0.744 OA
ENDBRANCH  96  97
ENDBRANCH  64  89
ENDBRANCH  38  39
ENDBRANCH  30  33
ENDBRANCH  28  29
ENDBRANCH  27  28
ENDBRANCH  26  27
ENDBRANCH   1  26
TORSDOF 19
ENDMDL
MODEL 2
REMARK VINA RESULT:     -12.6      2.267      3.682
REMARK SMILES Cc1ccc(Nc2c(F)cccc2Cl)c(CC(=O)NCCCCCCNC(=O)c2ccc(-c3c4nc(c(-c5c(F)cc(S(=O)(=O)[O-])cc5F)c5ccc([nH]5)c(-c5c(F)cc(S(=O)(=O)[O-])cc5F)c5nc(c(-c6c(F)cc(S(=O)(=O)[O-])cc6F)c6ccc3[nH]6)C=C5)C=C4)cc2)c1
REMARK SMILES IDX 22 1 21 2 20 3 19 4 17 5 18 6 16 8 15 9 1 10 2 11 3 12 95 13
REMARK SMILES IDX 4 14 5 15 6 16 7 18 8 19 13 20 9 21 10 22 12 23 14 24 11 25
REMARK SMILES IDX 23 26 24 27 25 28 26 29 27 30 28 32 29 33 30 34 94 35 31 36
REMARK SMILES IDX 93 37 32 38 33 39 34 40 87 41 35 42 92 43 86 44 88 45 36 46
REMARK SMILES IDX 91 47 85 48 84 49 37 51 71 52 50 53 70 54 51 55 54 56 69 57
REMARK SMILES IDX 89 58 52 59 53 60 68 62 90 63 55 64 38 65 39 66 48 67 40 68
REMARK SMILES IDX 41 69 47 70 49 71 42 72 43 73 44 74 45 75 46 76 72 77 73 78
REMARK SMILES IDX 82 79 74 80 75 81 81 82 83 83 76 84 77 85 78 86 79 87 80 88
REMARK SMILES IDX 56 89 57 90 66 91 58 92 59 93 65 94 67 95 60 96 61 97 62 98
REMARK SMILES IDX 63 99 64 100
REMARK H PARENT 19 7 6 17 26 31 88 50 54 61
REMARK Flexibility Score: inf
ROOT
ATOM      1  C   UNL A   1      30.716  27.481  24.720  1.00  0.00     0.002 C 
ENDROOT
BRANCH   1   2
ATOM      2  C   UNL A   1      30.710  26.554  25.944  1.00  0.00     0.021 C 
BRANCH   2   3
ATOM      3  C   UNL A   1      30.403  25.086  25.647  1.00  0.00     0.116 C 
BRANCH   3   4
ATOM      4  N   UNL A   1      30.922  24.198  26.671  1.00  0.00    -0.356 N 
ATOM      5  C   UNL A   1      32.197  23.762  26.861  1.00  0.00     0.224 C 
ATOM      6  O   UNL A   1      32.411  22.921  27.740  1.00  0.00    -0.275 OA
ATOM      7  H   UNL A   1      30.258  23.865  27.318  1.00  0.00     0.163 HD
BRANCH   5   8
ATOM      8  C   UNL A   1      33.337  24.288  26.010  1.00  0.00     0.137 C 
BRANCH   8   9
ATOM      9  C   UNL A   1      34.507  23.336  25.880  1.00  0.00    -0.015 A 
ATOM     10  C   UNL A   1      38.311  23.628  26.226  1.00  0.00     0.044 C 
ATOM     11  C   UNL A   1      36.942  23.063  26.001  1.00  0.00    -0.051 A 
ATOM     12  C   UNL A   1      36.791  21.731  25.627  1.00  0.00     0.005 A 
ATOM     13  C   UNL A   1      35.796  23.849  26.146  1.00  0.00     0.009 A 
ATOM     14  C   UNL A   1      35.517  21.201  25.399  1.00  0.00     0.026 A 
ATOM     15  C   UNL A   1      34.354  21.983  25.506  1.00  0.00     0.042 A 
BRANCH  15  16
ATOM     16  N   UNL A   1      33.077  21.420  25.288  1.00  0.00    -0.352 N 
ATOM     17  H   UNL A   1      32.338  21.849  25.777  1.00  0.00     0.167 HD
BRANCH  16  18
ATOM     18  C   UNL A   1      32.709  20.329  24.465  1.00  0.00     0.094 A 
ATOM     19  C   UNL A   1      32.681  19.009  24.941  1.00  0.00     0.148 A 
ATOM     20  C   UNL A   1      32.449  20.525  23.095  1.00  0.00     0.067 A 
ATOM     21  F   UNL A   1      32.889  18.753  26.243  1.00  0.00    -0.205 F 
ATOM     22  C   UNL A   1      32.421  17.927  24.099  1.00  0.00     0.041 A 
ATOM     23  C   UNL A   1      32.194  19.444  22.243  1.00  0.00     0.023 A 
ATOM     24  Cl  UNL A   1      32.472  22.111  22.404  1.00  0.00    -0.082 Cl
ATOM     25  C   UNL A   1      32.184  18.143  22.745  1.00  0.00     0.005 A 
ENDBRANCH  16  18
ENDBRANCH  15  16
ENDBRANCH   8   9
ENDBRANCH   5   8
ENDBRANCH   3   4
ENDBRANCH   2   3
ENDBRANCH   1   2
BRANCH   1  26
ATOM     26  C   UNL A   1      31.349  28.865  24.911  1.00  0.00     0.002 C 
BRANCH  26  27
ATOM     27  C   UNL A   1      31.774  29.231  26.335  1.00  0.00     0.021 C 
BRANCH  27  28
ATOM     28  C   UNL A   1      33.249  29.609  26.463  1.00  0.00     0.116 C 
BRANCH  28  29
ATOM     29  N   UNL A   1      33.438  30.909  27.092  1.00  0.00    -0.352 N 
ATOM     30  C   UNL A   1      34.394  31.295  28.019  1.00  0.00     0.251 C 
ATOM     31  H   UNL A   1      32.801  31.608  26.823  1.00  0.00     0.163 HD
ATOM     32  O   UNL A   1      34.356  32.382  28.552  1.00  0.00    -0.269 OA
BRANCH  30  33
ATOM     33  C   UNL A   1      35.515  30.363  28.273  1.00  0.00     0.039 A 
ATOM     34  C   UNL A   1      35.654  29.851  29.568  1.00  0.00     0.014 A 
ATOM     35  C   UNL A   1      36.510  30.175  27.318  1.00  0.00     0.014 A 
ATOM     36  C   UNL A   1      36.872  29.300  29.961  1.00  0.00     0.010 A 
ATOM     37  C   UNL A   1      37.738  29.688  27.728  1.00  0.00     0.010 A 
ATOM     38  C   UNL A   1      37.939  29.302  29.064  1.00  0.00    -0.014 A 
BRANCH  38  39
ATOM     39  C   UNL A   1      39.328  29.060  29.448  1.00  0.00     0.031 A 
ATOM     40  C   UNL A   1      39.994  27.773  29.137  1.00  0.00     0.074 A 
ATOM     41  C   UNL A   1      40.062  30.084  29.940  1.00  0.00     0.049 A 
ATOM     42  N   UNL A   1      41.196  27.472  29.506  1.00  0.00    -0.248 NA
ATOM     43  C   UNL A   1      39.324  26.675  28.441  1.00  0.00     0.031 C 
ATOM     44  C   UNL A   1      41.516  30.211  29.938  1.00  0.00     0.029 A 
ATOM     45  N   UNL A   1      39.625  31.124  30.765  1.00  0.00    -0.354 N 
ATOM     46  C   UNL A   1      41.555  26.318  28.857  1.00  0.00     0.074 A 
ATOM     47  C   UNL A   1      40.324  25.793  28.326  1.00  0.00     0.031 C 
ATOM     48  C   UNL A   1      41.879  31.083  30.887  1.00  0.00     0.029 A 
ATOM     49  C   UNL A   1      40.690  31.421  31.645  1.00  0.00     0.049 A 
ATOM     50  H   UNL A   1      38.747  31.565  30.738  1.00  0.00     0.167 HD
ATOM     51  C   UNL A   1      42.878  26.017  28.734  1.00  0.00     0.037 A 
ATOM     52  C   UNL A   1      40.552  31.231  32.992  1.00  0.00     0.037 A 
ATOM     53  C   UNL A   1      43.682  26.763  29.704  1.00  0.00     0.049 A 
ATOM     54  C   UNL A   1      41.452  30.166  33.585  1.00  0.00     0.074 A 
ATOM     55  C   UNL A   1      44.581  27.812  29.654  1.00  0.00     0.029 A 
ATOM     56  N   UNL A   1      43.422  26.549  31.049  1.00  0.00    -0.354 N 
ATOM     57  N   UNL A   1      42.346  29.491  32.917  1.00  0.00    -0.248 NA
ATOM     58  C   UNL A   1      41.354  29.723  34.980  1.00  0.00     0.031 C 
ATOM     59  C   UNL A   1      44.765  28.295  30.989  1.00  0.00     0.029 A 
ATOM     60  C   UNL A   1      44.009  27.512  31.843  1.00  0.00     0.049 A 
ATOM     61  H   UNL A   1      42.885  25.800  31.395  1.00  0.00     0.167 HD
ATOM     62  C   UNL A   1      42.850  28.498  33.712  1.00  0.00     0.074 A 
ATOM     63  C   UNL A   1      42.232  28.706  35.009  1.00  0.00     0.031 C 
ATOM     64  C   UNL A   1      43.689  27.526  33.261  1.00  0.00     0.037 A 
BRANCH  51  65
ATOM     65  C   UNL A   1      43.468  25.138  27.647  1.00  0.00     0.058 A 
ATOM     66  C   UNL A   1      44.383  24.112  27.974  1.00  0.00     0.135 A 
ATOM     67  C   UNL A   1      43.293  25.345  26.259  1.00  0.00     0.135 A 
ATOM     68  F   UNL A   1      44.667  23.820  29.252  1.00  0.00    -0.206 F 
ATOM     69  C   UNL A   1      45.074  23.371  27.006  1.00  0.00     0.059 A 
ATOM     70  C   UNL A   1      43.929  24.583  25.280  1.00  0.00     0.059 A 
ATOM     71  F   UNL A   1      42.557  26.350  25.770  1.00  0.00    -0.206 F 
ATOM     72  C   UNL A   1      44.845  23.618  25.659  1.00  0.00     0.060 A 
BRANCH  72  73
ATOM     73  S   UNL A   1      45.771  22.716  24.405  1.00  0.00     0.124 S 
ATOM     74  O   UNL A   1      44.712  22.316  23.483  1.00  0.00    -0.237 OA
ATOM     75  O   UNL A   1      46.701  23.725  23.909  1.00  0.00    -0.237 OA
ATOM     76  O   UNL A   1      46.386  21.625  25.157  1.00  0.00    -0.744 OA
ENDBRANCH  72  73
ENDBRANCH  51  65
BRANCH  52  77
ATOM     77  C   UNL A   1      39.189  31.582  33.476  1.00  0.00     0.058 A 
ATOM     78  C   UNL A   1      38.919  32.944  33.709  1.00  0.00     0.135 A 
ATOM     79  C   UNL A   1      38.101  30.724  33.265  1.00  0.00     0.135 A 
ATOM     80  F   UNL A   1      39.929  33.799  33.937  1.00  0.00    -0.206 F 
ATOM     81  C   UNL A   1      37.644  33.467  33.548  1.00  0.00     0.059 A 
ATOM     82  C   UNL A   1      36.809  31.227  33.117  1.00  0.00     0.059 A 
ATOM     83  F   UNL A   1      38.302  29.416  33.045  1.00  0.00    -0.206 F 
ATOM     84  C   UNL A   1      36.611  32.607  33.179  1.00  0.00     0.060 A 
BRANCH  84  85
ATOM     85  S   UNL A   1      35.077  33.349  32.577  1.00  0.00     0.124 S 
ATOM     86  O   UNL A   1      35.570  34.466  31.779  1.00  0.00    -0.237 OA
ATOM     87  O   UNL A   1      34.496  32.239  31.825  1.00  0.00    -0.237 OA
ATOM     88  O   UNL A   1      34.376  33.709  33.804  1.00  0.00    -0.744 OA
ENDBRANCH  84  85
ENDBRANCH  52  77
BRANCH  64  89
ATOM     89  C   UNL A   1      44.244  26.480  34.174  1.00  0.00     0.058 A 
ATOM     90  C   UNL A   1      45.608  26.452  34.503  1.00  0.00     0.135 A 
ATOM     91  C   UNL A   1      43.452  25.418  34.649  1.00  0.00     0.135 A 
ATOM     92  F   UNL A   1      46.430  27.425  34.076  1.00  0.00    -0.206 F 
ATOM     93  C   UNL A   1      46.162  25.426  35.267  1.00  0.00     0.059 A 
ATOM     94  C   UNL A   1      43.989  24.365  35.385  1.00  0.00     0.059 A 
ATOM     95  F   UNL A   1      42.129  25.391  34.423  1.00  0.00    -0.206 F 
ATOM     96  C   UNL A   1      45.346  24.383  35.698  1.00  0.00     0.060 A 
BRANCH  96  97
ATOM     97  S   UNL A   1      46.064  23.019  36.635  1.00  0.00     0.124 S 
ATOM     98  O   UNL A   1      45.306  21.864  36.162  1.00  0.00    -0.237 OA
ATOM     99  O   UNL A   1      47.458  23.074  36.207  1.00  0.00    -0.237 OA
ATOM    100  O   UNL A   1      45.813  23.399  38.022  1.00  0.00    -0.744 OA
ENDBRANCH  96  97
ENDBRANCH  64  89
ENDBRANCH  38  39
ENDBRANCH  30  33
ENDBRANCH  28  29
ENDBRANCH  27  28
ENDBRANCH  26  27
ENDBRANCH   1  26
TORSDOF 19
ENDMDL
MODEL 3
REMARK VINA RESULT:     -12.6      2.112      3.047
REMARK SMILES Cc1ccc(Nc2c(F)cccc2Cl)c(CC(=O)NCCCCCCNC(=O)c2ccc(-c3c4nc(c(-c5c(F)cc(S(=O)(=O)[O-])cc5F)c5ccc([nH]5)c(-c5c(F)cc(S(=O)(=O)[O-])cc5F)c5nc(c(-c6c(F)cc(S(=O)(=O)[O-])cc6F)c6ccc3[nH]6)C=C5)C=C4)cc2)c1
REMARK SMILES IDX 22 1 21 2 20 3 19 4 17 5 18 6 16 8 15 9 1 10 2 11 3 12 95 13
REMARK SMILES IDX 4 14 5 15 6 16 7 18 8 19 13 20 9 21 10 22 12 23 14 24 11 25
REMARK SMILES IDX 23 26 24 27 25 28 26 29 27 30 28 32 29 33 30 34 94 35 31 36
REMARK SMILES IDX 93 37 32 38 33 39 34 40 87 41 35 42 92 43 86 44 88 45 36 46
REMARK SMILES IDX 91 47 85 48 84 49 37 51 71 52 50 53 70 54 51 55 54 56 69 57
REMARK SMILES IDX 89 58 52 59 53 60 68 62 90 63 55 64 38 65 39 66 48 67 40 68
REMARK SMILES IDX 41 69 47 70 49 71 42 72 43 73 44 74 45 75 46 76 72 77 73 78
REMARK SMILES IDX 82 79 74 80 75 81 81 82 83 83 76 84 77 85 78 86 79 87 80 88
REMARK SMILES IDX 56 89 57 90 66 91 58 92 59 93 65 94 67 95 60 96 61 97 62 98
REMARK SMILES IDX 63 99 64 100
REMARK H PARENT 19 7 6 17 26 31 88 50 54 61
REMARK Flexibility Score: inf
ROOT
ATOM      1  C   UNL A   1      32.205  27.534  25.477  1.00  0.00     0.002 C 
ENDROOT
BRANCH   1   2
ATOM      2  C   UNL A   1      31.107  27.139  26.475  1.00  0.00     0.021 C 
BRANCH   2   3
ATOM      3  C   UNL A   1      30.408  25.810  26.182  1.00  0.00     0.116 C 
BRANCH   3   4
ATOM      4  N   UNL A   1      30.940  24.722  26.981  1.00  0.00    -0.356 N 
ATOM      5  C   UNL A   1      31.265  23.457  26.599  1.00  0.00     0.224 C 
ATOM      6  O   UNL A   1      31.610  22.646  27.464  1.00  0.00    -0.275 OA
ATOM      7  H   UNL A   1      31.086  24.928  27.933  1.00  0.00     0.163 HD
BRANCH   5   8
ATOM      8  C   UNL A   1      31.201  23.042  25.141  1.00  0.00     0.137 C 
BRANCH   8   9
ATOM      9  C   UNL A   1      32.148  23.801  24.236  1.00  0.00    -0.015 A 
ATOM     10  C   UNL A   1      31.755  26.139  21.226  1.00  0.00     0.044 C 
ATOM     11  C   UNL A   1      32.367  25.319  22.321  1.00  0.00    -0.051 A 
ATOM     12  C   UNL A   1      33.751  25.229  22.434  1.00  0.00     0.005 A 
ATOM     13  C   UNL A   1      31.576  24.621  23.237  1.00  0.00     0.009 A 
ATOM     14  C   UNL A   1      34.329  24.452  23.442  1.00  0.00     0.026 A 
ATOM     15  C   UNL A   1      33.553  23.716  24.353  1.00  0.00     0.042 A 
BRANCH  15  16
ATOM     16  N   UNL A   1      34.160  22.952  25.376  1.00  0.00    -0.352 N 
ATOM     17  H   UNL A   1      33.626  22.844  26.195  1.00  0.00     0.167 HD
BRANCH  16  18
ATOM     18  C   UNL A   1      35.426  22.320  25.387  1.00  0.00     0.094 A 
ATOM     19  C   UNL A   1      36.614  23.029  25.619  1.00  0.00     0.148 A 
ATOM     20  C   UNL A   1      35.544  20.955  25.065  1.00  0.00     0.067 A 
ATOM     21  F   UNL A   1      36.573  24.327  25.962  1.00  0.00    -0.205 F 
ATOM     22  C   UNL A   1      37.866  22.422  25.525  1.00  0.00     0.041 A 
ATOM     23  C   UNL A   1      36.798  20.339  24.961  1.00  0.00     0.023 A 
ATOM     24  Cl  UNL A   1      34.142  19.991  24.747  1.00  0.00    -0.082 Cl
ATOM     25  C   UNL A   1      37.960  21.074  25.188  1.00  0.00     0.005 A 
ENDBRANCH  16  18
ENDBRANCH  15  16
ENDBRANCH   8   9
ENDBRANCH   5   8
ENDBRANCH   3   4
ENDBRANCH   2   3
ENDBRANCH   1   2
BRANCH   1  26
ATOM     26  C   UNL A   1      32.075  28.917  24.826  1.00  0.00     0.002 C 
BRANCH  26  27
ATOM     27  C   UNL A   1      32.213  30.125  25.755  1.00  0.00     0.021 C 
BRANCH  27  28
ATOM     28  C   UNL A   1      33.363  30.009  26.753  1.00  0.00     0.116 C 
BRANCH  28  29
ATOM     29  N   UNL A   1      33.599  31.251  27.477  1.00  0.00    -0.352 N 
ATOM     30  C   UNL A   1      34.603  31.551  28.385  1.00  0.00     0.251 C 
ATOM     31  H   UNL A   1      32.959  31.977  27.297  1.00  0.00     0.163 HD
ATOM     32  O   UNL A   1      34.604  32.591  29.007  1.00  0.00    -0.269 OA
BRANCH  30  33
ATOM     33  C   UNL A   1      35.722  30.591  28.508  1.00  0.00     0.039 A 
ATOM     34  C   UNL A   1      35.828  29.865  29.699  1.00  0.00     0.014 A 
ATOM     35  C   UNL A   1      36.745  30.571  27.564  1.00  0.00     0.014 A 
ATOM     36  C   UNL A   1      37.038  29.257  30.027  1.00  0.00     0.010 A 
ATOM     37  C   UNL A   1      37.964  30.023  27.919  1.00  0.00     0.010 A 
ATOM     38  C   UNL A   1      38.130  29.414  29.175  1.00  0.00    -0.014 A 
BRANCH  38  39
ATOM     39  C   UNL A   1      39.509  29.112  29.551  1.00  0.00     0.031 A 
ATOM     40  C   UNL A   1      40.138  27.822  29.181  1.00  0.00     0.074 A 
ATOM     41  C   UNL A   1      40.271  30.089  30.094  1.00  0.00     0.049 A 
ATOM     42  N   UNL A   1      41.328  27.468  29.539  1.00  0.00    -0.248 NA
ATOM     43  C   UNL A   1      39.439  26.779  28.431  1.00  0.00     0.031 C 
ATOM     44  C   UNL A   1      41.729  30.171  30.103  1.00  0.00     0.029 A 
ATOM     45  N   UNL A   1      39.862  31.101  30.966  1.00  0.00    -0.354 N 
ATOM     46  C   UNL A   1      41.656  26.336  28.837  1.00  0.00     0.074 A 
ATOM     47  C   UNL A   1      40.412  25.874  28.277  1.00  0.00     0.031 C 
ATOM     48  C   UNL A   1      42.113  30.986  31.094  1.00  0.00     0.029 A 
ATOM     49  C   UNL A   1      40.931  31.323  31.863  1.00  0.00     0.049 A 
ATOM     50  H   UNL A   1      38.997  31.569  30.958  1.00  0.00     0.167 HD
ATOM     51  C   UNL A   1      42.970  26.001  28.703  1.00  0.00     0.037 A 
ATOM     52  C   UNL A   1      40.781  31.073  33.199  1.00  0.00     0.037 A 
ATOM     53  C   UNL A   1      43.791  26.674  29.711  1.00  0.00     0.049 A 
ATOM     54  C   UNL A   1      41.645  29.954  33.743  1.00  0.00     0.074 A 
ATOM     55  C   UNL A   1      44.722  27.697  29.714  1.00  0.00     0.029 A 
ATOM     56  N   UNL A   1      43.518  26.405  31.043  1.00  0.00    -0.354 N 
ATOM     57  N   UNL A   1      42.522  29.285  33.047  1.00  0.00    -0.248 NA
ATOM     58  C   UNL A   1      41.527  29.448  35.115  1.00  0.00     0.031 C 
ATOM     59  C   UNL A   1      44.914  28.111  31.072  1.00  0.00     0.029 A 
ATOM     60  C   UNL A   1      44.130  27.311  31.885  1.00  0.00     0.049 A 
ATOM     61  H   UNL A   1      42.958  25.657  31.352  1.00  0.00     0.167 HD
ATOM     62  C   UNL A   1      42.992  28.241  33.795  1.00  0.00     0.074 A 
ATOM     63  C   UNL A   1      42.374  28.405  35.098  1.00  0.00     0.031 C 
ATOM     64  C   UNL A   1      43.804  27.266  33.301  1.00  0.00     0.037 A 
BRANCH  51  65
ATOM     65  C   UNL A   1      43.538  25.158  27.577  1.00  0.00     0.058 A 
ATOM     66  C   UNL A   1      43.421  23.750  27.608  1.00  0.00     0.135 A 
ATOM     67  C   UNL A   1      44.334  25.655  26.520  1.00  0.00     0.135 A 
ATOM     68  F   UNL A   1      42.716  23.135  28.570  1.00  0.00    -0.206 F 
ATOM     69  C   UNL A   1      44.054  22.912  26.681  1.00  0.00     0.059 A 
ATOM     70  C   UNL A   1      44.927  24.843  25.554  1.00  0.00     0.059 A 
ATOM     71  F   UNL A   1      44.649  26.950  26.406  1.00  0.00    -0.206 F 
ATOM     72  C   UNL A   1      44.812  23.468  25.659  1.00  0.00     0.060 A 
BRANCH  72  73
ATOM     73  S   UNL A   1      45.681  22.402  24.495  1.00  0.00     0.124 S 
ATOM     74  O   UNL A   1      44.581  21.890  23.683  1.00  0.00    -0.237 OA
ATOM     75  O   UNL A   1      46.588  23.330  23.830  1.00  0.00    -0.237 OA
ATOM     76  O   UNL A   1      46.328  21.416  25.358  1.00  0.00    -0.744 OA
ENDBRANCH  72  73
ENDBRANCH  51  65
BRANCH  52  77
ATOM     77  C   UNL A   1      39.427  31.441  33.694  1.00  0.00     0.058 A 
ATOM     78  C   UNL A   1      39.187  32.802  33.964  1.00  0.00     0.135 A 
ATOM     79  C   UNL A   1      38.320  30.614  33.463  1.00  0.00     0.135 A 
ATOM     80  F   UNL A   1      40.217  33.628  34.214  1.00  0.00    -0.206 F 
ATOM     81  C   UNL A   1      37.924  33.358  33.820  1.00  0.00     0.059 A 
ATOM     82  C   UNL A   1      37.039  31.150  33.330  1.00  0.00     0.059 A 
ATOM     83  F   UNL A   1      38.491  29.308  33.208  1.00  0.00    -0.206 F 
ATOM     84  C   UNL A   1      36.872  32.533  33.430  1.00  0.00     0.060 A 
BRANCH  84  85
ATOM     85  S   UNL A   1      35.355  33.324  32.851  1.00  0.00     0.124 S 
ATOM     86  O   UNL A   1      35.860  34.264  31.857  1.00  0.00    -0.237 OA
ATOM     87  O   UNL A   1      34.615  32.180  32.323  1.00  0.00    -0.237 OA
ATOM     88  O   UNL A   1      34.806  33.921  34.063  1.00  0.00    -0.744 OA
ENDBRANCH  84  85
ENDBRANCH  52  77
BRANCH  64  89
ATOM     89  C   UNL A   1      44.323  26.161  34.165  1.00  0.00     0.058 A 
ATOM     90  C   UNL A   1      45.690  26.050  34.458  1.00  0.00     0.135 A 
ATOM     91  C   UNL A   1      43.486  25.127  34.623  1.00  0.00     0.135 A 
ATOM     92  F   UNL A   1      46.553  26.992  34.044  1.00  0.00    -0.206 F 
ATOM     93  C   UNL A   1      46.206  24.971  35.173  1.00  0.00     0.059 A 
ATOM     94  C   UNL A   1      43.982  24.022  35.310  1.00  0.00     0.059 A 
ATOM     95  F   UNL A   1      42.159  25.177  34.429  1.00  0.00    -0.206 F 
ATOM     96  C   UNL A   1      45.345  23.958  35.590  1.00  0.00     0.060 A 
BRANCH  96  97
ATOM     97  S   UNL A   1      46.010  22.526  36.463  1.00  0.00     0.124 S 
ATOM     98  O   UNL A   1      45.677  22.810  37.856  1.00  0.00    -0.237 OA
ATOM     99  O   UNL A   1      45.261  21.436  35.847  1.00  0.00    -0.237 OA
ATOM    100  O   UNL A   1      47.434  22.574  36.145  1.00  0.00    -0.744 OA
ENDBRANCH  96  97
ENDBRANCH  64  89
ENDBRANCH  38  39
ENDBRANCH  30  33
ENDBRANCH  28  29
ENDBRANCH  27  28
ENDBRANCH  26  27
ENDBRANCH   1  26
TORSDOF 19
ENDMDL
