MODEL 1
REMARK VINA RESULT:     -12.0      0.000      0.000
REMARK SMILES CC(C)CN(C)c1cc2c(cc1Cl)C=C(C(=O)NCCCCCCNC(=O)c1ccc(-c3c4nc(c(-c5c(F)cc(S(=O)(=O)[O-])cc5F)c5ccc([nH]5)c(-c5c(F)cc(S(=O)(=O)[O-])cc5F)c5nc(c(-c6c(F)cc(S(=O)(=O)[O-])cc6F)c6ccc3[nH]6)C=C5)C=C4)cc1)[C@H](C(F)(F)F)O2
REMARK SMILES IDX 21 1 20 2 19 3 18 4 16 5 17 6 15 8 7 9 8 10 12 11 9 12 11 13
REMARK SMILES IDX 13 14 10 15 99 16 14 17 94 18 5 19 6 20 4 21 2 22 1 23 3 24
REMARK SMILES IDX 95 25 96 26 97 27 98 28 22 29 23 30 24 31 25 32 26 33 27 35
REMARK SMILES IDX 28 36 29 37 93 38 30 39 92 40 31 41 32 42 33 43 86 44 34 45
REMARK SMILES IDX 91 46 85 47 87 48 35 49 90 50 84 51 83 52 36 54 70 55 49 56
REMARK SMILES IDX 69 57 50 58 53 59 68 60 88 61 51 62 52 63 67 65 89 66 54 67
REMARK SMILES IDX 37 68 38 69 47 70 39 71 40 72 46 73 48 74 41 75 42 76 43 77
REMARK SMILES IDX 44 78 45 79 71 80 72 81 81 82 73 83 74 84 80 85 82 86 75 87
REMARK SMILES IDX 76 88 77 89 78 90 79 91 55 92 56 93 65 94 57 95 58 96 64 97
REMARK SMILES IDX 66 98 59 99 60 100 61 101 62 102 63 103
REMARK H PARENT 18 7 25 34 87 53 53 64
REMARK Flexibility Score: inf
ROOT
ATOM      1  C   UNL A   1      37.678  21.612  24.903  1.00  0.00     0.002 C 
ENDROOT
BRANCH   1   2
ATOM      2  C   UNL A   1      36.317  21.403  25.577  1.00  0.00     0.021 C 
BRANCH   2   3
ATOM      3  C   UNL A   1      35.670  22.694  26.079  1.00  0.00     0.116 C 
BRANCH   3   4
ATOM      4  N   UNL A   1      34.655  22.388  27.067  1.00  0.00    -0.352 N 
ATOM      5  C   UNL A   1      33.354  22.703  27.247  1.00  0.00     0.251 C 
ATOM      6  O   UNL A   1      32.833  22.263  28.277  1.00  0.00    -0.270 OA
ATOM      7  H   UNL A   1      34.998  21.807  27.783  1.00  0.00     0.163 HD
BRANCH   5   8
ATOM      8  C   UNL A   1      32.535  23.495  26.284  1.00  0.00     0.067 C 
ATOM      9  C   UNL A   1      30.684  27.471  23.748  1.00  0.00     0.059 A 
ATOM     10  C   UNL A   1      30.639  26.077  23.581  1.00  0.00     0.074 A 
ATOM     11  C   UNL A   1      31.278  27.962  24.929  1.00  0.00     0.065 A 
ATOM     12  C   UNL A   1      31.224  25.214  24.509  1.00  0.00     0.130 A 
ATOM     13  C   UNL A   1      31.914  27.100  25.828  1.00  0.00     0.034 A 
ATOM     14  Cl  UNL A   1      31.249  29.642  25.346  1.00  0.00    -0.082 Cl
ATOM     15  C   UNL A   1      31.903  25.723  25.607  1.00  0.00     0.019 A 
ATOM     16  O   UNL A   1      31.098  23.886  24.250  1.00  0.00    -0.475 OA
ATOM     17  C   UNL A   1      32.610  24.820  26.495  1.00  0.00     0.025 C 
ATOM     18  C   UNL A   1      31.727  22.924  25.143  1.00  0.00     0.314 C 
BRANCH   9  19
ATOM     19  N   UNL A   1      30.193  28.320  22.741  1.00  0.00    -0.373 N 
ATOM     20  C   UNL A   1      31.189  29.212  22.149  1.00  0.00     0.143 C 
BRANCH  19  21
ATOM     21  C   UNL A   1      28.859  28.912  22.993  1.00  0.00     0.119 C 
BRANCH  21  22
ATOM     22  C   UNL A   1      28.759  30.377  22.520  1.00  0.00     0.002 C 
ATOM     23  C   UNL A   1      28.014  30.509  21.187  1.00  0.00     0.009 C 
ATOM     24  C   UNL A   1      28.053  31.248  23.563  1.00  0.00     0.009 C 
ENDBRANCH  21  22
ENDBRANCH  19  21
ENDBRANCH   9  19
BRANCH  18  25
ATOM     25  C   UNL A   1      32.474  21.912  24.251  1.00  0.00     0.429 C 
ATOM     26  F   UNL A   1      31.779  21.551  23.150  1.00  0.00    -0.167 F 
ATOM     27  F   UNL A   1      33.649  22.442  23.822  1.00  0.00    -0.167 F 
ATOM     28  F   UNL A   1      32.779  20.766  24.906  1.00  0.00    -0.167 F 
ENDBRANCH  18  25
ENDBRANCH   5   8
ENDBRANCH   3   4
ENDBRANCH   2   3
ENDBRANCH   1   2
BRANCH   1  29
ATOM     29  C   UNL A   1      38.875  21.660  25.857  1.00  0.00     0.002 C 
BRANCH  29  30
ATOM     30  C   UNL A   1      39.099  23.006  26.550  1.00  0.00     0.021 C 
BRANCH  30  31
ATOM     31  C   UNL A   1      40.544  23.282  26.947  1.00  0.00     0.116 C 
BRANCH  31  32
ATOM     32  N   UNL A   1      41.266  24.011  25.916  1.00  0.00    -0.352 N 
ATOM     33  C   UNL A   1      41.705  25.312  25.926  1.00  0.00     0.251 C 
ATOM     34  H   UNL A   1      41.467  23.501  25.097  1.00  0.00     0.163 HD
ATOM     35  O   UNL A   1      42.132  25.831  24.898  1.00  0.00    -0.269 OA
BRANCH  33  36
ATOM     36  C   UNL A   1      41.632  26.088  27.182  1.00  0.00     0.039 A 
ATOM     37  C   UNL A   1      40.664  25.784  28.141  1.00  0.00     0.014 A 
ATOM     38  C   UNL A   1      42.518  27.150  27.384  1.00  0.00     0.014 A 
ATOM     39  C   UNL A   1      40.478  26.637  29.223  1.00  0.00     0.010 A 
ATOM     40  C   UNL A   1      42.382  27.956  28.518  1.00  0.00     0.010 A 
ATOM     41  C   UNL A   1      41.333  27.732  29.424  1.00  0.00    -0.014 A 
BRANCH  41  42
ATOM     42  C   UNL A   1      41.116  28.625  30.592  1.00  0.00     0.031 A 
ATOM     43  C   UNL A   1      42.042  28.580  31.778  1.00  0.00     0.074 A 
ATOM     44  C   UNL A   1      40.107  29.517  30.554  1.00  0.00     0.049 A 
ATOM     45  N   UNL A   1      42.000  29.281  32.882  1.00  0.00    -0.248 NA
ATOM     46  C   UNL A   1      43.161  27.626  31.720  1.00  0.00     0.031 C 
ATOM     47  C   UNL A   1      39.156  29.667  29.449  1.00  0.00     0.029 A 
ATOM     48  N   UNL A   1      39.724  30.481  31.452  1.00  0.00    -0.354 N 
ATOM     49  C   UNL A   1      43.071  28.846  33.654  1.00  0.00     0.074 A 
ATOM     50  C   UNL A   1      43.730  27.798  32.905  1.00  0.00     0.031 C 
ATOM     51  C   UNL A   1      38.337  30.695  29.709  1.00  0.00     0.029 A 
ATOM     52  C   UNL A   1      38.656  31.234  31.027  1.00  0.00     0.049 A 
ATOM     53  H   UNL A   1      40.171  30.619  32.318  1.00  0.00     0.167 HD
ATOM     54  C   UNL A   1      43.474  29.291  34.870  1.00  0.00     0.037 A 
ATOM     55  C   UNL A   1      37.994  32.237  31.635  1.00  0.00     0.037 A 
ATOM     56  C   UNL A   1      42.820  30.347  35.601  1.00  0.00     0.049 A 
ATOM     57  C   UNL A   1      38.428  32.674  33.004  1.00  0.00     0.074 A 
ATOM     58  C   UNL A   1      43.153  30.868  36.840  1.00  0.00     0.029 A 
ATOM     59  N   UNL A   1      41.705  31.045  35.162  1.00  0.00    -0.354 N 
ATOM     60  N   UNL A   1      39.432  32.237  33.726  1.00  0.00    -0.248 NA
ATOM     61  C   UNL A   1      37.635  33.728  33.647  1.00  0.00     0.031 C 
ATOM     62  C   UNL A   1      42.218  31.855  37.166  1.00  0.00     0.029 A 
ATOM     63  C   UNL A   1      41.328  31.982  36.111  1.00  0.00     0.049 A 
ATOM     64  H   UNL A   1      41.249  30.897  34.302  1.00  0.00     0.167 HD
ATOM     65  C   UNL A   1      39.400  32.974  34.904  1.00  0.00     0.074 A 
ATOM     66  C   UNL A   1      38.287  33.894  34.790  1.00  0.00     0.031 C 
ATOM     67  C   UNL A   1      40.217  32.892  35.983  1.00  0.00     0.037 A 
BRANCH  54  68
ATOM     68  C   UNL A   1      44.676  28.636  35.495  1.00  0.00     0.058 A 
ATOM     69  C   UNL A   1      45.969  29.150  35.319  1.00  0.00     0.135 A 
ATOM     70  C   UNL A   1      44.527  27.515  36.328  1.00  0.00     0.135 A 
ATOM     71  F   UNL A   1      46.173  30.210  34.520  1.00  0.00    -0.206 F 
ATOM     72  C   UNL A   1      47.074  28.569  35.934  1.00  0.00     0.059 A 
ATOM     73  C   UNL A   1      45.615  26.931  36.972  1.00  0.00     0.059 A 
ATOM     74  F   UNL A   1      43.312  26.980  36.530  1.00  0.00    -0.206 F 
ATOM     75  C   UNL A   1      46.886  27.460  36.761  1.00  0.00     0.060 A 
BRANCH  75  76
ATOM     76  S   UNL A   1      48.331  26.728  37.558  1.00  0.00     0.124 S 
ATOM     77  O   UNL A   1      49.410  27.548  37.014  1.00  0.00    -0.237 OA
ATOM     78  O   UNL A   1      48.039  26.927  38.974  1.00  0.00    -0.237 OA
ATOM     79  O   UNL A   1      48.306  25.342  37.103  1.00  0.00    -0.744 OA
ENDBRANCH  75  76
ENDBRANCH  54  68
BRANCH  55  80
ATOM     80  C   UNL A   1      36.851  32.890  30.943  1.00  0.00     0.058 A 
ATOM     81  C   UNL A   1      35.529  32.610  31.315  1.00  0.00     0.135 A 
ATOM     82  C   UNL A   1      37.061  33.838  29.928  1.00  0.00     0.135 A 
ATOM     83  F   UNL A   1      35.279  31.707  32.275  1.00  0.00    -0.206 F 
ATOM     84  C   UNL A   1      34.453  33.245  30.704  1.00  0.00     0.059 A 
ATOM     85  C   UNL A   1      36.002  34.505  29.322  1.00  0.00     0.059 A 
ATOM     86  F   UNL A   1      38.310  34.151  29.547  1.00  0.00    -0.206 F 
ATOM     87  C   UNL A   1      34.700  34.197  29.713  1.00  0.00     0.060 A 
BRANCH  87  88
ATOM     88  S   UNL A   1      33.298  35.061  28.975  1.00  0.00     0.124 S 
ATOM     89  O   UNL A   1      33.945  36.233  28.399  1.00  0.00    -0.237 OA
ATOM     90  O   UNL A   1      32.798  34.075  28.024  1.00  0.00    -0.237 OA
ATOM     91  O   UNL A   1      32.424  35.319  30.116  1.00  0.00    -0.744 OA
ENDBRANCH  87  88
ENDBRANCH  55  80
BRANCH  67  92
ATOM     92  C   UNL A   1      39.952  33.835  37.121  1.00  0.00     0.058 A 
ATOM     93  C   UNL A   1      40.551  35.103  37.179  1.00  0.00     0.135 A 
ATOM     94  C   UNL A   1      39.047  33.488  38.137  1.00  0.00     0.135 A 
ATOM     95  F   UNL A   1      41.430  35.478  36.236  1.00  0.00    -0.206 F 
ATOM     96  C   UNL A   1      40.275  35.988  38.215  1.00  0.00     0.059 A 
ATOM     97  C   UNL A   1      38.737  34.367  39.169  1.00  0.00     0.059 A 
ATOM     98  F   UNL A   1      38.441  32.290  38.123  1.00  0.00    -0.206 F 
ATOM     99  C   UNL A   1      39.364  35.612  39.204  1.00  0.00     0.060 A 
BRANCH  99 100
ATOM    100  S   UNL A   1      38.989  36.787  40.523  1.00  0.00     0.124 S 
ATOM    101  O   UNL A   1      38.412  37.898  39.772  1.00  0.00    -0.237 OA
ATOM    102  O   UNL A   1      38.056  36.034  41.354  1.00  0.00    -0.237 OA
ATOM    103  O   UNL A   1      40.291  37.049  41.128  1.00  0.00    -0.744 OA
ENDBRANCH  99 100
ENDBRANCH  67  92
ENDBRANCH  41  42
ENDBRANCH  33  36
ENDBRANCH  31  32
ENDBRANCH  30  31
ENDBRANCH  29  30
ENDBRANCH   1  29
TORSDOF 20
ENDMDL
MODEL 2
REMARK VINA RESULT:     -11.4      1.626      8.103
REMARK SMILES CC(C)CN(C)c1cc2c(cc1Cl)C=C(C(=O)NCCCCCCNC(=O)c1ccc(-c3c4nc(c(-c5c(F)cc(S(=O)(=O)[O-])cc5F)c5ccc([nH]5)c(-c5c(F)cc(S(=O)(=O)[O-])cc5F)c5nc(c(-c6c(F)cc(S(=O)(=O)[O-])cc6F)c6ccc3[nH]6)C=C5)C=C4)cc1)[C@H](C(F)(F)F)O2
REMARK SMILES IDX 21 1 20 2 19 3 18 4 16 5 17 6 15 8 7 9 8 10 12 11 9 12 11 13
REMARK SMILES IDX 13 14 10 15 99 16 14 17 94 18 5 19 6 20 4 21 2 22 1 23 3 24
REMARK SMILES IDX 95 25 96 26 97 27 98 28 22 29 23 30 24 31 25 32 26 33 27 35
REMARK SMILES IDX 28 36 29 37 93 38 30 39 92 40 31 41 32 42 33 43 86 44 34 45
REMARK SMILES IDX 91 46 85 47 87 48 35 49 90 50 84 51 83 52 36 54 70 55 49 56
REMARK SMILES IDX 69 57 50 58 53 59 68 60 88 61 51 62 52 63 67 65 89 66 54 67
REMARK SMILES IDX 37 68 38 69 47 70 39 71 40 72 46 73 48 74 41 75 42 76 43 77
REMARK SMILES IDX 44 78 45 79 71 80 72 81 81 82 73 83 74 84 80 85 82 86 75 87
REMARK SMILES IDX 76 88 77 89 78 90 79 91 55 92 56 93 65 94 57 95 58 96 64 97
REMARK SMILES IDX 66 98 59 99 60 100 61 101 62 102 63 103
REMARK H PARENT 18 7 25 34 87 53 53 64
REMARK Flexibility Score: inf
ROOT
ATOM      1  C   UNL A   1      38.299  23.737  26.217  1.00  0.00     0.002 C 
ENDROOT
BRANCH   1   2
ATOM      2  C   UNL A   1      37.992  22.236  26.170  1.00  0.00     0.021 C 
BRANCH   2   3
ATOM      3  C   UNL A   1      37.792  21.690  24.756  1.00  0.00     0.116 C 
BRANCH   3   4
ATOM      4  N   UNL A   1      36.546  20.955  24.679  1.00  0.00    -0.352 N 
ATOM      5  C   UNL A   1      35.239  21.247  24.851  1.00  0.00     0.251 C 
ATOM      6  O   UNL A   1      34.457  20.297  24.735  1.00  0.00    -0.270 OA
ATOM      7  H   UNL A   1      36.687  20.010  24.443  1.00  0.00     0.163 HD
BRANCH   5   8
ATOM      8  C   UNL A   1      34.707  22.612  25.129  1.00  0.00     0.067 C 
ATOM      9  C   UNL A   1      32.894  27.274  24.324  1.00  0.00     0.059 A 
ATOM     10  C   UNL A   1      32.964  26.412  25.432  1.00  0.00     0.074 A 
ATOM     11  C   UNL A   1      33.549  26.865  23.144  1.00  0.00     0.065 A 
ATOM     12  C   UNL A   1      33.591  25.168  25.346  1.00  0.00     0.130 A 
ATOM     13  C   UNL A   1      34.127  25.595  23.043  1.00  0.00     0.034 A 
ATOM     14  Cl  UNL A   1      33.692  27.899  21.763  1.00  0.00    -0.082 Cl
ATOM     15  C   UNL A   1      34.130  24.737  24.143  1.00  0.00     0.019 A 
ATOM     16  O   UNL A   1      33.614  24.432  26.488  1.00  0.00    -0.475 OA
ATOM     17  C   UNL A   1      34.669  23.395  24.037  1.00  0.00     0.025 C 
ATOM     18  C   UNL A   1      34.203  23.101  26.466  1.00  0.00     0.314 C 
BRANCH   9  19
ATOM     19  N   UNL A   1      32.154  28.467  24.402  1.00  0.00    -0.373 N 
ATOM     20  C   UNL A   1      32.734  29.494  25.268  1.00  0.00     0.143 C 
BRANCH  19  21
ATOM     21  C   UNL A   1      30.684  28.307  24.478  1.00  0.00     0.119 C 
BRANCH  21  22
ATOM     22  C   UNL A   1      30.019  28.261  23.086  1.00  0.00     0.002 C 
ATOM     23  C   UNL A   1      28.489  28.257  23.173  1.00  0.00     0.009 C 
ATOM     24  C   UNL A   1      30.458  29.448  22.224  1.00  0.00     0.009 C 
ENDBRANCH  21  22
ENDBRANCH  19  21
ENDBRANCH   9  19
BRANCH  18  25
ATOM     25  C   UNL A   1      33.207  22.162  27.177  1.00  0.00     0.429 C 
ATOM     26  F   UNL A   1      33.784  21.054  27.690  1.00  0.00    -0.167 F 
ATOM     27  F   UNL A   1      32.606  22.810  28.208  1.00  0.00    -0.167 F 
ATOM     28  F   UNL A   1      32.218  21.735  26.356  1.00  0.00    -0.167 F 
ENDBRANCH  18  25
ENDBRANCH   5   8
ENDBRANCH   3   4
ENDBRANCH   2   3
ENDBRANCH   1   2
BRANCH   1  29
ATOM     29  C   UNL A   1      39.659  24.103  26.819  1.00  0.00     0.002 C 
BRANCH  29  30
ATOM     30  C   UNL A   1      39.974  25.600  26.848  1.00  0.00     0.021 C 
BRANCH  30  31
ATOM     31  C   UNL A   1      40.964  26.060  25.785  1.00  0.00     0.116 C 
BRANCH  31  32
ATOM     32  N   UNL A   1      42.220  25.329  25.853  1.00  0.00    -0.352 N 
ATOM     33  C   UNL A   1      43.285  25.520  26.700  1.00  0.00     0.251 C 
ATOM     34  H   UNL A   1      42.321  24.597  25.202  1.00  0.00     0.163 HD
ATOM     35  O   UNL A   1      44.348  24.940  26.500  1.00  0.00    -0.269 OA
BRANCH  33  36
ATOM     36  C   UNL A   1      43.144  26.453  27.837  1.00  0.00     0.039 A 
ATOM     37  C   UNL A   1      42.641  26.002  29.059  1.00  0.00     0.014 A 
ATOM     38  C   UNL A   1      43.485  27.797  27.667  1.00  0.00     0.014 A 
ATOM     39  C   UNL A   1      42.331  26.920  30.055  1.00  0.00     0.010 A 
ATOM     40  C   UNL A   1      43.250  28.706  28.703  1.00  0.00     0.010 A 
ATOM     41  C   UNL A   1      42.630  28.282  29.890  1.00  0.00    -0.014 A 
BRANCH  41  42
ATOM     42  C   UNL A   1      42.293  29.242  30.972  1.00  0.00     0.031 A 
ATOM     43  C   UNL A   1      41.053  30.092  30.888  1.00  0.00     0.074 A 
ATOM     44  C   UNL A   1      43.085  29.306  32.060  1.00  0.00     0.049 A 
ATOM     45  N   UNL A   1      40.608  30.985  31.736  1.00  0.00    -0.248 NA
ATOM     46  C   UNL A   1      40.201  29.921  29.701  1.00  0.00     0.031 C 
ATOM     47  C   UNL A   1      44.303  28.516  32.263  1.00  0.00     0.029 A 
ATOM     48  N   UNL A   1      42.978  30.048  33.209  1.00  0.00    -0.354 N 
ATOM     49  C   UNL A   1      39.438  31.490  31.181  1.00  0.00     0.074 A 
ATOM     50  C   UNL A   1      39.255  30.826  29.909  1.00  0.00     0.031 C 
ATOM     51  C   UNL A   1      44.797  28.775  33.481  1.00  0.00     0.029 A 
ATOM     52  C   UNL A   1      43.976  29.797  34.119  1.00  0.00     0.049 A 
ATOM     53  H   UNL A   1      42.256  30.698  33.366  1.00  0.00     0.167 HD
ATOM     54  C   UNL A   1      38.588  32.413  31.694  1.00  0.00     0.037 A 
ATOM     55  C   UNL A   1      44.216  30.340  35.328  1.00  0.00     0.037 A 
ATOM     56  C   UNL A   1      38.770  33.058  32.970  1.00  0.00     0.049 A 
ATOM     57  C   UNL A   1      43.288  31.400  35.850  1.00  0.00     0.074 A 
ATOM     58  C   UNL A   1      37.964  34.006  33.577  1.00  0.00     0.029 A 
ATOM     59  N   UNL A   1      39.826  32.820  33.838  1.00  0.00    -0.354 N 
ATOM     60  N   UNL A   1      42.197  31.877  35.302  1.00  0.00    -0.248 NA
ATOM     61  C   UNL A   1      43.629  32.002  37.144  1.00  0.00     0.031 C 
ATOM     62  C   UNL A   1      38.553  34.368  34.793  1.00  0.00     0.029 A 
ATOM     63  C   UNL A   1      39.701  33.612  34.967  1.00  0.00     0.049 A 
ATOM     64  H   UNL A   1      40.557  32.180  33.675  1.00  0.00     0.167 HD
ATOM     65  C   UNL A   1      41.712  32.828  36.192  1.00  0.00     0.074 A 
ATOM     66  C   UNL A   1      42.620  32.845  37.320  1.00  0.00     0.031 C 
ATOM     67  C   UNL A   1      40.615  33.618  36.082  1.00  0.00     0.037 A 
BRANCH  54  68
ATOM     68  C   UNL A   1      37.382  32.791  30.876  1.00  0.00     0.058 A 
ATOM     69  C   UNL A   1      37.468  33.715  29.823  1.00  0.00     0.135 A 
ATOM     70  C   UNL A   1      36.139  32.180  31.111  1.00  0.00     0.135 A 
ATOM     71  F   UNL A   1      38.627  34.342  29.565  1.00  0.00    -0.206 F 
ATOM     72  C   UNL A   1      36.361  34.030  29.041  1.00  0.00     0.059 A 
ATOM     73  C   UNL A   1      35.025  32.463  30.326  1.00  0.00     0.059 A 
ATOM     74  F   UNL A   1      36.001  31.291  32.107  1.00  0.00    -0.206 F 
ATOM     75  C   UNL A   1      35.144  33.397  29.298  1.00  0.00     0.060 A 
BRANCH  75  76
ATOM     76  S   UNL A   1      33.724  33.812  28.264  1.00  0.00     0.124 S 
ATOM     77  O   UNL A   1      34.329  34.713  27.286  1.00  0.00    -0.237 OA
ATOM     78  O   UNL A   1      33.319  32.507  27.754  1.00  0.00    -0.237 OA
ATOM     79  O   UNL A   1      32.792  34.436  29.198  1.00  0.00    -0.744 OA
ENDBRANCH  75  76
ENDBRANCH  54  68
BRANCH  55  80
ATOM     80  C   UNL A   1      45.388  29.883  36.121  1.00  0.00     0.058 A 
ATOM     81  C   UNL A   1      45.275  28.815  37.022  1.00  0.00     0.135 A 
ATOM     82  C   UNL A   1      46.650  30.477  35.961  1.00  0.00     0.135 A 
ATOM     83  F   UNL A   1      44.088  28.221  37.213  1.00  0.00    -0.206 F 
ATOM     84  C   UNL A   1      46.373  28.351  37.739  1.00  0.00     0.059 A 
ATOM     85  C   UNL A   1      47.767  30.014  36.647  1.00  0.00     0.059 A 
ATOM     86  F   UNL A   1      46.812  31.494  35.100  1.00  0.00    -0.206 F 
ATOM     87  C   UNL A   1      47.617  28.953  37.539  1.00  0.00     0.060 A 
BRANCH  87  88
ATOM     88  S   UNL A   1      49.046  28.298  38.427  1.00  0.00     0.124 S 
ATOM     89  O   UNL A   1      49.048  26.906  37.994  1.00  0.00    -0.237 OA
ATOM     90  O   UNL A   1      50.130  29.129  37.913  1.00  0.00    -0.237 OA
ATOM     91  O   UNL A   1      48.704  28.525  39.828  1.00  0.00    -0.744 OA
ENDBRANCH  87  88
ENDBRANCH  55  80
BRANCH  67  92
ATOM     92  C   UNL A   1      40.323  34.554  37.219  1.00  0.00     0.058 A 
ATOM     93  C   UNL A   1      40.738  35.895  37.192  1.00  0.00     0.135 A 
ATOM     94  C   UNL A   1      39.574  34.120  38.324  1.00  0.00     0.135 A 
ATOM     95  F   UNL A   1      41.464  36.356  36.161  1.00  0.00    -0.206 F 
ATOM     96  C   UNL A   1      40.434  36.769  38.230  1.00  0.00     0.059 A 
ATOM     97  C   UNL A   1      39.238  34.983  39.362  1.00  0.00     0.059 A 
ATOM     98  F   UNL A   1      39.146  32.849  38.395  1.00  0.00    -0.206 F 
ATOM     99  C   UNL A   1      39.681  36.305  39.309  1.00  0.00     0.060 A 
BRANCH  99 100
ATOM    100  S   UNL A   1      39.263  37.461  40.632  1.00  0.00     0.124 S 
ATOM    101  O   UNL A   1      38.740  36.561  41.655  1.00  0.00    -0.237 OA
ATOM    102  O   UNL A   1      40.553  38.074  40.928  1.00  0.00    -0.237 OA
ATOM    103  O   UNL A   1      38.281  38.346  40.014  1.00  0.00    -0.744 OA
ENDBRANCH  99 100
ENDBRANCH  67  92
ENDBRANCH  41  42
ENDBRANCH  33  36
ENDBRANCH  31  32
ENDBRANCH  30  31
ENDBRANCH  29  30
ENDBRANCH   1  29
TORSDOF 20
ENDMDL
MODEL 3
REMARK VINA RESULT:     -11.4      1.315      2.158
REMARK SMILES CC(C)CN(C)c1cc2c(cc1Cl)C=C(C(=O)NCCCCCCNC(=O)c1ccc(-c3c4nc(c(-c5c(F)cc(S(=O)(=O)[O-])cc5F)c5ccc([nH]5)c(-c5c(F)cc(S(=O)(=O)[O-])cc5F)c5nc(c(-c6c(F)cc(S(=O)(=O)[O-])cc6F)c6ccc3[nH]6)C=C5)C=C4)cc1)[C@H](C(F)(F)F)O2
REMARK SMILES IDX 21 1 20 2 19 3 18 4 16 5 17 6 15 8 7 9 8 10 12 11 9 12 11 13
REMARK SMILES IDX 13 14 10 15 99 16 14 17 94 18 5 19 6 20 4 21 2 22 1 23 3 24
REMARK SMILES IDX 95 25 96 26 97 27 98 28 22 29 23 30 24 31 25 32 26 33 27 35
REMARK SMILES IDX 28 36 29 37 93 38 30 39 92 40 31 41 32 42 33 43 86 44 34 45
REMARK SMILES IDX 91 46 85 47 87 48 35 49 90 50 84 51 83 52 36 54 70 55 49 56
REMARK SMILES IDX 69 57 50 58 53 59 68 60 88 61 51 62 52 63 67 65 89 66 54 67
REMARK SMILES IDX 37 68 38 69 47 70 39 71 40 72 46 73 48 74 41 75 42 76 43 77
REMARK SMILES IDX 44 78 45 79 71 80 72 81 81 82 73 83 74 84 80 85 82 86 75 87
REMARK SMILES IDX 76 88 77 89 78 90 79 91 55 92 56 93 65 94 57 95 58 96 64 97
REMARK SMILES IDX 66 98 59 99 60 100 61 101 62 102 63 103
REMARK H PARENT 18 7 25 34 87 53 53 64
REMARK Flexibility Score: inf
ROOT
ATOM      1  C   UNL A   1      38.504  23.642  26.098  1.00  0.00     0.002 C 
ENDROOT
BRANCH   1   2
ATOM      2  C   UNL A   1      37.535  22.932  25.148  1.00  0.00     0.021 C 
BRANCH   2   3
ATOM      3  C   UNL A   1      36.972  21.622  25.702  1.00  0.00     0.116 C 
BRANCH   3   4
ATOM      4  N   UNL A   1      35.825  21.206  24.922  1.00  0.00    -0.352 N 
ATOM      5  C   UNL A   1      34.624  21.739  24.607  1.00  0.00     0.251 C 
ATOM      6  O   UNL A   1      33.881  21.023  23.928  1.00  0.00    -0.270 OA
ATOM      7  H   UNL A   1      35.951  20.315  24.522  1.00  0.00     0.163 HD
BRANCH   5   8
ATOM      8  C   UNL A   1      34.181  23.110  24.992  1.00  0.00     0.067 C 
ATOM      9  C   UNL A   1      32.832  27.975  24.572  1.00  0.00     0.059 A 
ATOM     10  C   UNL A   1      32.730  26.999  25.577  1.00  0.00     0.074 A 
ATOM     11  C   UNL A   1      33.558  27.636  23.411  1.00  0.00     0.065 A 
ATOM     12  C   UNL A   1      33.260  25.720  25.404  1.00  0.00     0.130 A 
ATOM     13  C   UNL A   1      34.038  26.336  23.216  1.00  0.00     0.034 A 
ATOM     14  Cl  UNL A   1      33.910  28.793  22.173  1.00  0.00    -0.082 Cl
ATOM     15  C   UNL A   1      33.871  25.370  24.208  1.00  0.00     0.019 A 
ATOM     16  O   UNL A   1      33.118  24.868  26.453  1.00  0.00    -0.475 OA
ATOM     17  C   UNL A   1      34.307  24.004  23.997  1.00  0.00     0.025 C 
ATOM     18  C   UNL A   1      33.597  23.499  26.330  1.00  0.00     0.314 C 
BRANCH   9  19
ATOM     19  N   UNL A   1      32.187  29.215  24.723  1.00  0.00    -0.373 N 
ATOM     20  C   UNL A   1      32.642  30.010  25.863  1.00  0.00     0.143 C 
BRANCH  19  21
ATOM     21  C   UNL A   1      30.727  29.215  24.472  1.00  0.00     0.119 C 
BRANCH  21  22
ATOM     22  C   UNL A   1      30.352  28.519  23.147  1.00  0.00     0.002 C 
ATOM     23  C   UNL A   1      29.729  27.137  23.371  1.00  0.00     0.009 C 
ATOM     24  C   UNL A   1      29.373  29.372  22.334  1.00  0.00     0.009 C 
ENDBRANCH  21  22
ENDBRANCH  19  21
ENDBRANCH   9  19
BRANCH  18  25
ATOM     25  C   UNL A   1      32.467  22.584  26.845  1.00  0.00     0.429 C 
ATOM     26  F   UNL A   1      32.881  21.334  27.146  1.00  0.00    -0.167 F 
ATOM     27  F   UNL A   1      31.922  23.104  27.975  1.00  0.00    -0.167 F 
ATOM     28  F   UNL A   1      31.458  22.450  25.952  1.00  0.00    -0.167 F 
ENDBRANCH  18  25
ENDBRANCH   5   8
ENDBRANCH   3   4
ENDBRANCH   2   3
ENDBRANCH   1   2
BRANCH   1  29
ATOM     29  C   UNL A   1      39.276  22.720  27.047  1.00  0.00     0.002 C 
BRANCH  29  30
ATOM     30  C   UNL A   1      40.693  22.361  26.593  1.00  0.00     0.021 C 
BRANCH  30  31
ATOM     31  C   UNL A   1      41.767  23.353  27.024  1.00  0.00     0.116 C 
BRANCH  31  32
ATOM     32  N   UNL A   1      42.283  24.124  25.903  1.00  0.00    -0.352 N 
ATOM     33  C   UNL A   1      42.273  25.484  25.714  1.00  0.00     0.251 C 
ATOM     34  H   UNL A   1      42.698  23.597  25.182  1.00  0.00     0.163 HD
ATOM     35  O   UNL A   1      42.579  25.961  24.624  1.00  0.00    -0.269 OA
BRANCH  33  36
ATOM     36  C   UNL A   1      41.861  26.365  26.826  1.00  0.00     0.039 A 
ATOM     37  C   UNL A   1      42.431  27.632  26.970  1.00  0.00     0.014 A 
ATOM     38  C   UNL A   1      40.922  25.904  27.753  1.00  0.00     0.014 A 
ATOM     39  C   UNL A   1      42.183  28.370  28.121  1.00  0.00     0.010 A 
ATOM     40  C   UNL A   1      40.610  26.687  28.868  1.00  0.00     0.010 A 
ATOM     41  C   UNL A   1      41.272  27.907  29.084  1.00  0.00    -0.014 A 
BRANCH  41  42
ATOM     42  C   UNL A   1      41.021  28.718  30.304  1.00  0.00     0.031 A 
ATOM     43  C   UNL A   1      41.925  28.605  31.502  1.00  0.00     0.074 A 
ATOM     44  C   UNL A   1      40.001  29.599  30.305  1.00  0.00     0.049 A 
ATOM     45  N   UNL A   1      41.852  29.231  32.649  1.00  0.00    -0.248 NA
ATOM     46  C   UNL A   1      43.057  27.670  31.403  1.00  0.00     0.031 C 
ATOM     47  C   UNL A   1      39.070  29.811  29.193  1.00  0.00     0.029 A 
ATOM     48  N   UNL A   1      39.589  30.496  31.257  1.00  0.00    -0.354 N 
ATOM     49  C   UNL A   1      42.914  28.758  33.412  1.00  0.00     0.074 A 
ATOM     50  C   UNL A   1      43.601  27.770  32.608  1.00  0.00     0.031 C 
ATOM     51  C   UNL A   1      38.233  30.809  29.505  1.00  0.00     0.029 A 
ATOM     52  C   UNL A   1      38.519  31.263  30.862  1.00  0.00     0.049 A 
ATOM     53  H   UNL A   1      40.017  30.582  32.139  1.00  0.00     0.167 HD
ATOM     54  C   UNL A   1      43.288  29.125  34.662  1.00  0.00     0.037 A 
ATOM     55  C   UNL A   1      37.833  32.215  31.522  1.00  0.00     0.037 A 
ATOM     56  C   UNL A   1      42.607  30.122  35.449  1.00  0.00     0.049 A 
ATOM     57  C   UNL A   1      38.235  32.565  32.925  1.00  0.00     0.074 A 
ATOM     58  C   UNL A   1      42.910  30.564  36.725  1.00  0.00     0.029 A 
ATOM     59  N   UNL A   1      41.491  30.835  35.035  1.00  0.00    -0.354 N 
ATOM     60  N   UNL A   1      39.231  32.093  33.636  1.00  0.00    -0.248 NA
ATOM     61  C   UNL A   1      37.416  33.565  33.621  1.00  0.00     0.031 C 
ATOM     62  C   UNL A   1      41.955  31.516  37.098  1.00  0.00     0.029 A 
ATOM     63  C   UNL A   1      41.085  31.702  36.036  1.00  0.00     0.049 A 
ATOM     64  H   UNL A   1      41.053  30.739  34.158  1.00  0.00     0.167 HD
ATOM     65  C   UNL A   1      39.167  32.750  34.859  1.00  0.00     0.074 A 
ATOM     66  C   UNL A   1      38.044  33.662  34.785  1.00  0.00     0.031 C 
ATOM     67  C   UNL A   1      39.964  32.605  35.947  1.00  0.00     0.037 A 
BRANCH  54  68
ATOM     68  C   UNL A   1      44.487  28.445  35.266  1.00  0.00     0.058 A 
ATOM     69  C   UNL A   1      44.374  27.224  35.949  1.00  0.00     0.135 A 
ATOM     70  C   UNL A   1      45.772  28.990  35.111  1.00  0.00     0.135 A 
ATOM     71  F   UNL A   1      43.167  26.666  36.142  1.00  0.00    -0.206 F 
ATOM     72  C   UNL A   1      45.489  26.575  36.470  1.00  0.00     0.059 A 
ATOM     73  C   UNL A   1      46.905  28.346  35.603  1.00  0.00     0.059 A 
ATOM     74  F   UNL A   1      45.938  30.156  34.468  1.00  0.00    -0.206 F 
ATOM     75  C   UNL A   1      46.751  27.142  36.290  1.00  0.00     0.060 A 
BRANCH  75  76
ATOM     76  S   UNL A   1      48.186  26.278  36.962  1.00  0.00     0.124 S 
ATOM     77  O   UNL A   1      49.029  26.148  35.777  1.00  0.00    -0.237 OA
ATOM     78  O   UNL A   1      48.663  27.211  37.978  1.00  0.00    -0.237 OA
ATOM     79  O   UNL A   1      47.625  25.031  37.472  1.00  0.00    -0.744 OA
ENDBRANCH  75  76
ENDBRANCH  54  68
BRANCH  55  80
ATOM     80  C   UNL A   1      36.695  32.899  30.852  1.00  0.00     0.058 A 
ATOM     81  C   UNL A   1      35.371  32.610  31.208  1.00  0.00     0.135 A 
ATOM     82  C   UNL A   1      36.911  33.885  29.876  1.00  0.00     0.135 A 
ATOM     83  F   UNL A   1      35.114  31.672  32.132  1.00  0.00    -0.206 F 
ATOM     84  C   UNL A   1      34.299  33.273  30.620  1.00  0.00     0.059 A 
ATOM     85  C   UNL A   1      35.857  34.579  29.292  1.00  0.00     0.059 A 
ATOM     86  F   UNL A   1      38.163  34.207  29.511  1.00  0.00    -0.206 F 
ATOM     87  C   UNL A   1      34.553  34.261  29.667  1.00  0.00     0.060 A 
BRANCH  87  88
ATOM     88  S   UNL A   1      33.156  35.160  28.959  1.00  0.00     0.124 S 
ATOM     89  O   UNL A   1      33.819  36.318  28.373  1.00  0.00    -0.237 OA
ATOM     90  O   UNL A   1      32.616  34.187  28.015  1.00  0.00    -0.237 OA
ATOM     91  O   UNL A   1      32.311  35.433  30.117  1.00  0.00    -0.744 OA
ENDBRANCH  87  88
ENDBRANCH  55  80
BRANCH  67  92
ATOM     92  C   UNL A   1      39.665  33.467  37.139  1.00  0.00     0.058 A 
ATOM     93  C   UNL A   1      38.746  33.068  38.123  1.00  0.00     0.135 A 
ATOM     94  C   UNL A   1      40.345  34.681  37.329  1.00  0.00     0.135 A 
ATOM     95  F   UNL A   1      38.065  31.920  37.983  1.00  0.00    -0.206 F 
ATOM     96  C   UNL A   1      38.499  33.852  39.245  1.00  0.00     0.059 A 
ATOM     97  C   UNL A   1      40.131  35.468  38.455  1.00  0.00     0.059 A 
ATOM     98  F   UNL A   1      41.240  35.104  36.422  1.00  0.00    -0.206 F 
ATOM     99  C   UNL A   1      39.199  35.049  39.404  1.00  0.00     0.060 A 
BRANCH  99 100
ATOM    100  S   UNL A   1      38.894  36.037  40.884  1.00  0.00     0.124 S 
ATOM    101  O   UNL A   1      37.810  35.291  41.517  1.00  0.00    -0.237 OA
ATOM    102  O   UNL A   1      40.182  35.983  41.565  1.00  0.00    -0.237 OA
ATOM    103  O   UNL A   1      38.526  37.345  40.351  1.00  0.00    -0.744 OA
ENDBRANCH  99 100
ENDBRANCH  67  92
ENDBRANCH  41  42
ENDBRANCH  33  36
ENDBRANCH  31  32
ENDBRANCH  30  31
ENDBRANCH  29  30
ENDBRANCH   1  29
TORSDOF 20
ENDMDL
