MODEL 1
REMARK VINA RESULT:     -12.3      0.000      0.000
REMARK SMILES C[C@H]1CCC[C@H](C)N1C(=O)[C@H]1[C@@H](C(=O)NCCCCCCNC(=O)c2ccc(-c3c4nc(c(-c5c(F)cc(S(=O)(=O)[O-])cc5F)c5ccc([nH]5)c(-c5c(F)cc(S(=O)(=O)[O-])cc5F)c5nc(c(-c6c(F)cc(S(=O)(=O)[O-])cc6F)c6ccc3[nH]6)C=C5)C=C4)cc2)[C@H]2CC[C@@H]1O2
REMARK SMILES IDX 19 1 18 2 17 3 16 4 15 5 13 6 14 7 12 9 11 10 94 11 91 12
REMARK SMILES IDX 93 13 95 14 92 15 9 16 1 17 2 18 3 19 8 20 4 21 6 22 5 23
REMARK SMILES IDX 7 24 10 25 20 26 21 27 22 28 23 29 24 31 25 32 26 33 90 34
REMARK SMILES IDX 27 35 89 36 28 37 29 38 30 39 83 40 31 41 88 42 82 43 84 44
REMARK SMILES IDX 32 45 87 46 81 47 80 48 33 50 67 51 46 52 66 53 47 54 50 55
REMARK SMILES IDX 65 56 85 57 48 58 49 59 64 61 86 62 51 63 34 64 35 65 44 66
REMARK SMILES IDX 36 67 37 68 43 69 45 70 38 71 39 72 40 73 41 74 42 75 68 76
REMARK SMILES IDX 69 77 78 78 70 79 71 80 77 81 79 82 72 83 73 84 74 85 75 86
REMARK SMILES IDX 76 87 52 88 53 89 62 90 54 91 55 92 61 93 63 94 56 95 57 96
REMARK SMILES IDX 58 97 59 98 60 99
REMARK H PARENT 15 8 22 30 84 49 50 60
REMARK Flexibility Score: inf
ROOT
ATOM      1  C   UNL A   1      34.786  29.037  26.886  1.00  0.00     0.002 C 
ENDROOT
BRANCH   1   2
ATOM      2  C   UNL A   1      33.814  28.380  25.907  1.00  0.00     0.002 C 
BRANCH   2   3
ATOM      3  C   UNL A   1      32.799  27.446  26.550  1.00  0.00     0.021 C 
BRANCH   3   4
ATOM      4  C   UNL A   1      31.386  27.264  25.945  1.00  0.00     0.116 C 
BRANCH   4   5
ATOM      5  N   UNL A   1      30.632  26.193  26.592  1.00  0.00    -0.356 N 
ATOM      6  C   UNL A   1      30.393  24.875  26.285  1.00  0.00     0.226 C 
ATOM      7  O   UNL A   1      29.510  24.355  26.980  1.00  0.00    -0.275 OA
ATOM      8  H   UNL A   1      30.202  26.477  27.430  1.00  0.00     0.163 HD
BRANCH   6   9
ATOM      9  C   UNL A   1      31.203  24.030  25.235  1.00  0.00     0.122 C 
ATOM     10  C   UNL A   1      32.721  23.678  24.881  1.00  0.00     0.122 C 
ATOM     11  C   UNL A   1      32.537  23.435  23.345  1.00  0.00     0.132 C 
ATOM     12  C   UNL A   1      30.645  24.530  23.811  1.00  0.00     0.132 C 
ATOM     13  C   UNL A   1      32.648  24.646  22.426  1.00  0.00     0.035 C 
ATOM     14  O   UNL A   1      31.111  23.251  23.262  1.00  0.00    -0.373 OA
ATOM     15  C   UNL A   1      31.243  25.214  22.524  1.00  0.00     0.035 C 
BRANCH  10  16
ATOM     16  C   UNL A   1      34.219  24.239  25.028  1.00  0.00     0.229 C 
ATOM     17  C   UNL A   1      34.227  22.572  27.504  1.00  0.00     0.031 C 
ATOM     18  C   UNL A   1      35.121  22.316  26.329  1.00  0.00     0.082 C 
ATOM     19  C   UNL A   1      35.042  21.257  25.232  1.00  0.00     0.025 C 
ATOM     20  N   UNL A   1      35.274  23.539  25.608  1.00  0.00    -0.337 N 
ATOM     21  C   UNL A   1      36.457  21.153  24.627  1.00  0.00     0.004 C 
ATOM     22  C   UNL A   1      36.675  23.728  25.175  1.00  0.00     0.082 C 
ATOM     23  C   UNL A   1      37.088  22.523  24.276  1.00  0.00     0.025 C 
ATOM     24  C   UNL A   1      37.623  23.894  26.379  1.00  0.00     0.031 C 
ATOM     25  O   UNL A   1      34.520  25.274  24.412  1.00  0.00    -0.274 OA
ENDBRANCH  10  16
ENDBRANCH   6   9
ENDBRANCH   4   5
ENDBRANCH   3   4
ENDBRANCH   2   3
ENDBRANCH   1   2
BRANCH   1  26
ATOM     26  C   UNL A   1      34.410  30.434  27.409  1.00  0.00     0.021 C 
BRANCH  26  27
ATOM     27  C   UNL A   1      35.512  31.218  28.129  1.00  0.00     0.116 C 
BRANCH  27  28
ATOM     28  N   UNL A   1      35.443  31.064  29.572  1.00  0.00    -0.352 N 
ATOM     29  C   UNL A   1      36.318  30.463  30.444  1.00  0.00     0.251 C 
ATOM     30  H   UNL A   1      34.643  31.453  29.991  1.00  0.00     0.163 HD
ATOM     31  O   UNL A   1      35.946  30.214  31.587  1.00  0.00    -0.269 OA
BRANCH  29  32
ATOM     32  C   UNL A   1      37.695  30.108  30.027  1.00  0.00     0.039 A 
ATOM     33  C   UNL A   1      38.650  29.848  31.013  1.00  0.00     0.014 A 
ATOM     34  C   UNL A   1      38.070  30.102  28.680  1.00  0.00     0.014 A 
ATOM     35  C   UNL A   1      39.962  29.528  30.650  1.00  0.00     0.010 A 
ATOM     36  C   UNL A   1      39.365  29.725  28.317  1.00  0.00     0.010 A 
ATOM     37  C   UNL A   1      40.327  29.436  29.297  1.00  0.00    -0.014 A 
BRANCH  37  38
ATOM     38  C   UNL A   1      41.701  29.028  28.894  1.00  0.00     0.031 A 
ATOM     39  C   UNL A   1      42.816  30.040  28.841  1.00  0.00     0.074 A 
ATOM     40  C   UNL A   1      41.933  27.754  28.518  1.00  0.00     0.049 A 
ATOM     41  N   UNL A   1      44.054  29.885  28.447  1.00  0.00    -0.248 NA
ATOM     42  C   UNL A   1      42.489  31.410  29.265  1.00  0.00     0.031 C 
ATOM     43  C   UNL A   1      40.931  26.687  28.488  1.00  0.00     0.029 A 
ATOM     44  N   UNL A   1      43.080  27.142  28.078  1.00  0.00    -0.354 N 
ATOM     45  C   UNL A   1      44.651  31.135  28.563  1.00  0.00     0.074 A 
ATOM     46  C   UNL A   1      43.625  32.049  29.019  1.00  0.00     0.031 C 
ATOM     47  C   UNL A   1      41.509  25.550  28.069  1.00  0.00     0.029 A 
ATOM     48  C   UNL A   1      42.912  25.813  27.761  1.00  0.00     0.049 A 
ATOM     49  H   UNL A   1      43.943  27.610  27.995  1.00  0.00     0.167 HD
ATOM     50  C   UNL A   1      45.940  31.486  28.331  1.00  0.00     0.037 A 
ATOM     51  C   UNL A   1      43.782  24.910  27.268  1.00  0.00     0.037 A 
ATOM     52  C   UNL A   1      46.963  30.568  27.898  1.00  0.00     0.049 A 
ATOM     53  C   UNL A   1      45.206  25.326  27.008  1.00  0.00     0.074 A 
ATOM     54  C   UNL A   1      48.308  30.817  27.688  1.00  0.00     0.029 A 
ATOM     55  N   UNL A   1      46.755  29.228  27.604  1.00  0.00    -0.354 N 
ATOM     56  N   UNL A   1      45.765  26.500  27.179  1.00  0.00    -0.248 NA
ATOM     57  C   UNL A   1      46.117  24.294  26.494  1.00  0.00     0.031 C 
ATOM     58  C   UNL A   1      48.905  29.640  27.222  1.00  0.00     0.029 A 
ATOM     59  C   UNL A   1      47.942  28.643  27.192  1.00  0.00     0.049 A 
ATOM     60  H   UNL A   1      45.891  28.762  27.677  1.00  0.00     0.167 HD
ATOM     61  C   UNL A   1      47.099  26.341  26.822  1.00  0.00     0.074 A 
ATOM     62  C   UNL A   1      47.266  24.955  26.435  1.00  0.00     0.031 C 
ATOM     63  C   UNL A   1      48.096  27.259  26.816  1.00  0.00     0.037 A 
BRANCH  50  64
ATOM     64  C   UNL A   1      46.322  32.928  28.541  1.00  0.00     0.058 A 
ATOM     65  C   UNL A   1      46.242  33.871  27.503  1.00  0.00     0.135 A 
ATOM     66  C   UNL A   1      46.732  33.383  29.805  1.00  0.00     0.135 A 
ATOM     67  F   UNL A   1      45.867  33.490  26.271  1.00  0.00    -0.206 F 
ATOM     68  C   UNL A   1      46.586  35.204  27.702  1.00  0.00     0.059 A 
ATOM     69  C   UNL A   1      47.053  34.718  30.034  1.00  0.00     0.059 A 
ATOM     70  F   UNL A   1      46.823  32.526  30.835  1.00  0.00    -0.206 F 
ATOM     71  C   UNL A   1      46.991  35.618  28.973  1.00  0.00     0.060 A 
BRANCH  71  72
ATOM     72  S   UNL A   1      47.434  37.352  29.212  1.00  0.00     0.124 S 
ATOM     73  O   UNL A   1      48.013  37.321  30.552  1.00  0.00    -0.237 OA
ATOM     74  O   UNL A   1      48.374  37.588  28.122  1.00  0.00    -0.237 OA
ATOM     75  O   UNL A   1      46.156  38.048  29.097  1.00  0.00    -0.744 OA
ENDBRANCH  71  72
ENDBRANCH  50  64
BRANCH  51  76
ATOM     76  C   UNL A   1      43.335  23.516  27.003  1.00  0.00     0.058 A 
ATOM     77  C   UNL A   1      43.089  23.074  25.695  1.00  0.00     0.135 A 
ATOM     78  C   UNL A   1      43.158  22.596  28.049  1.00  0.00     0.135 A 
ATOM     79  F   UNL A   1      43.237  23.917  24.662  1.00  0.00    -0.206 F 
ATOM     80  C   UNL A   1      42.671  21.773  25.431  1.00  0.00     0.059 A 
ATOM     81  C   UNL A   1      42.767  21.283  27.808  1.00  0.00     0.059 A 
ATOM     82  F   UNL A   1      43.396  22.966  29.317  1.00  0.00    -0.206 F 
ATOM     83  C   UNL A   1      42.516  20.883  26.497  1.00  0.00     0.060 A 
BRANCH  83  84
ATOM     84  S   UNL A   1      42.025  19.182  26.139  1.00  0.00     0.124 S 
ATOM     85  O   UNL A   1      42.825  18.888  24.957  1.00  0.00    -0.237 OA
ATOM     86  O   UNL A   1      42.412  18.488  27.363  1.00  0.00    -0.237 OA
ATOM     87  O   UNL A   1      40.584  19.291  25.917  1.00  0.00    -0.744 OA
ENDBRANCH  83  84
ENDBRANCH  51  76
BRANCH  63  88
ATOM     88  C   UNL A   1      49.469  26.793  26.413  1.00  0.00     0.058 A 
ATOM     89  C   UNL A   1      50.318  26.127  27.311  1.00  0.00     0.135 A 
ATOM     90  C   UNL A   1      49.921  26.971  25.094  1.00  0.00     0.135 A 
ATOM     91  F   UNL A   1      49.938  25.938  28.585  1.00  0.00    -0.206 F 
ATOM     92  C   UNL A   1      51.573  25.670  26.922  1.00  0.00     0.059 A 
ATOM     93  C   UNL A   1      51.160  26.497  24.676  1.00  0.00     0.059 A 
ATOM     94  F   UNL A   1      49.145  27.594  24.193  1.00  0.00    -0.206 F 
ATOM     95  C   UNL A   1      51.985  25.858  25.600  1.00  0.00     0.060 A 
BRANCH  95  96
ATOM     96  S   UNL A   1      53.600  25.227  25.099  1.00  0.00     0.124 S 
ATOM     97  O   UNL A   1      53.638  25.605  23.690  1.00  0.00    -0.237 OA
ATOM     98  O   UNL A   1      54.507  25.960  25.977  1.00  0.00    -0.237 OA
ATOM     99  O   UNL A   1      53.503  23.795  25.363  1.00  0.00    -0.744 OA
ENDBRANCH  95  96
ENDBRANCH  63  88
ENDBRANCH  37  38
ENDBRANCH  29  32
ENDBRANCH  27  28
ENDBRANCH  26  27
ENDBRANCH   1  26
TORSDOF 17
ENDMDL
MODEL 2
REMARK VINA RESULT:     -12.1      0.262      1.458
REMARK SMILES C[C@H]1CCC[C@H](C)N1C(=O)[C@H]1[C@@H](C(=O)NCCCCCCNC(=O)c2ccc(-c3c4nc(c(-c5c(F)cc(S(=O)(=O)[O-])cc5F)c5ccc([nH]5)c(-c5c(F)cc(S(=O)(=O)[O-])cc5F)c5nc(c(-c6c(F)cc(S(=O)(=O)[O-])cc6F)c6ccc3[nH]6)C=C5)C=C4)cc2)[C@H]2CC[C@@H]1O2
REMARK SMILES IDX 19 1 18 2 17 3 16 4 15 5 13 6 14 7 12 9 11 10 94 11 91 12
REMARK SMILES IDX 93 13 95 14 92 15 9 16 1 17 2 18 3 19 8 20 4 21 6 22 5 23
REMARK SMILES IDX 7 24 10 25 20 26 21 27 22 28 23 29 24 31 25 32 26 33 90 34
REMARK SMILES IDX 27 35 89 36 28 37 29 38 30 39 83 40 31 41 88 42 82 43 84 44
REMARK SMILES IDX 32 45 87 46 81 47 80 48 33 50 67 51 46 52 66 53 47 54 50 55
REMARK SMILES IDX 65 56 85 57 48 58 49 59 64 61 86 62 51 63 34 64 35 65 44 66
REMARK SMILES IDX 36 67 37 68 43 69 45 70 38 71 39 72 40 73 41 74 42 75 68 76
REMARK SMILES IDX 69 77 78 78 70 79 71 80 77 81 79 82 72 83 73 84 74 85 75 86
REMARK SMILES IDX 76 87 52 88 53 89 62 90 54 91 55 92 61 93 63 94 56 95 57 96
REMARK SMILES IDX 58 97 59 98 60 99
REMARK H PARENT 15 8 22 30 84 49 50 60
REMARK Flexibility Score: inf
ROOT
ATOM      1  C   UNL A   1      34.638  29.151  27.110  1.00  0.00     0.002 C 
ENDROOT
BRANCH   1   2
ATOM      2  C   UNL A   1      33.719  28.538  26.054  1.00  0.00     0.002 C 
BRANCH   2   3
ATOM      3  C   UNL A   1      33.024  27.255  26.485  1.00  0.00     0.021 C 
BRANCH   3   4
ATOM      4  C   UNL A   1      31.548  26.982  26.110  1.00  0.00     0.116 C 
BRANCH   4   5
ATOM      5  N   UNL A   1      31.003  25.809  26.789  1.00  0.00    -0.356 N 
ATOM      6  C   UNL A   1      30.789  24.504  26.416  1.00  0.00     0.226 C 
ATOM      7  O   UNL A   1      30.094  23.865  27.217  1.00  0.00    -0.275 OA
ATOM      8  H   UNL A   1      30.732  25.993  27.717  1.00  0.00     0.163 HD
BRANCH   6   9
ATOM      9  C   UNL A   1      31.424  23.809  25.157  1.00  0.00     0.122 C 
ATOM     10  C   UNL A   1      32.869  23.463  24.569  1.00  0.00     0.122 C 
ATOM     11  C   UNL A   1      32.495  23.474  23.048  1.00  0.00     0.132 C 
ATOM     12  C   UNL A   1      30.733  24.549  23.906  1.00  0.00     0.132 C 
ATOM     13  C   UNL A   1      32.566  24.812  22.320  1.00  0.00     0.035 C 
ATOM     14  O   UNL A   1      31.061  23.358  23.114  1.00  0.00    -0.373 OA
ATOM     15  C   UNL A   1      31.215  25.407  22.676  1.00  0.00     0.035 C 
BRANCH  10  16
ATOM     16  C   UNL A   1      34.402  23.939  24.615  1.00  0.00     0.229 C 
ATOM     17  C   UNL A   1      34.287  22.862  27.396  1.00  0.00     0.031 C 
ATOM     18  C   UNL A   1      35.163  22.292  26.322  1.00  0.00     0.082 C 
ATOM     19  C   UNL A   1      35.012  21.026  25.484  1.00  0.00     0.025 C 
ATOM     20  N   UNL A   1      35.404  23.313  25.353  1.00  0.00    -0.337 N 
ATOM     21  C   UNL A   1      36.418  20.695  24.942  1.00  0.00     0.004 C 
ATOM     22  C   UNL A   1      36.816  23.306  24.914  1.00  0.00     0.082 C 
ATOM     23  C   UNL A   1      37.145  21.907  24.309  1.00  0.00     0.025 C 
ATOM     24  C   UNL A   1      37.771  23.668  26.068  1.00  0.00     0.031 C 
ATOM     25  O   UNL A   1      34.777  24.789  23.792  1.00  0.00    -0.274 OA
ENDBRANCH  10  16
ENDBRANCH   6   9
ENDBRANCH   4   5
ENDBRANCH   3   4
ENDBRANCH   2   3
ENDBRANCH   1   2
BRANCH   1  26
ATOM     26  C   UNL A   1      34.402  30.630  27.464  1.00  0.00     0.021 C 
BRANCH  26  27
ATOM     27  C   UNL A   1      35.512  31.334  28.251  1.00  0.00     0.116 C 
BRANCH  27  28
ATOM     28  N   UNL A   1      35.426  31.074  29.677  1.00  0.00    -0.352 N 
ATOM     29  C   UNL A   1      36.282  30.395  30.508  1.00  0.00     0.251 C 
ATOM     30  H   UNL A   1      34.627  31.442  30.116  1.00  0.00     0.163 HD
ATOM     31  O   UNL A   1      35.895  30.066  31.627  1.00  0.00    -0.269 OA
BRANCH  29  32
ATOM     32  C   UNL A   1      37.658  30.051  30.078  1.00  0.00     0.039 A 
ATOM     33  C   UNL A   1      38.638  29.852  31.055  1.00  0.00     0.014 A 
ATOM     34  C   UNL A   1      38.006  29.996  28.725  1.00  0.00     0.014 A 
ATOM     35  C   UNL A   1      39.949  29.544  30.679  1.00  0.00     0.010 A 
ATOM     36  C   UNL A   1      39.302  29.631  28.352  1.00  0.00     0.010 A 
ATOM     37  C   UNL A   1      40.289  29.403  29.324  1.00  0.00    -0.014 A 
BRANCH  37  38
ATOM     38  C   UNL A   1      41.663  29.007  28.910  1.00  0.00     0.031 A 
ATOM     39  C   UNL A   1      42.767  30.029  28.842  1.00  0.00     0.074 A 
ATOM     40  C   UNL A   1      41.904  27.733  28.536  1.00  0.00     0.049 A 
ATOM     41  N   UNL A   1      44.004  29.884  28.437  1.00  0.00    -0.248 NA
ATOM     42  C   UNL A   1      42.431  31.398  29.262  1.00  0.00     0.031 C 
ATOM     43  C   UNL A   1      40.912  26.656  28.521  1.00  0.00     0.029 A 
ATOM     44  N   UNL A   1      43.053  27.130  28.089  1.00  0.00    -0.354 N 
ATOM     45  C   UNL A   1      44.589  31.140  28.543  1.00  0.00     0.074 A 
ATOM     46  C   UNL A   1      43.559  32.046  29.003  1.00  0.00     0.031 C 
ATOM     47  C   UNL A   1      41.497  25.523  28.101  1.00  0.00     0.029 A 
ATOM     48  C   UNL A   1      42.895  25.798  27.779  1.00  0.00     0.049 A 
ATOM     49  H   UNL A   1      43.910  27.606  27.996  1.00  0.00     0.167 HD
ATOM     50  C   UNL A   1      45.872  31.503  28.297  1.00  0.00     0.037 A 
ATOM     51  C   UNL A   1      43.769  24.902  27.283  1.00  0.00     0.037 A 
ATOM     52  C   UNL A   1      46.900  30.593  27.858  1.00  0.00     0.049 A 
ATOM     53  C   UNL A   1      45.186  25.330  27.007  1.00  0.00     0.074 A 
ATOM     54  C   UNL A   1      48.241  30.854  27.635  1.00  0.00     0.029 A 
ATOM     55  N   UNL A   1      46.703  29.250  27.572  1.00  0.00    -0.354 N 
ATOM     56  N   UNL A   1      45.735  26.510  27.168  1.00  0.00    -0.248 NA
ATOM     57  C   UNL A   1      46.103  24.305  26.490  1.00  0.00     0.031 C 
ATOM     58  C   UNL A   1      48.845  29.681  27.168  1.00  0.00     0.029 A 
ATOM     59  C   UNL A   1      47.892  28.675  27.152  1.00  0.00     0.049 A 
ATOM     60  H   UNL A   1      45.844  28.775  27.655  1.00  0.00     0.167 HD
ATOM     61  C   UNL A   1      47.068  26.362  26.799  1.00  0.00     0.074 A 
ATOM     62  C   UNL A   1      47.245  24.977  26.418  1.00  0.00     0.031 C 
ATOM     63  C   UNL A   1      48.056  27.291  26.781  1.00  0.00     0.037 A 
BRANCH  50  64
ATOM     64  C   UNL A   1      46.242  32.950  28.497  1.00  0.00     0.058 A 
ATOM     65  C   UNL A   1      46.684  33.433  29.739  1.00  0.00     0.135 A 
ATOM     66  C   UNL A   1      46.195  33.855  27.425  1.00  0.00     0.135 A 
ATOM     67  F   UNL A   1      46.738  32.615  30.803  1.00  0.00    -0.206 F 
ATOM     68  C   UNL A   1      47.035  34.767  29.919  1.00  0.00     0.059 A 
ATOM     69  C   UNL A   1      46.568  35.187  27.574  1.00  0.00     0.059 A 
ATOM     70  F   UNL A   1      45.783  33.447  26.213  1.00  0.00    -0.206 F 
ATOM     71  C   UNL A   1      46.972  35.638  28.829  1.00  0.00     0.060 A 
BRANCH  71  72
ATOM     72  S   UNL A   1      47.430  37.366  29.080  1.00  0.00     0.124 S 
ATOM     73  O   UNL A   1      47.867  37.748  27.740  1.00  0.00    -0.237 OA
ATOM     74  O   UNL A   1      46.177  37.959  29.532  1.00  0.00    -0.237 OA
ATOM     75  O   UNL A   1      48.486  37.295  30.087  1.00  0.00    -0.744 OA
ENDBRANCH  71  72
ENDBRANCH  50  64
BRANCH  51  76
ATOM     76  C   UNL A   1      43.333  23.503  27.028  1.00  0.00     0.058 A 
ATOM     77  C   UNL A   1      43.167  22.595  28.085  1.00  0.00     0.135 A 
ATOM     78  C   UNL A   1      43.058  23.049  25.728  1.00  0.00     0.135 A 
ATOM     79  F   UNL A   1      43.423  22.978  29.345  1.00  0.00    -0.206 F 
ATOM     80  C   UNL A   1      42.758  21.284  27.863  1.00  0.00     0.059 A 
ATOM     81  C   UNL A   1      42.623  21.751  25.483  1.00  0.00     0.059 A 
ATOM     82  F   UNL A   1      43.186  23.883  24.684  1.00  0.00    -0.206 F 
ATOM     83  C   UNL A   1      42.486  20.872  26.557  1.00  0.00     0.060 A 
BRANCH  83  84
ATOM     84  S   UNL A   1      41.905  19.183  26.285  1.00  0.00     0.124 S 
ATOM     85  O   UNL A   1      42.131  18.581  27.593  1.00  0.00    -0.237 OA
ATOM     86  O   UNL A   1      40.510  19.396  25.911  1.00  0.00    -0.237 OA
ATOM     87  O   UNL A   1      42.768  18.702  25.208  1.00  0.00    -0.744 OA
ENDBRANCH  83  84
ENDBRANCH  51  76
BRANCH  63  88
ATOM     88  C   UNL A   1      49.430  26.836  26.367  1.00  0.00     0.058 A 
ATOM     89  C   UNL A   1      50.308  26.219  27.271  1.00  0.00     0.135 A 
ATOM     90  C   UNL A   1      49.852  26.974  25.034  1.00  0.00     0.135 A 
ATOM     91  F   UNL A   1      49.958  26.070  28.558  1.00  0.00    -0.206 F 
ATOM     92  C   UNL A   1      51.565  25.772  26.873  1.00  0.00     0.059 A 
ATOM     93  C   UNL A   1      51.092  26.509  24.608  1.00  0.00     0.059 A 
ATOM     94  F   UNL A   1      49.046  27.549  24.126  1.00  0.00    -0.206 F 
ATOM     95  C   UNL A   1      51.947  25.919  25.538  1.00  0.00     0.060 A 
BRANCH  95  96
ATOM     96  S   UNL A   1      53.564  25.301  25.027  1.00  0.00     0.124 S 
ATOM     97  O   UNL A   1      54.457  26.072  25.885  1.00  0.00    -0.237 OA
ATOM     98  O   UNL A   1      53.464  23.877  25.331  1.00  0.00    -0.237 OA
ATOM     99  O   UNL A   1      53.619  25.629  23.605  1.00  0.00    -0.744 OA
ENDBRANCH  95  96
ENDBRANCH  63  88
ENDBRANCH  37  38
ENDBRANCH  29  32
ENDBRANCH  27  28
ENDBRANCH  26  27
ENDBRANCH   1  26
TORSDOF 17
ENDMDL
MODEL 3
REMARK VINA RESULT:     -12.0      6.327     11.807
REMARK SMILES C[C@H]1CCC[C@H](C)N1C(=O)[C@H]1[C@@H](C(=O)NCCCCCCNC(=O)c2ccc(-c3c4nc(c(-c5c(F)cc(S(=O)(=O)[O-])cc5F)c5ccc([nH]5)c(-c5c(F)cc(S(=O)(=O)[O-])cc5F)c5nc(c(-c6c(F)cc(S(=O)(=O)[O-])cc6F)c6ccc3[nH]6)C=C5)C=C4)cc2)[C@H]2CC[C@@H]1O2
REMARK SMILES IDX 19 1 18 2 17 3 16 4 15 5 13 6 14 7 12 9 11 10 94 11 91 12
REMARK SMILES IDX 93 13 95 14 92 15 9 16 1 17 2 18 3 19 8 20 4 21 6 22 5 23
REMARK SMILES IDX 7 24 10 25 20 26 21 27 22 28 23 29 24 31 25 32 26 33 90 34
REMARK SMILES IDX 27 35 89 36 28 37 29 38 30 39 83 40 31 41 88 42 82 43 84 44
REMARK SMILES IDX 32 45 87 46 81 47 80 48 33 50 67 51 46 52 66 53 47 54 50 55
REMARK SMILES IDX 65 56 85 57 48 58 49 59 64 61 86 62 51 63 34 64 35 65 44 66
REMARK SMILES IDX 36 67 37 68 43 69 45 70 38 71 39 72 40 73 41 74 42 75 68 76
REMARK SMILES IDX 69 77 78 78 70 79 71 80 77 81 79 82 72 83 73 84 74 85 75 86
REMARK SMILES IDX 76 87 52 88 53 89 62 90 54 91 55 92 61 93 63 94 56 95 57 96
REMARK SMILES IDX 58 97 59 98 60 99
REMARK H PARENT 15 8 22 30 84 49 50 60
REMARK Flexibility Score: inf
ROOT
ATOM      1  C   UNL A   1      38.159  22.862  25.898  1.00  0.00     0.002 C 
ENDROOT
BRANCH   1   2
ATOM      2  C   UNL A   1      36.997  21.986  25.432  1.00  0.00     0.002 C 
BRANCH   2   3
ATOM      3  C   UNL A   1      36.372  22.409  24.111  1.00  0.00     0.021 C 
BRANCH   3   4
ATOM      4  C   UNL A   1      34.911  22.917  24.045  1.00  0.00     0.116 C 
BRANCH   4   5
ATOM      5  N   UNL A   1      34.476  23.199  22.679  1.00  0.00    -0.356 N 
ATOM      6  C   UNL A   1      33.378  23.821  22.138  1.00  0.00     0.226 C 
ATOM      7  O   UNL A   1      33.267  23.660  20.915  1.00  0.00    -0.275 OA
ATOM      8  H   UNL A   1      35.108  22.873  21.999  1.00  0.00     0.163 HD
BRANCH   6   9
ATOM      9  C   UNL A   1      32.382  24.746  22.928  1.00  0.00     0.122 C 
ATOM     10  C   UNL A   1      32.424  25.900  24.033  1.00  0.00     0.122 C 
ATOM     11  C   UNL A   1      31.016  25.645  24.669  1.00  0.00     0.132 C 
ATOM     12  C   UNL A   1      31.315  23.725  23.565  1.00  0.00     0.132 C 
ATOM     13  C   UNL A   1      30.933  24.624  25.799  1.00  0.00     0.035 C 
ATOM     14  O   UNL A   1      30.385  24.857  23.641  1.00  0.00    -0.373 OA
ATOM     15  C   UNL A   1      30.833  23.329  25.012  1.00  0.00     0.035 C 
BRANCH  10  16
ATOM     16  C   UNL A   1      33.320  26.465  25.240  1.00  0.00     0.229 C 
ATOM     17  C   UNL A   1      33.962  28.628  23.286  1.00  0.00     0.031 C 
ATOM     18  C   UNL A   1      33.226  28.862  24.570  1.00  0.00     0.082 C 
ATOM     19  C   UNL A   1      31.743  29.103  24.835  1.00  0.00     0.025 C 
ATOM     20  N   UNL A   1      33.567  27.815  25.478  1.00  0.00    -0.337 N 
ATOM     21  C   UNL A   1      31.654  29.774  26.221  1.00  0.00     0.004 C 
ATOM     22  C   UNL A   1      33.786  28.345  26.841  1.00  0.00     0.082 C 
ATOM     23  C   UNL A   1      32.485  29.061  27.315  1.00  0.00     0.025 C 
ATOM     24  C   UNL A   1      35.006  29.285  26.895  1.00  0.00     0.031 C 
ATOM     25  O   UNL A   1      33.653  25.679  26.142  1.00  0.00    -0.274 OA
ENDBRANCH  10  16
ENDBRANCH   6   9
ENDBRANCH   4   5
ENDBRANCH   3   4
ENDBRANCH   2   3
ENDBRANCH   1   2
BRANCH   1  26
ATOM     26  C   UNL A   1      39.359  22.143  26.540  1.00  0.00     0.021 C 
BRANCH  26  27
ATOM     27  C   UNL A   1      40.446  23.033  27.152  1.00  0.00     0.116 C 
BRANCH  27  28
ATOM     28  N   UNL A   1      41.194  23.760  26.142  1.00  0.00    -0.352 N 
ATOM     29  C   UNL A   1      41.505  25.095  26.057  1.00  0.00     0.251 C 
ATOM     30  H   UNL A   1      41.533  23.208  25.402  1.00  0.00     0.163 HD
ATOM     31  O   UNL A   1      41.920  25.546  24.992  1.00  0.00    -0.269 OA
BRANCH  29  32
ATOM     32  C   UNL A   1      41.342  25.996  27.221  1.00  0.00     0.039 A 
ATOM     33  C   UNL A   1      42.336  26.944  27.482  1.00  0.00     0.014 A 
ATOM     34  C   UNL A   1      40.261  25.868  28.098  1.00  0.00     0.014 A 
ATOM     35  C   UNL A   1      42.220  27.797  28.585  1.00  0.00     0.010 A 
ATOM     36  C   UNL A   1      40.115  26.758  29.164  1.00  0.00     0.010 A 
ATOM     37  C   UNL A   1      41.094  27.731  29.422  1.00  0.00    -0.014 A 
BRANCH  37  38
ATOM     38  C   UNL A   1      40.921  28.678  30.558  1.00  0.00     0.031 A 
ATOM     39  C   UNL A   1      41.770  28.551  31.796  1.00  0.00     0.074 A 
ATOM     40  C   UNL A   1      39.956  29.618  30.499  1.00  0.00     0.049 A 
ATOM     41  N   UNL A   1      41.714  29.237  32.910  1.00  0.00    -0.248 NA
ATOM     42  C   UNL A   1      42.801  27.503  31.790  1.00  0.00     0.031 C 
ATOM     43  C   UNL A   1      39.043  29.820  29.373  1.00  0.00     0.029 A 
ATOM     44  N   UNL A   1      39.574  30.572  31.409  1.00  0.00    -0.354 N 
ATOM     45  C   UNL A   1      42.690  28.698  33.740  1.00  0.00     0.074 A 
ATOM     46  C   UNL A   1      43.291  27.596  33.019  1.00  0.00     0.031 C 
ATOM     47  C   UNL A   1      38.218  30.842  29.651  1.00  0.00     0.029 A 
ATOM     48  C   UNL A   1      38.515  31.345  30.990  1.00  0.00     0.049 A 
ATOM     49  H   UNL A   1      40.017  30.693  32.281  1.00  0.00     0.167 HD
ATOM     50  C   UNL A   1      43.065  29.096  34.980  1.00  0.00     0.037 A 
ATOM     51  C   UNL A   1      37.849  32.336  31.614  1.00  0.00     0.037 A 
ATOM     52  C   UNL A   1      42.477  30.207  35.686  1.00  0.00     0.049 A 
ATOM     53  C   UNL A   1      38.277  32.754  32.996  1.00  0.00     0.074 A 
ATOM     54  C   UNL A   1      42.825  30.721  36.922  1.00  0.00     0.029 A 
ATOM     55  N   UNL A   1      41.418  30.973  35.220  1.00  0.00    -0.354 N 
ATOM     56  N   UNL A   1      39.241  32.268  33.741  1.00  0.00    -0.248 NA
ATOM     57  C   UNL A   1      37.531  33.856  33.618  1.00  0.00     0.031 C 
ATOM     58  C   UNL A   1      41.947  31.767  37.226  1.00  0.00     0.029 A 
ATOM     59  C   UNL A   1      41.085  31.940  36.155  1.00  0.00     0.049 A 
ATOM     60  H   UNL A   1      40.970  30.847  34.352  1.00  0.00     0.167 HD
ATOM     61  C   UNL A   1      39.237  33.025  34.908  1.00  0.00     0.074 A 
ATOM     62  C   UNL A   1      38.181  34.007  34.765  1.00  0.00     0.031 C 
ATOM     63  C   UNL A   1      40.036  32.917  35.998  1.00  0.00     0.037 A 
BRANCH  50  64
ATOM     64  C   UNL A   1      44.166  28.325  35.660  1.00  0.00     0.058 A 
ATOM     65  C   UNL A   1      45.518  28.670  35.497  1.00  0.00     0.135 A 
ATOM     66  C   UNL A   1      43.865  27.255  36.518  1.00  0.00     0.135 A 
ATOM     67  F   UNL A   1      45.865  29.677  34.680  1.00  0.00    -0.206 F 
ATOM     68  C   UNL A   1      46.532  27.963  36.135  1.00  0.00     0.059 A 
ATOM     69  C   UNL A   1      44.862  26.551  37.189  1.00  0.00     0.059 A 
ATOM     70  F   UNL A   1      42.590  26.883  36.714  1.00  0.00    -0.206 F 
ATOM     71  C   UNL A   1      46.193  26.903  36.978  1.00  0.00     0.060 A 
BRANCH  71  72
ATOM     72  S   UNL A   1      47.523  25.996  37.796  1.00  0.00     0.124 S 
ATOM     73  O   UNL A   1      47.129  26.105  39.198  1.00  0.00    -0.237 OA
ATOM     74  O   UNL A   1      47.404  24.667  37.207  1.00  0.00    -0.237 OA
ATOM     75  O   UNL A   1      48.723  26.740  37.423  1.00  0.00    -0.744 OA
ENDBRANCH  71  72
ENDBRANCH  50  64
BRANCH  51  76
ATOM     76  C   UNL A   1      36.716  33.014  30.929  1.00  0.00     0.058 A 
ATOM     77  C   UNL A   1      35.394  32.816  31.354  1.00  0.00     0.135 A 
ATOM     78  C   UNL A   1      36.932  33.884  29.849  1.00  0.00     0.135 A 
ATOM     79  F   UNL A   1      35.135  31.989  32.378  1.00  0.00    -0.206 F 
ATOM     80  C   UNL A   1      34.324  33.444  30.724  1.00  0.00     0.059 A 
ATOM     81  C   UNL A   1      35.881  34.545  29.220  1.00  0.00     0.059 A 
ATOM     82  F   UNL A   1      38.181  34.119  29.415  1.00  0.00    -0.206 F 
ATOM     83  C   UNL A   1      34.579  34.310  29.659  1.00  0.00     0.060 A 
BRANCH  83  84
ATOM     84  S   UNL A   1      33.188  35.162  28.883  1.00  0.00     0.124 S 
ATOM     85  O   UNL A   1      33.855  36.283  28.234  1.00  0.00    -0.237 OA
ATOM     86  O   UNL A   1      32.656  34.132  27.995  1.00  0.00    -0.237 OA
ATOM     87  O   UNL A   1      32.332  35.504  30.017  1.00  0.00    -0.744 OA
ENDBRANCH  83  84
ENDBRANCH  51  76
BRANCH  63  88
ATOM     88  C   UNL A   1      39.829  33.907  37.113  1.00  0.00     0.058 A 
ATOM     89  C   UNL A   1      40.308  35.223  37.033  1.00  0.00     0.135 A 
ATOM     90  C   UNL A   1      39.095  33.545  38.255  1.00  0.00     0.135 A 
ATOM     91  F   UNL A   1      41.022  35.618  35.967  1.00  0.00    -0.206 F 
ATOM     92  C   UNL A   1      40.085  36.141  38.054  1.00  0.00     0.059 A 
ATOM     93  C   UNL A   1      38.835  34.455  39.275  1.00  0.00     0.059 A 
ATOM     94  F   UNL A   1      38.606  32.301  38.378  1.00  0.00    -0.206 F 
ATOM     95  C   UNL A   1      39.344  35.748  39.171  1.00  0.00     0.060 A 
BRANCH  95  96
ATOM     96  S   UNL A   1      39.030  36.960  40.471  1.00  0.00     0.124 S 
ATOM     97  O   UNL A   1      38.461  38.067  39.710  1.00  0.00    -0.237 OA
ATOM     98  O   UNL A   1      38.102  36.246  41.344  1.00  0.00    -0.237 OA
ATOM     99  O   UNL A   1      40.353  37.201  41.038  1.00  0.00    -0.744 OA
ENDBRANCH  95  96
ENDBRANCH  63  88
ENDBRANCH  37  38
ENDBRANCH  29  32
ENDBRANCH  27  28
ENDBRANCH  26  27
ENDBRANCH   1  26
TORSDOF 17
ENDMDL
