MODEL 1
REMARK VINA RESULT:     -11.7      0.000      0.000
REMARK SMILES N#Cc1ccc(C(=O)NCCCCCCNC(=O)c2ccc(-c3c4nc(c(-c5c(F)cc(S(=O)(=O)[O-])cc5F)c5ccc([nH]5)c(-c5c(F)cc(S(=O)(=O)[O-])cc5F)c5nc(c(-c6c(F)cc(S(=O)(=O)[O-])cc6F)c6ccc3[nH]6)C=C5)C=C4)cc2)nc1/C=C/c1ccc(O)c(Cl)c1
REMARK SMILES IDX 12 1 11 2 10 3 9 4 7 5 8 6 6 8 3 9 4 10 86 11 5 12 85 13
REMARK SMILES IDX 2 14 1 15 87 16 88 17 89 18 90 19 96 20 91 21 94 22 92 23
REMARK SMILES IDX 95 24 93 25 13 27 14 28 15 29 16 30 17 31 18 33 19 34 20 35
REMARK SMILES IDX 84 36 21 37 83 38 22 39 23 40 24 41 77 42 25 43 82 44 76 45
REMARK SMILES IDX 78 46 26 47 81 48 75 49 74 50 27 52 61 53 40 54 60 55 41 56
REMARK SMILES IDX 44 57 59 58 79 59 42 60 43 61 58 63 80 64 45 65 28 66 29 67
REMARK SMILES IDX 38 68 30 69 31 70 37 71 39 72 32 73 33 74 34 75 35 76 36 77
REMARK SMILES IDX 62 78 63 79 72 80 64 81 65 82 71 83 73 84 66 85 67 86 68 87
REMARK SMILES IDX 69 88 70 89 46 90 47 91 56 92 48 93 49 94 55 95 57 96 50 97
REMARK SMILES IDX 51 98 52 99 53 100 54 101
REMARK H PARENT 9 7 93 26 16 32 78 51 44 62
REMARK Flexibility Score: inf
ROOT
ATOM      1  C   UNL A   1      31.113  28.089  25.247  1.00  0.00     0.002 C 
ENDROOT
BRANCH   1   2
ATOM      2  C   UNL A   1      30.112  27.535  24.236  1.00  0.00     0.021 C 
BRANCH   2   3
ATOM      3  C   UNL A   1      30.091  26.020  24.084  1.00  0.00     0.116 C 
BRANCH   3   4
ATOM      4  N   UNL A   1      29.914  25.311  25.336  1.00  0.00    -0.351 N 
ATOM      5  C   UNL A   1      30.752  24.499  26.073  1.00  0.00     0.269 C 
ATOM      6  O   UNL A   1      30.280  23.998  27.095  1.00  0.00    -0.268 OA
ATOM      7  H   UNL A   1      29.023  25.431  25.739  1.00  0.00     0.163 HD
BRANCH   5   8
ATOM      8  C   UNL A   1      32.173  24.183  25.672  1.00  0.00     0.128 A 
ATOM      9  C   UNL A   1      34.661  23.460  24.719  1.00  0.00     0.078 A 
ATOM     10  C   UNL A   1      34.445  24.759  25.175  1.00  0.00     0.024 A 
ATOM     11  C   UNL A   1      33.628  22.533  24.866  1.00  0.00     0.082 A 
ATOM     12  C   UNL A   1      33.212  25.100  25.724  1.00  0.00     0.035 A 
ATOM     13  N   UNL A   1      32.387  22.895  25.283  1.00  0.00    -0.242 NA
BRANCH   9  14
ATOM     14  C   UNL A   1      35.940  23.115  24.183  1.00  0.00     0.101 C 
ATOM     15  N   UNL A   1      36.982  22.833  23.752  1.00  0.00    -0.192 NA
ENDBRANCH   9  14
BRANCH  11  16
ATOM     16  C   UNL A   1      33.868  21.083  24.717  1.00  0.00     0.030 C 
ATOM     17  C   UNL A   1      33.032  20.118  25.136  1.00  0.00     0.010 C 
BRANCH  17  18
ATOM     18  C   UNL A   1      33.444  18.708  25.137  1.00  0.00    -0.024 A 
ATOM     19  C   UNL A   1      34.690  18.340  24.617  1.00  0.00     0.012 A 
ATOM     20  C   UNL A   1      32.582  17.712  25.623  1.00  0.00     0.032 A 
ATOM     21  C   UNL A   1      35.090  17.000  24.624  1.00  0.00     0.048 A 
ATOM     22  C   UNL A   1      32.983  16.378  25.630  1.00  0.00     0.083 A 
ATOM     23  C   UNL A   1      34.239  16.027  25.137  1.00  0.00     0.134 A 
ATOM     24  Cl  UNL A   1      31.918  15.172  26.253  1.00  0.00    -0.080 Cl
BRANCH  23  25
ATOM     25  O   UNL A   1      34.681  14.732  25.139  1.00  0.00    -0.506 OA
ATOM     26  H   UNL A   1      34.861  14.297  24.328  1.00  0.00     0.293 HD
ENDBRANCH  23  25
ENDBRANCH  17  18
ENDBRANCH  11  16
ENDBRANCH   5   8
ENDBRANCH   3   4
ENDBRANCH   2   3
ENDBRANCH   1   2
BRANCH   1  27
ATOM     27  C   UNL A   1      32.236  28.951  24.665  1.00  0.00     0.002 C 
BRANCH  27  28
ATOM     28  C   UNL A   1      33.658  28.549  25.066  1.00  0.00     0.021 C 
BRANCH  28  29
ATOM     29  C   UNL A   1      33.931  28.564  26.566  1.00  0.00     0.116 C 
BRANCH  29  30
ATOM     30  N   UNL A   1      33.757  29.888  27.138  1.00  0.00    -0.352 N 
ATOM     31  C   UNL A   1      34.578  30.582  27.991  1.00  0.00     0.251 C 
ATOM     32  H   UNL A   1      32.931  30.354  26.876  1.00  0.00     0.163 HD
ATOM     33  O   UNL A   1      34.163  31.593  28.551  1.00  0.00    -0.269 OA
BRANCH  31  34
ATOM     34  C   UNL A   1      35.952  30.099  28.245  1.00  0.00     0.039 A 
ATOM     35  C   UNL A   1      36.892  30.159  27.214  1.00  0.00     0.014 A 
ATOM     36  C   UNL A   1      36.311  29.584  29.494  1.00  0.00     0.014 A 
ATOM     37  C   UNL A   1      38.206  29.754  27.454  1.00  0.00     0.010 A 
ATOM     38  C   UNL A   1      37.640  29.262  29.755  1.00  0.00     0.010 A 
ATOM     39  C   UNL A   1      38.601  29.337  28.737  1.00  0.00    -0.014 A 
BRANCH  39  40
ATOM     40  C   UNL A   1      40.015  28.978  29.025  1.00  0.00     0.031 A 
ATOM     41  C   UNL A   1      40.949  29.995  29.623  1.00  0.00     0.074 A 
ATOM     42  C   UNL A   1      40.467  27.748  28.702  1.00  0.00     0.049 A 
ATOM     43  N   UNL A   1      42.223  29.884  29.895  1.00  0.00    -0.248 NA
ATOM     44  C   UNL A   1      40.384  31.318  29.937  1.00  0.00     0.031 C 
ATOM     45  C   UNL A   1      39.668  26.691  28.078  1.00  0.00     0.029 A 
ATOM     46  N   UNL A   1      41.708  27.181  28.846  1.00  0.00    -0.354 N 
ATOM     47  C   UNL A   1      42.612  31.116  30.408  1.00  0.00     0.074 A 
ATOM     48  C   UNL A   1      41.455  31.981  30.349  1.00  0.00     0.031 C 
ATOM     49  C   UNL A   1      40.430  25.597  27.920  1.00  0.00     0.029 A 
ATOM     50  C   UNL A   1      41.784  25.889  28.380  1.00  0.00     0.049 A 
ATOM     51  H   UNL A   1      42.473  27.654  29.247  1.00  0.00     0.167 HD
ATOM     52  C   UNL A   1      43.816  31.484  30.906  1.00  0.00     0.037 A 
ATOM     53  C   UNL A   1      42.828  25.039  28.314  1.00  0.00     0.037 A 
ATOM     54  C   UNL A   1      44.961  30.611  30.969  1.00  0.00     0.049 A 
ATOM     55  C   UNL A   1      44.166  25.487  28.841  1.00  0.00     0.074 A 
ATOM     56  C   UNL A   1      46.214  30.877  31.494  1.00  0.00     0.029 A 
ATOM     57  N   UNL A   1      44.998  29.311  30.488  1.00  0.00    -0.354 N 
ATOM     58  N   UNL A   1      44.498  26.636  29.380  1.00  0.00    -0.248 NA
ATOM     59  C   UNL A   1      45.270  24.523  28.757  1.00  0.00     0.031 C 
ATOM     60  C   UNL A   1      47.027  29.761  31.271  1.00  0.00     0.029 A 
ATOM     61  C   UNL A   1      46.260  28.772  30.676  1.00  0.00     0.049 A 
ATOM     62  H   UNL A   1      44.238  28.839  30.074  1.00  0.00     0.167 HD
ATOM     63  C   UNL A   1      45.839  26.519  29.731  1.00  0.00     0.074 A 
ATOM     64  C   UNL A   1      46.251  25.182  29.357  1.00  0.00     0.031 C 
ATOM     65  C   UNL A   1      46.655  27.434  30.310  1.00  0.00     0.037 A 
BRANCH  52  66
ATOM     66  C   UNL A   1      43.965  32.889  31.427  1.00  0.00     0.058 A 
ATOM     67  C   UNL A   1      44.289  33.961  30.580  1.00  0.00     0.135 A 
ATOM     68  C   UNL A   1      43.714  33.179  32.779  1.00  0.00     0.135 A 
ATOM     69  F   UNL A   1      44.554  33.742  29.282  1.00  0.00    -0.206 F 
ATOM     70  C   UNL A   1      44.379  35.264  31.057  1.00  0.00     0.059 A 
ATOM     71  C   UNL A   1      43.766  34.480  33.271  1.00  0.00     0.059 A 
ATOM     72  F   UNL A   1      43.404  32.193  33.636  1.00  0.00    -0.206 F 
ATOM     73  C   UNL A   1      44.108  35.516  32.403  1.00  0.00     0.060 A 
BRANCH  73  74
ATOM     74  S   UNL A   1      44.200  37.218  32.994  1.00  0.00     0.124 S 
ATOM     75  O   UNL A   1      44.203  37.963  31.738  1.00  0.00    -0.237 OA
ATOM     76  O   UNL A   1      42.987  37.332  33.796  1.00  0.00    -0.237 OA
ATOM     77  O   UNL A   1      45.451  37.252  33.744  1.00  0.00    -0.744 OA
ENDBRANCH  73  74
ENDBRANCH  52  66
BRANCH  53  78
ATOM     78  C   UNL A   1      42.656  23.682  27.725  1.00  0.00     0.058 A 
ATOM     79  C   UNL A   1      42.357  22.571  28.529  1.00  0.00     0.135 A 
ATOM     80  C   UNL A   1      42.803  23.465  26.345  1.00  0.00     0.135 A 
ATOM     81  F   UNL A   1      42.211  22.722  29.854  1.00  0.00    -0.206 F 
ATOM     82  C   UNL A   1      42.242  21.292  27.993  1.00  0.00     0.059 A 
ATOM     83  C   UNL A   1      42.658  22.202  25.782  1.00  0.00     0.059 A 
ATOM     84  F   UNL A   1      43.072  24.494  25.526  1.00  0.00    -0.206 F 
ATOM     85  C   UNL A   1      42.393  21.118  26.617  1.00  0.00     0.060 A 
BRANCH  85  86
ATOM     86  S   UNL A   1      42.217  19.458  25.929  1.00  0.00     0.124 S 
ATOM     87  O   UNL A   1      40.776  19.380  25.716  1.00  0.00    -0.237 OA
ATOM     88  O   UNL A   1      43.038  19.539  24.726  1.00  0.00    -0.237 OA
ATOM     89  O   UNL A   1      42.746  18.600  26.985  1.00  0.00    -0.744 OA
ENDBRANCH  85  86
ENDBRANCH  53  78
BRANCH  65  90
ATOM     90  C   UNL A   1      48.067  27.012  30.622  1.00  0.00     0.058 A 
ATOM     91  C   UNL A   1      49.151  27.383  29.811  1.00  0.00     0.135 A 
ATOM     92  C   UNL A   1      48.343  26.268  31.781  1.00  0.00     0.135 A 
ATOM     93  F   UNL A   1      48.945  28.088  28.687  1.00  0.00    -0.206 F 
ATOM     94  C   UNL A   1      50.454  27.006  30.122  1.00  0.00     0.059 A 
ATOM     95  C   UNL A   1      49.642  25.914  32.131  1.00  0.00     0.059 A 
ATOM     96  F   UNL A   1      47.346  25.895  32.599  1.00  0.00    -0.206 F 
ATOM     97  C   UNL A   1      50.689  26.277  31.289  1.00  0.00     0.060 A 
BRANCH  97  98
ATOM     98  S   UNL A   1      52.390  25.828  31.697  1.00  0.00     0.124 S 
ATOM     99  O   UNL A   1      53.027  25.863  30.386  1.00  0.00    -0.237 OA
ATOM    100  O   UNL A   1      52.776  26.891  32.619  1.00  0.00    -0.237 OA
ATOM    101  O   UNL A   1      52.258  24.504  32.296  1.00  0.00    -0.744 OA
ENDBRANCH  97  98
ENDBRANCH  65  90
ENDBRANCH  39  40
ENDBRANCH  31  34
ENDBRANCH  29  30
ENDBRANCH  28  29
ENDBRANCH  27  28
ENDBRANCH   1  27
TORSDOF 20
ENDMDL
MODEL 2
REMARK VINA RESULT:     -11.5      2.586      3.198
REMARK SMILES N#Cc1ccc(C(=O)NCCCCCCNC(=O)c2ccc(-c3c4nc(c(-c5c(F)cc(S(=O)(=O)[O-])cc5F)c5ccc([nH]5)c(-c5c(F)cc(S(=O)(=O)[O-])cc5F)c5nc(c(-c6c(F)cc(S(=O)(=O)[O-])cc6F)c6ccc3[nH]6)C=C5)C=C4)cc2)nc1/C=C/c1ccc(O)c(Cl)c1
REMARK SMILES IDX 12 1 11 2 10 3 9 4 7 5 8 6 6 8 3 9 4 10 86 11 5 12 85 13
REMARK SMILES IDX 2 14 1 15 87 16 88 17 89 18 90 19 96 20 91 21 94 22 92 23
REMARK SMILES IDX 95 24 93 25 13 27 14 28 15 29 16 30 17 31 18 33 19 34 20 35
REMARK SMILES IDX 84 36 21 37 83 38 22 39 23 40 24 41 77 42 25 43 82 44 76 45
REMARK SMILES IDX 78 46 26 47 81 48 75 49 74 50 27 52 61 53 40 54 60 55 41 56
REMARK SMILES IDX 44 57 59 58 79 59 42 60 43 61 58 63 80 64 45 65 28 66 29 67
REMARK SMILES IDX 38 68 30 69 31 70 37 71 39 72 32 73 33 74 34 75 35 76 36 77
REMARK SMILES IDX 62 78 63 79 72 80 64 81 65 82 71 83 73 84 66 85 67 86 68 87
REMARK SMILES IDX 69 88 70 89 46 90 47 91 56 92 48 93 49 94 55 95 57 96 50 97
REMARK SMILES IDX 51 98 52 99 53 100 54 101
REMARK H PARENT 9 7 93 26 16 32 78 51 44 62
REMARK Flexibility Score: inf
ROOT
ATOM      1  C   UNL A   1      30.876  28.129  24.965  1.00  0.00     0.002 C 
ENDROOT
BRANCH   1   2
ATOM      2  C   UNL A   1      30.050  27.525  23.832  1.00  0.00     0.021 C 
BRANCH   2   3
ATOM      3  C   UNL A   1      30.010  26.004  23.777  1.00  0.00     0.116 C 
BRANCH   3   4
ATOM      4  N   UNL A   1      29.767  25.380  25.063  1.00  0.00    -0.351 N 
ATOM      5  C   UNL A   1      30.578  24.659  25.917  1.00  0.00     0.269 C 
ATOM      6  O   UNL A   1      30.050  24.214  26.938  1.00  0.00    -0.268 OA
ATOM      7  H   UNL A   1      28.845  25.492  25.392  1.00  0.00     0.163 HD
BRANCH   5   8
ATOM      8  C   UNL A   1      32.035  24.374  25.643  1.00  0.00     0.128 A 
ATOM      9  C   UNL A   1      34.612  23.713  24.909  1.00  0.00     0.078 A 
ATOM     10  C   UNL A   1      34.332  24.997  25.371  1.00  0.00     0.024 A 
ATOM     11  C   UNL A   1      33.587  22.767  24.937  1.00  0.00     0.082 A 
ATOM     12  C   UNL A   1      33.048  25.306  25.812  1.00  0.00     0.035 A 
ATOM     13  N   UNL A   1      32.306  23.100  25.246  1.00  0.00    -0.242 NA
BRANCH   9  14
ATOM     14  C   UNL A   1      35.942  23.400  24.485  1.00  0.00     0.101 C 
ATOM     15  N   UNL A   1      37.022  23.152  24.138  1.00  0.00    -0.192 NA
ENDBRANCH   9  14
BRANCH  11  16
ATOM     16  C   UNL A   1      33.865  21.325  24.779  1.00  0.00     0.030 C 
ATOM     17  C   UNL A   1      33.019  20.337  25.118  1.00  0.00     0.010 C 
BRANCH  17  18
ATOM     18  C   UNL A   1      33.458  18.935  25.123  1.00  0.00    -0.024 A 
ATOM     19  C   UNL A   1      34.716  18.591  24.616  1.00  0.00     0.012 A 
ATOM     20  C   UNL A   1      32.609  17.922  25.597  1.00  0.00     0.032 A 
ATOM     21  C   UNL A   1      35.141  17.258  24.626  1.00  0.00     0.048 A 
ATOM     22  C   UNL A   1      33.035  16.595  25.607  1.00  0.00     0.083 A 
ATOM     23  C   UNL A   1      34.303  16.269  25.128  1.00  0.00     0.134 A 
ATOM     24  Cl  UNL A   1      31.986  15.369  26.216  1.00  0.00    -0.080 Cl
BRANCH  23  25
ATOM     25  O   UNL A   1      34.768  14.982  25.133  1.00  0.00    -0.506 OA
ATOM     26  H   UNL A   1      34.167  14.267  25.220  1.00  0.00     0.293 HD
ENDBRANCH  23  25
ENDBRANCH  17  18
ENDBRANCH  11  16
ENDBRANCH   5   8
ENDBRANCH   3   4
ENDBRANCH   2   3
ENDBRANCH   1   2
BRANCH   1  27
ATOM     27  C   UNL A   1      31.944  29.141  24.540  1.00  0.00     0.002 C 
BRANCH  27  28
ATOM     28  C   UNL A   1      33.393  28.656  24.634  1.00  0.00     0.021 C 
BRANCH  28  29
ATOM     29  C   UNL A   1      34.081  28.937  25.965  1.00  0.00     0.116 C 
BRANCH  29  30
ATOM     30  N   UNL A   1      33.780  30.269  26.462  1.00  0.00    -0.352 N 
ATOM     31  C   UNL A   1      34.354  30.960  27.499  1.00  0.00     0.251 C 
ATOM     32  H   UNL A   1      33.062  30.744  25.986  1.00  0.00     0.163 HD
ATOM     33  O   UNL A   1      33.821  31.982  27.922  1.00  0.00    -0.269 OA
BRANCH  31  34
ATOM     34  C   UNL A   1      35.603  30.461  28.115  1.00  0.00     0.039 A 
ATOM     35  C   UNL A   1      36.828  30.855  27.573  1.00  0.00     0.014 A 
ATOM     36  C   UNL A   1      35.565  29.603  29.218  1.00  0.00     0.014 A 
ATOM     37  C   UNL A   1      38.015  30.433  28.174  1.00  0.00     0.010 A 
ATOM     38  C   UNL A   1      36.747  29.254  29.865  1.00  0.00     0.010 A 
ATOM     39  C   UNL A   1      37.986  29.660  29.347  1.00  0.00    -0.014 A 
BRANCH  39  40
ATOM     40  C   UNL A   1      39.242  29.270  30.040  1.00  0.00     0.031 A 
ATOM     41  C   UNL A   1      39.689  30.008  31.273  1.00  0.00     0.074 A 
ATOM     42  C   UNL A   1      40.002  28.280  29.529  1.00  0.00     0.049 A 
ATOM     43  N   UNL A   1      40.777  29.848  31.981  1.00  0.00    -0.248 NA
ATOM     44  C   UNL A   1      38.810  31.084  31.763  1.00  0.00     0.031 C 
ATOM     45  C   UNL A   1      39.696  27.518  28.316  1.00  0.00     0.029 A 
ATOM     46  N   UNL A   1      41.191  27.748  29.960  1.00  0.00    -0.354 N 
ATOM     47  C   UNL A   1      40.715  30.798  32.994  1.00  0.00     0.074 A 
ATOM     48  C   UNL A   1      39.516  31.574  32.772  1.00  0.00     0.031 C 
ATOM     49  C   UNL A   1      40.656  26.601  28.117  1.00  0.00     0.029 A 
ATOM     50  C   UNL A   1      41.672  26.741  29.154  1.00  0.00     0.049 A 
ATOM     51  H   UNL A   1      41.658  28.056  30.771  1.00  0.00     0.167 HD
ATOM     52  C   UNL A   1      41.567  30.988  34.029  1.00  0.00     0.037 A 
ATOM     53  C   UNL A   1      42.810  26.023  29.230  1.00  0.00     0.037 A 
ATOM     54  C   UNL A   1      42.755  30.202  34.248  1.00  0.00     0.049 A 
ATOM     55  C   UNL A   1      43.760  26.281  30.371  1.00  0.00     0.074 A 
ATOM     56  C   UNL A   1      43.661  30.290  35.290  1.00  0.00     0.029 A 
ATOM     57  N   UNL A   1      43.206  29.193  33.411  1.00  0.00    -0.354 N 
ATOM     58  N   UNL A   1      43.652  27.141  31.355  1.00  0.00    -0.248 NA
ATOM     59  C   UNL A   1      44.981  25.466  30.417  1.00  0.00     0.031 C 
ATOM     60  C   UNL A   1      44.694  29.379  35.049  1.00  0.00     0.029 A 
ATOM     61  C   UNL A   1      44.393  28.670  33.897  1.00  0.00     0.049 A 
ATOM     62  H   UNL A   1      42.750  28.891  32.592  1.00  0.00     0.167 HD
ATOM     63  C   UNL A   1      44.773  26.947  32.155  1.00  0.00     0.074 A 
ATOM     64  C   UNL A   1      45.536  25.877  31.548  1.00  0.00     0.031 C 
ATOM     65  C   UNL A   1      45.139  27.595  33.289  1.00  0.00     0.037 A 
BRANCH  52  66
ATOM     66  C   UNL A   1      41.250  32.085  35.011  1.00  0.00     0.058 A 
ATOM     67  C   UNL A   1      41.774  33.380  34.867  1.00  0.00     0.135 A 
ATOM     68  C   UNL A   1      40.359  31.857  36.074  1.00  0.00     0.135 A 
ATOM     69  F   UNL A   1      42.643  33.653  33.880  1.00  0.00    -0.206 F 
ATOM     70  C   UNL A   1      41.442  34.403  35.749  1.00  0.00     0.059 A 
ATOM     71  C   UNL A   1      39.987  32.874  36.949  1.00  0.00     0.059 A 
ATOM     72  F   UNL A   1      39.830  30.638  36.262  1.00  0.00    -0.206 F 
ATOM     73  C   UNL A   1      40.541  34.142  36.783  1.00  0.00     0.060 A 
BRANCH  73  74
ATOM     74  S   UNL A   1      40.099  35.490  37.898  1.00  0.00     0.124 S 
ATOM     75  O   UNL A   1      41.261  35.530  38.781  1.00  0.00    -0.237 OA
ATOM     76  O   UNL A   1      39.961  36.616  36.981  1.00  0.00    -0.237 OA
ATOM     77  O   UNL A   1      38.860  35.031  38.515  1.00  0.00    -0.744 OA
ENDBRANCH  73  74
ENDBRANCH  52  66
BRANCH  53  78
ATOM     78  C   UNL A   1      43.121  24.996  28.198  1.00  0.00     0.058 A 
ATOM     79  C   UNL A   1      42.864  23.635  28.423  1.00  0.00     0.135 A 
ATOM     80  C   UNL A   1      43.697  25.353  26.968  1.00  0.00     0.135 A 
ATOM     81  F   UNL A   1      42.319  23.239  29.584  1.00  0.00    -0.206 F 
ATOM     82  C   UNL A   1      43.195  22.663  27.484  1.00  0.00     0.059 A 
ATOM     83  C   UNL A   1      44.004  24.404  25.999  1.00  0.00     0.059 A 
ATOM     84  F   UNL A   1      43.949  26.642  26.691  1.00  0.00    -0.206 F 
ATOM     85  C   UNL A   1      43.764  23.059  26.272  1.00  0.00     0.060 A 
BRANCH  85  86
ATOM     86  S   UNL A   1      44.166  21.793  25.050  1.00  0.00     0.124 S 
ATOM     87  O   UNL A   1      43.118  20.809  25.290  1.00  0.00    -0.237 OA
ATOM     88  O   UNL A   1      44.070  22.538  23.799  1.00  0.00    -0.237 OA
ATOM     89  O   UNL A   1      45.516  21.383  25.425  1.00  0.00    -0.744 OA
ENDBRANCH  85  86
ENDBRANCH  53  78
BRANCH  65  90
ATOM     90  C   UNL A   1      46.396  27.138  33.980  1.00  0.00     0.058 A 
ATOM     91  C   UNL A   1      46.387  26.118  34.945  1.00  0.00     0.135 A 
ATOM     92  C   UNL A   1      47.638  27.696  33.631  1.00  0.00     0.135 A 
ATOM     93  F   UNL A   1      45.229  25.554  35.322  1.00  0.00    -0.206 F 
ATOM     94  C   UNL A   1      47.559  25.689  35.560  1.00  0.00     0.059 A 
ATOM     95  C   UNL A   1      48.826  27.255  34.205  1.00  0.00     0.059 A 
ATOM     96  F   UNL A   1      47.707  28.667  32.707  1.00  0.00    -0.206 F 
ATOM     97  C   UNL A   1      48.774  26.259  35.177  1.00  0.00     0.060 A 
BRANCH  97  98
ATOM     98  S   UNL A   1      50.290  25.664  35.959  1.00  0.00     0.124 S 
ATOM     99  O   UNL A   1      49.844  24.408  36.550  1.00  0.00    -0.237 OA
ATOM    100  O   UNL A   1      51.196  25.544  34.821  1.00  0.00    -0.237 OA
ATOM    101  O   UNL A   1      50.621  26.722  36.908  1.00  0.00    -0.744 OA
ENDBRANCH  97  98
ENDBRANCH  65  90
ENDBRANCH  39  40
ENDBRANCH  31  34
ENDBRANCH  29  30
ENDBRANCH  28  29
ENDBRANCH  27  28
ENDBRANCH   1  27
TORSDOF 20
ENDMDL
MODEL 3
REMARK VINA RESULT:     -11.4      2.592      3.320
REMARK SMILES N#Cc1ccc(C(=O)NCCCCCCNC(=O)c2ccc(-c3c4nc(c(-c5c(F)cc(S(=O)(=O)[O-])cc5F)c5ccc([nH]5)c(-c5c(F)cc(S(=O)(=O)[O-])cc5F)c5nc(c(-c6c(F)cc(S(=O)(=O)[O-])cc6F)c6ccc3[nH]6)C=C5)C=C4)cc2)nc1/C=C/c1ccc(O)c(Cl)c1
REMARK SMILES IDX 12 1 11 2 10 3 9 4 7 5 8 6 6 8 3 9 4 10 86 11 5 12 85 13
REMARK SMILES IDX 2 14 1 15 87 16 88 17 89 18 90 19 96 20 91 21 94 22 92 23
REMARK SMILES IDX 95 24 93 25 13 27 14 28 15 29 16 30 17 31 18 33 19 34 20 35
REMARK SMILES IDX 84 36 21 37 83 38 22 39 23 40 24 41 77 42 25 43 82 44 76 45
REMARK SMILES IDX 78 46 26 47 81 48 75 49 74 50 27 52 61 53 40 54 60 55 41 56
REMARK SMILES IDX 44 57 59 58 79 59 42 60 43 61 58 63 80 64 45 65 28 66 29 67
REMARK SMILES IDX 38 68 30 69 31 70 37 71 39 72 32 73 33 74 34 75 35 76 36 77
REMARK SMILES IDX 62 78 63 79 72 80 64 81 65 82 71 83 73 84 66 85 67 86 68 87
REMARK SMILES IDX 69 88 70 89 46 90 47 91 56 92 48 93 49 94 55 95 57 96 50 97
REMARK SMILES IDX 51 98 52 99 53 100 54 101
REMARK H PARENT 9 7 93 26 16 32 78 51 44 62
REMARK Flexibility Score: inf
ROOT
ATOM      1  C   UNL A   1      31.098  28.173  24.877  1.00  0.00     0.002 C 
ENDROOT
BRANCH   1   2
ATOM      2  C   UNL A   1      30.011  27.702  23.913  1.00  0.00     0.021 C 
BRANCH   2   3
ATOM      3  C   UNL A   1      29.811  26.195  23.825  1.00  0.00     0.116 C 
BRANCH   3   4
ATOM      4  N   UNL A   1      29.771  25.535  25.115  1.00  0.00    -0.351 N 
ATOM      5  C   UNL A   1      30.676  24.731  25.778  1.00  0.00     0.269 C 
ATOM      6  O   UNL A   1      30.319  24.278  26.868  1.00  0.00    -0.268 OA
ATOM      7  H   UNL A   1      28.936  25.689  25.615  1.00  0.00     0.163 HD
BRANCH   5   8
ATOM      8  C   UNL A   1      32.034  24.370  25.226  1.00  0.00     0.128 A 
ATOM      9  C   UNL A   1      34.379  23.549  24.023  1.00  0.00     0.078 A 
ATOM     10  C   UNL A   1      34.224  24.881  24.401  1.00  0.00     0.024 A 
ATOM     11  C   UNL A   1      33.372  22.647  24.370  1.00  0.00     0.082 A 
ATOM     12  C   UNL A   1      33.072  25.277  25.075  1.00  0.00     0.035 A 
ATOM     13  N   UNL A   1      32.195  23.054  24.912  1.00  0.00    -0.242 NA
BRANCH   9  14
ATOM     14  C   UNL A   1      35.579  23.150  23.356  1.00  0.00     0.101 C 
ATOM     15  N   UNL A   1      36.553  22.819  22.816  1.00  0.00    -0.192 NA
ENDBRANCH   9  14
BRANCH  11  16
ATOM     16  C   UNL A   1      33.589  21.188  24.304  1.00  0.00     0.030 C 
ATOM     17  C   UNL A   1      33.067  20.293  25.160  1.00  0.00     0.010 C 
BRANCH  17  18
ATOM     18  C   UNL A   1      33.503  18.890  25.146  1.00  0.00    -0.024 A 
ATOM     19  C   UNL A   1      34.762  18.551  24.639  1.00  0.00     0.012 A 
ATOM     20  C   UNL A   1      32.650  17.873  25.605  1.00  0.00     0.032 A 
ATOM     21  C   UNL A   1      35.184  17.217  24.631  1.00  0.00     0.048 A 
ATOM     22  C   UNL A   1      33.074  16.545  25.597  1.00  0.00     0.083 A 
ATOM     23  C   UNL A   1      34.342  16.223  25.118  1.00  0.00     0.134 A 
ATOM     24  Cl  UNL A   1      32.021  15.313  26.187  1.00  0.00    -0.080 Cl
BRANCH  23  25
ATOM     25  O   UNL A   1      34.805  14.935  25.106  1.00  0.00    -0.506 OA
ATOM     26  H   UNL A   1      35.273  14.612  24.361  1.00  0.00     0.293 HD
ENDBRANCH  23  25
ENDBRANCH  17  18
ENDBRANCH  11  16
ENDBRANCH   5   8
ENDBRANCH   3   4
ENDBRANCH   2   3
ENDBRANCH   1   2
BRANCH   1  27
ATOM     27  C   UNL A   1      32.199  29.041  24.261  1.00  0.00     0.002 C 
BRANCH  27  28
ATOM     28  C   UNL A   1      33.635  28.626  24.594  1.00  0.00     0.021 C 
BRANCH  28  29
ATOM     29  C   UNL A   1      34.047  28.842  26.045  1.00  0.00     0.116 C 
BRANCH  29  30
ATOM     30  N   UNL A   1      33.747  30.188  26.503  1.00  0.00    -0.352 N 
ATOM     31  C   UNL A   1      34.330  30.914  27.510  1.00  0.00     0.251 C 
ATOM     32  H   UNL A   1      33.021  30.644  26.020  1.00  0.00     0.163 HD
ATOM     33  O   UNL A   1      33.798  31.947  27.906  1.00  0.00    -0.269 OA
BRANCH  31  34
ATOM     34  C   UNL A   1      35.588  30.440  28.126  1.00  0.00     0.039 A 
ATOM     35  C   UNL A   1      36.806  30.844  27.575  1.00  0.00     0.014 A 
ATOM     36  C   UNL A   1      35.567  29.595  29.241  1.00  0.00     0.014 A 
ATOM     37  C   UNL A   1      38.001  30.445  28.176  1.00  0.00     0.010 A 
ATOM     38  C   UNL A   1      36.756  29.271  29.887  1.00  0.00     0.010 A 
ATOM     39  C   UNL A   1      37.987  29.686  29.359  1.00  0.00    -0.014 A 
BRANCH  39  40
ATOM     40  C   UNL A   1      39.250  29.322  30.052  1.00  0.00     0.031 A 
ATOM     41  C   UNL A   1      39.696  30.087  31.269  1.00  0.00     0.074 A 
ATOM     42  C   UNL A   1      40.019  28.331  29.554  1.00  0.00     0.049 A 
ATOM     43  N   UNL A   1      40.789  29.950  31.973  1.00  0.00    -0.248 NA
ATOM     44  C   UNL A   1      38.808  31.161  31.745  1.00  0.00     0.031 C 
ATOM     45  C   UNL A   1      39.714  27.545  28.356  1.00  0.00     0.029 A 
ATOM     46  N   UNL A   1      41.216  27.819  29.988  1.00  0.00    -0.354 N 
ATOM     47  C   UNL A   1      40.723  30.918  32.970  1.00  0.00     0.074 A 
ATOM     48  C   UNL A   1      39.514  31.677  32.741  1.00  0.00     0.031 C 
ATOM     49  C   UNL A   1      40.682  26.635  28.168  1.00  0.00     0.029 A 
ATOM     50  C   UNL A   1      41.703  26.804  29.197  1.00  0.00     0.049 A 
ATOM     51  H   UNL A   1      41.683  28.147  30.790  1.00  0.00     0.167 HD
ATOM     52  C   UNL A   1      41.579  31.135  33.997  1.00  0.00     0.037 A 
ATOM     53  C   UNL A   1      42.849  26.099  29.279  1.00  0.00     0.037 A 
ATOM     54  C   UNL A   1      42.776  30.366  34.223  1.00  0.00     0.049 A 
ATOM     55  C   UNL A   1      43.802  26.387  30.410  1.00  0.00     0.074 A 
ATOM     56  C   UNL A   1      43.687  30.481  35.258  1.00  0.00     0.029 A 
ATOM     57  N   UNL A   1      43.234  29.346  33.401  1.00  0.00    -0.354 N 
ATOM     58  N   UNL A   1      43.690  27.264  31.379  1.00  0.00    -0.248 NA
ATOM     59  C   UNL A   1      45.032  25.587  30.463  1.00  0.00     0.031 C 
ATOM     60  C   UNL A   1      44.728  29.578  35.027  1.00  0.00     0.029 A 
ATOM     61  C   UNL A   1      44.429  28.845  33.889  1.00  0.00     0.049 A 
ATOM     62  H   UNL A   1      42.776  29.026  32.589  1.00  0.00     0.167 HD
ATOM     63  C   UNL A   1      44.818  27.096  32.176  1.00  0.00     0.074 A 
ATOM     64  C   UNL A   1      45.589  26.023  31.584  1.00  0.00     0.031 C 
ATOM     65  C   UNL A   1      45.183  27.768  33.296  1.00  0.00     0.037 A 
BRANCH  52  66
ATOM     66  C   UNL A   1      41.256  32.246  34.961  1.00  0.00     0.058 A 
ATOM     67  C   UNL A   1      40.390  32.051  36.050  1.00  0.00     0.135 A 
ATOM     68  C   UNL A   1      41.871  33.502  34.834  1.00  0.00     0.135 A 
ATOM     69  F   UNL A   1      39.761  30.876  36.213  1.00  0.00    -0.206 F 
ATOM     70  C   UNL A   1      40.131  33.066  36.965  1.00  0.00     0.059 A 
ATOM     71  C   UNL A   1      41.653  34.522  35.757  1.00  0.00     0.059 A 
ATOM     72  F   UNL A   1      42.705  33.747  33.811  1.00  0.00    -0.206 F 
ATOM     73  C   UNL A   1      40.773  34.296  36.815  1.00  0.00     0.060 A 
BRANCH  73  74
ATOM     74  S   UNL A   1      40.448  35.589  38.031  1.00  0.00     0.124 S 
ATOM     75  O   UNL A   1      41.792  35.862  38.532  1.00  0.00    -0.237 OA
ATOM     76  O   UNL A   1      39.852  36.639  37.212  1.00  0.00    -0.237 OA
ATOM     77  O   UNL A   1      39.545  34.947  38.979  1.00  0.00    -0.744 OA
ENDBRANCH  73  74
ENDBRANCH  52  66
BRANCH  53  78
ATOM     78  C   UNL A   1      43.165  25.058  28.263  1.00  0.00     0.058 A 
ATOM     79  C   UNL A   1      43.756  25.394  27.034  1.00  0.00     0.135 A 
ATOM     80  C   UNL A   1      42.869  23.705  28.493  1.00  0.00     0.135 A 
ATOM     81  F   UNL A   1      44.055  26.673  26.761  1.00  0.00    -0.206 F 
ATOM     82  C   UNL A   1      44.011  24.433  26.060  1.00  0.00     0.059 A 
ATOM     83  C   UNL A   1      43.147  22.723  27.549  1.00  0.00     0.059 A 
ATOM     84  F   UNL A   1      42.319  23.324  29.657  1.00  0.00    -0.206 F 
ATOM     85  C   UNL A   1      43.704  23.098  26.328  1.00  0.00     0.060 A 
BRANCH  85  86
ATOM     86  S   UNL A   1      44.063  21.857  25.067  1.00  0.00     0.124 S 
ATOM     87  O   UNL A   1      45.462  21.555  25.342  1.00  0.00    -0.237 OA
ATOM     88  O   UNL A   1      43.105  20.807  25.394  1.00  0.00    -0.237 OA
ATOM     89  O   UNL A   1      43.803  22.566  23.817  1.00  0.00    -0.744 OA
ENDBRANCH  85  86
ENDBRANCH  53  78
BRANCH  65  90
ATOM     90  C   UNL A   1      46.449  27.336  33.988  1.00  0.00     0.058 A 
ATOM     91  C   UNL A   1      47.685  27.949  33.728  1.00  0.00     0.135 A 
ATOM     92  C   UNL A   1      46.412  26.328  34.965  1.00  0.00     0.135 A 
ATOM     93  F   UNL A   1      47.780  28.913  32.799  1.00  0.00    -0.206 F 
ATOM     94  C   UNL A   1      48.844  27.557  34.391  1.00  0.00     0.059 A 
ATOM     95  C   UNL A   1      47.551  25.947  35.667  1.00  0.00     0.059 A 
ATOM     96  F   UNL A   1      45.255  25.716  35.262  1.00  0.00    -0.206 F 
ATOM     97  C   UNL A   1      48.764  26.559  35.364  1.00  0.00     0.060 A 
BRANCH  97  98
ATOM     98  S   UNL A   1      50.271  26.088  36.241  1.00  0.00     0.124 S 
ATOM     99  O   UNL A   1      49.747  25.197  37.270  1.00  0.00    -0.237 OA
ATOM    100  O   UNL A   1      51.055  25.450  35.188  1.00  0.00    -0.237 OA
ATOM    101  O   UNL A   1      50.797  27.362  36.722  1.00  0.00    -0.744 OA
ENDBRANCH  97  98
ENDBRANCH  65  90
ENDBRANCH  39  40
ENDBRANCH  31  34
ENDBRANCH  29  30
ENDBRANCH  28  29
ENDBRANCH  27  28
ENDBRANCH   1  27
TORSDOF 20
ENDMDL
