MODEL 1
REMARK VINA RESULT:     -10.6      0.000      0.000
REMARK SMILES CCNS(=O)(=O)c1ccc(CC(=O)NCCCCCCNC(=O)c2ccc(-c3c4nc(c(-c5c(F)cc(S(=O)(=O)[O-])cc5F)c5ccc([nH]5)c(-c5c(F)cc(S(=O)(=O)[O-])cc5F)c5nc(c(-c6c(F)cc(S(=O)(=O)[O-])cc6F)c6ccc3[nH]6)C=C5)C=C4)cc2)cc1
REMARK SMILES IDX 17 1 16 2 15 3 14 4 12 5 13 6 11 8 10 9 7 10 8 11 91 12 9 13
REMARK SMILES IDX 90 14 4 15 5 16 6 17 3 18 2 20 1 21 18 22 19 23 20 24 21 25
REMARK SMILES IDX 22 26 23 28 24 29 25 30 89 31 26 32 88 33 27 34 28 35 29 36
REMARK SMILES IDX 82 37 30 38 87 39 81 40 83 41 31 42 86 43 80 44 79 45 32 47
REMARK SMILES IDX 66 48 45 49 65 50 46 51 49 52 64 53 84 54 47 55 48 56 63 58
REMARK SMILES IDX 85 59 50 60 33 61 34 62 43 63 35 64 36 65 42 66 44 67 37 68
REMARK SMILES IDX 38 69 39 70 40 71 41 72 67 73 68 74 77 75 69 76 70 77 76 78
REMARK SMILES IDX 78 79 71 80 72 81 73 82 74 83 75 84 51 85 52 86 61 87 53 88
REMARK SMILES IDX 54 89 60 90 62 91 55 92 56 93 57 94 58 95 59 96
REMARK H PARENT 14 7 3 19 21 27 83 46 49 57
REMARK Flexibility Score: inf
ROOT
ATOM      1  C   UNL A   1      37.030  23.070  24.682  1.00  0.00     0.002 C 
ENDROOT
BRANCH   1   2
ATOM      2  C   UNL A   1      36.866  21.563  24.441  1.00  0.00     0.021 C 
BRANCH   2   3
ATOM      3  C   UNL A   1      35.876  20.878  25.386  1.00  0.00     0.116 C 
BRANCH   3   4
ATOM      4  N   UNL A   1      34.552  20.795  24.797  1.00  0.00    -0.356 N 
ATOM      5  C   UNL A   1      33.457  21.576  25.028  1.00  0.00     0.224 C 
ATOM      6  O   UNL A   1      32.391  21.271  24.489  1.00  0.00    -0.275 OA
ATOM      7  H   UNL A   1      34.426  20.073  24.140  1.00  0.00     0.163 HD
BRANCH   5   8
ATOM      8  C   UNL A   1      33.577  22.818  25.896  1.00  0.00     0.135 C 
BRANCH   8   9
ATOM      9  C   UNL A   1      33.481  24.123  25.138  1.00  0.00    -0.039 A 
ATOM     10  C   UNL A   1      33.387  26.524  23.712  1.00  0.00     0.082 A 
ATOM     11  C   UNL A   1      33.396  26.549  25.109  1.00  0.00     0.022 A 
ATOM     12  C   UNL A   1      33.390  25.313  23.019  1.00  0.00     0.022 A 
ATOM     13  C   UNL A   1      33.432  25.348  25.818  1.00  0.00     0.005 A 
ATOM     14  C   UNL A   1      33.428  24.116  23.733  1.00  0.00     0.005 A 
BRANCH  10  15
ATOM     15  S   UNL A   1      33.442  28.051  22.815  1.00  0.00     0.240 S 
ATOM     16  O   UNL A   1      34.261  27.864  21.639  1.00  0.00    -0.207 OA
ATOM     17  O   UNL A   1      33.709  29.100  23.774  1.00  0.00    -0.207 OA
BRANCH  15  18
ATOM     18  N   UNL A   1      31.852  28.256  22.303  1.00  0.00    -0.211 NA
ATOM     19  H   UNL A   1      31.870  28.907  21.518  1.00  0.00     0.141 HD
BRANCH  18  20
ATOM     20  C   UNL A   1      30.869  28.763  23.263  1.00  0.00     0.095 C 
ATOM     21  C   UNL A   1      29.529  28.922  22.566  1.00  0.00     0.022 C 
ENDBRANCH  18  20
ENDBRANCH  15  18
ENDBRANCH  10  15
ENDBRANCH   8   9
ENDBRANCH   5   8
ENDBRANCH   3   4
ENDBRANCH   2   3
ENDBRANCH   1   2
BRANCH   1  22
ATOM     22  C   UNL A   1      37.764  23.455  25.971  1.00  0.00     0.002 C 
BRANCH  22  23
ATOM     23  C   UNL A   1      38.970  22.583  26.329  1.00  0.00     0.021 C 
BRANCH  23  24
ATOM     24  C   UNL A   1      40.133  23.324  26.985  1.00  0.00     0.116 C 
BRANCH  24  25
ATOM     25  N   UNL A   1      41.009  23.951  26.008  1.00  0.00    -0.352 N 
ATOM     26  C   UNL A   1      41.553  25.213  26.005  1.00  0.00     0.251 C 
ATOM     27  H   UNL A   1      41.247  23.389  25.236  1.00  0.00     0.163 HD
ATOM     28  O   UNL A   1      42.128  25.626  25.003  1.00  0.00    -0.269 OA
BRANCH  26  29
ATOM     29  C   UNL A   1      41.429  26.080  27.198  1.00  0.00     0.039 A 
ATOM     30  C   UNL A   1      42.425  27.029  27.449  1.00  0.00     0.014 A 
ATOM     31  C   UNL A   1      40.350  25.949  28.078  1.00  0.00     0.014 A 
ATOM     32  C   UNL A   1      42.308  27.887  28.546  1.00  0.00     0.010 A 
ATOM     33  C   UNL A   1      40.207  26.842  29.140  1.00  0.00     0.010 A 
ATOM     34  C   UNL A   1      41.183  27.820  29.383  1.00  0.00    -0.014 A 
BRANCH  34  35
ATOM     35  C   UNL A   1      41.005  28.771  30.510  1.00  0.00     0.031 A 
ATOM     36  C   UNL A   1      41.847  28.646  31.749  1.00  0.00     0.074 A 
ATOM     37  C   UNL A   1      40.034  29.703  30.446  1.00  0.00     0.049 A 
ATOM     38  N   UNL A   1      41.780  29.326  32.865  1.00  0.00    -0.248 NA
ATOM     39  C   UNL A   1      42.884  27.603  31.744  1.00  0.00     0.031 C 
ATOM     40  C   UNL A   1      39.118  29.894  29.319  1.00  0.00     0.029 A 
ATOM     41  N   UNL A   1      39.642  30.655  31.354  1.00  0.00    -0.354 N 
ATOM     42  C   UNL A   1      42.748  28.784  33.701  1.00  0.00     0.074 A 
ATOM     43  C   UNL A   1      43.364  27.692  32.976  1.00  0.00     0.031 C 
ATOM     44  C   UNL A   1      38.281  30.907  29.598  1.00  0.00     0.029 A 
ATOM     45  C   UNL A   1      38.579  31.418  30.933  1.00  0.00     0.049 A 
ATOM     46  H   UNL A   1      40.084  30.780  32.225  1.00  0.00     0.167 HD
ATOM     47  C   UNL A   1      43.105  29.171  34.949  1.00  0.00     0.037 A 
ATOM     48  C   UNL A   1      37.913  32.410  31.554  1.00  0.00     0.037 A 
ATOM     49  C   UNL A   1      42.515  30.280  35.652  1.00  0.00     0.049 A 
ATOM     50  C   UNL A   1      38.344  32.839  32.928  1.00  0.00     0.074 A 
ATOM     51  C   UNL A   1      42.853  30.790  36.893  1.00  0.00     0.029 A 
ATOM     52  N   UNL A   1      41.465  31.052  35.176  1.00  0.00    -0.354 N 
ATOM     53  N   UNL A   1      39.301  32.351  33.681  1.00  0.00    -0.248 NA
ATOM     54  C   UNL A   1      37.610  33.957  33.537  1.00  0.00     0.031 C 
ATOM     55  C   UNL A   1      41.988  31.852  37.181  1.00  0.00     0.029 A 
ATOM     56  C   UNL A   1      41.134  32.025  36.104  1.00  0.00     0.049 A 
ATOM     57  H   UNL A   1      41.022  30.926  34.307  1.00  0.00     0.167 HD
ATOM     58  C   UNL A   1      39.298  33.115  34.842  1.00  0.00     0.074 A 
ATOM     59  C   UNL A   1      38.251  34.104  34.689  1.00  0.00     0.031 C 
ATOM     60  C   UNL A   1      40.093  33.006  35.935  1.00  0.00     0.037 A 
BRANCH  47  61
ATOM     61  C   UNL A   1      44.190  28.388  35.634  1.00  0.00     0.058 A 
ATOM     62  C   UNL A   1      43.893  27.368  36.551  1.00  0.00     0.135 A 
ATOM     63  C   UNL A   1      45.542  28.642  35.349  1.00  0.00     0.135 A 
ATOM     64  F   UNL A   1      42.618  27.096  36.870  1.00  0.00    -0.206 F 
ATOM     65  C   UNL A   1      44.897  26.647  37.188  1.00  0.00     0.059 A 
ATOM     66  C   UNL A   1      46.564  27.916  35.956  1.00  0.00     0.059 A 
ATOM     67  F   UNL A   1      45.881  29.606  34.479  1.00  0.00    -0.206 F 
ATOM     68  C   UNL A   1      46.231  26.933  36.886  1.00  0.00     0.060 A 
BRANCH  68  69
ATOM     69  S   UNL A   1      47.526  25.994  37.724  1.00  0.00     0.124 S 
ATOM     70  O   UNL A   1      48.717  26.445  37.010  1.00  0.00    -0.237 OA
ATOM     71  O   UNL A   1      47.404  26.451  39.105  1.00  0.00    -0.237 OA
ATOM     72  O   UNL A   1      47.143  24.606  37.491  1.00  0.00    -0.744 OA
ENDBRANCH  68  69
ENDBRANCH  47  61
BRANCH  48  73
ATOM     73  C   UNL A   1      36.782  33.082  30.865  1.00  0.00     0.058 A 
ATOM     74  C   UNL A   1      37.014  34.036  29.863  1.00  0.00     0.135 A 
ATOM     75  C   UNL A   1      35.450  32.766  31.175  1.00  0.00     0.135 A 
ATOM     76  F   UNL A   1      38.271  34.373  29.537  1.00  0.00    -0.206 F 
ATOM     77  C   UNL A   1      35.965  34.662  29.197  1.00  0.00     0.059 A 
ATOM     78  C   UNL A   1      34.385  33.364  30.509  1.00  0.00     0.059 A 
ATOM     79  F   UNL A   1      35.178  31.847  32.114  1.00  0.00    -0.206 F 
ATOM     80  C   UNL A   1      34.653  34.317  29.527  1.00  0.00     0.060 A 
BRANCH  80  81
ATOM     81  S   UNL A   1      33.297  35.087  28.615  1.00  0.00     0.124 S 
ATOM     82  O   UNL A   1      32.723  33.941  27.921  1.00  0.00    -0.237 OA
ATOM     83  O   UNL A   1      32.489  35.658  29.688  1.00  0.00    -0.237 OA
ATOM     84  O   UNL A   1      33.979  36.063  27.769  1.00  0.00    -0.744 OA
ENDBRANCH  80  81
ENDBRANCH  48  73
BRANCH  60  85
ATOM     85  C   UNL A   1      39.878  33.997  37.043  1.00  0.00     0.058 A 
ATOM     86  C   UNL A   1      40.380  35.305  36.966  1.00  0.00     0.135 A 
ATOM     87  C   UNL A   1      39.118  33.650  38.171  1.00  0.00     0.135 A 
ATOM     88  F   UNL A   1      41.118  35.685  35.910  1.00  0.00    -0.206 F 
ATOM     89  C   UNL A   1      40.154  36.230  37.980  1.00  0.00     0.059 A 
ATOM     90  C   UNL A   1      38.860  34.564  39.187  1.00  0.00     0.059 A 
ATOM     91  F   UNL A   1      38.609  32.413  38.288  1.00  0.00    -0.206 F 
ATOM     92  C   UNL A   1      39.392  35.850  39.087  1.00  0.00     0.060 A 
BRANCH  92  93
ATOM     93  S   UNL A   1      39.073  37.068  40.381  1.00  0.00     0.124 S 
ATOM     94  O   UNL A   1      38.114  36.359  41.221  1.00  0.00    -0.237 OA
ATOM     95  O   UNL A   1      40.398  37.267  40.960  1.00  0.00    -0.237 OA
ATOM     96  O   UNL A   1      38.541  38.211  39.646  1.00  0.00    -0.744 OA
ENDBRANCH  92  93
ENDBRANCH  60  85
ENDBRANCH  34  35
ENDBRANCH  26  29
ENDBRANCH  24  25
ENDBRANCH  23  24
ENDBRANCH  22  23
ENDBRANCH   1  22
TORSDOF 20
ENDMDL
MODEL 2
REMARK VINA RESULT:     -10.4      4.642     10.064
REMARK SMILES CCNS(=O)(=O)c1ccc(CC(=O)NCCCCCCNC(=O)c2ccc(-c3c4nc(c(-c5c(F)cc(S(=O)(=O)[O-])cc5F)c5ccc([nH]5)c(-c5c(F)cc(S(=O)(=O)[O-])cc5F)c5nc(c(-c6c(F)cc(S(=O)(=O)[O-])cc6F)c6ccc3[nH]6)C=C5)C=C4)cc2)cc1
REMARK SMILES IDX 17 1 16 2 15 3 14 4 12 5 13 6 11 8 10 9 7 10 8 11 91 12 9 13
REMARK SMILES IDX 90 14 4 15 5 16 6 17 3 18 2 20 1 21 18 22 19 23 20 24 21 25
REMARK SMILES IDX 22 26 23 28 24 29 25 30 89 31 26 32 88 33 27 34 28 35 29 36
REMARK SMILES IDX 82 37 30 38 87 39 81 40 83 41 31 42 86 43 80 44 79 45 32 47
REMARK SMILES IDX 66 48 45 49 65 50 46 51 49 52 64 53 84 54 47 55 48 56 63 58
REMARK SMILES IDX 85 59 50 60 33 61 34 62 43 63 35 64 36 65 42 66 44 67 37 68
REMARK SMILES IDX 38 69 39 70 40 71 41 72 67 73 68 74 77 75 69 76 70 77 76 78
REMARK SMILES IDX 78 79 71 80 72 81 73 82 74 83 75 84 51 85 52 86 61 87 53 88
REMARK SMILES IDX 54 89 60 90 62 91 55 92 56 93 57 94 58 95 59 96
REMARK H PARENT 14 7 3 19 21 27 83 46 49 57
REMARK Flexibility Score: inf
ROOT
ATOM      1  C   UNL A   1      33.881  26.416  23.599  1.00  0.00     0.002 C 
ENDROOT
BRANCH   1   2
ATOM      2  C   UNL A   1      34.374  25.233  24.444  1.00  0.00     0.021 C 
BRANCH   2   3
ATOM      3  C   UNL A   1      33.258  24.438  25.125  1.00  0.00     0.116 C 
BRANCH   3   4
ATOM      4  N   UNL A   1      32.257  24.001  24.169  1.00  0.00    -0.356 N 
ATOM      5  C   UNL A   1      30.933  24.326  24.100  1.00  0.00     0.224 C 
ATOM      6  O   UNL A   1      30.231  23.762  23.257  1.00  0.00    -0.275 OA
ATOM      7  H   UNL A   1      32.579  23.384  23.472  1.00  0.00     0.163 HD
BRANCH   5   8
ATOM      8  C   UNL A   1      30.362  25.394  25.018  1.00  0.00     0.135 C 
BRANCH   8   9
ATOM      9  C   UNL A   1      29.799  26.600  24.301  1.00  0.00    -0.039 A 
ATOM     10  C   UNL A   1      28.763  28.874  23.052  1.00  0.00     0.082 A 
ATOM     11  C   UNL A   1      27.929  27.781  23.300  1.00  0.00     0.022 A 
ATOM     12  C   UNL A   1      30.116  28.832  23.389  1.00  0.00     0.022 A 
ATOM     13  C   UNL A   1      28.452  26.642  23.914  1.00  0.00     0.005 A 
ATOM     14  C   UNL A   1      30.633  27.692  24.005  1.00  0.00     0.005 A 
BRANCH  10  15
ATOM     15  S   UNL A   1      28.074  30.354  22.363  1.00  0.00     0.240 S 
ATOM     16  O   UNL A   1      26.885  30.698  23.109  1.00  0.00    -0.207 OA
ATOM     17  O   UNL A   1      28.056  30.188  20.927  1.00  0.00    -0.207 OA
BRANCH  15  18
ATOM     18  N   UNL A   1      29.242  31.518  22.701  1.00  0.00    -0.211 NA
ATOM     19  H   UNL A   1      29.525  31.387  23.672  1.00  0.00     0.141 HD
BRANCH  18  20
ATOM     20  C   UNL A   1      28.887  32.930  22.541  1.00  0.00     0.095 C 
ATOM     21  C   UNL A   1      29.692  33.760  23.527  1.00  0.00     0.022 C 
ENDBRANCH  18  20
ENDBRANCH  15  18
ENDBRANCH  10  15
ENDBRANCH   8   9
ENDBRANCH   5   8
ENDBRANCH   3   4
ENDBRANCH   2   3
ENDBRANCH   1   2
BRANCH   1  22
ATOM     22  C   UNL A   1      33.822  27.764  24.326  1.00  0.00     0.002 C 
BRANCH  22  23
ATOM     23  C   UNL A   1      34.682  27.872  25.589  1.00  0.00     0.021 C 
BRANCH  23  24
ATOM     24  C   UNL A   1      33.900  28.001  26.895  1.00  0.00     0.116 C 
BRANCH  24  25
ATOM     25  N   UNL A   1      33.534  29.378  27.184  1.00  0.00    -0.352 N 
ATOM     26  C   UNL A   1      34.244  30.350  27.846  1.00  0.00     0.251 C 
ATOM     27  H   UNL A   1      32.647  29.654  26.857  1.00  0.00     0.163 HD
ATOM     28  O   UNL A   1      33.696  31.405  28.150  1.00  0.00    -0.269 OA
BRANCH  26  29
ATOM     29  C   UNL A   1      35.659  30.119  28.213  1.00  0.00     0.039 A 
ATOM     30  C   UNL A   1      35.959  29.684  29.508  1.00  0.00     0.014 A 
ATOM     31  C   UNL A   1      36.690  30.349  27.296  1.00  0.00     0.014 A 
ATOM     32  C   UNL A   1      37.285  29.421  29.863  1.00  0.00     0.010 A 
ATOM     33  C   UNL A   1      38.005  30.033  27.634  1.00  0.00     0.010 A 
ATOM     34  C   UNL A   1      38.315  29.564  28.920  1.00  0.00    -0.014 A 
BRANCH  34  35
ATOM     35  C   UNL A   1      39.720  29.219  29.257  1.00  0.00     0.031 A 
ATOM     36  C   UNL A   1      40.623  30.242  29.889  1.00  0.00     0.074 A 
ATOM     37  C   UNL A   1      40.203  28.005  28.927  1.00  0.00     0.049 A 
ATOM     38  N   UNL A   1      41.896  30.153  30.177  1.00  0.00    -0.248 NA
ATOM     39  C   UNL A   1      40.022  31.544  30.216  1.00  0.00     0.031 C 
ATOM     40  C   UNL A   1      39.442  26.942  28.267  1.00  0.00     0.029 A 
ATOM     41  N   UNL A   1      41.454  27.464  29.088  1.00  0.00    -0.354 N 
ATOM     42  C   UNL A   1      42.255  31.390  30.699  1.00  0.00     0.074 A 
ATOM     43  C   UNL A   1      41.073  32.224  30.654  1.00  0.00     0.031 C 
ATOM     44  C   UNL A   1      40.238  25.875  28.090  1.00  0.00     0.029 A 
ATOM     45  C   UNL A   1      41.572  26.186  28.595  1.00  0.00     0.049 A 
ATOM     46  H   UNL A   1      42.198  27.946  29.516  1.00  0.00     0.167 HD
ATOM     47  C   UNL A   1      43.453  31.788  31.190  1.00  0.00     0.037 A 
ATOM     48  C   UNL A   1      42.634  25.360  28.547  1.00  0.00     0.037 A 
ATOM     49  C   UNL A   1      44.617  30.944  31.267  1.00  0.00     0.049 A 
ATOM     50  C   UNL A   1      43.947  25.814  29.121  1.00  0.00     0.074 A 
ATOM     51  C   UNL A   1      45.857  31.236  31.807  1.00  0.00     0.029 A 
ATOM     52  N   UNL A   1      44.685  29.642  30.792  1.00  0.00    -0.354 N 
ATOM     53  N   UNL A   1      44.252  26.969  29.664  1.00  0.00    -0.248 NA
ATOM     54  C   UNL A   1      45.059  24.854  29.082  1.00  0.00     0.031 C 
ATOM     55  C   UNL A   1      46.685  30.120  31.632  1.00  0.00     0.029 A 
ATOM     56  C   UNL A   1      45.949  29.122  31.013  1.00  0.00     0.049 A 
ATOM     57  H   UNL A   1      43.943  29.160  30.361  1.00  0.00     0.167 HD
ATOM     58  C   UNL A   1      45.584  26.866  30.050  1.00  0.00     0.074 A 
ATOM     59  C   UNL A   1      46.023  25.534  29.688  1.00  0.00     0.031 C 
ATOM     60  C   UNL A   1      46.370  27.793  30.652  1.00  0.00     0.037 A 
BRANCH  47  61
ATOM     61  C   UNL A   1      43.564  33.202  31.687  1.00  0.00     0.058 A 
ATOM     62  C   UNL A   1      43.776  34.275  30.807  1.00  0.00     0.135 A 
ATOM     63  C   UNL A   1      43.429  33.491  33.054  1.00  0.00     0.135 A 
ATOM     64  F   UNL A   1      43.927  34.052  29.492  1.00  0.00    -0.206 F 
ATOM     65  C   UNL A   1      43.882  35.583  31.268  1.00  0.00     0.059 A 
ATOM     66  C   UNL A   1      43.507  34.795  33.536  1.00  0.00     0.059 A 
ATOM     67  F   UNL A   1      43.224  32.502  33.938  1.00  0.00    -0.206 F 
ATOM     68  C   UNL A   1      43.751  35.832  32.636  1.00  0.00     0.060 A 
BRANCH  68  69
ATOM     69  S   UNL A   1      43.898  37.534  33.223  1.00  0.00     0.124 S 
ATOM     70  O   UNL A   1      44.056  38.259  31.966  1.00  0.00    -0.237 OA
ATOM     71  O   UNL A   1      42.631  37.738  33.917  1.00  0.00    -0.237 OA
ATOM     72  O   UNL A   1      45.079  37.496  34.078  1.00  0.00    -0.744 OA
ENDBRANCH  68  69
ENDBRANCH  47  61
BRANCH  48  73
ATOM     73  C   UNL A   1      42.490  24.006  27.953  1.00  0.00     0.058 A 
ATOM     74  C   UNL A   1      42.421  22.866  28.767  1.00  0.00     0.135 A 
ATOM     75  C   UNL A   1      42.392  23.829  26.564  1.00  0.00     0.135 A 
ATOM     76  F   UNL A   1      42.515  22.988  30.099  1.00  0.00    -0.206 F 
ATOM     77  C   UNL A   1      42.269  21.594  28.226  1.00  0.00     0.059 A 
ATOM     78  C   UNL A   1      42.220  22.568  26.001  1.00  0.00     0.059 A 
ATOM     79  F   UNL A   1      42.435  24.891  25.745  1.00  0.00    -0.206 F 
ATOM     80  C   UNL A   1      42.168  21.456  26.840  1.00  0.00     0.060 A 
BRANCH  80  81
ATOM     81  S   UNL A   1      41.907  19.807  26.149  1.00  0.00     0.124 S 
ATOM     82  O   UNL A   1      40.474  19.823  25.885  1.00  0.00    -0.237 OA
ATOM     83  O   UNL A   1      42.775  19.825  24.974  1.00  0.00    -0.237 OA
ATOM     84  O   UNL A   1      42.344  18.923  27.226  1.00  0.00    -0.744 OA
ENDBRANCH  80  81
ENDBRANCH  48  73
BRANCH  60  85
ATOM     85  C   UNL A   1      47.780  27.391  30.979  1.00  0.00     0.058 A 
ATOM     86  C   UNL A   1      48.826  27.567  30.060  1.00  0.00     0.135 A 
ATOM     87  C   UNL A   1      48.096  26.870  32.243  1.00  0.00     0.135 A 
ATOM     88  F   UNL A   1      48.574  28.056  28.835  1.00  0.00    -0.206 F 
ATOM     89  C   UNL A   1      50.135  27.223  30.377  1.00  0.00     0.059 A 
ATOM     90  C   UNL A   1      49.401  26.539  32.590  1.00  0.00     0.059 A 
ATOM     91  F   UNL A   1      47.132  26.690  33.160  1.00  0.00    -0.206 F 
ATOM     92  C   UNL A   1      50.414  26.709  31.646  1.00  0.00     0.060 A 
BRANCH  92  93
ATOM     93  S   UNL A   1      52.122  26.298  32.061  1.00  0.00     0.124 S 
ATOM     94  O   UNL A   1      52.218  26.792  33.430  1.00  0.00    -0.237 OA
ATOM     95  O   UNL A   1      52.143  24.846  31.908  1.00  0.00    -0.237 OA
ATOM     96  O   UNL A   1      52.897  27.036  31.069  1.00  0.00    -0.744 OA
ENDBRANCH  92  93
ENDBRANCH  60  85
ENDBRANCH  34  35
ENDBRANCH  26  29
ENDBRANCH  24  25
ENDBRANCH  23  24
ENDBRANCH  22  23
ENDBRANCH   1  22
TORSDOF 20
ENDMDL
MODEL 3
REMARK VINA RESULT:     -10.3      0.933      2.101
REMARK SMILES CCNS(=O)(=O)c1ccc(CC(=O)NCCCCCCNC(=O)c2ccc(-c3c4nc(c(-c5c(F)cc(S(=O)(=O)[O-])cc5F)c5ccc([nH]5)c(-c5c(F)cc(S(=O)(=O)[O-])cc5F)c5nc(c(-c6c(F)cc(S(=O)(=O)[O-])cc6F)c6ccc3[nH]6)C=C5)C=C4)cc2)cc1
REMARK SMILES IDX 17 1 16 2 15 3 14 4 12 5 13 6 11 8 10 9 7 10 8 11 91 12 9 13
REMARK SMILES IDX 90 14 4 15 5 16 6 17 3 18 2 20 1 21 18 22 19 23 20 24 21 25
REMARK SMILES IDX 22 26 23 28 24 29 25 30 89 31 26 32 88 33 27 34 28 35 29 36
REMARK SMILES IDX 82 37 30 38 87 39 81 40 83 41 31 42 86 43 80 44 79 45 32 47
REMARK SMILES IDX 66 48 45 49 65 50 46 51 49 52 64 53 84 54 47 55 48 56 63 58
REMARK SMILES IDX 85 59 50 60 33 61 34 62 43 63 35 64 36 65 42 66 44 67 37 68
REMARK SMILES IDX 38 69 39 70 40 71 41 72 67 73 68 74 77 75 69 76 70 77 76 78
REMARK SMILES IDX 78 79 71 80 72 81 73 82 74 83 75 84 51 85 52 86 61 87 53 88
REMARK SMILES IDX 54 89 60 90 62 91 55 92 56 93 57 94 58 95 59 96
REMARK H PARENT 14 7 3 19 21 27 83 46 49 57
REMARK Flexibility Score: inf
ROOT
ATOM      1  C   UNL A   1      37.946  22.171  25.518  1.00  0.00     0.002 C 
ENDROOT
BRANCH   1   2
ATOM      2  C   UNL A   1      36.780  21.420  24.860  1.00  0.00     0.021 C 
BRANCH   2   3
ATOM      3  C   UNL A   1      35.557  21.240  25.763  1.00  0.00     0.116 C 
BRANCH   3   4
ATOM      4  N   UNL A   1      34.322  21.325  25.006  1.00  0.00    -0.356 N 
ATOM      5  C   UNL A   1      33.263  22.170  25.178  1.00  0.00     0.224 C 
ATOM      6  O   UNL A   1      32.260  22.008  24.479  1.00  0.00    -0.275 OA
ATOM      7  H   UNL A   1      34.235  20.684  24.264  1.00  0.00     0.163 HD
BRANCH   5   8
ATOM      8  C   UNL A   1      33.352  23.308  26.181  1.00  0.00     0.135 C 
BRANCH   8   9
ATOM      9  C   UNL A   1      32.959  24.660  25.630  1.00  0.00    -0.039 A 
ATOM     10  C   UNL A   1      32.302  27.195  24.656  1.00  0.00     0.082 A 
ATOM     11  C   UNL A   1      31.503  26.602  25.636  1.00  0.00     0.022 A 
ATOM     12  C   UNL A   1      33.406  26.522  24.131  1.00  0.00     0.022 A 
ATOM     13  C   UNL A   1      31.827  25.331  26.113  1.00  0.00     0.005 A 
ATOM     14  C   UNL A   1      33.727  25.253  24.614  1.00  0.00     0.005 A 
BRANCH  10  15
ATOM     15  S   UNL A   1      31.944  28.847  24.125  1.00  0.00     0.240 S 
ATOM     16  O   UNL A   1      30.569  28.900  23.684  1.00  0.00    -0.207 OA
ATOM     17  O   UNL A   1      33.037  29.268  23.277  1.00  0.00    -0.207 OA
BRANCH  15  18
ATOM     18  N   UNL A   1      32.060  29.743  25.545  1.00  0.00    -0.211 NA
ATOM     19  H   UNL A   1      31.774  30.696  25.324  1.00  0.00     0.141 HD
BRANCH  18  20
ATOM     20  C   UNL A   1      33.360  29.827  26.214  1.00  0.00     0.095 C 
ATOM     21  C   UNL A   1      33.341  28.945  27.451  1.00  0.00     0.022 C 
ENDBRANCH  18  20
ENDBRANCH  15  18
ENDBRANCH  10  15
ENDBRANCH   8   9
ENDBRANCH   5   8
ENDBRANCH   3   4
ENDBRANCH   2   3
ENDBRANCH   1   2
BRANCH   1  22
ATOM     22  C   UNL A   1      39.197  21.330  25.796  1.00  0.00     0.002 C 
BRANCH  22  23
ATOM     23  C   UNL A   1      40.078  21.820  26.949  1.00  0.00     0.021 C 
BRANCH  23  24
ATOM     24  C   UNL A   1      40.196  23.337  27.074  1.00  0.00     0.116 C 
BRANCH  24  25
ATOM     25  N   UNL A   1      41.122  23.900  26.104  1.00  0.00    -0.352 N 
ATOM     26  C   UNL A   1      41.616  25.179  26.009  1.00  0.00     0.251 C 
ATOM     27  H   UNL A   1      41.441  23.274  25.415  1.00  0.00     0.163 HD
ATOM     28  O   UNL A   1      42.252  25.514  25.013  1.00  0.00    -0.269 OA
BRANCH  26  29
ATOM     29  C   UNL A   1      41.365  26.157  27.090  1.00  0.00     0.039 A 
ATOM     30  C   UNL A   1      40.439  25.839  28.088  1.00  0.00     0.014 A 
ATOM     31  C   UNL A   1      42.023  27.392  27.113  1.00  0.00     0.014 A 
ATOM     32  C   UNL A   1      40.217  26.730  29.141  1.00  0.00     0.010 A 
ATOM     33  C   UNL A   1      41.842  28.256  28.194  1.00  0.00     0.010 A 
ATOM     34  C   UNL A   1      40.939  27.932  29.219  1.00  0.00    -0.014 A 
BRANCH  34  35
ATOM     35  C   UNL A   1      40.771  28.858  30.368  1.00  0.00     0.031 A 
ATOM     36  C   UNL A   1      41.612  28.696  31.604  1.00  0.00     0.074 A 
ATOM     37  C   UNL A   1      39.809  29.800  30.326  1.00  0.00     0.049 A 
ATOM     38  N   UNL A   1      41.552  29.350  32.735  1.00  0.00    -0.248 NA
ATOM     39  C   UNL A   1      42.639  27.643  31.573  1.00  0.00     0.031 C 
ATOM     40  C   UNL A   1      38.894  30.028  29.205  1.00  0.00     0.029 A 
ATOM     41  N   UNL A   1      39.427  30.735  31.257  1.00  0.00    -0.354 N 
ATOM     42  C   UNL A   1      42.515  28.778  33.557  1.00  0.00     0.074 A 
ATOM     43  C   UNL A   1      43.120  27.698  32.807  1.00  0.00     0.031 C 
ATOM     44  C   UNL A   1      38.068  31.041  29.509  1.00  0.00     0.029 A 
ATOM     45  C   UNL A   1      38.372  31.517  30.855  1.00  0.00     0.049 A 
ATOM     46  H   UNL A   1      39.870  30.835  32.131  1.00  0.00     0.167 HD
ATOM     47  C   UNL A   1      42.876  29.132  34.814  1.00  0.00     0.037 A 
ATOM     48  C   UNL A   1      37.716  32.502  31.499  1.00  0.00     0.037 A 
ATOM     49  C   UNL A   1      42.298  30.230  35.544  1.00  0.00     0.049 A 
ATOM     50  C   UNL A   1      38.151  32.894  32.883  1.00  0.00     0.074 A 
ATOM     51  C   UNL A   1      42.641  30.707  36.796  1.00  0.00     0.029 A 
ATOM     52  N   UNL A   1      41.255  31.023  35.086  1.00  0.00    -0.354 N 
ATOM     53  N   UNL A   1      39.104  32.378  33.623  1.00  0.00    -0.248 NA
ATOM     54  C   UNL A   1      37.428  34.004  33.519  1.00  0.00     0.031 C 
ATOM     55  C   UNL A   1      41.786  31.771  37.110  1.00  0.00     0.029 A 
ATOM     56  C   UNL A   1      40.933  31.977  36.038  1.00  0.00     0.049 A 
ATOM     57  H   UNL A   1      40.810  30.922  34.215  1.00  0.00     0.167 HD
ATOM     58  C   UNL A   1      39.108  33.115  34.802  1.00  0.00     0.074 A 
ATOM     59  C   UNL A   1      38.071  34.118  34.674  1.00  0.00     0.031 C 
ATOM     60  C   UNL A   1      39.902  32.972  35.892  1.00  0.00     0.037 A 
BRANCH  47  61
ATOM     61  C   UNL A   1      43.954  28.323  35.480  1.00  0.00     0.058 A 
ATOM     62  C   UNL A   1      45.289  28.757  35.504  1.00  0.00     0.135 A 
ATOM     63  C   UNL A   1      43.645  27.115  36.124  1.00  0.00     0.135 A 
ATOM     64  F   UNL A   1      45.641  29.897  34.890  1.00  0.00    -0.206 F 
ATOM     65  C   UNL A   1      46.286  28.005  36.116  1.00  0.00     0.059 A 
ATOM     66  C   UNL A   1      44.622  26.358  36.765  1.00  0.00     0.059 A 
ATOM     67  F   UNL A   1      42.383  26.655  36.132  1.00  0.00    -0.206 F 
ATOM     68  C   UNL A   1      45.943  26.804  36.740  1.00  0.00     0.060 A 
BRANCH  68  69
ATOM     69  S   UNL A   1      47.248  25.834  37.526  1.00  0.00     0.124 S 
ATOM     70  O   UNL A   1      47.595  26.684  38.661  1.00  0.00    -0.237 OA
ATOM     71  O   UNL A   1      46.562  24.589  37.853  1.00  0.00    -0.237 OA
ATOM     72  O   UNL A   1      48.266  25.731  36.485  1.00  0.00    -0.744 OA
ENDBRANCH  68  69
ENDBRANCH  47  61
BRANCH  48  73
ATOM     73  C   UNL A   1      36.590  33.201  30.827  1.00  0.00     0.058 A 
ATOM     74  C   UNL A   1      35.261  32.945  31.195  1.00  0.00     0.135 A 
ATOM     75  C   UNL A   1      36.822  34.155  29.824  1.00  0.00     0.135 A 
ATOM     76  F   UNL A   1      34.992  32.037  32.145  1.00  0.00    -0.206 F 
ATOM     77  C   UNL A   1      34.198  33.603  30.585  1.00  0.00     0.059 A 
ATOM     78  C   UNL A   1      35.777  34.841  29.215  1.00  0.00     0.059 A 
ATOM     79  F   UNL A   1      38.078  34.447  29.450  1.00  0.00    -0.206 F 
ATOM     80  C   UNL A   1      34.467  34.552  29.597  1.00  0.00     0.060 A 
BRANCH  80  81
ATOM     81  S   UNL A   1      33.085  35.448  28.855  1.00  0.00     0.124 S 
ATOM     82  O   UNL A   1      32.365  35.905  30.037  1.00  0.00    -0.237 OA
ATOM     83  O   UNL A   1      33.767  36.481  28.081  1.00  0.00    -0.237 OA
ATOM     84  O   UNL A   1      32.413  34.423  28.061  1.00  0.00    -0.744 OA
ENDBRANCH  80  81
ENDBRANCH  48  73
BRANCH  60  85
ATOM     85  C   UNL A   1      39.697  33.939  37.024  1.00  0.00     0.058 A 
ATOM     86  C   UNL A   1      39.022  33.565  38.196  1.00  0.00     0.135 A 
ATOM     87  C   UNL A   1      40.226  35.237  36.954  1.00  0.00     0.135 A 
ATOM     88  F   UNL A   1      38.492  32.337  38.308  1.00  0.00    -0.206 F 
ATOM     89  C   UNL A   1      38.860  34.453  39.254  1.00  0.00     0.059 A 
ATOM     90  C   UNL A   1      40.095  36.135  38.009  1.00  0.00     0.059 A 
ATOM     91  F   UNL A   1      40.887  35.640  35.858  1.00  0.00    -0.206 F 
ATOM     92  C   UNL A   1      39.401  35.737  39.152  1.00  0.00     0.060 A 
BRANCH  92  93
ATOM     93  S   UNL A   1      39.218  36.870  40.545  1.00  0.00     0.124 S 
ATOM     94  O   UNL A   1      38.743  38.079  39.879  1.00  0.00    -0.237 OA
ATOM     95  O   UNL A   1      38.241  36.183  41.383  1.00  0.00    -0.237 OA
ATOM     96  O   UNL A   1      40.566  36.946  41.099  1.00  0.00    -0.744 OA
ENDBRANCH  92  93
ENDBRANCH  60  85
ENDBRANCH  34  35
ENDBRANCH  26  29
ENDBRANCH  24  25
ENDBRANCH  23  24
ENDBRANCH  22  23
ENDBRANCH   1  22
TORSDOF 20
ENDMDL
