MODEL 1
REMARK VINA RESULT:     -12.2      0.000      0.000
REMARK SMILES O=C(NCCCCCCNC(=O)c1cc(NC(=O)c2ccccc2Cl)ccc1N1CCC[C@H](C[NH+]2CCCC2)C1)c1ccc(-c2c3nc(c(-c4c(F)cc(S(=O)(=O)[O-])cc4F)c4ccc([nH]4)c(-c4c(F)cc(S(=O)(=O)[O-])cc4F)c4nc(c(-c5c(F)cc(S(=O)(=O)[O-])cc5F)c5ccc2[nH]5)C=C4)C=C3)cc1
REMARK SMILES IDX 6 1 5 2 4 3 3 4 1 5 2 6 41 8 42 9 106 10 43 11 105 12 44 13
REMARK SMILES IDX 45 14 46 15 99 16 47 17 104 18 98 19 100 20 48 21 103 22
REMARK SMILES IDX 97 23 96 24 49 26 83 27 62 28 82 29 63 30 66 31 81 32 101 33
REMARK SMILES IDX 64 34 65 35 80 37 102 38 67 39 50 40 51 41 60 42 52 43 53 44
REMARK SMILES IDX 59 45 61 46 54 47 55 48 56 49 57 50 58 51 84 52 85 53 94 54
REMARK SMILES IDX 86 55 87 56 93 57 95 58 88 59 89 60 90 61 91 62 92 63 68 64
REMARK SMILES IDX 69 65 78 66 70 67 71 68 77 69 79 70 72 71 73 72 74 73 75 74
REMARK SMILES IDX 76 75 7 76 8 77 9 78 10 79 11 80 12 82 13 83 14 84 28 85
REMARK SMILES IDX 15 86 27 87 26 88 29 89 30 90 40 91 31 92 33 93 32 94 34 95
REMARK SMILES IDX 35 96 36 97 39 98 37 100 38 101 16 102 17 103 18 105 19 106
REMARK SMILES IDX 20 107 24 108 21 109 23 110 25 111 22 112
REMARK H PARENT 3 7 100 25 66 36 10 81 35 99 16 104
REMARK Flexibility Score: inf
ROOT
ATOM      1  C   UNL A   1      37.147  20.585  25.012  1.00  0.00     0.002 C 
ENDROOT
BRANCH   1   2
ATOM      2  C   UNL A   1      38.335  19.621  24.991  1.00  0.00     0.021 C 
BRANCH   2   3
ATOM      3  C   UNL A   1      39.547  20.063  25.801  1.00  0.00     0.116 C 
BRANCH   3   4
ATOM      4  N   UNL A   1      40.557  19.027  25.908  1.00  0.00    -0.352 N 
ATOM      5  O   UNL A   1      42.641  18.178  26.021  1.00  0.00    -0.269 OA
ATOM      6  C   UNL A   1      41.911  19.156  26.109  1.00  0.00     0.251 C 
ATOM      7  H   UNL A   1      40.228  18.103  25.825  1.00  0.00     0.163 HD
BRANCH   6   8
ATOM      8  C   UNL A   1      42.478  20.488  26.418  1.00  0.00     0.039 A 
ATOM      9  C   UNL A   1      43.017  21.284  25.404  1.00  0.00     0.014 A 
ATOM     10  C   UNL A   1      42.444  20.955  27.735  1.00  0.00     0.014 A 
ATOM     11  C   UNL A   1      43.615  22.500  25.719  1.00  0.00     0.010 A 
ATOM     12  C   UNL A   1      42.970  22.215  28.038  1.00  0.00     0.010 A 
ATOM     13  C   UNL A   1      43.562  22.994  27.033  1.00  0.00    -0.014 A 
BRANCH  13  14
ATOM     14  C   UNL A   1      43.995  24.388  27.300  1.00  0.00     0.031 A 
ATOM     15  C   UNL A   1      43.009  25.463  27.658  1.00  0.00     0.074 A 
ATOM     16  C   UNL A   1      45.309  24.670  27.187  1.00  0.00     0.049 A 
ATOM     17  N   UNL A   1      43.229  26.734  27.874  1.00  0.00    -0.248 NA
ATOM     18  C   UNL A   1      41.596  25.069  27.785  1.00  0.00     0.031 C 
ATOM     19  C   UNL A   1      46.348  23.701  26.820  1.00  0.00     0.029 A 
ATOM     20  N   UNL A   1      46.000  25.842  27.357  1.00  0.00    -0.354 N 
ATOM     21  C   UNL A   1      41.988  27.299  28.138  1.00  0.00     0.074 A 
ATOM     22  C   UNL A   1      41.013  26.232  28.050  1.00  0.00     0.031 C 
ATOM     23  C   UNL A   1      47.540  24.313  26.808  1.00  0.00     0.029 A 
ATOM     24  C   UNL A   1      47.345  25.728  27.092  1.00  0.00     0.049 A 
ATOM     25  H   UNL A   1      45.575  26.684  27.641  1.00  0.00     0.167 HD
ATOM     26  C   UNL A   1      41.699  28.591  28.423  1.00  0.00     0.037 A 
ATOM     27  C   UNL A   1      48.311  26.664  27.035  1.00  0.00     0.037 A 
ATOM     28  C   UNL A   1      42.690  29.635  28.526  1.00  0.00     0.049 A 
ATOM     29  C   UNL A   1      47.948  28.093  27.322  1.00  0.00     0.074 A 
ATOM     30  C   UNL A   1      42.506  30.956  28.895  1.00  0.00     0.029 A 
ATOM     31  N   UNL A   1      44.038  29.485  28.238  1.00  0.00    -0.354 N 
ATOM     32  N   UNL A   1      46.783  28.592  27.659  1.00  0.00    -0.248 NA
ATOM     33  C   UNL A   1      49.023  29.087  27.213  1.00  0.00     0.031 C 
ATOM     34  C   UNL A   1      43.729  31.620  28.764  1.00  0.00     0.029 A 
ATOM     35  C   UNL A   1      44.688  30.701  28.371  1.00  0.00     0.049 A 
ATOM     36  H   UNL A   1      44.470  28.639  27.978  1.00  0.00     0.167 HD
ATOM     37  C   UNL A   1      46.987  29.957  27.809  1.00  0.00     0.074 A 
ATOM     38  C   UNL A   1      48.393  30.201  27.557  1.00  0.00     0.031 C 
ATOM     39  C   UNL A   1      46.089  30.925  28.116  1.00  0.00     0.037 A 
BRANCH  26  40
ATOM     40  C   UNL A   1      40.262  28.982  28.629  1.00  0.00     0.058 A 
ATOM     41  C   UNL A   1      39.709  29.134  29.909  1.00  0.00     0.135 A 
ATOM     42  C   UNL A   1      39.462  29.329  27.526  1.00  0.00     0.135 A 
ATOM     43  F   UNL A   1      40.423  28.805  30.998  1.00  0.00    -0.206 F 
ATOM     44  C   UNL A   1      38.417  29.620  30.091  1.00  0.00     0.059 A 
ATOM     45  C   UNL A   1      38.176  29.839  27.684  1.00  0.00     0.059 A 
ATOM     46  F   UNL A   1      39.941  29.201  26.279  1.00  0.00    -0.206 F 
ATOM     47  C   UNL A   1      37.662  29.980  28.971  1.00  0.00     0.060 A 
BRANCH  47  48
ATOM     48  S   UNL A   1      36.009  30.661  29.229  1.00  0.00     0.124 S 
ATOM     49  O   UNL A   1      36.067  31.878  28.428  1.00  0.00    -0.237 OA
ATOM     50  O   UNL A   1      35.153  29.600  28.708  1.00  0.00    -0.237 OA
ATOM     51  O   UNL A   1      35.945  30.863  30.674  1.00  0.00    -0.744 OA
ENDBRANCH  47  48
ENDBRANCH  26  40
BRANCH  27  52
ATOM     52  C   UNL A   1      49.691  26.287  26.632  1.00  0.00     0.058 A 
ATOM     53  C   UNL A   1      50.090  26.311  25.288  1.00  0.00     0.135 A 
ATOM     54  C   UNL A   1      50.638  25.880  27.588  1.00  0.00     0.135 A 
ATOM     55  F   UNL A   1      49.223  26.691  24.337  1.00  0.00    -0.206 F 
ATOM     56  C   UNL A   1      51.366  25.913  24.902  1.00  0.00     0.059 A 
ATOM     57  C   UNL A   1      51.929  25.511  27.229  1.00  0.00     0.059 A 
ATOM     58  F   UNL A   1      50.314  25.859  28.890  1.00  0.00    -0.206 F 
ATOM     59  C   UNL A   1      52.276  25.511  25.881  1.00  0.00     0.060 A 
BRANCH  59  60
ATOM     60  S   UNL A   1      53.930  24.998  25.370  1.00  0.00     0.124 S 
ATOM     61  O   UNL A   1      54.673  25.130  26.617  1.00  0.00    -0.237 OA
ATOM     62  O   UNL A   1      53.698  23.635  24.903  1.00  0.00    -0.237 OA
ATOM     63  O   UNL A   1      54.272  25.959  24.326  1.00  0.00    -0.744 OA
ENDBRANCH  59  60
ENDBRANCH  27  52
BRANCH  39  64
ATOM     64  C   UNL A   1      46.599  32.336  28.204  1.00  0.00     0.058 A 
ATOM     65  C   UNL A   1      47.195  32.825  29.377  1.00  0.00     0.135 A 
ATOM     66  C   UNL A   1      46.547  33.185  27.089  1.00  0.00     0.135 A 
ATOM     67  F   UNL A   1      47.255  32.057  30.477  1.00  0.00    -0.206 F 
ATOM     68  C   UNL A   1      47.715  34.113  29.443  1.00  0.00     0.059 A 
ATOM     69  C   UNL A   1      47.088  34.467  27.123  1.00  0.00     0.059 A 
ATOM     70  F   UNL A   1      45.990  32.764  25.942  1.00  0.00    -0.206 F 
ATOM     71  C   UNL A   1      47.664  34.923  28.307  1.00  0.00     0.060 A 
BRANCH  71  72
ATOM     72  S   UNL A   1      48.397  36.570  28.391  1.00  0.00     0.124 S 
ATOM     73  O   UNL A   1      49.632  36.306  29.123  1.00  0.00    -0.237 OA
ATOM     74  O   UNL A   1      48.557  36.910  26.980  1.00  0.00    -0.237 OA
ATOM     75  O   UNL A   1      47.397  37.352  29.109  1.00  0.00    -0.744 OA
ENDBRANCH  71  72
ENDBRANCH  39  64
ENDBRANCH  13  14
ENDBRANCH   6   8
ENDBRANCH   3   4
ENDBRANCH   2   3
ENDBRANCH   1   2
BRANCH   1  76
ATOM     76  C   UNL A   1      37.360  21.942  24.329  1.00  0.00     0.002 C 
BRANCH  76  77
ATOM     77  C   UNL A   1      37.188  23.188  25.205  1.00  0.00     0.021 C 
BRANCH  77  78
ATOM     78  C   UNL A   1      35.938  24.010  24.924  1.00  0.00     0.116 C 
BRANCH  78  79
ATOM     79  N   UNL A   1      35.364  23.822  23.611  1.00  0.00    -0.352 N 
ATOM     80  C   UNL A   1      34.045  23.576  23.297  1.00  0.00     0.253 C 
ATOM     81  H   UNL A   1      35.988  23.876  22.852  1.00  0.00     0.163 HD
ATOM     82  O   UNL A   1      33.703  23.568  22.115  1.00  0.00    -0.269 OA
BRANCH  80  83
ATOM     83  C   UNL A   1      33.057  23.199  24.347  1.00  0.00     0.065 A 
ATOM     84  C   UNL A   1      32.747  24.254  25.221  1.00  0.00     0.042 A 
ATOM     85  C   UNL A   1      32.430  21.946  24.489  1.00  0.00     0.050 A 
ATOM     86  C   UNL A   1      31.703  24.169  26.133  1.00  0.00     0.042 A 
ATOM     87  C   UNL A   1      31.425  21.855  25.473  1.00  0.00     0.029 A 
ATOM     88  C   UNL A   1      31.060  22.944  26.275  1.00  0.00     0.028 A 
BRANCH  85  89
ATOM     89  N   UNL A   1      32.796  20.794  23.811  1.00  0.00    -0.370 N 
ATOM     90  C   UNL A   1      32.103  20.388  22.582  1.00  0.00     0.116 C 
ATOM     91  C   UNL A   1      34.026  20.104  24.206  1.00  0.00     0.126 C 
ATOM     92  C   UNL A   1      31.995  18.874  22.469  1.00  0.00     0.022 C 
ATOM     93  C   UNL A   1      33.793  18.587  24.232  1.00  0.00     0.064 C 
ATOM     94  C   UNL A   1      33.306  18.181  22.835  1.00  0.00     0.013 C 
BRANCH  93  95
ATOM     95  C   UNL A   1      32.851  18.235  25.417  1.00  0.00     0.267 C 
BRANCH  95  96
ATOM     96  N   UNL A   1      33.052  17.001  26.181  1.00  0.00    -0.335 N 
ATOM     97  C   UNL A   1      34.309  16.309  25.913  1.00  0.00     0.262 C 
ATOM     98  C   UNL A   1      31.981  16.010  26.103  1.00  0.00     0.262 C 
ATOM     99  H   UNL A   1      33.062  17.387  27.125  1.00  0.00     0.348 HD
ATOM    100  C   UNL A   1      33.953  15.187  24.961  1.00  0.00     0.067 C 
ATOM    101  C   UNL A   1      32.543  14.799  25.365  1.00  0.00     0.067 C 
ENDBRANCH  95  96
ENDBRANCH  93  95
ENDBRANCH  85  89
BRANCH  86 102
ATOM    102  N   UNL A   1      31.239  25.250  26.911  1.00  0.00    -0.322 N 
ATOM    103  C   UNL A   1      31.118  26.596  26.623  1.00  0.00     0.257 C 
ATOM    104  H   UNL A   1      30.949  25.002  27.818  1.00  0.00     0.170 HD
ATOM    105  O   UNL A   1      30.808  27.396  27.504  1.00  0.00    -0.269 OA
BRANCH 103 106
ATOM    106  C   UNL A   1      31.357  27.111  25.263  1.00  0.00     0.058 A 
ATOM    107  C   UNL A   1      30.282  27.041  24.364  1.00  0.00     0.015 A 
ATOM    108  C   UNL A   1      32.548  27.747  24.892  1.00  0.00     0.053 A 
ATOM    109  C   UNL A   1      30.368  27.688  23.131  1.00  0.00     0.001 A 
ATOM    110  C   UNL A   1      32.619  28.404  23.660  1.00  0.00     0.021 A 
ATOM    111  Cl  UNL A   1      33.940  27.799  25.914  1.00  0.00    -0.083 Cl
ATOM    112  C   UNL A   1      31.525  28.389  22.791  1.00  0.00     0.002 A 
ENDBRANCH 103 106
ENDBRANCH  86 102
ENDBRANCH  80  83
ENDBRANCH  78  79
ENDBRANCH  77  78
ENDBRANCH  76  77
ENDBRANCH   1  76
TORSDOF 21
ENDMDL
MODEL 2
REMARK VINA RESULT:     -12.1      0.628      7.668
REMARK SMILES O=C(NCCCCCCNC(=O)c1cc(NC(=O)c2ccccc2Cl)ccc1N1CCC[C@H](C[NH+]2CCCC2)C1)c1ccc(-c2c3nc(c(-c4c(F)cc(S(=O)(=O)[O-])cc4F)c4ccc([nH]4)c(-c4c(F)cc(S(=O)(=O)[O-])cc4F)c4nc(c(-c5c(F)cc(S(=O)(=O)[O-])cc5F)c5ccc2[nH]5)C=C4)C=C3)cc1
REMARK SMILES IDX 6 1 5 2 4 3 3 4 1 5 2 6 41 8 42 9 106 10 43 11 105 12 44 13
REMARK SMILES IDX 45 14 46 15 99 16 47 17 104 18 98 19 100 20 48 21 103 22
REMARK SMILES IDX 97 23 96 24 49 26 83 27 62 28 82 29 63 30 66 31 81 32 101 33
REMARK SMILES IDX 64 34 65 35 80 37 102 38 67 39 50 40 51 41 60 42 52 43 53 44
REMARK SMILES IDX 59 45 61 46 54 47 55 48 56 49 57 50 58 51 84 52 85 53 94 54
REMARK SMILES IDX 86 55 87 56 93 57 95 58 88 59 89 60 90 61 91 62 92 63 68 64
REMARK SMILES IDX 69 65 78 66 70 67 71 68 77 69 79 70 72 71 73 72 74 73 75 74
REMARK SMILES IDX 76 75 7 76 8 77 9 78 10 79 11 80 12 82 13 83 14 84 28 85
REMARK SMILES IDX 15 86 27 87 26 88 29 89 30 90 40 91 31 92 33 93 32 94 34 95
REMARK SMILES IDX 35 96 36 97 39 98 37 100 38 101 16 102 17 103 18 105 19 106
REMARK SMILES IDX 20 107 24 108 21 109 23 110 25 111 22 112
REMARK H PARENT 3 7 100 25 66 36 10 81 35 99 16 104
REMARK Flexibility Score: inf
ROOT
ATOM      1  C   UNL A   1      37.191  20.099  25.001  1.00  0.00     0.002 C 
ENDROOT
BRANCH   1   2
ATOM      2  C   UNL A   1      38.452  19.251  25.178  1.00  0.00     0.021 C 
BRANCH   2   3
ATOM      3  C   UNL A   1      39.614  19.948  25.875  1.00  0.00     0.116 C 
BRANCH   3   4
ATOM      4  N   UNL A   1      40.726  19.054  26.141  1.00  0.00    -0.352 N 
ATOM      5  O   UNL A   1      42.883  18.467  26.422  1.00  0.00    -0.269 OA
ATOM      6  C   UNL A   1      42.048  19.360  26.364  1.00  0.00     0.251 C 
ATOM      7  H   UNL A   1      40.503  18.096  26.167  1.00  0.00     0.163 HD
BRANCH   6   8
ATOM      8  C   UNL A   1      42.453  20.776  26.518  1.00  0.00     0.039 A 
ATOM      9  C   UNL A   1      42.634  21.329  27.788  1.00  0.00     0.014 A 
ATOM     10  C   UNL A   1      42.681  21.547  25.375  1.00  0.00     0.014 A 
ATOM     11  C   UNL A   1      42.940  22.679  27.920  1.00  0.00     0.010 A 
ATOM     12  C   UNL A   1      43.070  22.884  25.508  1.00  0.00     0.010 A 
ATOM     13  C   UNL A   1      43.199  23.460  26.781  1.00  0.00    -0.014 A 
BRANCH  13  14
ATOM     14  C   UNL A   1      43.749  24.827  26.950  1.00  0.00     0.031 A 
ATOM     15  C   UNL A   1      45.197  25.131  26.690  1.00  0.00     0.074 A 
ATOM     16  C   UNL A   1      42.909  25.795  27.371  1.00  0.00     0.049 A 
ATOM     17  N   UNL A   1      45.833  26.264  26.838  1.00  0.00    -0.248 NA
ATOM     18  C   UNL A   1      46.043  24.027  26.209  1.00  0.00     0.031 C 
ATOM     19  C   UNL A   1      41.487  25.598  27.676  1.00  0.00     0.029 A 
ATOM     20  N   UNL A   1      43.117  27.125  27.626  1.00  0.00    -0.354 N 
ATOM     21  C   UNL A   1      47.155  26.009  26.494  1.00  0.00     0.074 A 
ATOM     22  C   UNL A   1      47.234  24.609  26.134  1.00  0.00     0.031 C 
ATOM     23  C   UNL A   1      40.951  26.765  28.060  1.00  0.00     0.029 A 
ATOM     24  C   UNL A   1      42.001  27.774  28.101  1.00  0.00     0.049 A 
ATOM     25  H   UNL A   1      43.982  27.574  27.484  1.00  0.00     0.167 HD
ATOM     26  C   UNL A   1      48.200  26.871  26.486  1.00  0.00     0.037 A 
ATOM     27  C   UNL A   1      41.845  29.028  28.565  1.00  0.00     0.037 A 
ATOM     28  C   UNL A   1      48.094  28.269  26.830  1.00  0.00     0.049 A 
ATOM     29  C   UNL A   1      43.033  29.945  28.576  1.00  0.00     0.074 A 
ATOM     30  C   UNL A   1      49.076  29.242  26.769  1.00  0.00     0.029 A 
ATOM     31  N   UNL A   1      46.951  28.885  27.318  1.00  0.00    -0.354 N 
ATOM     32  N   UNL A   1      44.254  29.711  28.160  1.00  0.00    -0.248 NA
ATOM     33  C   UNL A   1      42.829  31.292  29.124  1.00  0.00     0.031 C 
ATOM     34  C   UNL A   1      48.548  30.428  27.284  1.00  0.00     0.029 A 
ATOM     35  C   UNL A   1      47.219  30.213  27.611  1.00  0.00     0.049 A 
ATOM     36  H   UNL A   1      46.078  28.445  27.438  1.00  0.00     0.167 HD
ATOM     37  C   UNL A   1      44.963  30.883  28.391  1.00  0.00     0.074 A 
ATOM     38  C   UNL A   1      44.025  31.835  28.953  1.00  0.00     0.031 C 
ATOM     39  C   UNL A   1      46.273  31.146  28.170  1.00  0.00     0.037 A 
BRANCH  26  40
ATOM     40  C   UNL A   1      49.562  26.352  26.118  1.00  0.00     0.058 A 
ATOM     41  C   UNL A   1      50.089  26.499  24.828  1.00  0.00     0.135 A 
ATOM     42  C   UNL A   1      50.400  25.811  27.110  1.00  0.00     0.135 A 
ATOM     43  F   UNL A   1      49.330  26.998  23.838  1.00  0.00    -0.206 F 
ATOM     44  C   UNL A   1      51.400  26.132  24.531  1.00  0.00     0.059 A 
ATOM     45  C   UNL A   1      51.720  25.458  26.842  1.00  0.00     0.059 A 
ATOM     46  F   UNL A   1      49.945  25.647  28.362  1.00  0.00    -0.206 F 
ATOM     47  C   UNL A   1      52.210  25.622  25.548  1.00  0.00     0.060 A 
BRANCH  47  48
ATOM     48  S   UNL A   1      53.923  25.204  25.157  1.00  0.00     0.124 S 
ATOM     49  O   UNL A   1      54.619  25.683  26.346  1.00  0.00    -0.237 OA
ATOM     50  O   UNL A   1      53.860  23.754  25.002  1.00  0.00    -0.237 OA
ATOM     51  O   UNL A   1      54.186  25.952  23.931  1.00  0.00    -0.744 OA
ENDBRANCH  47  48
ENDBRANCH  26  40
BRANCH  27  52
ATOM     52  C   UNL A   1      40.533  29.461  29.113  1.00  0.00     0.058 A 
ATOM     53  C   UNL A   1      39.452  29.759  28.270  1.00  0.00     0.135 A 
ATOM     54  C   UNL A   1      40.339  29.600  30.499  1.00  0.00     0.135 A 
ATOM     55  F   UNL A   1      39.588  29.644  26.940  1.00  0.00    -0.206 F 
ATOM     56  C   UNL A   1      38.238  30.212  28.777  1.00  0.00     0.059 A 
ATOM     57  C   UNL A   1      39.124  30.017  31.030  1.00  0.00     0.059 A 
ATOM     58  F   UNL A   1      41.334  29.309  31.351  1.00  0.00    -0.206 F 
ATOM     59  C   UNL A   1      38.086  30.341  30.159  1.00  0.00     0.060 A 
BRANCH  59  60
ATOM     60  S   UNL A   1      36.506  30.927  30.807  1.00  0.00     0.124 S 
ATOM     61  O   UNL A   1      35.702  30.995  29.593  1.00  0.00    -0.237 OA
ATOM     62  O   UNL A   1      36.152  29.871  31.751  1.00  0.00    -0.237 OA
ATOM     63  O   UNL A   1      36.847  32.210  31.413  1.00  0.00    -0.744 OA
ENDBRANCH  59  60
ENDBRANCH  27  52
BRANCH  39  64
ATOM     64  C   UNL A   1      46.773  32.517  28.528  1.00  0.00     0.058 A 
ATOM     65  C   UNL A   1      47.342  32.783  29.784  1.00  0.00     0.135 A 
ATOM     66  C   UNL A   1      46.739  33.558  27.587  1.00  0.00     0.135 A 
ATOM     67  F   UNL A   1      47.384  31.825  30.723  1.00  0.00    -0.206 F 
ATOM     68  C   UNL A   1      47.853  34.037  30.097  1.00  0.00     0.059 A 
ATOM     69  C   UNL A   1      47.272  34.812  27.869  1.00  0.00     0.059 A 
ATOM     70  F   UNL A   1      46.209  33.355  26.371  1.00  0.00    -0.206 F 
ATOM     71  C   UNL A   1      47.821  35.043  29.129  1.00  0.00     0.060 A 
BRANCH  71  72
ATOM     72  S   UNL A   1      48.544  36.647  29.531  1.00  0.00     0.124 S 
ATOM     73  O   UNL A   1      49.610  36.268  30.452  1.00  0.00    -0.237 OA
ATOM     74  O   UNL A   1      48.977  37.128  28.223  1.00  0.00    -0.237 OA
ATOM     75  O   UNL A   1      47.432  37.381  30.126  1.00  0.00    -0.744 OA
ENDBRANCH  71  72
ENDBRANCH  39  64
ENDBRANCH  13  14
ENDBRANCH   6   8
ENDBRANCH   3   4
ENDBRANCH   2   3
ENDBRANCH   1   2
BRANCH   1  76
ATOM     76  C   UNL A   1      37.403  21.540  24.520  1.00  0.00     0.002 C 
BRANCH  76  77
ATOM     77  C   UNL A   1      37.175  22.651  25.550  1.00  0.00     0.021 C 
BRANCH  77  78
ATOM     78  C   UNL A   1      36.146  23.701  25.154  1.00  0.00     0.116 C 
BRANCH  78  79
ATOM     79  N   UNL A   1      35.639  23.584  23.806  1.00  0.00    -0.352 N 
ATOM     80  C   UNL A   1      34.327  23.447  23.410  1.00  0.00     0.253 C 
ATOM     81  H   UNL A   1      36.310  23.604  23.086  1.00  0.00     0.163 HD
ATOM     82  O   UNL A   1      34.057  23.489  22.210  1.00  0.00    -0.269 OA
BRANCH  80  83
ATOM     83  C   UNL A   1      33.252  23.127  24.391  1.00  0.00     0.065 A 
ATOM     84  C   UNL A   1      32.960  24.192  25.260  1.00  0.00     0.042 A 
ATOM     85  C   UNL A   1      32.533  21.920  24.475  1.00  0.00     0.050 A 
ATOM     86  C   UNL A   1      31.857  24.169  26.104  1.00  0.00     0.042 A 
ATOM     87  C   UNL A   1      31.465  21.887  25.393  1.00  0.00     0.029 A 
ATOM     88  C   UNL A   1      31.125  22.990  26.187  1.00  0.00     0.028 A 
BRANCH  85  89
ATOM     89  N   UNL A   1      32.862  20.752  23.803  1.00  0.00    -0.370 N 
ATOM     90  C   UNL A   1      32.156  20.362  22.576  1.00  0.00     0.116 C 
ATOM     91  C   UNL A   1      34.068  20.025  24.203  1.00  0.00     0.126 C 
ATOM     92  C   UNL A   1      31.999  18.851  22.472  1.00  0.00     0.022 C 
ATOM     93  C   UNL A   1      33.786  18.517  24.237  1.00  0.00     0.064 C 
ATOM     94  C   UNL A   1      33.286  18.119  22.842  1.00  0.00     0.013 C 
BRANCH  93  95
ATOM     95  C   UNL A   1      32.833  18.202  25.424  1.00  0.00     0.267 C 
BRANCH  95  96
ATOM     96  N   UNL A   1      32.997  16.969  26.198  1.00  0.00    -0.335 N 
ATOM     97  C   UNL A   1      34.234  16.239  25.938  1.00  0.00     0.262 C 
ATOM     98  C   UNL A   1      31.897  16.008  26.126  1.00  0.00     0.262 C 
ATOM     99  H   UNL A   1      33.016  17.362  27.138  1.00  0.00     0.348 HD
ATOM    100  C   UNL A   1      33.847  15.120  24.994  1.00  0.00     0.067 C 
ATOM    101  C   UNL A   1      32.425  14.776  25.399  1.00  0.00     0.067 C 
ENDBRANCH  95  96
ENDBRANCH  93  95
ENDBRANCH  85  89
BRANCH  86 102
ATOM    102  N   UNL A   1      31.420  25.271  26.867  1.00  0.00    -0.322 N 
ATOM    103  C   UNL A   1      31.117  26.569  26.506  1.00  0.00     0.257 C 
ATOM    104  H   UNL A   1      31.311  25.082  27.828  1.00  0.00     0.170 HD
ATOM    105  O   UNL A   1      30.876  27.415  27.365  1.00  0.00    -0.269 OA
BRANCH 103 106
ATOM    106  C   UNL A   1      31.072  26.978  25.090  1.00  0.00     0.058 A 
ATOM    107  C   UNL A   1      29.872  26.742  24.402  1.00  0.00     0.015 A 
ATOM    108  C   UNL A   1      32.119  27.671  24.469  1.00  0.00     0.053 A 
ATOM    109  C   UNL A   1      29.688  27.282  23.129  1.00  0.00     0.001 A 
ATOM    110  C   UNL A   1      31.919  28.219  23.198  1.00  0.00     0.021 A 
ATOM    111  Cl  UNL A   1      33.652  27.925  25.224  1.00  0.00    -0.083 Cl
ATOM    112  C   UNL A   1      30.700  28.039  22.539  1.00  0.00     0.002 A 
ENDBRANCH 103 106
ENDBRANCH  86 102
ENDBRANCH  80  83
ENDBRANCH  78  79
ENDBRANCH  77  78
ENDBRANCH  76  77
ENDBRANCH   1  76
TORSDOF 21
ENDMDL
MODEL 3
REMARK VINA RESULT:     -10.8      1.778      5.111
REMARK SMILES O=C(NCCCCCCNC(=O)c1cc(NC(=O)c2ccccc2Cl)ccc1N1CCC[C@H](C[NH+]2CCCC2)C1)c1ccc(-c2c3nc(c(-c4c(F)cc(S(=O)(=O)[O-])cc4F)c4ccc([nH]4)c(-c4c(F)cc(S(=O)(=O)[O-])cc4F)c4nc(c(-c5c(F)cc(S(=O)(=O)[O-])cc5F)c5ccc2[nH]5)C=C4)C=C3)cc1
REMARK SMILES IDX 6 1 5 2 4 3 3 4 1 5 2 6 41 8 42 9 106 10 43 11 105 12 44 13
REMARK SMILES IDX 45 14 46 15 99 16 47 17 104 18 98 19 100 20 48 21 103 22
REMARK SMILES IDX 97 23 96 24 49 26 83 27 62 28 82 29 63 30 66 31 81 32 101 33
REMARK SMILES IDX 64 34 65 35 80 37 102 38 67 39 50 40 51 41 60 42 52 43 53 44
REMARK SMILES IDX 59 45 61 46 54 47 55 48 56 49 57 50 58 51 84 52 85 53 94 54
REMARK SMILES IDX 86 55 87 56 93 57 95 58 88 59 89 60 90 61 91 62 92 63 68 64
REMARK SMILES IDX 69 65 78 66 70 67 71 68 77 69 79 70 72 71 73 72 74 73 75 74
REMARK SMILES IDX 76 75 7 76 8 77 9 78 10 79 11 80 12 82 13 83 14 84 28 85
REMARK SMILES IDX 15 86 27 87 26 88 29 89 30 90 40 91 31 92 33 93 32 94 34 95
REMARK SMILES IDX 35 96 36 97 39 98 37 100 38 101 16 102 17 103 18 105 19 106
REMARK SMILES IDX 20 107 24 108 21 109 23 110 25 111 22 112
REMARK H PARENT 3 7 100 25 66 36 10 81 35 99 16 104
REMARK Flexibility Score: inf
ROOT
ATOM      1  C   UNL A   1      36.858  21.046  25.173  1.00  0.00     0.002 C 
ENDROOT
BRANCH   1   2
ATOM      2  C   UNL A   1      38.206  20.368  24.924  1.00  0.00     0.021 C 
BRANCH   2   3
ATOM      3  C   UNL A   1      39.184  20.415  26.090  1.00  0.00     0.116 C 
BRANCH   3   4
ATOM      4  N   UNL A   1      40.190  19.371  26.020  1.00  0.00    -0.352 N 
ATOM      5  O   UNL A   1      42.265  18.510  25.842  1.00  0.00    -0.269 OA
ATOM      6  C   UNL A   1      41.560  19.484  26.070  1.00  0.00     0.251 C 
ATOM      7  H   UNL A   1      39.845  18.454  25.924  1.00  0.00     0.163 HD
BRANCH   6   8
ATOM      8  C   UNL A   1      42.172  20.794  26.385  1.00  0.00     0.039 A 
ATOM      9  C   UNL A   1      42.511  21.685  25.363  1.00  0.00     0.014 A 
ATOM     10  C   UNL A   1      42.382  21.145  27.722  1.00  0.00     0.014 A 
ATOM     11  C   UNL A   1      43.155  22.879  25.668  1.00  0.00     0.010 A 
ATOM     12  C   UNL A   1      42.954  22.383  28.032  1.00  0.00     0.010 A 
ATOM     13  C   UNL A   1      43.347  23.257  27.008  1.00  0.00    -0.014 A 
BRANCH  13  14
ATOM     14  C   UNL A   1      43.820  24.630  27.313  1.00  0.00     0.031 A 
ATOM     15  C   UNL A   1      42.870  25.713  27.736  1.00  0.00     0.074 A 
ATOM     16  C   UNL A   1      45.137  24.886  27.174  1.00  0.00     0.049 A 
ATOM     17  N   UNL A   1      43.125  26.970  27.991  1.00  0.00    -0.248 NA
ATOM     18  C   UNL A   1      41.452  25.347  27.888  1.00  0.00     0.031 C 
ATOM     19  C   UNL A   1      46.142  23.908  26.743  1.00  0.00     0.029 A 
ATOM     20  N   UNL A   1      45.860  26.034  27.366  1.00  0.00    -0.354 N 
ATOM     21  C   UNL A   1      41.905  27.553  28.309  1.00  0.00     0.074 A 
ATOM     22  C   UNL A   1      40.903  26.513  28.210  1.00  0.00     0.031 C 
ATOM     23  C   UNL A   1      47.348  24.492  26.721  1.00  0.00     0.029 A 
ATOM     24  C   UNL A   1      47.194  25.900  27.061  1.00  0.00     0.049 A 
ATOM     25  H   UNL A   1      45.462  26.875  27.692  1.00  0.00     0.167 HD
ATOM     26  C   UNL A   1      41.655  28.840  28.648  1.00  0.00     0.037 A 
ATOM     27  C   UNL A   1      48.180  26.816  27.011  1.00  0.00     0.037 A 
ATOM     28  C   UNL A   1      42.673  29.857  28.761  1.00  0.00     0.049 A 
ATOM     29  C   UNL A   1      47.859  28.240  27.358  1.00  0.00     0.074 A 
ATOM     30  C   UNL A   1      42.530  31.167  29.182  1.00  0.00     0.029 A 
ATOM     31  N   UNL A   1      44.009  29.686  28.430  1.00  0.00    -0.354 N 
ATOM     32  N   UNL A   1      46.715  28.753  27.745  1.00  0.00    -0.248 NA
ATOM     33  C   UNL A   1      48.953  29.214  27.255  1.00  0.00     0.031 C 
ATOM     34  C   UNL A   1      43.764  31.808  29.041  1.00  0.00     0.029 A 
ATOM     35  C   UNL A   1      44.691  30.882  28.589  1.00  0.00     0.049 A 
ATOM     36  H   UNL A   1      44.414  28.841  28.128  1.00  0.00     0.167 HD
ATOM     37  C   UNL A   1      46.955  30.108  27.938  1.00  0.00     0.074 A 
ATOM     38  C   UNL A   1      48.359  30.329  27.656  1.00  0.00     0.031 C 
ATOM     39  C   UNL A   1      46.089  31.083  28.304  1.00  0.00     0.037 A 
BRANCH  26  40
ATOM     40  C   UNL A   1      40.233  29.256  28.908  1.00  0.00     0.058 A 
ATOM     41  C   UNL A   1      39.754  29.495  30.203  1.00  0.00     0.135 A 
ATOM     42  C   UNL A   1      39.375  29.537  27.830  1.00  0.00     0.135 A 
ATOM     43  F   UNL A   1      40.526  29.232  31.271  1.00  0.00    -0.206 F 
ATOM     44  C   UNL A   1      38.476  30.003  30.424  1.00  0.00     0.059 A 
ATOM     45  C   UNL A   1      38.102  30.067  28.025  1.00  0.00     0.059 A 
ATOM     46  F   UNL A   1      39.782  29.324  26.570  1.00  0.00    -0.206 F 
ATOM     47  C   UNL A   1      37.662  30.296  29.327  1.00  0.00     0.060 A 
BRANCH  47  48
ATOM     48  S   UNL A   1      36.029  31.006  29.631  1.00  0.00     0.124 S 
ATOM     49  O   UNL A   1      35.203  30.248  28.698  1.00  0.00    -0.237 OA
ATOM     50  O   UNL A   1      35.821  30.709  31.045  1.00  0.00    -0.237 OA
ATOM     51  O   UNL A   1      36.205  32.419  29.308  1.00  0.00    -0.744 OA
ENDBRANCH  47  48
ENDBRANCH  26  40
BRANCH  27  52
ATOM     52  C   UNL A   1      49.539  26.422  26.556  1.00  0.00     0.058 A 
ATOM     53  C   UNL A   1      49.951  26.622  25.231  1.00  0.00     0.135 A 
ATOM     54  C   UNL A   1      50.452  25.823  27.442  1.00  0.00     0.135 A 
ATOM     55  F   UNL A   1      49.116  27.188  24.347  1.00  0.00    -0.206 F 
ATOM     56  C   UNL A   1      51.205  26.211  24.790  1.00  0.00     0.059 A 
ATOM     57  C   UNL A   1      51.723  25.437  27.032  1.00  0.00     0.059 A 
ATOM     58  F   UNL A   1      50.116  25.628  28.726  1.00  0.00    -0.206 F 
ATOM     59  C   UNL A   1      52.082  25.615  25.699  1.00  0.00     0.060 A 
BRANCH  59  60
ATOM     60  S   UNL A   1      53.708  25.088  25.118  1.00  0.00     0.124 S 
ATOM     61  O   UNL A   1      53.627  23.644  25.301  1.00  0.00    -0.237 OA
ATOM     62  O   UNL A   1      53.708  25.560  23.736  1.00  0.00    -0.237 OA
ATOM     63  O   UNL A   1      54.626  25.789  26.010  1.00  0.00    -0.744 OA
ENDBRANCH  59  60
ENDBRANCH  27  52
BRANCH  39  64
ATOM     64  C   UNL A   1      46.634  32.478  28.428  1.00  0.00     0.058 A 
ATOM     65  C   UNL A   1      46.557  33.390  27.363  1.00  0.00     0.135 A 
ATOM     66  C   UNL A   1      47.180  32.927  29.641  1.00  0.00     0.135 A 
ATOM     67  F   UNL A   1      46.058  33.005  26.178  1.00  0.00    -0.206 F 
ATOM     68  C   UNL A   1      47.013  34.697  27.494  1.00  0.00     0.059 A 
ATOM     69  C   UNL A   1      47.614  34.239  29.803  1.00  0.00     0.059 A 
ATOM     70  F   UNL A   1      47.272  32.095  30.690  1.00  0.00    -0.206 F 
ATOM     71  C   UNL A   1      47.531  35.115  28.721  1.00  0.00     0.060 A 
BRANCH  71  72
ATOM     72  S   UNL A   1      48.061  36.831  28.893  1.00  0.00     0.124 S 
ATOM     73  O   UNL A   1      47.169  37.510  27.959  1.00  0.00    -0.237 OA
ATOM     74  O   UNL A   1      47.815  37.091  30.308  1.00  0.00    -0.237 OA
ATOM     75  O   UNL A   1      49.467  36.794  28.503  1.00  0.00    -0.744 OA
ENDBRANCH  71  72
ENDBRANCH  39  64
ENDBRANCH  13  14
ENDBRANCH   6   8
ENDBRANCH   3   4
ENDBRANCH   2   3
ENDBRANCH   1   2
BRANCH   1  76
ATOM     76  C   UNL A   1      36.715  22.485  24.659  1.00  0.00     0.002 C 
BRANCH  76  77
ATOM     77  C   UNL A   1      36.232  23.532  25.668  1.00  0.00     0.021 C 
BRANCH  77  78
ATOM     78  C   UNL A   1      35.055  24.381  25.207  1.00  0.00     0.116 C 
BRANCH  78  79
ATOM     79  N   UNL A   1      35.237  25.041  23.934  1.00  0.00    -0.352 N 
ATOM     80  C   UNL A   1      34.274  25.336  22.994  1.00  0.00     0.253 C 
ATOM     81  H   UNL A   1      36.157  25.311  23.713  1.00  0.00     0.163 HD
ATOM     82  O   UNL A   1      34.582  26.018  22.017  1.00  0.00    -0.269 OA
BRANCH  80  83
ATOM     83  C   UNL A   1      32.908  24.745  23.074  1.00  0.00     0.065 A 
ATOM     84  C   UNL A   1      32.802  23.505  22.422  1.00  0.00     0.042 A 
ATOM     85  C   UNL A   1      31.800  25.295  23.746  1.00  0.00     0.050 A 
ATOM     86  C   UNL A   1      31.679  22.699  22.556  1.00  0.00     0.042 A 
ATOM     87  C   UNL A   1      30.641  24.497  23.805  1.00  0.00     0.029 A 
ATOM     88  C   UNL A   1      30.580  23.220  23.231  1.00  0.00     0.028 A 
BRANCH  85  89
ATOM     89  N   UNL A   1      31.740  26.585  24.253  1.00  0.00    -0.370 N 
ATOM     90  C   UNL A   1      31.695  26.825  25.701  1.00  0.00     0.116 C 
ATOM     91  C   UNL A   1      31.948  27.711  23.341  1.00  0.00     0.126 C 
ATOM     92  C   UNL A   1      30.833  28.032  26.045  1.00  0.00     0.022 C 
ATOM     93  C   UNL A   1      30.933  28.823  23.639  1.00  0.00     0.064 C 
ATOM     94  C   UNL A   1      31.107  29.210  25.114  1.00  0.00     0.013 C 
BRANCH  93  95
ATOM     95  C   UNL A   1      29.515  28.347  23.217  1.00  0.00     0.267 C 
BRANCH  95  96
ATOM     96  N   UNL A   1      28.608  29.256  22.512  1.00  0.00    -0.335 N 
ATOM     97  C   UNL A   1      29.212  30.512  22.076  1.00  0.00     0.262 C 
ATOM     98  C   UNL A   1      27.359  29.584  23.195  1.00  0.00     0.262 C 
ATOM     99  H   UNL A   1      28.386  28.678  21.702  1.00  0.00     0.348 HD
ATOM    100  C   UNL A   1      28.791  31.537  23.109  1.00  0.00     0.067 C 
ATOM    101  C   UNL A   1      27.418  31.066  23.551  1.00  0.00     0.067 C 
ENDBRANCH  95  96
ENDBRANCH  93  95
ENDBRANCH  85  89
BRANCH  86 102
ATOM    102  N   UNL A   1      31.586  21.379  22.068  1.00  0.00    -0.322 N 
ATOM    103  C   UNL A   1      32.048  20.182  22.581  1.00  0.00     0.257 C 
ATOM    104  H   UNL A   1      31.108  21.296  21.212  1.00  0.00     0.170 HD
ATOM    105  O   UNL A   1      31.970  19.149  21.918  1.00  0.00    -0.269 OA
BRANCH 103 106
ATOM    106  C   UNL A   1      32.643  20.107  23.928  1.00  0.00     0.058 A 
ATOM    107  C   UNL A   1      32.877  21.324  24.584  1.00  0.00     0.015 A 
ATOM    108  C   UNL A   1      32.867  18.892  24.589  1.00  0.00     0.053 A 
ATOM    109  C   UNL A   1      33.246  21.325  25.930  1.00  0.00     0.001 A 
ATOM    110  C   UNL A   1      33.223  18.904  25.941  1.00  0.00     0.021 A 
ATOM    111  Cl  UNL A   1      32.680  17.358  23.819  1.00  0.00    -0.083 Cl
ATOM    112  C   UNL A   1      33.395  20.118  26.612  1.00  0.00     0.002 A 
ENDBRANCH 103 106
ENDBRANCH  86 102
ENDBRANCH  80  83
ENDBRANCH  78  79
ENDBRANCH  77  78
ENDBRANCH  76  77
ENDBRANCH   1  76
TORSDOF 21
ENDMDL
