MODEL 1
REMARK VINA RESULT:     -11.7      0.000      0.000
REMARK SMILES O=C(Cc1c(C(=O)c2cc3c(cn2)CCCC3)[nH]c2cc(Cl)ccc12)NCCCCCCNC(=O)c1ccc(-c2c3nc(c(-c4c(F)cc(S(=O)(=O)[O-])cc4F)c4ccc([nH]4)c(-c4c(F)cc(S(=O)(=O)[O-])cc4F)c4nc(c(-c5c(F)cc(S(=O)(=O)[O-])cc5F)c5ccc2[nH]5)C=C4)C=C3)cc1
REMARK SMILES IDX 29 1 28 2 27 3 26 4 1 5 2 6 3 8 4 9 5 10 25 11 18 12 19 13
REMARK SMILES IDX 24 14 20 16 23 17 21 18 22 19 6 20 7 21 8 22 9 23 13 24
REMARK SMILES IDX 10 25 12 26 11 27 17 28 14 29 16 30 15 31 30 32 31 33 32 34
REMARK SMILES IDX 33 35 34 36 35 38 36 39 37 40 101 41 38 42 100 43 39 44
REMARK SMILES IDX 40 45 41 46 94 47 42 48 99 49 93 50 95 51 43 52 98 53 92 54
REMARK SMILES IDX 91 55 44 57 78 58 57 59 77 60 58 61 61 62 76 63 96 64 59 65
REMARK SMILES IDX 60 66 75 68 97 69 62 70 45 71 46 72 55 73 47 74 48 75 54 76
REMARK SMILES IDX 56 77 49 78 50 79 51 80 52 81 53 82 79 83 80 84 89 85 81 86
REMARK SMILES IDX 82 87 88 88 90 89 83 90 84 91 85 92 86 93 87 94 63 95 64 96
REMARK SMILES IDX 73 97 65 98 66 99 72 100 74 101 67 102 68 103 69 104 70 105
REMARK SMILES IDX 71 106
REMARK H PARENT 26 7 18 15 33 37 95 56 61 67
REMARK Flexibility Score: inf
ROOT
ATOM      1  C   UNL A   1      34.369  23.384  22.598  1.00  0.00     0.002 C 
ENDROOT
BRANCH   1   2
ATOM      2  C   UNL A   1      32.976  23.831  22.133  1.00  0.00     0.021 C 
BRANCH   2   3
ATOM      3  C   UNL A   1      32.786  25.342  22.017  1.00  0.00     0.116 C 
BRANCH   3   4
ATOM      4  N   UNL A   1      31.970  25.871  23.089  1.00  0.00    -0.356 N 
ATOM      5  O   UNL A   1      30.795  27.318  21.754  1.00  0.00    -0.275 OA
ATOM      6  C   UNL A   1      30.969  26.791  22.848  1.00  0.00     0.224 C 
ATOM      7  H   UNL A   1      32.132  25.567  24.012  1.00  0.00     0.163 HD
BRANCH   6   8
ATOM      8  C   UNL A   1      30.066  27.042  24.052  1.00  0.00     0.138 C 
BRANCH   8   9
ATOM      9  C   UNL A   1      30.888  27.149  25.306  1.00  0.00    -0.002 A 
ATOM     10  C   UNL A   1      31.062  26.177  26.293  1.00  0.00     0.093 A 
ATOM     11  C   UNL A   1      31.642  28.305  25.708  1.00  0.00     0.004 A 
ATOM     12  N   UNL A   1      32.047  26.653  27.134  1.00  0.00    -0.351 N 
ATOM     13  C   UNL A   1      32.363  27.957  26.845  1.00  0.00     0.048 A 
ATOM     14  C   UNL A   1      31.795  29.611  25.196  1.00  0.00     0.012 A 
ATOM     15  H   UNL A   1      32.471  26.124  27.849  1.00  0.00     0.167 HD
ATOM     16  C   UNL A   1      33.244  28.837  27.489  1.00  0.00     0.047 A 
ATOM     17  C   UNL A   1      32.661  30.512  25.827  1.00  0.00     0.021 A 
ATOM     18  C   UNL A   1      33.373  30.121  26.956  1.00  0.00     0.043 A 
ATOM     19  Cl  UNL A   1      34.434  31.246  27.717  1.00  0.00    -0.084 Cl
BRANCH  10  20
ATOM     20  C   UNL A   1      30.403  24.879  26.434  1.00  0.00     0.227 C 
ATOM     21  O   UNL A   1      29.215  24.738  26.716  1.00  0.00    -0.285 OA
BRANCH  20  22
ATOM     22  C   UNL A   1      31.235  23.647  26.333  1.00  0.00     0.113 A 
ATOM     23  C   UNL A   1      31.196  22.883  25.171  1.00  0.00     0.036 A 
ATOM     24  N   UNL A   1      32.002  23.348  27.406  1.00  0.00    -0.252 NA
ATOM     25  C   UNL A   1      31.995  21.737  25.098  1.00  0.00    -0.041 A 
ATOM     26  C   UNL A   1      32.772  22.245  27.309  1.00  0.00     0.115 A 
ATOM     27  C   UNL A   1      32.797  21.404  26.200  1.00  0.00    -0.026 A 
ATOM     28  C   UNL A   1      31.932  20.860  23.874  1.00  0.00     0.036 C 
ATOM     29  C   UNL A   1      33.730  20.223  26.177  1.00  0.00     0.037 C 
ATOM     30  C   UNL A   1      33.118  19.902  23.764  1.00  0.00     0.005 C 
ATOM     31  C   UNL A   1      33.372  19.204  25.096  1.00  0.00     0.005 C 
ENDBRANCH  20  22
ENDBRANCH  10  20
ENDBRANCH   8   9
ENDBRANCH   6   8
ENDBRANCH   3   4
ENDBRANCH   2   3
ENDBRANCH   1   2
BRANCH   1  32
ATOM     32  C   UNL A   1      34.847  23.965  23.931  1.00  0.00     0.002 C 
BRANCH  32  33
ATOM     33  C   UNL A   1      35.784  23.072  24.745  1.00  0.00     0.021 C 
BRANCH  33  34
ATOM     34  C   UNL A   1      36.989  23.774  25.359  1.00  0.00     0.116 C 
BRANCH  34  35
ATOM     35  N   UNL A   1      38.154  22.914  25.514  1.00  0.00    -0.352 N 
ATOM     36  C   UNL A   1      39.333  23.189  26.172  1.00  0.00     0.251 C 
ATOM     37  H   UNL A   1      38.091  22.024  25.096  1.00  0.00     0.163 HD
ATOM     38  O   UNL A   1      40.265  22.392  26.141  1.00  0.00    -0.269 OA
BRANCH  36  39
ATOM     39  C   UNL A   1      39.476  24.484  26.876  1.00  0.00     0.039 A 
ATOM     40  C   UNL A   1      40.198  25.528  26.293  1.00  0.00     0.014 A 
ATOM     41  C   UNL A   1      38.946  24.626  28.162  1.00  0.00     0.014 A 
ATOM     42  C   UNL A   1      40.540  26.636  27.061  1.00  0.00     0.010 A 
ATOM     43  C   UNL A   1      39.229  25.777  28.904  1.00  0.00     0.010 A 
ATOM     44  C   UNL A   1      40.079  26.765  28.381  1.00  0.00    -0.014 A 
BRANCH  44  45
ATOM     45  C   UNL A   1      40.538  27.917  29.202  1.00  0.00     0.031 A 
ATOM     46  C   UNL A   1      39.642  29.111  29.417  1.00  0.00     0.074 A 
ATOM     47  C   UNL A   1      41.731  27.852  29.823  1.00  0.00     0.049 A 
ATOM     48  N   UNL A   1      39.857  30.182  30.139  1.00  0.00    -0.248 NA
ATOM     49  C   UNL A   1      38.339  29.106  28.732  1.00  0.00     0.031 C 
ATOM     50  C   UNL A   1      42.681  26.744  29.707  1.00  0.00     0.029 A 
ATOM     51  N   UNL A   1      42.334  28.716  30.702  1.00  0.00    -0.354 N 
ATOM     52  C   UNL A   1      38.728  30.981  29.986  1.00  0.00     0.074 A 
ATOM     53  C   UNL A   1      37.841  30.286  29.078  1.00  0.00     0.031 C 
ATOM     54  C   UNL A   1      43.717  26.967  30.529  1.00  0.00     0.029 A 
ATOM     55  C   UNL A   1      43.533  28.256  31.190  1.00  0.00     0.049 A 
ATOM     56  H   UNL A   1      41.945  29.583  30.958  1.00  0.00     0.167 HD
ATOM     57  C   UNL A   1      38.449  32.175  30.561  1.00  0.00     0.037 A 
ATOM     58  C   UNL A   1      44.393  28.807  32.068  1.00  0.00     0.037 A 
ATOM     59  C   UNL A   1      39.317  32.851  31.490  1.00  0.00     0.049 A 
ATOM     60  C   UNL A   1      44.076  30.148  32.665  1.00  0.00     0.074 A 
ATOM     61  C   UNL A   1      39.108  34.055  32.142  1.00  0.00     0.029 A 
ATOM     62  N   UNL A   1      40.555  32.383  31.903  1.00  0.00    -0.354 N 
ATOM     63  N   UNL A   1      43.007  30.889  32.500  1.00  0.00    -0.248 NA
ATOM     64  C   UNL A   1      45.090  30.737  33.551  1.00  0.00     0.031 C 
ATOM     65  C   UNL A   1      40.234  34.329  32.924  1.00  0.00     0.029 A 
ATOM     66  C   UNL A   1      41.130  33.282  32.786  1.00  0.00     0.049 A 
ATOM     67  H   UNL A   1      40.965  31.536  31.612  1.00  0.00     0.167 HD
ATOM     68  C   UNL A   1      43.219  32.032  33.263  1.00  0.00     0.074 A 
ATOM     69  C   UNL A   1      44.506  31.875  33.905  1.00  0.00     0.031 C 
ATOM     70  C   UNL A   1      42.419  33.116  33.409  1.00  0.00     0.037 A 
BRANCH  57  71
ATOM     71  C   UNL A   1      37.147  32.837  30.203  1.00  0.00     0.058 A 
ATOM     72  C   UNL A   1      35.991  32.647  30.975  1.00  0.00     0.135 A 
ATOM     73  C   UNL A   1      37.068  33.710  29.107  1.00  0.00     0.135 A 
ATOM     74  F   UNL A   1      36.008  31.809  32.024  1.00  0.00    -0.206 F 
ATOM     75  C   UNL A   1      34.796  33.288  30.662  1.00  0.00     0.059 A 
ATOM     76  C   UNL A   1      35.890  34.378  28.788  1.00  0.00     0.059 A 
ATOM     77  F   UNL A   1      38.146  33.926  28.336  1.00  0.00    -0.206 F 
ATOM     78  C   UNL A   1      34.755  34.152  29.566  1.00  0.00     0.060 A 
BRANCH  78  79
ATOM     79  S   UNL A   1      33.199  34.982  29.180  1.00  0.00     0.124 S 
ATOM     80  O   UNL A   1      32.534  34.973  30.479  1.00  0.00    -0.237 OA
ATOM     81  O   UNL A   1      33.649  36.286  28.707  1.00  0.00    -0.237 OA
ATOM     82  O   UNL A   1      32.598  34.123  28.163  1.00  0.00    -0.744 OA
ENDBRANCH  78  79
ENDBRANCH  57  71
BRANCH  58  83
ATOM     83  C   UNL A   1      45.636  28.082  32.432  1.00  0.00     0.058 A 
ATOM     84  C   UNL A   1      46.837  28.323  31.748  1.00  0.00     0.135 A 
ATOM     85  C   UNL A   1      45.657  27.164  33.493  1.00  0.00     0.135 A 
ATOM     86  F   UNL A   1      46.862  29.187  30.721  1.00  0.00    -0.206 F 
ATOM     87  C   UNL A   1      48.017  27.680  32.104  1.00  0.00     0.059 A 
ATOM     88  C   UNL A   1      46.830  26.525  33.882  1.00  0.00     0.059 A 
ATOM     89  F   UNL A   1      44.535  26.909  34.184  1.00  0.00    -0.206 F 
ATOM     90  C   UNL A   1      48.005  26.786  33.177  1.00  0.00     0.060 A 
BRANCH  90  91
ATOM     91  S   UNL A   1      49.556  26.010  33.679  1.00  0.00     0.124 S 
ATOM     92  O   UNL A   1      50.529  26.774  32.906  1.00  0.00    -0.237 OA
ATOM     93  O   UNL A   1      49.563  26.241  35.121  1.00  0.00    -0.237 OA
ATOM     94  O   UNL A   1      49.379  24.618  33.276  1.00  0.00    -0.744 OA
ENDBRANCH  90  91
ENDBRANCH  58  83
BRANCH  70  95
ATOM     95  C   UNL A   1      42.915  34.226  34.290  1.00  0.00     0.058 A 
ATOM     96  C   UNL A   1      43.624  35.313  33.756  1.00  0.00     0.135 A 
ATOM     97  C   UNL A   1      42.624  34.238  35.662  1.00  0.00     0.135 A 
ATOM     98  F   UNL A   1      43.933  35.343  32.451  1.00  0.00    -0.206 F 
ATOM     99  C   UNL A   1      44.036  36.373  34.557  1.00  0.00     0.059 A 
ATOM    100  C   UNL A   1      43.011  35.296  36.480  1.00  0.00     0.059 A 
ATOM    101  F   UNL A   1      41.944  33.224  36.218  1.00  0.00    -0.206 F 
ATOM    102  C   UNL A   1      43.722  36.357  35.917  1.00  0.00     0.060 A 
BRANCH 102 103
ATOM    103  S   UNL A   1      44.221  37.762  36.935  1.00  0.00     0.124 S 
ATOM    104  O   UNL A   1      44.208  38.849  35.963  1.00  0.00    -0.237 OA
ATOM    105  O   UNL A   1      43.170  37.804  37.948  1.00  0.00    -0.237 OA
ATOM    106  O   UNL A   1      45.540  37.374  37.427  1.00  0.00    -0.744 OA
ENDBRANCH 102 103
ENDBRANCH  70  95
ENDBRANCH  44  45
ENDBRANCH  36  39
ENDBRANCH  34  35
ENDBRANCH  33  34
ENDBRANCH  32  33
ENDBRANCH   1  32
TORSDOF 19
ENDMDL
MODEL 2
REMARK VINA RESULT:     -11.6      4.846     10.067
REMARK SMILES O=C(Cc1c(C(=O)c2cc3c(cn2)CCCC3)[nH]c2cc(Cl)ccc12)NCCCCCCNC(=O)c1ccc(-c2c3nc(c(-c4c(F)cc(S(=O)(=O)[O-])cc4F)c4ccc([nH]4)c(-c4c(F)cc(S(=O)(=O)[O-])cc4F)c4nc(c(-c5c(F)cc(S(=O)(=O)[O-])cc5F)c5ccc2[nH]5)C=C4)C=C3)cc1
REMARK SMILES IDX 29 1 28 2 27 3 26 4 1 5 2 6 3 8 4 9 5 10 25 11 18 12 19 13
REMARK SMILES IDX 24 14 20 16 23 17 21 18 22 19 6 20 7 21 8 22 9 23 13 24
REMARK SMILES IDX 10 25 12 26 11 27 17 28 14 29 16 30 15 31 30 32 31 33 32 34
REMARK SMILES IDX 33 35 34 36 35 38 36 39 37 40 101 41 38 42 100 43 39 44
REMARK SMILES IDX 40 45 41 46 94 47 42 48 99 49 93 50 95 51 43 52 98 53 92 54
REMARK SMILES IDX 91 55 44 57 78 58 57 59 77 60 58 61 61 62 76 63 96 64 59 65
REMARK SMILES IDX 60 66 75 68 97 69 62 70 45 71 46 72 55 73 47 74 48 75 54 76
REMARK SMILES IDX 56 77 49 78 50 79 51 80 52 81 53 82 79 83 80 84 89 85 81 86
REMARK SMILES IDX 82 87 88 88 90 89 83 90 84 91 85 92 86 93 87 94 63 95 64 96
REMARK SMILES IDX 73 97 65 98 66 99 72 100 74 101 67 102 68 103 69 104 70 105
REMARK SMILES IDX 71 106
REMARK H PARENT 26 7 18 15 33 37 95 56 61 67
REMARK Flexibility Score: inf
ROOT
ATOM      1  C   UNL A   1      33.427  29.891  26.814  1.00  0.00     0.002 C 
ENDROOT
BRANCH   1   2
ATOM      2  C   UNL A   1      32.033  29.305  27.080  1.00  0.00     0.021 C 
BRANCH   2   3
ATOM      3  C   UNL A   1      31.594  28.211  26.109  1.00  0.00     0.116 C 
BRANCH   3   4
ATOM      4  N   UNL A   1      32.686  27.332  25.752  1.00  0.00    -0.356 N 
ATOM      5  O   UNL A   1      31.817  25.490  26.804  1.00  0.00    -0.275 OA
ATOM      6  C   UNL A   1      32.672  25.991  26.081  1.00  0.00     0.224 C 
ATOM      7  H   UNL A   1      33.458  27.698  25.262  1.00  0.00     0.163 HD
BRANCH   6   8
ATOM      8  C   UNL A   1      33.781  25.184  25.413  1.00  0.00     0.138 C 
BRANCH   8   9
ATOM      9  C   UNL A   1      33.201  24.249  24.389  1.00  0.00    -0.002 A 
ATOM     10  C   UNL A   1      32.741  24.569  23.111  1.00  0.00     0.093 A 
ATOM     11  C   UNL A   1      33.014  22.835  24.568  1.00  0.00     0.004 A 
ATOM     12  N   UNL A   1      32.493  23.368  22.478  1.00  0.00    -0.351 N 
ATOM     13  C   UNL A   1      32.583  22.315  23.353  1.00  0.00     0.048 A 
ATOM     14  C   UNL A   1      33.194  21.944  25.648  1.00  0.00     0.012 A 
ATOM     15  H   UNL A   1      32.280  23.278  21.520  1.00  0.00     0.167 HD
ATOM     16  C   UNL A   1      32.339  20.950  23.151  1.00  0.00     0.047 A 
ATOM     17  C   UNL A   1      32.946  20.577  25.475  1.00  0.00     0.021 A 
ATOM     18  C   UNL A   1      32.527  20.095  24.240  1.00  0.00     0.043 A 
ATOM     19  Cl  UNL A   1      32.227  18.409  24.048  1.00  0.00    -0.084 Cl
BRANCH  10  20
ATOM     20  C   UNL A   1      32.580  25.885  22.493  1.00  0.00     0.227 C 
ATOM     21  O   UNL A   1      33.465  26.463  21.867  1.00  0.00    -0.285 OA
BRANCH  20  22
ATOM     22  C   UNL A   1      31.305  26.622  22.717  1.00  0.00     0.113 A 
ATOM     23  C   UNL A   1      31.145  27.898  22.186  1.00  0.00     0.036 A 
ATOM     24  N   UNL A   1      30.357  25.981  23.437  1.00  0.00    -0.252 NA
ATOM     25  C   UNL A   1      29.934  28.565  22.402  1.00  0.00    -0.041 A 
ATOM     26  C   UNL A   1      29.193  26.638  23.623  1.00  0.00     0.115 A 
ATOM     27  C   UNL A   1      28.935  27.922  23.149  1.00  0.00    -0.026 A 
ATOM     28  C   UNL A   1      29.752  29.969  21.885  1.00  0.00     0.036 C 
ATOM     29  C   UNL A   1      27.584  28.545  23.372  1.00  0.00     0.037 C 
ATOM     30  C   UNL A   1      28.288  30.404  21.840  1.00  0.00     0.005 C 
ATOM     31  C   UNL A   1      27.582  30.057  23.146  1.00  0.00     0.005 C 
ENDBRANCH  20  22
ENDBRANCH  10  20
ENDBRANCH   8   9
ENDBRANCH   6   8
ENDBRANCH   3   4
ENDBRANCH   2   3
ENDBRANCH   1   2
BRANCH   1  32
ATOM     32  C   UNL A   1      33.817  31.099  27.670  1.00  0.00     0.002 C 
BRANCH  32  33
ATOM     33  C   UNL A   1      35.295  31.487  27.634  1.00  0.00     0.021 C 
BRANCH  33  34
ATOM     34  C   UNL A   1      35.874  31.987  28.952  1.00  0.00     0.116 C 
BRANCH  34  35
ATOM     35  N   UNL A   1      35.667  31.075  30.068  1.00  0.00    -0.352 N 
ATOM     36  C   UNL A   1      36.556  30.167  30.601  1.00  0.00     0.251 C 
ATOM     37  H   UNL A   1      34.781  31.111  30.496  1.00  0.00     0.163 HD
ATOM     38  O   UNL A   1      36.205  29.398  31.490  1.00  0.00    -0.269 OA
BRANCH  36  39
ATOM     39  C   UNL A   1      37.928  30.098  30.048  1.00  0.00     0.039 A 
ATOM     40  C   UNL A   1      38.140  29.671  28.736  1.00  0.00     0.014 A 
ATOM     41  C   UNL A   1      39.015  30.392  30.877  1.00  0.00     0.014 A 
ATOM     42  C   UNL A   1      39.430  29.367  28.314  1.00  0.00     0.010 A 
ATOM     43  C   UNL A   1      40.316  30.157  30.421  1.00  0.00     0.010 A 
ATOM     44  C   UNL A   1      40.531  29.587  29.157  1.00  0.00    -0.014 A 
BRANCH  44  45
ATOM     45  C   UNL A   1      41.885  29.167  28.708  1.00  0.00     0.031 A 
ATOM     46  C   UNL A   1      43.055  30.114  28.808  1.00  0.00     0.074 A 
ATOM     47  C   UNL A   1      42.079  27.903  28.285  1.00  0.00     0.049 A 
ATOM     48  N   UNL A   1      44.312  29.904  28.510  1.00  0.00    -0.248 NA
ATOM     49  C   UNL A   1      42.780  31.471  29.306  1.00  0.00     0.031 C 
ATOM     50  C   UNL A   1      41.031  26.888  28.158  1.00  0.00     0.029 A 
ATOM     51  N   UNL A   1      43.225  27.245  27.918  1.00  0.00    -0.354 N 
ATOM     52  C   UNL A   1      44.973  31.100  28.768  1.00  0.00     0.074 A 
ATOM     53  C   UNL A   1      43.973  32.044  29.220  1.00  0.00     0.031 C 
ATOM     54  C   UNL A   1      41.591  25.722  27.801  1.00  0.00     0.029 A 
ATOM     55  C   UNL A   1      43.026  25.918  27.622  1.00  0.00     0.049 A 
ATOM     56  H   UNL A   1      44.107  27.681  27.872  1.00  0.00     0.167 HD
ATOM     57  C   UNL A   1      46.293  31.383  28.654  1.00  0.00     0.037 A 
ATOM     58  C   UNL A   1      43.898  24.962  27.244  1.00  0.00     0.037 A 
ATOM     59  C   UNL A   1      47.293  30.435  28.235  1.00  0.00     0.049 A 
ATOM     60  C   UNL A   1      45.351  25.310  27.092  1.00  0.00     0.074 A 
ATOM     61  C   UNL A   1      48.659  30.624  28.111  1.00  0.00     0.029 A 
ATOM     62  N   UNL A   1      47.038  29.120  27.876  1.00  0.00    -0.354 N 
ATOM     63  N   UNL A   1      45.953  26.450  27.335  1.00  0.00    -0.248 NA
ATOM     64  C   UNL A   1      46.240  24.250  26.598  1.00  0.00     0.031 C 
ATOM     65  C   UNL A   1      49.225  29.433  27.648  1.00  0.00     0.029 A 
ATOM     66  C   UNL A   1      48.217  28.492  27.513  1.00  0.00     0.049 A 
ATOM     67  H   UNL A   1      46.149  28.696  27.879  1.00  0.00     0.167 HD
ATOM     68  C   UNL A   1      47.292  26.244  27.023  1.00  0.00     0.074 A 
ATOM     69  C   UNL A   1      47.416  24.866  26.596  1.00  0.00     0.031 C 
ATOM     70  C   UNL A   1      48.323  27.121  27.079  1.00  0.00     0.037 A 
BRANCH  57  71
ATOM     71  C   UNL A   1      46.741  32.779  28.987  1.00  0.00     0.058 A 
ATOM     72  C   UNL A   1      47.151  33.130  30.282  1.00  0.00     0.135 A 
ATOM     73  C   UNL A   1      46.810  33.763  27.988  1.00  0.00     0.135 A 
ATOM     74  F   UNL A   1      47.088  32.231  31.278  1.00  0.00    -0.206 F 
ATOM     75  C   UNL A   1      47.598  34.413  30.580  1.00  0.00     0.059 A 
ATOM     76  C   UNL A   1      47.274  35.047  28.258  1.00  0.00     0.059 A 
ATOM     77  F   UNL A   1      46.430  33.479  26.732  1.00  0.00    -0.206 F 
ATOM     78  C   UNL A   1      47.656  35.366  29.561  1.00  0.00     0.060 A 
BRANCH  78  79
ATOM     79  S   UNL A   1      48.247  37.024  29.963  1.00  0.00     0.124 S 
ATOM     80  O   UNL A   1      48.955  36.784  31.216  1.00  0.00    -0.237 OA
ATOM     81  O   UNL A   1      49.085  37.345  28.813  1.00  0.00    -0.237 OA
ATOM     82  O   UNL A   1      47.018  37.804  30.077  1.00  0.00    -0.744 OA
ENDBRANCH  78  79
ENDBRANCH  57  71
BRANCH  58  83
ATOM     83  C   UNL A   1      43.410  23.584  26.987  1.00  0.00     0.058 A 
ATOM     84  C   UNL A   1      43.279  23.100  25.677  1.00  0.00     0.135 A 
ATOM     85  C   UNL A   1      43.103  22.713  28.043  1.00  0.00     0.135 A 
ATOM     86  F   UNL A   1      43.555  23.900  24.636  1.00  0.00    -0.206 F 
ATOM     87  C   UNL A   1      42.861  21.798  25.423  1.00  0.00     0.059 A 
ATOM     88  C   UNL A   1      42.704  21.401  27.814  1.00  0.00     0.059 A 
ATOM     89  F   UNL A   1      43.224  23.128  29.314  1.00  0.00    -0.206 F 
ATOM     90  C   UNL A   1      42.582  20.954  26.499  1.00  0.00     0.060 A 
BRANCH  90  91
ATOM     91  S   UNL A   1      42.109  19.244  26.161  1.00  0.00     0.124 S 
ATOM     92  O   UNL A   1      42.996  18.908  25.053  1.00  0.00    -0.237 OA
ATOM     93  O   UNL A   1      42.399  18.588  27.433  1.00  0.00    -0.237 OA
ATOM     94  O   UNL A   1      40.691  19.348  25.828  1.00  0.00    -0.744 OA
ENDBRANCH  90  91
ENDBRANCH  58  83
BRANCH  70  95
ATOM     95  C   UNL A   1      49.675  26.625  26.659  1.00  0.00     0.058 A 
ATOM     96  C   UNL A   1      50.589  26.125  27.600  1.00  0.00     0.135 A 
ATOM     97  C   UNL A   1      50.037  26.585  25.304  1.00  0.00     0.135 A 
ATOM     98  F   UNL A   1      50.291  26.149  28.909  1.00  0.00    -0.206 F 
ATOM     99  C   UNL A   1      51.821  25.610  27.212  1.00  0.00     0.059 A 
ATOM    100  C   UNL A   1      51.257  26.058  24.891  1.00  0.00     0.059 A 
ATOM    101  F   UNL A   1      49.195  27.046  24.366  1.00  0.00    -0.206 F 
ATOM    102  C   UNL A   1      52.144  25.578  25.854  1.00  0.00     0.060 A 
BRANCH 102 103
ATOM    103  S   UNL A   1      53.727  24.862  25.361  1.00  0.00     0.124 S 
ATOM    104  O   UNL A   1      53.333  23.509  24.984  1.00  0.00    -0.237 OA
ATOM    105  O   UNL A   1      54.136  25.733  24.263  1.00  0.00    -0.237 OA
ATOM    106  O   UNL A   1      54.539  24.966  26.570  1.00  0.00    -0.744 OA
ENDBRANCH 102 103
ENDBRANCH  70  95
ENDBRANCH  44  45
ENDBRANCH  36  39
ENDBRANCH  34  35
ENDBRANCH  33  34
ENDBRANCH  32  33
ENDBRANCH   1  32
TORSDOF 19
ENDMDL
MODEL 3
REMARK VINA RESULT:     -11.4      3.005      9.340
REMARK SMILES O=C(Cc1c(C(=O)c2cc3c(cn2)CCCC3)[nH]c2cc(Cl)ccc12)NCCCCCCNC(=O)c1ccc(-c2c3nc(c(-c4c(F)cc(S(=O)(=O)[O-])cc4F)c4ccc([nH]4)c(-c4c(F)cc(S(=O)(=O)[O-])cc4F)c4nc(c(-c5c(F)cc(S(=O)(=O)[O-])cc5F)c5ccc2[nH]5)C=C4)C=C3)cc1
REMARK SMILES IDX 29 1 28 2 27 3 26 4 1 5 2 6 3 8 4 9 5 10 25 11 18 12 19 13
REMARK SMILES IDX 24 14 20 16 23 17 21 18 22 19 6 20 7 21 8 22 9 23 13 24
REMARK SMILES IDX 10 25 12 26 11 27 17 28 14 29 16 30 15 31 30 32 31 33 32 34
REMARK SMILES IDX 33 35 34 36 35 38 36 39 37 40 101 41 38 42 100 43 39 44
REMARK SMILES IDX 40 45 41 46 94 47 42 48 99 49 93 50 95 51 43 52 98 53 92 54
REMARK SMILES IDX 91 55 44 57 78 58 57 59 77 60 58 61 61 62 76 63 96 64 59 65
REMARK SMILES IDX 60 66 75 68 97 69 62 70 45 71 46 72 55 73 47 74 48 75 54 76
REMARK SMILES IDX 56 77 49 78 50 79 51 80 52 81 53 82 79 83 80 84 89 85 81 86
REMARK SMILES IDX 82 87 88 88 90 89 83 90 84 91 85 92 86 93 87 94 63 95 64 96
REMARK SMILES IDX 73 97 65 98 66 99 72 100 74 101 67 102 68 103 69 104 70 105
REMARK SMILES IDX 71 106
REMARK H PARENT 26 7 18 15 33 37 95 56 61 67
REMARK Flexibility Score: inf
ROOT
ATOM      1  C   UNL A   1      40.063  22.259  27.268  1.00  0.00     0.002 C 
ENDROOT
BRANCH   1   2
ATOM      2  C   UNL A   1      39.209  21.718  26.113  1.00  0.00     0.021 C 
BRANCH   2   3
ATOM      3  C   UNL A   1      38.177  22.696  25.556  1.00  0.00     0.116 C 
BRANCH   3   4
ATOM      4  N   UNL A   1      36.978  22.739  26.365  1.00  0.00    -0.356 N 
ATOM      5  O   UNL A   1      35.678  23.718  24.751  1.00  0.00    -0.275 OA
ATOM      6  C   UNL A   1      35.779  23.197  25.857  1.00  0.00     0.224 C 
ATOM      7  H   UNL A   1      37.018  22.434  27.301  1.00  0.00     0.163 HD
BRANCH   6   8
ATOM      8  C   UNL A   1      34.587  22.939  26.773  1.00  0.00     0.138 C 
BRANCH   8   9
ATOM      9  C   UNL A   1      33.575  22.068  26.080  1.00  0.00    -0.002 A 
ATOM     10  C   UNL A   1      32.209  22.310  25.927  1.00  0.00     0.093 A 
ATOM     11  C   UNL A   1      33.858  20.806  25.452  1.00  0.00     0.004 A 
ATOM     12  N   UNL A   1      31.741  21.344  25.060  1.00  0.00    -0.351 N 
ATOM     13  C   UNL A   1      32.695  20.388  24.816  1.00  0.00     0.048 A 
ATOM     14  C   UNL A   1      35.005  19.990  25.348  1.00  0.00     0.012 A 
ATOM     15  H   UNL A   1      30.838  21.341  24.667  1.00  0.00     0.167 HD
ATOM     16  C   UNL A   1      32.619  19.208  24.064  1.00  0.00     0.047 A 
ATOM     17  C   UNL A   1      34.952  18.801  24.612  1.00  0.00     0.021 A 
ATOM     18  C   UNL A   1      33.772  18.424  23.980  1.00  0.00     0.043 A 
ATOM     19  Cl  UNL A   1      33.728  16.956  23.079  1.00  0.00    -0.084 Cl
BRANCH  10  20
ATOM     20  C   UNL A   1      31.394  23.380  26.500  1.00  0.00     0.227 C 
ATOM     21  O   UNL A   1      30.804  23.296  27.574  1.00  0.00    -0.285 OA
BRANCH  20  22
ATOM     22  C   UNL A   1      31.174  24.613  25.693  1.00  0.00     0.113 A 
ATOM     23  C   UNL A   1      31.504  25.855  26.227  1.00  0.00     0.036 A 
ATOM     24  N   UNL A   1      30.661  24.439  24.453  1.00  0.00    -0.252 NA
ATOM     25  C   UNL A   1      31.297  26.995  25.445  1.00  0.00    -0.041 A 
ATOM     26  C   UNL A   1      30.481  25.552  23.713  1.00  0.00     0.115 A 
ATOM     27  C   UNL A   1      30.763  26.841  24.157  1.00  0.00    -0.026 A 
ATOM     28  C   UNL A   1      31.594  28.358  26.018  1.00  0.00     0.036 C 
ATOM     29  C   UNL A   1      30.569  28.011  23.230  1.00  0.00     0.037 C 
ATOM     30  C   UNL A   1      31.706  29.444  24.949  1.00  0.00     0.005 C 
ATOM     31  C   UNL A   1      30.546  29.352  23.963  1.00  0.00     0.005 C 
ENDBRANCH  20  22
ENDBRANCH  10  20
ENDBRANCH   8   9
ENDBRANCH   6   8
ENDBRANCH   3   4
ENDBRANCH   2   3
ENDBRANCH   1   2
BRANCH   1  32
ATOM     32  C   UNL A   1      41.559  21.944  27.197  1.00  0.00     0.002 C 
BRANCH  32  33
ATOM     33  C   UNL A   1      42.420  22.567  28.295  1.00  0.00     0.021 C 
BRANCH  33  34
ATOM     34  C   UNL A   1      43.338  23.699  27.846  1.00  0.00     0.116 C 
BRANCH  34  35
ATOM     35  N   UNL A   1      43.100  24.140  26.479  1.00  0.00    -0.352 N 
ATOM     36  C   UNL A   1      42.438  25.271  26.053  1.00  0.00     0.251 C 
ATOM     37  H   UNL A   1      43.456  23.557  25.769  1.00  0.00     0.163 HD
ATOM     38  O   UNL A   1      42.238  25.464  24.858  1.00  0.00    -0.269 OA
BRANCH  36  39
ATOM     39  C   UNL A   1      41.928  26.226  27.063  1.00  0.00     0.039 A 
ATOM     40  C   UNL A   1      42.540  27.470  27.233  1.00  0.00     0.014 A 
ATOM     41  C   UNL A   1      40.875  25.840  27.898  1.00  0.00     0.014 A 
ATOM     42  C   UNL A   1      42.222  28.245  28.342  1.00  0.00     0.010 A 
ATOM     43  C   UNL A   1      40.505  26.660  28.970  1.00  0.00     0.010 A 
ATOM     44  C   UNL A   1      41.217  27.840  29.236  1.00  0.00    -0.014 A 
BRANCH  44  45
ATOM     45  C   UNL A   1      40.965  28.647  30.459  1.00  0.00     0.031 A 
ATOM     46  C   UNL A   1      41.880  28.538  31.653  1.00  0.00     0.074 A 
ATOM     47  C   UNL A   1      39.958  29.542  30.465  1.00  0.00     0.049 A 
ATOM     48  N   UNL A   1      41.842  29.197  32.783  1.00  0.00    -0.248 NA
ATOM     49  C   UNL A   1      42.978  27.561  31.570  1.00  0.00     0.031 C 
ATOM     50  C   UNL A   1      39.014  29.754  29.366  1.00  0.00     0.029 A 
ATOM     51  N   UNL A   1      39.582  30.464  31.409  1.00  0.00    -0.354 N 
ATOM     52  C   UNL A   1      42.896  28.709  33.548  1.00  0.00     0.074 A 
ATOM     53  C   UNL A   1      43.539  27.675  32.767  1.00  0.00     0.031 C 
ATOM     54  C   UNL A   1      38.206  30.781  29.673  1.00  0.00     0.029 A 
ATOM     55  C   UNL A   1      38.539  31.265  31.009  1.00  0.00     0.049 A 
ATOM     56  H   UNL A   1      40.018  30.545  32.288  1.00  0.00     0.167 HD
ATOM     57  C   UNL A   1      43.300  29.096  34.782  1.00  0.00     0.037 A 
ATOM     58  C   UNL A   1      37.915  32.276  31.645  1.00  0.00     0.037 A 
ATOM     59  C   UNL A   1      42.679  30.146  35.547  1.00  0.00     0.049 A 
ATOM     60  C   UNL A   1      38.360  32.662  33.026  1.00  0.00     0.074 A 
ATOM     61  C   UNL A   1      43.034  30.624  36.798  1.00  0.00     0.029 A 
ATOM     62  N   UNL A   1      41.582  30.885  35.135  1.00  0.00    -0.354 N 
ATOM     63  N   UNL A   1      39.354  32.182  33.734  1.00  0.00    -0.248 NA
ATOM     64  C   UNL A   1      37.589  33.715  33.703  1.00  0.00     0.031 C 
ATOM     65  C   UNL A   1      42.131  31.630  37.153  1.00  0.00     0.029 A 
ATOM     66  C   UNL A   1      41.233  31.802  36.112  1.00  0.00     0.049 A 
ATOM     67  H   UNL A   1      41.117  30.774  34.273  1.00  0.00     0.167 HD
ATOM     68  C   UNL A   1      39.329  32.874  34.940  1.00  0.00     0.074 A 
ATOM     69  C   UNL A   1      38.236  33.820  34.857  1.00  0.00     0.031 C 
ATOM     70  C   UNL A   1      40.134  32.730  36.020  1.00  0.00     0.037 A 
BRANCH  57  71
ATOM     71  C   UNL A   1      44.473  28.379  35.391  1.00  0.00     0.058 A 
ATOM     72  C   UNL A   1      45.787  28.839  35.215  1.00  0.00     0.135 A 
ATOM     73  C   UNL A   1      44.277  27.250  36.202  1.00  0.00     0.135 A 
ATOM     74  F   UNL A   1      46.031  29.906  34.436  1.00  0.00    -0.206 F 
ATOM     75  C   UNL A   1      46.867  28.195  35.808  1.00  0.00     0.059 A 
ATOM     76  C   UNL A   1      45.340  26.601  36.822  1.00  0.00     0.059 A 
ATOM     77  F   UNL A   1      43.039  26.769  36.402  1.00  0.00    -0.206 F 
ATOM     78  C   UNL A   1      46.635  27.076  36.610  1.00  0.00     0.060 A 
BRANCH  78  79
ATOM     79  S   UNL A   1      48.048  26.256  37.379  1.00  0.00     0.124 S 
ATOM     80  O   UNL A   1      48.243  27.073  38.573  1.00  0.00    -0.237 OA
ATOM     81  O   UNL A   1      47.540  24.908  37.610  1.00  0.00    -0.237 OA
ATOM     82  O   UNL A   1      49.095  26.364  36.368  1.00  0.00    -0.744 OA
ENDBRANCH  78  79
ENDBRANCH  57  71
BRANCH  58  83
ATOM     83  C   UNL A   1      36.801  32.990  30.973  1.00  0.00     0.058 A 
ATOM     84  C   UNL A   1      35.469  32.756  31.343  1.00  0.00     0.135 A 
ATOM     85  C   UNL A   1      37.048  33.944  29.974  1.00  0.00     0.135 A 
ATOM     86  F   UNL A   1      35.185  31.846  32.288  1.00  0.00    -0.206 F 
ATOM     87  C   UNL A   1      34.418  33.447  30.749  1.00  0.00     0.059 A 
ATOM     88  C   UNL A   1      36.015  34.663  29.381  1.00  0.00     0.059 A 
ATOM     89  F   UNL A   1      38.307  34.210  29.595  1.00  0.00    -0.206 F 
ATOM     90  C   UNL A   1      34.702  34.403  29.772  1.00  0.00     0.060 A 
BRANCH  90  91
ATOM     91  S   UNL A   1      33.338  35.346  29.058  1.00  0.00     0.124 S 
ATOM     92  O   UNL A   1      34.052  36.334  28.256  1.00  0.00    -0.237 OA
ATOM     93  O   UNL A   1      32.614  34.321  28.311  1.00  0.00    -0.237 OA
ATOM     94  O   UNL A   1      32.641  35.867  30.230  1.00  0.00    -0.744 OA
ENDBRANCH  90  91
ENDBRANCH  58  83
BRANCH  70  95
ATOM     95  C   UNL A   1      39.861  33.608  37.206  1.00  0.00     0.058 A 
ATOM     96  C   UNL A   1      40.495  34.852  37.349  1.00  0.00     0.135 A 
ATOM     97  C   UNL A   1      38.913  33.236  38.171  1.00  0.00     0.135 A 
ATOM     98  F   UNL A   1      41.414  35.248  36.456  1.00  0.00    -0.206 F 
ATOM     99  C   UNL A   1      40.203  35.696  38.416  1.00  0.00     0.059 A 
ATOM    100  C   UNL A   1      38.592  34.072  39.237  1.00  0.00     0.059 A 
ATOM    101  F   UNL A   1      38.276  32.059  38.075  1.00  0.00    -0.206 F 
ATOM    102  C   UNL A   1      39.247  35.298  39.353  1.00  0.00     0.060 A 
BRANCH 102 103
ATOM    103  S   UNL A   1      38.844  36.424  40.705  1.00  0.00     0.124 S 
ATOM    104  O   UNL A   1      37.832  35.663  41.430  1.00  0.00    -0.237 OA
ATOM    105  O   UNL A   1      40.129  36.575  41.381  1.00  0.00    -0.237 OA
ATOM    106  O   UNL A   1      38.360  37.619  40.020  1.00  0.00    -0.744 OA
ENDBRANCH 102 103
ENDBRANCH  70  95
ENDBRANCH  44  45
ENDBRANCH  36  39
ENDBRANCH  34  35
ENDBRANCH  33  34
ENDBRANCH  32  33
ENDBRANCH   1  32
TORSDOF 19
ENDMDL
