MODEL 1
REMARK VINA RESULT:     -10.2      0.000      0.000
REMARK SMILES [NH3+][C@@H](C(=O)NCCCCCCNC(=O)c1ccc(-c2c3nc(c(-c4c(F)cc(S(=O)(=O)[O-])cc4F)c4ccc([nH]4)c(-c4c(F)cc(S(=O)(=O)[O-])cc4F)c4nc(c(-c5c(F)cc(S(=O)(=O)[O-])cc5F)c5ccc2[nH]5)C=C4)C=C3)cc1)[C@@H](O)c1cccs1
REMARK SMILES IDX 9 1 8 2 7 3 6 4 5 5 3 6 4 7 2 9 1 10 81 14 82 15 83 17 84 18
REMARK SMILES IDX 87 19 85 20 86 21 10 22 11 23 12 24 13 25 14 27 15 28 16 29
REMARK SMILES IDX 80 30 17 31 79 32 18 33 19 34 20 35 73 36 21 37 78 38 72 39
REMARK SMILES IDX 74 40 22 41 77 42 71 43 70 44 23 46 57 47 36 48 56 49 37 50
REMARK SMILES IDX 40 51 55 52 75 53 38 54 39 55 54 57 76 58 41 59 24 60 25 61
REMARK SMILES IDX 34 62 26 63 27 64 33 65 35 66 28 67 29 68 30 69 31 70 32 71
REMARK SMILES IDX 58 72 59 73 68 74 60 75 61 76 67 77 69 78 62 79 63 80 64 81
REMARK SMILES IDX 65 82 66 83 42 84 43 85 52 86 44 87 45 88 51 89 53 90 46 91
REMARK SMILES IDX 47 92 48 93 49 94 50 95
REMARK H PARENT 5 8 1 11 1 12 1 13 82 16 12 26 74 45 40 56
REMARK Flexibility Score: inf
ROOT
ATOM      1  C   UNL A   1      36.605  32.721  34.081  1.00  0.00     0.002 C 
ENDROOT
BRANCH   1   2
ATOM      2  C   UNL A   1      36.007  33.912  34.835  1.00  0.00     0.002 C 
BRANCH   2   3
ATOM      3  C   UNL A   1      35.145  34.852  33.980  1.00  0.00     0.021 C 
BRANCH   3   4
ATOM      4  C   UNL A   1      34.262  34.125  32.963  1.00  0.00     0.116 C 
BRANCH   4   5
ATOM      5  N   UNL A   1      32.968  34.776  32.884  1.00  0.00    -0.351 N 
ATOM      6  C   UNL A   1      32.570  35.804  32.080  1.00  0.00     0.281 C 
ATOM      7  O   UNL A   1      31.570  36.444  32.411  1.00  0.00    -0.268 OA
ATOM      8  H   UNL A   1      32.281  34.429  33.498  1.00  0.00     0.163 HD
BRANCH   6   9
ATOM      9  C   UNL A   1      33.404  36.149  30.837  1.00  0.00     0.305 C 
BRANCH   9  10
ATOM     10  N   UNL A   1      33.270  37.604  30.514  1.00  0.00    -0.345 N 
ATOM     11  H   UNL A   1      33.215  38.141  31.380  1.00  0.00     0.345 HD
ATOM     12  H   UNL A   1      32.422  37.754  29.967  1.00  0.00     0.345 HD
ATOM     13  H   UNL A   1      34.081  37.908  29.976  1.00  0.00     0.345 HD
ENDBRANCH   9  10
BRANCH   9  14
ATOM     14  C   UNL A   1      32.927  35.308  29.627  1.00  0.00     0.222 C 
BRANCH  14  15
ATOM     15  O   UNL A   1      32.556  36.181  28.551  1.00  0.00    -0.381 OA
ATOM     16  H   UNL A   1      33.341  36.653  28.231  1.00  0.00     0.211 HD
ENDBRANCH  14  15
BRANCH  14  17
ATOM     17  C   UNL A   1      33.967  34.350  29.108  1.00  0.00     0.040 A 
ATOM     18  C   UNL A   1      35.332  34.411  29.331  1.00  0.00     0.018 A 
ATOM     19  S   UNL A   1      33.570  33.042  28.071  1.00  0.00    -0.146 S 
ATOM     20  C   UNL A   1      36.049  33.403  28.629  1.00  0.00     0.012 A 
ATOM     21  C   UNL A   1      35.210  32.591  27.902  1.00  0.00     0.065 A 
ENDBRANCH  14  17
ENDBRANCH   9  14
ENDBRANCH   6   9
ENDBRANCH   4   5
ENDBRANCH   3   4
ENDBRANCH   2   3
ENDBRANCH   1   2
BRANCH   1  22
ATOM     22  C   UNL A   1      37.818  33.056  33.210  1.00  0.00     0.021 C 
BRANCH  22  23
ATOM     23  C   UNL A   1      37.715  32.566  31.769  1.00  0.00     0.116 C 
BRANCH  23  24
ATOM     24  N   UNL A   1      36.745  31.492  31.626  1.00  0.00    -0.352 N 
ATOM     25  C   UNL A   1      36.856  30.315  30.931  1.00  0.00     0.251 C 
ATOM     26  H   UNL A   1      35.890  31.628  32.095  1.00  0.00     0.163 HD
ATOM     27  O   UNL A   1      35.860  29.612  30.754  1.00  0.00    -0.269 OA
BRANCH  25  28
ATOM     28  C   UNL A   1      38.164  29.902  30.379  1.00  0.00     0.039 A 
ATOM     29  C   UNL A   1      38.403  30.062  29.012  1.00  0.00     0.014 A 
ATOM     30  C   UNL A   1      39.149  29.354  31.205  1.00  0.00     0.014 A 
ATOM     31  C   UNL A   1      39.650  29.721  28.483  1.00  0.00     0.010 A 
ATOM     32  C   UNL A   1      40.415  29.086  30.691  1.00  0.00     0.010 A 
ATOM     33  C   UNL A   1      40.677  29.258  29.324  1.00  0.00    -0.014 A 
BRANCH  33  34
ATOM     34  C   UNL A   1      42.027  28.946  28.786  1.00  0.00     0.031 A 
ATOM     35  C   UNL A   1      42.346  27.556  28.304  1.00  0.00     0.074 A 
ATOM     36  C   UNL A   1      42.980  29.899  28.786  1.00  0.00     0.049 A 
ATOM     37  N   UNL A   1      43.478  27.079  27.851  1.00  0.00    -0.248 NA
ATOM     38  C   UNL A   1      41.260  26.566  28.360  1.00  0.00     0.031 C 
ATOM     39  C   UNL A   1      42.807  31.270  29.272  1.00  0.00     0.029 A 
ATOM     40  N   UNL A   1      44.288  29.860  28.367  1.00  0.00    -0.354 N 
ATOM     41  C   UNL A   1      43.242  25.736  27.581  1.00  0.00     0.074 A 
ATOM     42  C   UNL A   1      41.878  25.461  27.974  1.00  0.00     0.031 C 
ATOM     43  C   UNL A   1      43.955  31.945  29.102  1.00  0.00     0.029 A 
ATOM     44  C   UNL A   1      44.956  31.050  28.532  1.00  0.00     0.049 A 
ATOM     45  H   UNL A   1      44.706  29.055  27.986  1.00  0.00     0.167 HD
ATOM     46  C   UNL A   1      44.080  24.822  27.034  1.00  0.00     0.037 A 
ATOM     47  C   UNL A   1      46.234  31.381  28.259  1.00  0.00     0.037 A 
ATOM     48  C   UNL A   1      45.430  25.111  26.624  1.00  0.00     0.049 A 
ATOM     49  C   UNL A   1      47.145  30.348  27.654  1.00  0.00     0.074 A 
ATOM     50  C   UNL A   1      46.340  24.269  26.009  1.00  0.00     0.029 A 
ATOM     51  N   UNL A   1      46.066  26.333  26.791  1.00  0.00    -0.354 N 
ATOM     52  N   UNL A   1      46.887  29.099  27.346  1.00  0.00    -0.248 NA
ATOM     53  C   UNL A   1      48.519  30.770  27.351  1.00  0.00     0.031 C 
ATOM     54  C   UNL A   1      47.541  24.968  25.846  1.00  0.00     0.029 A 
ATOM     55  C   UNL A   1      47.363  26.261  26.310  1.00  0.00     0.049 A 
ATOM     56  H   UNL A   1      45.656  27.133  27.192  1.00  0.00     0.167 HD
ATOM     57  C   UNL A   1      48.055  28.595  26.785  1.00  0.00     0.074 A 
ATOM     58  C   UNL A   1      49.017  29.678  26.786  1.00  0.00     0.031 C 
ATOM     59  C   UNL A   1      48.308  27.350  26.310  1.00  0.00     0.037 A 
BRANCH  46  60
ATOM     60  C   UNL A   1      43.557  23.423  26.842  1.00  0.00     0.058 A 
ATOM     61  C   UNL A   1      43.222  22.929  25.570  1.00  0.00     0.135 A 
ATOM     62  C   UNL A   1      43.422  22.555  27.936  1.00  0.00     0.135 A 
ATOM     63  F   UNL A   1      43.318  23.719  24.490  1.00  0.00    -0.206 F 
ATOM     64  C   UNL A   1      42.742  21.635  25.396  1.00  0.00     0.059 A 
ATOM     65  C   UNL A   1      42.972  21.246  27.781  1.00  0.00     0.059 A 
ATOM     66  F   UNL A   1      43.727  22.973  29.174  1.00  0.00    -0.206 F 
ATOM     67  C   UNL A   1      42.619  20.801  26.508  1.00  0.00     0.060 A 
BRANCH  67  68
ATOM     68  S   UNL A   1      41.996  19.124  26.264  1.00  0.00     0.124 S 
ATOM     69  O   UNL A   1      42.900  18.627  25.230  1.00  0.00    -0.237 OA
ATOM     70  O   UNL A   1      42.164  18.533  27.588  1.00  0.00    -0.237 OA
ATOM     71  O   UNL A   1      40.615  19.331  25.843  1.00  0.00    -0.744 OA
ENDBRANCH  67  68
ENDBRANCH  46  60
BRANCH  47  72
ATOM     72  C   UNL A   1      46.718  32.761  28.533  1.00  0.00     0.058 A 
ATOM     73  C   UNL A   1      47.331  33.082  29.753  1.00  0.00     0.135 A 
ATOM     74  C   UNL A   1      46.589  33.782  27.579  1.00  0.00     0.135 A 
ATOM     75  F   UNL A   1      47.473  32.142  30.700  1.00  0.00    -0.206 F 
ATOM     76  C   UNL A   1      47.783  34.369  30.027  1.00  0.00     0.059 A 
ATOM     77  C   UNL A   1      47.056  35.070  27.818  1.00  0.00     0.059 A 
ATOM     78  F   UNL A   1      46.026  33.523  26.388  1.00  0.00    -0.206 F 
ATOM     79  C   UNL A   1      47.643  35.356  29.051  1.00  0.00     0.060 A 
BRANCH  79  80
ATOM     80  S   UNL A   1      48.274  37.013  29.398  1.00  0.00     0.124 S 
ATOM     81  O   UNL A   1      49.609  36.719  29.903  1.00  0.00    -0.237 OA
ATOM     82  O   UNL A   1      48.211  37.646  28.085  1.00  0.00    -0.237 OA
ATOM     83  O   UNL A   1      47.327  37.532  30.381  1.00  0.00    -0.744 OA
ENDBRANCH  79  80
ENDBRANCH  47  72
BRANCH  59  84
ATOM     84  C   UNL A   1      49.667  27.098  25.716  1.00  0.00     0.058 A 
ATOM     85  C   UNL A   1      49.932  27.312  24.354  1.00  0.00     0.135 A 
ATOM     86  C   UNL A   1      50.732  26.682  26.533  1.00  0.00     0.135 A 
ATOM     87  F   UNL A   1      48.949  27.704  23.528  1.00  0.00    -0.206 F 
ATOM     88  C   UNL A   1      51.196  27.094  23.817  1.00  0.00     0.059 A 
ATOM     89  C   UNL A   1      52.011  26.488  26.023  1.00  0.00     0.059 A 
ATOM     90  F   UNL A   1      50.537  26.474  27.845  1.00  0.00    -0.206 F 
ATOM     91  C   UNL A   1      52.231  26.683  24.661  1.00  0.00     0.060 A 
BRANCH  91  92
ATOM     92  S   UNL A   1      53.874  26.432  23.956  1.00  0.00     0.124 S 
ATOM     93  O   UNL A   1      54.512  27.714  24.238  1.00  0.00    -0.237 OA
ATOM     94  O   UNL A   1      54.372  25.294  24.722  1.00  0.00    -0.237 OA
ATOM     95  O   UNL A   1      53.603  26.163  22.548  1.00  0.00    -0.744 OA
ENDBRANCH  91  92
ENDBRANCH  59  84
ENDBRANCH  33  34
ENDBRANCH  25  28
ENDBRANCH  23  24
ENDBRANCH  22  23
ENDBRANCH   1  22
TORSDOF 20
ENDMDL
MODEL 2
REMARK VINA RESULT:     -10.2      6.003     14.277
REMARK SMILES [NH3+][C@@H](C(=O)NCCCCCCNC(=O)c1ccc(-c2c3nc(c(-c4c(F)cc(S(=O)(=O)[O-])cc4F)c4ccc([nH]4)c(-c4c(F)cc(S(=O)(=O)[O-])cc4F)c4nc(c(-c5c(F)cc(S(=O)(=O)[O-])cc5F)c5ccc2[nH]5)C=C4)C=C3)cc1)[C@@H](O)c1cccs1
REMARK SMILES IDX 9 1 8 2 7 3 6 4 5 5 3 6 4 7 2 9 1 10 81 14 82 15 83 17 84 18
REMARK SMILES IDX 87 19 85 20 86 21 10 22 11 23 12 24 13 25 14 27 15 28 16 29
REMARK SMILES IDX 80 30 17 31 79 32 18 33 19 34 20 35 73 36 21 37 78 38 72 39
REMARK SMILES IDX 74 40 22 41 77 42 71 43 70 44 23 46 57 47 36 48 56 49 37 50
REMARK SMILES IDX 40 51 55 52 75 53 38 54 39 55 54 57 76 58 41 59 24 60 25 61
REMARK SMILES IDX 34 62 26 63 27 64 33 65 35 66 28 67 29 68 30 69 31 70 32 71
REMARK SMILES IDX 58 72 59 73 68 74 60 75 61 76 67 77 69 78 62 79 63 80 64 81
REMARK SMILES IDX 65 82 66 83 42 84 43 85 52 86 44 87 45 88 51 89 53 90 46 91
REMARK SMILES IDX 47 92 48 93 49 94 50 95
REMARK H PARENT 5 8 1 11 1 12 1 13 82 16 12 26 74 45 40 56
REMARK Flexibility Score: inf
ROOT
ATOM      1  C   UNL A   1      44.398  24.161  25.604  1.00  0.00     0.002 C 
ENDROOT
BRANCH   1   2
ATOM      2  C   UNL A   1      45.779  23.507  25.490  1.00  0.00     0.002 C 
BRANCH   2   3
ATOM      3  C   UNL A   1      45.948  22.557  24.294  1.00  0.00     0.021 C 
BRANCH   3   4
ATOM      4  C   UNL A   1      44.631  21.969  23.782  1.00  0.00     0.116 C 
BRANCH   4   5
ATOM      5  N   UNL A   1      44.872  20.661  23.204  1.00  0.00    -0.351 N 
ATOM      6  C   UNL A   1      45.043  19.462  23.831  1.00  0.00     0.281 C 
ATOM      7  O   UNL A   1      45.588  18.552  23.203  1.00  0.00    -0.268 OA
ATOM      8  H   UNL A   1      44.918  20.634  22.221  1.00  0.00     0.163 HD
BRANCH   6   9
ATOM      9  C   UNL A   1      44.601  19.312  25.295  1.00  0.00     0.305 C 
BRANCH   9  10
ATOM     10  N   UNL A   1      45.281  18.134  25.920  1.00  0.00    -0.345 N 
ATOM     11  H   UNL A   1      44.600  17.390  26.072  1.00  0.00     0.345 HD
ATOM     12  H   UNL A   1      45.687  18.411  26.813  1.00  0.00     0.345 HD
ATOM     13  H   UNL A   1      46.018  17.799  25.300  1.00  0.00     0.345 HD
ENDBRANCH   9  10
BRANCH   9  14
ATOM     14  C   UNL A   1      43.067  19.119  25.370  1.00  0.00     0.222 C 
BRANCH  14  15
ATOM     15  O   UNL A   1      42.770  17.805  25.863  1.00  0.00    -0.381 OA
ATOM     16  H   UNL A   1      42.929  17.153  25.163  1.00  0.00     0.211 HD
ENDBRANCH  14  15
BRANCH  14  17
ATOM     17  C   UNL A   1      42.374  20.117  26.262  1.00  0.00     0.040 A 
ATOM     18  C   UNL A   1      42.973  21.131  26.989  1.00  0.00     0.018 A 
ATOM     19  S   UNL A   1      40.683  20.067  26.550  1.00  0.00    -0.146 S 
ATOM     20  C   UNL A   1      42.048  21.846  27.800  1.00  0.00     0.012 A 
ATOM     21  C   UNL A   1      40.766  21.366  27.658  1.00  0.00     0.065 A 
ENDBRANCH  14  17
ENDBRANCH   9  14
ENDBRANCH   6   9
ENDBRANCH   4   5
ENDBRANCH   3   4
ENDBRANCH   2   3
ENDBRANCH   1   2
BRANCH   1  22
ATOM     22  C   UNL A   1      44.415  25.689  25.662  1.00  0.00     0.021 C 
BRANCH  22  23
ATOM     23  C   UNL A   1      43.087  26.349  25.306  1.00  0.00     0.116 C 
BRANCH  23  24
ATOM     24  N   UNL A   1      41.990  25.395  25.292  1.00  0.00    -0.352 N 
ATOM     25  C   UNL A   1      40.983  25.222  26.207  1.00  0.00     0.251 C 
ATOM     26  H   UNL A   1      41.966  24.788  24.516  1.00  0.00     0.163 HD
ATOM     27  O   UNL A   1      40.255  24.232  26.135  1.00  0.00    -0.269 OA
BRANCH  25  28
ATOM     28  C   UNL A   1      40.787  26.212  27.286  1.00  0.00     0.039 A 
ATOM     29  C   UNL A   1      39.905  25.913  28.328  1.00  0.00     0.014 A 
ATOM     30  C   UNL A   1      41.465  27.434  27.270  1.00  0.00     0.014 A 
ATOM     31  C   UNL A   1      39.745  26.818  29.380  1.00  0.00     0.010 A 
ATOM     32  C   UNL A   1      41.361  28.301  28.355  1.00  0.00     0.010 A 
ATOM     33  C   UNL A   1      40.494  28.006  29.417  1.00  0.00    -0.014 A 
BRANCH  33  34
ATOM     34  C   UNL A   1      40.378  28.951  30.558  1.00  0.00     0.031 A 
ATOM     35  C   UNL A   1      41.254  28.784  31.771  1.00  0.00     0.074 A 
ATOM     36  C   UNL A   1      39.446  29.924  30.526  1.00  0.00     0.049 A 
ATOM     37  N   UNL A   1      41.264  29.473  32.884  1.00  0.00    -0.248 NA
ATOM     38  C   UNL A   1      42.230  27.683  31.741  1.00  0.00     0.031 C 
ATOM     39  C   UNL A   1      38.505  30.158  29.427  1.00  0.00     0.029 A 
ATOM     40  N   UNL A   1      39.130  30.896  31.443  1.00  0.00    -0.354 N 
ATOM     41  C   UNL A   1      42.234  28.883  33.687  1.00  0.00     0.074 A 
ATOM     42  C   UNL A   1      42.751  27.747  32.956  1.00  0.00     0.031 C 
ATOM     43  C   UNL A   1      37.736  31.218  29.725  1.00  0.00     0.029 A 
ATOM     44  C   UNL A   1      38.100  31.716  31.046  1.00  0.00     0.049 A 
ATOM     45  H   UNL A   1      39.597  30.995  32.304  1.00  0.00     0.167 HD
ATOM     46  C   UNL A   1      42.670  29.269  34.910  1.00  0.00     0.037 A 
ATOM     47  C   UNL A   1      37.512  32.750  31.680  1.00  0.00     0.037 A 
ATOM     48  C   UNL A   1      42.167  30.416  35.620  1.00  0.00     0.049 A 
ATOM     49  C   UNL A   1      38.013  33.158  33.039  1.00  0.00     0.074 A 
ATOM     50  C   UNL A   1      42.582  30.923  36.839  1.00  0.00     0.029 A 
ATOM     51  N   UNL A   1      41.136  31.233  35.179  1.00  0.00    -0.354 N 
ATOM     52  N   UNL A   1      38.975  32.628  33.757  1.00  0.00    -0.248 NA
ATOM     53  C   UNL A   1      37.355  34.309  33.672  1.00  0.00     0.031 C 
ATOM     54  C   UNL A   1      41.770  32.017  37.157  1.00  0.00     0.029 A 
ATOM     55  C   UNL A   1      40.887  32.227  36.111  1.00  0.00     0.049 A 
ATOM     56  H   UNL A   1      40.653  31.123  34.328  1.00  0.00     0.167 HD
ATOM     57  C   UNL A   1      39.059  33.399  34.911  1.00  0.00     0.074 A 
ATOM     58  C   UNL A   1      38.057  34.438  34.790  1.00  0.00     0.031 C 
ATOM     59  C   UNL A   1      39.890  33.261  35.973  1.00  0.00     0.037 A 
BRANCH  46  60
ATOM     60  C   UNL A   1      43.752  28.445  35.557  1.00  0.00     0.058 A 
ATOM     61  C   UNL A   1      43.450  27.388  36.432  1.00  0.00     0.135 A 
ATOM     62  C   UNL A   1      45.104  28.692  35.273  1.00  0.00     0.135 A 
ATOM     63  F   UNL A   1      42.176  27.116  36.751  1.00  0.00    -0.206 F 
ATOM     64  C   UNL A   1      44.452  26.627  37.027  1.00  0.00     0.059 A 
ATOM     65  C   UNL A   1      46.121  27.923  35.833  1.00  0.00     0.059 A 
ATOM     66  F   UNL A   1      45.451  29.689  34.444  1.00  0.00    -0.206 F 
ATOM     67  C   UNL A   1      45.785  26.903  36.721  1.00  0.00     0.060 A 
BRANCH  67  68
ATOM     68  S   UNL A   1      47.072  25.904  37.500  1.00  0.00     0.124 S 
ATOM     69  O   UNL A   1      46.813  24.591  36.916  1.00  0.00    -0.237 OA
ATOM     70  O   UNL A   1      48.294  26.566  37.051  1.00  0.00    -0.237 OA
ATOM     71  O   UNL A   1      46.783  26.025  38.924  1.00  0.00    -0.744 OA
ENDBRANCH  67  68
ENDBRANCH  46  60
BRANCH  47  72
ATOM     72  C   UNL A   1      36.400  33.488  31.023  1.00  0.00     0.058 A 
ATOM     73  C   UNL A   1      35.091  33.415  31.521  1.00  0.00     0.135 A 
ATOM     74  C   UNL A   1      36.624  34.289  29.892  1.00  0.00     0.135 A 
ATOM     75  F   UNL A   1      34.824  32.657  32.596  1.00  0.00    -0.206 F 
ATOM     76  C   UNL A   1      34.039  34.093  30.913  1.00  0.00     0.059 A 
ATOM     77  C   UNL A   1      35.595  34.998  29.282  1.00  0.00     0.059 A 
ATOM     78  F   UNL A   1      37.862  34.408  29.386  1.00  0.00    -0.206 F 
ATOM     79  C   UNL A   1      34.302  34.885  29.794  1.00  0.00     0.060 A 
BRANCH  79  80
ATOM     80  S   UNL A   1      32.938  35.798  29.040  1.00  0.00     0.124 S 
ATOM     81  O   UNL A   1      32.359  34.789  28.161  1.00  0.00    -0.237 OA
ATOM     82  O   UNL A   1      32.138  36.169  30.204  1.00  0.00    -0.237 OA
ATOM     83  O   UNL A   1      33.609  36.909  28.371  1.00  0.00    -0.744 OA
ENDBRANCH  79  80
ENDBRANCH  47  72
BRANCH  59  84
ATOM     84  C   UNL A   1      39.781  34.279  37.076  1.00  0.00     0.058 A 
ATOM     85  C   UNL A   1      40.438  35.518  37.009  1.00  0.00     0.135 A 
ATOM     86  C   UNL A   1      38.969  34.028  38.194  1.00  0.00     0.135 A 
ATOM     87  F   UNL A   1      41.232  35.806  35.965  1.00  0.00    -0.206 F 
ATOM     88  C   UNL A   1      40.316  36.461  38.024  1.00  0.00     0.059 A 
ATOM     89  C   UNL A   1      38.808  34.968  39.206  1.00  0.00     0.059 A 
ATOM     90  F   UNL A   1      38.309  32.864  38.304  1.00  0.00    -0.206 F 
ATOM     91  C   UNL A   1      39.497  36.177  39.119  1.00  0.00     0.060 A 
BRANCH  91  92
ATOM     92  S   UNL A   1      39.325  37.421  40.415  1.00  0.00     0.124 S 
ATOM     93  O   UNL A   1      39.004  36.594  41.574  1.00  0.00    -0.237 OA
ATOM     94  O   UNL A   1      40.645  38.045  40.428  1.00  0.00    -0.237 OA
ATOM     95  O   UNL A   1      38.241  38.270  39.931  1.00  0.00    -0.744 OA
ENDBRANCH  91  92
ENDBRANCH  59  84
ENDBRANCH  33  34
ENDBRANCH  25  28
ENDBRANCH  23  24
ENDBRANCH  22  23
ENDBRANCH   1  22
TORSDOF 20
ENDMDL
MODEL 3
REMARK VINA RESULT:      -9.8      7.083     13.839
REMARK SMILES [NH3+][C@@H](C(=O)NCCCCCCNC(=O)c1ccc(-c2c3nc(c(-c4c(F)cc(S(=O)(=O)[O-])cc4F)c4ccc([nH]4)c(-c4c(F)cc(S(=O)(=O)[O-])cc4F)c4nc(c(-c5c(F)cc(S(=O)(=O)[O-])cc5F)c5ccc2[nH]5)C=C4)C=C3)cc1)[C@@H](O)c1cccs1
REMARK SMILES IDX 9 1 8 2 7 3 6 4 5 5 3 6 4 7 2 9 1 10 81 14 82 15 83 17 84 18
REMARK SMILES IDX 87 19 85 20 86 21 10 22 11 23 12 24 13 25 14 27 15 28 16 29
REMARK SMILES IDX 80 30 17 31 79 32 18 33 19 34 20 35 73 36 21 37 78 38 72 39
REMARK SMILES IDX 74 40 22 41 77 42 71 43 70 44 23 46 57 47 36 48 56 49 37 50
REMARK SMILES IDX 40 51 55 52 75 53 38 54 39 55 54 57 76 58 41 59 24 60 25 61
REMARK SMILES IDX 34 62 26 63 27 64 33 65 35 66 28 67 29 68 30 69 31 70 32 71
REMARK SMILES IDX 58 72 59 73 68 74 60 75 61 76 67 77 69 78 62 79 63 80 64 81
REMARK SMILES IDX 65 82 66 83 42 84 43 85 52 86 44 87 45 88 51 89 53 90 46 91
REMARK SMILES IDX 47 92 48 93 49 94 50 95
REMARK H PARENT 5 8 1 11 1 12 1 13 82 16 12 26 74 45 40 56
REMARK Flexibility Score: inf
ROOT
ATOM      1  C   UNL A   1      36.244  23.398  26.053  1.00  0.00     0.002 C 
ENDROOT
BRANCH   1   2
ATOM      2  C   UNL A   1      35.151  23.960  25.139  1.00  0.00     0.002 C 
BRANCH   2   3
ATOM      3  C   UNL A   1      34.715  23.024  24.002  1.00  0.00     0.021 C 
BRANCH   3   4
ATOM      4  C   UNL A   1      34.881  21.538  24.327  1.00  0.00     0.116 C 
BRANCH   4   5
ATOM      5  N   UNL A   1      33.720  21.063  25.055  1.00  0.00    -0.351 N 
ATOM      6  C   UNL A   1      32.608  20.430  24.582  1.00  0.00     0.281 C 
ATOM      7  O   UNL A   1      31.595  20.435  25.284  1.00  0.00    -0.268 OA
ATOM      8  H   UNL A   1      33.736  21.220  26.027  1.00  0.00     0.163 HD
BRANCH   6   9
ATOM      9  C   UNL A   1      32.649  19.786  23.187  1.00  0.00     0.305 C 
BRANCH   9  10
ATOM     10  N   UNL A   1      31.887  20.625  22.210  1.00  0.00    -0.345 N 
ATOM     11  H   UNL A   1      32.224  20.439  21.266  1.00  0.00     0.345 HD
ATOM     12  H   UNL A   1      32.022  21.612  22.431  1.00  0.00     0.345 HD
ATOM     13  H   UNL A   1      30.895  20.397  22.269  1.00  0.00     0.345 HD
ENDBRANCH   9  10
BRANCH   9  14
ATOM     14  C   UNL A   1      32.031  18.367  23.238  1.00  0.00     0.222 C 
BRANCH  14  15
ATOM     15  O   UNL A   1      31.898  17.852  21.906  1.00  0.00    -0.381 OA
ATOM     16  H   UNL A   1      30.979  17.582  21.754  1.00  0.00     0.211 HD
ENDBRANCH  14  15
BRANCH  14  17
ATOM     17  C   UNL A   1      32.844  17.382  24.037  1.00  0.00     0.040 A 
ATOM     18  C   UNL A   1      32.462  16.753  25.209  1.00  0.00     0.018 A 
ATOM     19  S   UNL A   1      34.447  16.952  23.602  1.00  0.00    -0.146 S 
ATOM     20  C   UNL A   1      33.493  15.944  25.761  1.00  0.00     0.012 A 
ATOM     21  C   UNL A   1      34.629  15.965  24.986  1.00  0.00     0.065 A 
ENDBRANCH  14  17
ENDBRANCH   9  14
ENDBRANCH   6   9
ENDBRANCH   4   5
ENDBRANCH   3   4
ENDBRANCH   2   3
ENDBRANCH   1   2
BRANCH   1  22
ATOM     22  C   UNL A   1      37.674  23.744  25.632  1.00  0.00     0.021 C 
BRANCH  22  23
ATOM     23  C   UNL A   1      38.663  23.854  26.787  1.00  0.00     0.116 C 
BRANCH  23  24
ATOM     24  N   UNL A   1      40.043  23.824  26.328  1.00  0.00    -0.352 N 
ATOM     25  C   UNL A   1      41.057  24.712  26.580  1.00  0.00     0.251 C 
ATOM     26  H   UNL A   1      40.282  23.058  25.757  1.00  0.00     0.163 HD
ATOM     27  O   UNL A   1      42.109  24.636  25.945  1.00  0.00    -0.269 OA
BRANCH  25  28
ATOM     28  C   UNL A   1      40.879  25.769  27.598  1.00  0.00     0.039 A 
ATOM     29  C   UNL A   1      39.820  25.665  28.504  1.00  0.00     0.014 A 
ATOM     30  C   UNL A   1      41.748  26.861  27.657  1.00  0.00     0.014 A 
ATOM     31  C   UNL A   1      39.666  26.630  29.502  1.00  0.00     0.010 A 
ATOM     32  C   UNL A   1      41.639  27.781  28.697  1.00  0.00     0.010 A 
ATOM     33  C   UNL A   1      40.592  27.680  29.625  1.00  0.00    -0.014 A 
BRANCH  33  34
ATOM     34  C   UNL A   1      40.475  28.682  30.717  1.00  0.00     0.031 A 
ATOM     35  C   UNL A   1      41.342  28.570  31.943  1.00  0.00     0.074 A 
ATOM     36  C   UNL A   1      39.551  29.658  30.630  1.00  0.00     0.049 A 
ATOM     37  N   UNL A   1      41.351  29.313  33.019  1.00  0.00    -0.248 NA
ATOM     38  C   UNL A   1      42.311  27.462  31.974  1.00  0.00     0.031 C 
ATOM     39  C   UNL A   1      38.618  29.843  29.514  1.00  0.00     0.029 A 
ATOM     40  N   UNL A   1      39.236  30.677  31.495  1.00  0.00    -0.354 N 
ATOM     41  C   UNL A   1      42.311  28.758  33.857  1.00  0.00     0.074 A 
ATOM     42  C   UNL A   1      42.824  27.583  33.188  1.00  0.00     0.031 C 
ATOM     43  C   UNL A   1      37.855  30.922  29.754  1.00  0.00     0.029 A 
ATOM     44  C   UNL A   1      38.215  31.483  31.051  1.00  0.00     0.049 A 
ATOM     45  H   UNL A   1      39.698  30.816  32.353  1.00  0.00     0.167 HD
ATOM     46  C   UNL A   1      42.743  29.201  35.062  1.00  0.00     0.037 A 
ATOM     47  C   UNL A   1      37.630  32.552  31.628  1.00  0.00     0.037 A 
ATOM     48  C   UNL A   1      42.243  30.386  35.711  1.00  0.00     0.049 A 
ATOM     49  C   UNL A   1      38.125  33.024  32.969  1.00  0.00     0.074 A 
ATOM     50  C   UNL A   1      42.654  30.950  36.906  1.00  0.00     0.029 A 
ATOM     51  N   UNL A   1      41.220  31.187  35.222  1.00  0.00    -0.354 N 
ATOM     52  N   UNL A   1      39.079  32.523  33.718  1.00  0.00    -0.248 NA
ATOM     53  C   UNL A   1      37.472  34.209  33.539  1.00  0.00     0.031 C 
ATOM     54  C   UNL A   1      41.848  32.065  37.163  1.00  0.00     0.029 A 
ATOM     55  C   UNL A   1      40.973  32.228  36.102  1.00  0.00     0.049 A 
ATOM     56  H   UNL A   1      40.742  31.038  34.375  1.00  0.00     0.167 HD
ATOM     57  C   UNL A   1      39.161  33.350  34.833  1.00  0.00     0.074 A 
ATOM     58  C   UNL A   1      38.167  34.389  34.654  1.00  0.00     0.031 C 
ATOM     59  C   UNL A   1      39.985  33.260  35.907  1.00  0.00     0.037 A 
BRANCH  46  60
ATOM     60  C   UNL A   1      43.814  28.403  35.757  1.00  0.00     0.058 A 
ATOM     61  C   UNL A   1      43.499  27.361  36.644  1.00  0.00     0.135 A 
ATOM     62  C   UNL A   1      45.171  28.660  35.507  1.00  0.00     0.135 A 
ATOM     63  F   UNL A   1      42.219  27.080  36.932  1.00  0.00    -0.206 F 
ATOM     64  C   UNL A   1      44.491  26.624  37.283  1.00  0.00     0.059 A 
ATOM     65  C   UNL A   1      46.180  27.915  36.111  1.00  0.00     0.059 A 
ATOM     66  F   UNL A   1      45.531  29.644  34.668  1.00  0.00    -0.206 F 
ATOM     67  C   UNL A   1      45.830  26.909  37.010  1.00  0.00     0.060 A 
BRANCH  67  68
ATOM     68  S   UNL A   1      47.105  25.941  37.846  1.00  0.00     0.124 S 
ATOM     69  O   UNL A   1      48.246  26.135  36.955  1.00  0.00    -0.237 OA
ATOM     70  O   UNL A   1      47.196  26.601  39.144  1.00  0.00    -0.237 OA
ATOM     71  O   UNL A   1      46.549  24.593  37.868  1.00  0.00    -0.744 OA
ENDBRANCH  67  68
ENDBRANCH  46  60
BRANCH  47  72
ATOM     72  C   UNL A   1      36.527  33.263  30.928  1.00  0.00     0.058 A 
ATOM     73  C   UNL A   1      35.188  33.051  31.286  1.00  0.00     0.135 A 
ATOM     74  C   UNL A   1      36.790  34.177  29.895  1.00  0.00     0.135 A 
ATOM     75  F   UNL A   1      34.885  32.183  32.263  1.00  0.00    -0.206 F 
ATOM     76  C   UNL A   1      34.145  33.703  30.635  1.00  0.00     0.059 A 
ATOM     77  C   UNL A   1      35.767  34.863  29.247  1.00  0.00     0.059 A 
ATOM     78  F   UNL A   1      38.055  34.431  29.525  1.00  0.00    -0.206 F 
ATOM     79  C   UNL A   1      34.446  34.610  29.618  1.00  0.00     0.060 A 
BRANCH  79  80
ATOM     80  S   UNL A   1      33.088  35.486  28.811  1.00  0.00     0.124 S 
ATOM     81  O   UNL A   1      32.427  34.404  28.091  1.00  0.00    -0.237 OA
ATOM     82  O   UNL A   1      32.360  36.037  29.949  1.00  0.00    -0.237 OA
ATOM     83  O   UNL A   1      33.773  36.472  27.979  1.00  0.00    -0.744 OA
ENDBRANCH  79  80
ENDBRANCH  47  72
BRANCH  59  84
ATOM     84  C   UNL A   1      39.876  34.333  36.956  1.00  0.00     0.058 A 
ATOM     85  C   UNL A   1      40.585  35.540  36.858  1.00  0.00     0.135 A 
ATOM     86  C   UNL A   1      39.012  34.167  38.052  1.00  0.00     0.135 A 
ATOM     87  F   UNL A   1      41.428  35.748  35.834  1.00  0.00    -0.206 F 
ATOM     88  C   UNL A   1      40.463  36.535  37.823  1.00  0.00     0.059 A 
ATOM     89  C   UNL A   1      38.853  35.160  39.012  1.00  0.00     0.059 A 
ATOM     90  F   UNL A   1      38.302  33.036  38.189  1.00  0.00    -0.206 F 
ATOM     91  C   UNL A   1      39.593  36.335  38.897  1.00  0.00     0.060 A 
BRANCH  91  92
ATOM     92  S   UNL A   1      39.423  37.645  40.128  1.00  0.00     0.124 S 
ATOM     93  O   UNL A   1      40.712  38.319  40.018  1.00  0.00    -0.237 OA
ATOM     94  O   UNL A   1      38.272  38.393  39.631  1.00  0.00    -0.237 OA
ATOM     95  O   UNL A   1      39.200  36.916  41.372  1.00  0.00    -0.744 OA
ENDBRANCH  91  92
ENDBRANCH  59  84
ENDBRANCH  33  34
ENDBRANCH  25  28
ENDBRANCH  23  24
ENDBRANCH  22  23
ENDBRANCH   1  22
TORSDOF 20
ENDMDL
