MODEL 1
REMARK VINA RESULT:     -12.5      0.000      0.000
REMARK SMILES Cc1c(CC(=O)NCCCCCCNC(=O)c2ccc(-c3c4nc(c(-c5c(F)cc(S(=O)(=O)[O-])cc5F)c5ccc([nH]5)c(-c5c(F)cc(S(=O)(=O)[O-])cc5F)c5nc(c(-c6c(F)cc(S(=O)(=O)[O-])cc6F)c6ccc3[nH]6)C=C5)C=C4)cc2)cc(-c2ccc(S(C)(=O)=O)cc2)n1-c1cccc(F)c1
REMARK SMILES IDX 10 1 9 2 8 3 7 4 5 5 6 6 4 8 3 9 1 10 2 11 95 12 83 13 84 14
REMARK SMILES IDX 96 15 97 16 102 17 98 18 100 19 99 20 101 21 85 22 86 23
REMARK SMILES IDX 94 24 87 25 93 26 88 27 89 28 90 29 91 30 92 31 11 32 12 33
REMARK SMILES IDX 13 34 14 35 15 36 16 38 17 39 18 40 82 41 19 42 81 43 20 44
REMARK SMILES IDX 21 45 22 46 75 47 23 48 80 49 74 50 76 51 24 52 79 53 73 54
REMARK SMILES IDX 72 55 25 57 59 58 38 59 58 60 39 61 42 62 57 63 77 64 40 65
REMARK SMILES IDX 41 66 56 68 78 69 43 70 26 71 27 72 36 73 28 74 29 75 35 76
REMARK SMILES IDX 37 77 30 78 31 79 32 80 33 81 34 82 60 83 61 84 70 85 62 86
REMARK SMILES IDX 63 87 69 88 71 89 64 90 65 91 66 92 67 93 68 94 44 95 45 96
REMARK SMILES IDX 54 97 46 98 47 99 53 100 55 101 48 102 49 103 50 104 51 105
REMARK SMILES IDX 52 106
REMARK H PARENT 7 7 14 37 76 56 42 67
REMARK Flexibility Score: inf
ROOT
ATOM      1  C   UNL A   1      36.358  21.275  25.748  1.00  0.00     0.002 C 
ENDROOT
BRANCH   1   2
ATOM      2  C   UNL A   1      35.245  20.666  24.887  1.00  0.00     0.021 C 
BRANCH   2   3
ATOM      3  C   UNL A   1      33.839  21.151  25.240  1.00  0.00     0.116 C 
BRANCH   3   4
ATOM      4  N   UNL A   1      32.922  20.989  24.126  1.00  0.00    -0.356 N 
ATOM      5  C   UNL A   1      32.735  21.796  23.039  1.00  0.00     0.224 C 
ATOM      6  O   UNL A   1      31.862  21.487  22.224  1.00  0.00    -0.275 OA
ATOM      7  H   UNL A   1      32.355  20.185  24.157  1.00  0.00     0.163 HD
BRANCH   5   8
ATOM      8  C   UNL A   1      33.632  23.001  22.809  1.00  0.00     0.137 C 
BRANCH   8   9
ATOM      9  C   UNL A   1      33.100  24.269  23.397  1.00  0.00    -0.017 A 
ATOM     10  C   UNL A   1      34.423  24.435  25.618  1.00  0.00     0.065 C 
ATOM     11  C   UNL A   1      33.467  24.908  24.576  1.00  0.00     0.024 A 
ATOM     12  N   UNL A   1      32.730  26.087  24.689  1.00  0.00    -0.313 N 
ATOM     13  C   UNL A   1      32.071  25.039  22.817  1.00  0.00     0.033 A 
ATOM     14  C   UNL A   1      31.881  26.164  23.589  1.00  0.00     0.053 A 
BRANCH  12  15
ATOM     15  C   UNL A   1      32.827  27.057  25.730  1.00  0.00     0.049 A 
ATOM     16  C   UNL A   1      31.763  27.234  26.630  1.00  0.00     0.027 A 
ATOM     17  C   UNL A   1      33.939  27.901  25.793  1.00  0.00     0.065 A 
ATOM     18  C   UNL A   1      31.804  28.261  27.576  1.00  0.00     0.005 A 
ATOM     19  C   UNL A   1      33.961  28.922  26.738  1.00  0.00     0.125 A 
ATOM     20  C   UNL A   1      32.905  29.114  27.625  1.00  0.00     0.039 A 
ATOM     21  F   UNL A   1      35.011  29.752  26.779  1.00  0.00    -0.207 F 
ENDBRANCH  12  15
BRANCH  14  22
ATOM     22  C   UNL A   1      30.984  27.266  23.281  1.00  0.00    -0.001 A 
ATOM     23  C   UNL A   1      31.465  28.473  22.758  1.00  0.00     0.011 A 
ATOM     24  C   UNL A   1      29.615  27.089  23.525  1.00  0.00     0.011 A 
ATOM     25  C   UNL A   1      30.586  29.527  22.556  1.00  0.00     0.021 A 
ATOM     26  C   UNL A   1      28.735  28.130  23.318  1.00  0.00     0.021 A 
ATOM     27  C   UNL A   1      29.235  29.342  22.866  1.00  0.00     0.067 A 
BRANCH  27  28
ATOM     28  S   UNL A   1      28.114  30.681  22.662  1.00  0.00     0.175 S 
ATOM     29  C   UNL A   1      28.027  30.798  20.877  1.00  0.00     0.163 C 
ATOM     30  O   UNL A   1      26.904  30.198  23.272  1.00  0.00    -0.224 OA
ATOM     31  O   UNL A   1      28.773  31.884  23.151  1.00  0.00    -0.224 OA
ENDBRANCH  27  28
ENDBRANCH  14  22
ENDBRANCH   8   9
ENDBRANCH   5   8
ENDBRANCH   3   4
ENDBRANCH   2   3
ENDBRANCH   1   2
BRANCH   1  32
ATOM     32  C   UNL A   1      37.698  21.509  25.039  1.00  0.00     0.002 C 
BRANCH  32  33
ATOM     33  C   UNL A   1      38.904  20.685  25.533  1.00  0.00     0.021 C 
BRANCH  33  34
ATOM     34  C   UNL A   1      39.932  21.387  26.449  1.00  0.00     0.116 C 
BRANCH  34  35
ATOM     35  N   UNL A   1      41.107  21.877  25.768  1.00  0.00    -0.352 N 
ATOM     36  C   UNL A   1      41.848  23.021  26.024  1.00  0.00     0.251 C 
ATOM     37  H   UNL A   1      41.425  21.324  25.018  1.00  0.00     0.163 HD
ATOM     38  O   UNL A   1      42.812  23.234  25.289  1.00  0.00    -0.269 OA
BRANCH  36  39
ATOM     39  C   UNL A   1      41.450  24.049  27.065  1.00  0.00     0.039 A 
ATOM     40  C   UNL A   1      40.193  24.616  26.959  1.00  0.00     0.014 A 
ATOM     41  C   UNL A   1      42.327  24.673  27.975  1.00  0.00     0.014 A 
ATOM     42  C   UNL A   1      39.817  25.725  27.782  1.00  0.00     0.010 A 
ATOM     43  C   UNL A   1      41.962  25.871  28.750  1.00  0.00     0.010 A 
ATOM     44  C   UNL A   1      40.687  26.465  28.675  1.00  0.00    -0.014 A 
BRANCH  44  45
ATOM     45  C   UNL A   1      40.218  28.022  28.990  1.00  0.00     0.031 A 
ATOM     46  C   UNL A   1      41.376  28.772  28.436  1.00  0.00     0.074 A 
ATOM     47  C   UNL A   1      39.304  28.851  29.666  1.00  0.00     0.049 A 
ATOM     48  N   UNL A   1      42.568  28.470  28.875  1.00  0.00    -0.248 NA
ATOM     49  C   UNL A   1      41.358  29.494  27.167  1.00  0.00     0.031 C 
ATOM     50  C   UNL A   1      38.306  28.466  30.667  1.00  0.00     0.029 A 
ATOM     51  N   UNL A   1      39.005  30.261  29.627  1.00  0.00    -0.354 N 
ATOM     52  C   UNL A   1      43.450  29.225  28.154  1.00  0.00     0.074 A 
ATOM     53  C   UNL A   1      42.677  29.624  26.978  1.00  0.00     0.031 C 
ATOM     54  C   UNL A   1      37.380  29.440  30.915  1.00  0.00     0.029 A 
ATOM     55  C   UNL A   1      37.745  30.681  30.240  1.00  0.00     0.049 A 
ATOM     56  H   UNL A   1      39.618  30.907  29.209  1.00  0.00     0.167 HD
ATOM     57  C   UNL A   1      44.267  29.998  28.928  1.00  0.00     0.037 A 
ATOM     58  C   UNL A   1      37.122  31.933  30.367  1.00  0.00     0.037 A 
ATOM     59  C   UNL A   1      43.745  31.331  29.071  1.00  0.00     0.049 A 
ATOM     60  C   UNL A   1      38.258  32.850  30.476  1.00  0.00     0.074 A 
ATOM     61  C   UNL A   1      43.207  32.219  28.160  1.00  0.00     0.029 A 
ATOM     62  N   UNL A   1      43.270  31.697  30.315  1.00  0.00    -0.354 N 
ATOM     63  N   UNL A   1      38.992  32.917  31.545  1.00  0.00    -0.248 NA
ATOM     64  C   UNL A   1      38.604  33.768  29.401  1.00  0.00     0.031 C 
ATOM     65  C   UNL A   1      42.043  32.696  28.792  1.00  0.00     0.029 A 
ATOM     66  C   UNL A   1      42.142  32.472  30.160  1.00  0.00     0.049 A 
ATOM     67  H   UNL A   1      43.673  31.443  31.177  1.00  0.00     0.167 HD
ATOM     68  C   UNL A   1      40.156  33.424  31.062  1.00  0.00     0.074 A 
ATOM     69  C   UNL A   1      39.783  34.174  29.874  1.00  0.00     0.031 C 
ATOM     70  C   UNL A   1      41.276  32.694  31.293  1.00  0.00     0.037 A 
BRANCH  57  71
ATOM     71  C   UNL A   1      44.952  29.246  30.040  1.00  0.00     0.058 A 
ATOM     72  C   UNL A   1      46.342  29.105  29.998  1.00  0.00     0.135 A 
ATOM     73  C   UNL A   1      44.267  28.597  31.094  1.00  0.00     0.135 A 
ATOM     74  F   UNL A   1      47.052  29.719  29.039  1.00  0.00    -0.206 F 
ATOM     75  C   UNL A   1      47.023  28.338  30.941  1.00  0.00     0.059 A 
ATOM     76  C   UNL A   1      44.920  27.786  32.016  1.00  0.00     0.059 A 
ATOM     77  F   UNL A   1      42.944  28.767  31.259  1.00  0.00    -0.206 F 
ATOM     78  C   UNL A   1      46.303  27.670  31.936  1.00  0.00     0.060 A 
BRANCH  78  79
ATOM     79  S   UNL A   1      47.208  26.654  33.122  1.00  0.00     0.124 S 
ATOM     80  O   UNL A   1      46.145  26.196  34.016  1.00  0.00    -0.237 OA
ATOM     81  O   UNL A   1      47.777  25.627  32.256  1.00  0.00    -0.237 OA
ATOM     82  O   UNL A   1      48.157  27.584  33.724  1.00  0.00    -0.744 OA
ENDBRANCH  78  79
ENDBRANCH  57  71
BRANCH  58  83
ATOM     83  C   UNL A   1      35.801  32.729  30.697  1.00  0.00     0.058 A 
ATOM     84  C   UNL A   1      35.634  33.420  31.952  1.00  0.00     0.135 A 
ATOM     85  C   UNL A   1      34.927  33.210  29.706  1.00  0.00     0.135 A 
ATOM     86  F   UNL A   1      36.341  33.068  33.036  1.00  0.00    -0.206 F 
ATOM     87  C   UNL A   1      34.816  34.554  32.155  1.00  0.00     0.059 A 
ATOM     88  C   UNL A   1      34.068  34.338  29.897  1.00  0.00     0.059 A 
ATOM     89  F   UNL A   1      34.942  32.660  28.484  1.00  0.00    -0.206 F 
ATOM     90  C   UNL A   1      34.061  35.039  31.105  1.00  0.00     0.060 A 
BRANCH  90  91
ATOM     91  S   UNL A   1      33.217  36.650  31.301  1.00  0.00     0.124 S 
ATOM     92  O   UNL A   1      33.279  37.214  29.957  1.00  0.00    -0.237 OA
ATOM     93  O   UNL A   1      31.886  36.254  31.756  1.00  0.00    -0.237 OA
ATOM     94  O   UNL A   1      34.027  37.336  32.304  1.00  0.00    -0.744 OA
ENDBRANCH  90  91
ENDBRANCH  58  83
BRANCH  70  95
ATOM     95  C   UNL A   1      41.447  32.093  32.681  1.00  0.00     0.058 A 
ATOM     96  C   UNL A   1      41.878  32.756  33.854  1.00  0.00     0.135 A 
ATOM     97  C   UNL A   1      41.245  30.708  32.807  1.00  0.00     0.135 A 
ATOM     98  F   UNL A   1      42.014  34.089  33.909  1.00  0.00    -0.206 F 
ATOM     99  C   UNL A   1      42.185  32.070  35.035  1.00  0.00     0.059 A 
ATOM    100  C   UNL A   1      41.494  30.010  33.989  1.00  0.00     0.059 A 
ATOM    101  F   UNL A   1      40.803  30.002  31.754  1.00  0.00    -0.206 F 
ATOM    102  C   UNL A   1      42.007  30.693  35.087  1.00  0.00     0.060 A 
BRANCH 102 103
ATOM    103  S   UNL A   1      42.465  29.805  36.592  1.00  0.00     0.124 S 
ATOM    104  O   UNL A   1      43.852  29.442  36.317  1.00  0.00    -0.237 OA
ATOM    105  O   UNL A   1      42.276  30.816  37.628  1.00  0.00    -0.237 OA
ATOM    106  O   UNL A   1      41.530  28.685  36.625  1.00  0.00    -0.744 OA
ENDBRANCH 102 103
ENDBRANCH  70  95
ENDBRANCH  44  45
ENDBRANCH  36  39
ENDBRANCH  34  35
ENDBRANCH  33  34
ENDBRANCH  32  33
ENDBRANCH   1  32
TORSDOF 20
ENDMDL
MODEL 2
REMARK VINA RESULT:     -12.0      3.917      9.741
REMARK SMILES Cc1c(CC(=O)NCCCCCCNC(=O)c2ccc(-c3c4nc(c(-c5c(F)cc(S(=O)(=O)[O-])cc5F)c5ccc([nH]5)c(-c5c(F)cc(S(=O)(=O)[O-])cc5F)c5nc(c(-c6c(F)cc(S(=O)(=O)[O-])cc6F)c6ccc3[nH]6)C=C5)C=C4)cc2)cc(-c2ccc(S(C)(=O)=O)cc2)n1-c1cccc(F)c1
REMARK SMILES IDX 10 1 9 2 8 3 7 4 5 5 6 6 4 8 3 9 1 10 2 11 95 12 83 13 84 14
REMARK SMILES IDX 96 15 97 16 102 17 98 18 100 19 99 20 101 21 85 22 86 23
REMARK SMILES IDX 94 24 87 25 93 26 88 27 89 28 90 29 91 30 92 31 11 32 12 33
REMARK SMILES IDX 13 34 14 35 15 36 16 38 17 39 18 40 82 41 19 42 81 43 20 44
REMARK SMILES IDX 21 45 22 46 75 47 23 48 80 49 74 50 76 51 24 52 79 53 73 54
REMARK SMILES IDX 72 55 25 57 59 58 38 59 58 60 39 61 42 62 57 63 77 64 40 65
REMARK SMILES IDX 41 66 56 68 78 69 43 70 26 71 27 72 36 73 28 74 29 75 35 76
REMARK SMILES IDX 37 77 30 78 31 79 32 80 33 81 34 82 60 83 61 84 70 85 62 86
REMARK SMILES IDX 63 87 69 88 71 89 64 90 65 91 66 92 67 93 68 94 44 95 45 96
REMARK SMILES IDX 54 97 46 98 47 99 53 100 55 101 48 102 49 103 50 104 51 105
REMARK SMILES IDX 52 106
REMARK H PARENT 7 7 14 37 76 56 42 67
REMARK Flexibility Score: inf
ROOT
ATOM      1  C   UNL A   1      31.867  28.203  27.296  1.00  0.00     0.002 C 
ENDROOT
BRANCH   1   2
ATOM      2  C   UNL A   1      31.700  26.757  26.812  1.00  0.00     0.021 C 
BRANCH   2   3
ATOM      3  C   UNL A   1      30.416  26.502  26.022  1.00  0.00     0.116 C 
BRANCH   3   4
ATOM      4  N   UNL A   1      30.426  27.195  24.746  1.00  0.00    -0.356 N 
ATOM      5  C   UNL A   1      30.312  26.681  23.486  1.00  0.00     0.224 C 
ATOM      6  O   UNL A   1      30.390  27.456  22.528  1.00  0.00    -0.275 OA
ATOM      7  H   UNL A   1      30.530  28.173  24.796  1.00  0.00     0.163 HD
BRANCH   5   8
ATOM      8  C   UNL A   1      30.025  25.204  23.277  1.00  0.00     0.137 C 
BRANCH   8   9
ATOM      9  C   UNL A   1      31.223  24.326  23.452  1.00  0.00    -0.017 A 
ATOM     10  C   UNL A   1      33.158  26.046  23.490  1.00  0.00     0.065 C 
ATOM     11  C   UNL A   1      32.559  24.684  23.588  1.00  0.00     0.024 A 
ATOM     12  N   UNL A   1      33.312  23.525  23.774  1.00  0.00    -0.313 N 
ATOM     13  C   UNL A   1      31.171  22.917  23.488  1.00  0.00     0.033 A 
ATOM     14  C   UNL A   1      32.442  22.441  23.724  1.00  0.00     0.053 A 
BRANCH  12  15
ATOM     15  C   UNL A   1      34.719  23.448  23.992  1.00  0.00     0.049 A 
ATOM     16  C   UNL A   1      35.562  22.936  22.990  1.00  0.00     0.027 A 
ATOM     17  C   UNL A   1      35.250  23.789  25.239  1.00  0.00     0.065 A 
ATOM     18  C   UNL A   1      36.923  22.749  23.243  1.00  0.00     0.005 A 
ATOM     19  C   UNL A   1      36.607  23.592  25.474  1.00  0.00     0.125 A 
ATOM     20  C   UNL A   1      37.446  23.072  24.493  1.00  0.00     0.039 A 
ATOM     21  F   UNL A   1      37.111  23.888  26.679  1.00  0.00    -0.207 F 
ENDBRANCH  12  15
BRANCH  14  22
ATOM     22  C   UNL A   1      32.803  21.048  23.936  1.00  0.00    -0.001 A 
ATOM     23  C   UNL A   1      33.737  20.677  24.912  1.00  0.00     0.011 A 
ATOM     24  C   UNL A   1      32.190  20.079  23.130  1.00  0.00     0.011 A 
ATOM     25  C   UNL A   1      34.114  19.348  25.024  1.00  0.00     0.021 A 
ATOM     26  C   UNL A   1      32.554  18.754  23.243  1.00  0.00     0.021 A 
ATOM     27  C   UNL A   1      33.531  18.410  24.165  1.00  0.00     0.067 A 
BRANCH  27  28
ATOM     28  S   UNL A   1      34.031  16.727  24.261  1.00  0.00     0.175 S 
ATOM     29  C   UNL A   1      32.699  16.018  25.224  1.00  0.00     0.163 C 
ATOM     30  O   UNL A   1      34.043  16.305  22.886  1.00  0.00    -0.224 OA
ATOM     31  O   UNL A   1      35.239  16.673  25.073  1.00  0.00    -0.224 OA
ENDBRANCH  27  28
ENDBRANCH  14  22
ENDBRANCH   8   9
ENDBRANCH   5   8
ENDBRANCH   3   4
ENDBRANCH   2   3
ENDBRANCH   1   2
BRANCH   1  32
ATOM     32  C   UNL A   1      32.638  29.136  26.354  1.00  0.00     0.002 C 
BRANCH  32  33
ATOM     33  C   UNL A   1      32.911  30.568  26.857  1.00  0.00     0.021 C 
BRANCH  33  34
ATOM     34  C   UNL A   1      34.227  30.827  27.624  1.00  0.00     0.116 C 
BRANCH  34  35
ATOM     35  N   UNL A   1      34.339  32.149  28.193  1.00  0.00    -0.352 N 
ATOM     36  C   UNL A   1      35.317  32.653  29.039  1.00  0.00     0.251 C 
ATOM     37  H   UNL A   1      33.625  32.780  27.948  1.00  0.00     0.163 HD
ATOM     38  O   UNL A   1      35.188  33.821  29.404  1.00  0.00    -0.269 OA
BRANCH  36  39
ATOM     39  C   UNL A   1      36.434  31.802  29.611  1.00  0.00     0.039 A 
ATOM     40  C   UNL A   1      37.655  31.821  28.960  1.00  0.00     0.014 A 
ATOM     41  C   UNL A   1      36.278  30.796  30.586  1.00  0.00     0.014 A 
ATOM     42  C   UNL A   1      38.694  30.907  29.322  1.00  0.00     0.010 A 
ATOM     43  C   UNL A   1      37.320  29.800  30.887  1.00  0.00     0.010 A 
ATOM     44  C   UNL A   1      38.577  29.800  30.252  1.00  0.00    -0.014 A 
BRANCH  44  45
ATOM     45  C   UNL A   1      39.649  28.560  30.014  1.00  0.00     0.031 A 
ATOM     46  C   UNL A   1      40.298  28.501  31.350  1.00  0.00     0.074 A 
ATOM     47  C   UNL A   1      40.257  27.707  29.074  1.00  0.00     0.049 A 
ATOM     48  N   UNL A   1      40.837  29.594  31.818  1.00  0.00    -0.248 NA
ATOM     49  C   UNL A   1      40.021  27.479  32.355  1.00  0.00     0.031 C 
ATOM     50  C   UNL A   1      40.193  27.784  27.613  1.00  0.00     0.029 A 
ATOM     51  N   UNL A   1      41.082  26.529  29.170  1.00  0.00    -0.354 N 
ATOM     52  C   UNL A   1      41.277  29.303  33.078  1.00  0.00     0.074 A 
ATOM     53  C   UNL A   1      40.529  28.095  33.431  1.00  0.00     0.031 C 
ATOM     54  C   UNL A   1      40.638  26.652  26.989  1.00  0.00     0.029 A 
ATOM     55  C   UNL A   1      41.231  25.732  27.952  1.00  0.00     0.049 A 
ATOM     56  H   UNL A   1      41.522  26.274  30.013  1.00  0.00     0.167 HD
ATOM     57  C   UNL A   1      42.606  29.555  33.265  1.00  0.00     0.037 A 
ATOM     58  C   UNL A   1      41.917  24.538  27.677  1.00  0.00     0.037 A 
ATOM     59  C   UNL A   1      43.398  28.371  33.065  1.00  0.00     0.049 A 
ATOM     60  C   UNL A   1      43.072  24.615  28.573  1.00  0.00     0.074 A 
ATOM     61  C   UNL A   1      43.240  27.067  33.494  1.00  0.00     0.029 A 
ATOM     62  N   UNL A   1      44.208  28.330  31.947  1.00  0.00    -0.354 N 
ATOM     63  N   UNL A   1      44.059  25.430  28.360  1.00  0.00    -0.248 NA
ATOM     64  C   UNL A   1      43.194  23.749  29.737  1.00  0.00     0.031 C 
ATOM     65  C   UNL A   1      43.480  26.295  32.340  1.00  0.00     0.029 A 
ATOM     66  C   UNL A   1      44.191  27.057  31.422  1.00  0.00     0.049 A 
ATOM     67  H   UNL A   1      44.716  29.090  31.583  1.00  0.00     0.167 HD
ATOM     68  C   UNL A   1      44.588  25.573  29.603  1.00  0.00     0.074 A 
ATOM     69  C   UNL A   1      44.235  24.353  30.311  1.00  0.00     0.031 C 
ATOM     70  C   UNL A   1      44.678  26.840  30.079  1.00  0.00     0.037 A 
BRANCH  57  71
ATOM     71  C   UNL A   1      43.036  30.931  32.826  1.00  0.00     0.058 A 
ATOM     72  C   UNL A   1      42.503  32.043  33.484  1.00  0.00     0.135 A 
ATOM     73  C   UNL A   1      43.893  31.179  31.727  1.00  0.00     0.135 A 
ATOM     74  F   UNL A   1      41.706  31.875  34.551  1.00  0.00    -0.206 F 
ATOM     75  C   UNL A   1      42.784  33.341  33.062  1.00  0.00     0.059 A 
ATOM     76  C   UNL A   1      44.146  32.463  31.258  1.00  0.00     0.059 A 
ATOM     77  F   UNL A   1      44.521  30.167  31.107  1.00  0.00    -0.206 F 
ATOM     78  C   UNL A   1      43.592  33.541  31.940  1.00  0.00     0.060 A 
BRANCH  78  79
ATOM     79  S   UNL A   1      43.909  35.231  31.394  1.00  0.00     0.124 S 
ATOM     80  O   UNL A   1      45.046  35.061  30.491  1.00  0.00    -0.237 OA
ATOM     81  O   UNL A   1      42.647  35.573  30.746  1.00  0.00    -0.237 OA
ATOM     82  O   UNL A   1      44.210  35.946  32.630  1.00  0.00    -0.744 OA
ENDBRANCH  78  79
ENDBRANCH  57  71
BRANCH  58  83
ATOM     83  C   UNL A   1      42.130  23.330  26.686  1.00  0.00     0.058 A 
ATOM     84  C   UNL A   1      43.106  23.391  25.626  1.00  0.00     0.135 A 
ATOM     85  C   UNL A   1      41.769  22.007  27.000  1.00  0.00     0.135 A 
ATOM     86  F   UNL A   1      43.537  24.567  25.148  1.00  0.00    -0.206 F 
ATOM     87  C   UNL A   1      43.761  22.276  25.057  1.00  0.00     0.059 A 
ATOM     88  C   UNL A   1      42.397  20.862  26.417  1.00  0.00     0.059 A 
ATOM     89  F   UNL A   1      40.856  21.777  27.954  1.00  0.00    -0.206 F 
ATOM     90  C   UNL A   1      43.431  21.005  25.489  1.00  0.00     0.060 A 
BRANCH  90  91
ATOM     91  S   UNL A   1      44.464  19.598  24.943  1.00  0.00     0.124 S 
ATOM     92  O   UNL A   1      45.789  19.958  25.436  1.00  0.00    -0.237 OA
ATOM     93  O   UNL A   1      43.831  18.465  25.615  1.00  0.00    -0.237 OA
ATOM     94  O   UNL A   1      44.313  19.609  23.491  1.00  0.00    -0.744 OA
ENDBRANCH  90  91
ENDBRANCH  58  83
BRANCH  70  95
ATOM     95  C   UNL A   1      45.171  27.916  29.122  1.00  0.00     0.058 A 
ATOM     96  C   UNL A   1      46.514  28.218  28.792  1.00  0.00     0.135 A 
ATOM     97  C   UNL A   1      44.203  28.771  28.567  1.00  0.00     0.135 A 
ATOM     98  F   UNL A   1      47.532  27.431  29.166  1.00  0.00    -0.206 F 
ATOM     99  C   UNL A   1      46.867  29.350  28.049  1.00  0.00     0.059 A 
ATOM    100  C   UNL A   1      44.529  29.875  27.781  1.00  0.00     0.059 A 
ATOM    101  F   UNL A   1      42.900  28.539  28.800  1.00  0.00    -0.206 F 
ATOM    102  C   UNL A   1      45.867  30.184  27.562  1.00  0.00     0.060 A 
BRANCH 102 103
ATOM    103  S   UNL A   1      46.334  31.677  26.660  1.00  0.00     0.124 S 
ATOM    104  O   UNL A   1      45.302  31.741  25.628  1.00  0.00    -0.237 OA
ATOM    105  O   UNL A   1      46.255  32.710  27.689  1.00  0.00    -0.237 OA
ATOM    106  O   UNL A   1      47.675  31.374  26.171  1.00  0.00    -0.744 OA
ENDBRANCH 102 103
ENDBRANCH  70  95
ENDBRANCH  44  45
ENDBRANCH  36  39
ENDBRANCH  34  35
ENDBRANCH  33  34
ENDBRANCH  32  33
ENDBRANCH   1  32
TORSDOF 20
ENDMDL
MODEL 3
REMARK VINA RESULT:     -11.6      3.675      7.542
REMARK SMILES Cc1c(CC(=O)NCCCCCCNC(=O)c2ccc(-c3c4nc(c(-c5c(F)cc(S(=O)(=O)[O-])cc5F)c5ccc([nH]5)c(-c5c(F)cc(S(=O)(=O)[O-])cc5F)c5nc(c(-c6c(F)cc(S(=O)(=O)[O-])cc6F)c6ccc3[nH]6)C=C5)C=C4)cc2)cc(-c2ccc(S(C)(=O)=O)cc2)n1-c1cccc(F)c1
REMARK SMILES IDX 10 1 9 2 8 3 7 4 5 5 6 6 4 8 3 9 1 10 2 11 95 12 83 13 84 14
REMARK SMILES IDX 96 15 97 16 102 17 98 18 100 19 99 20 101 21 85 22 86 23
REMARK SMILES IDX 94 24 87 25 93 26 88 27 89 28 90 29 91 30 92 31 11 32 12 33
REMARK SMILES IDX 13 34 14 35 15 36 16 38 17 39 18 40 82 41 19 42 81 43 20 44
REMARK SMILES IDX 21 45 22 46 75 47 23 48 80 49 74 50 76 51 24 52 79 53 73 54
REMARK SMILES IDX 72 55 25 57 59 58 38 59 58 60 39 61 42 62 57 63 77 64 40 65
REMARK SMILES IDX 41 66 56 68 78 69 43 70 26 71 27 72 36 73 28 74 29 75 35 76
REMARK SMILES IDX 37 77 30 78 31 79 32 80 33 81 34 82 60 83 61 84 70 85 62 86
REMARK SMILES IDX 63 87 69 88 71 89 64 90 65 91 66 92 67 93 68 94 44 95 45 96
REMARK SMILES IDX 54 97 46 98 47 99 53 100 55 101 48 102 49 103 50 104 51 105
REMARK SMILES IDX 52 106
REMARK H PARENT 7 7 14 37 76 56 42 67
REMARK Flexibility Score: inf
ROOT
ATOM      1  C   UNL A   1      31.830  26.639  26.914  1.00  0.00     0.002 C 
ENDROOT
BRANCH   1   2
ATOM      2  C   UNL A   1      31.101  25.774  25.879  1.00  0.00     0.021 C 
BRANCH   2   3
ATOM      3  C   UNL A   1      29.922  26.469  25.196  1.00  0.00     0.116 C 
BRANCH   3   4
ATOM      4  N   UNL A   1      30.336  27.690  24.528  1.00  0.00    -0.356 N 
ATOM      5  C   UNL A   1      30.781  27.864  23.248  1.00  0.00     0.224 C 
ATOM      6  O   UNL A   1      31.124  28.996  22.897  1.00  0.00    -0.275 OA
ATOM      7  H   UNL A   1      30.290  28.508  25.074  1.00  0.00     0.163 HD
BRANCH   5   8
ATOM      8  C   UNL A   1      30.782  26.705  22.267  1.00  0.00     0.137 C 
BRANCH   8   9
ATOM      9  C   UNL A   1      31.725  25.604  22.635  1.00  0.00    -0.017 A 
ATOM     10  C   UNL A   1      33.960  26.877  22.933  1.00  0.00     0.065 C 
ATOM     11  C   UNL A   1      33.073  25.679  22.964  1.00  0.00     0.024 A 
ATOM     12  N   UNL A   1      33.525  24.398  23.281  1.00  0.00    -0.313 N 
ATOM     13  C   UNL A   1      31.366  24.241  22.688  1.00  0.00     0.033 A 
ATOM     14  C   UNL A   1      32.457  23.520  23.120  1.00  0.00     0.053 A 
BRANCH  12  15
ATOM     15  C   UNL A   1      34.836  24.037  23.710  1.00  0.00     0.049 A 
ATOM     16  C   UNL A   1      35.663  23.265  22.876  1.00  0.00     0.027 A 
ATOM     17  C   UNL A   1      35.262  24.367  24.999  1.00  0.00     0.065 A 
ATOM     18  C   UNL A   1      36.900  22.810  23.338  1.00  0.00     0.005 A 
ATOM     19  C   UNL A   1      36.496  23.902  25.443  1.00  0.00     0.125 A 
ATOM     20  C   UNL A   1      37.315  23.124  24.630  1.00  0.00     0.039 A 
ATOM     21  F   UNL A   1      36.892  24.190  26.691  1.00  0.00    -0.207 F 
ENDBRANCH  12  15
BRANCH  14  22
ATOM     22  C   UNL A   1      32.475  22.094  23.408  1.00  0.00    -0.001 A 
ATOM     23  C   UNL A   1      32.840  21.610  24.671  1.00  0.00     0.011 A 
ATOM     24  C   UNL A   1      32.120  21.211  22.380  1.00  0.00     0.011 A 
ATOM     25  C   UNL A   1      32.924  20.242  24.878  1.00  0.00     0.021 A 
ATOM     26  C   UNL A   1      32.192  19.848  22.582  1.00  0.00     0.021 A 
ATOM     27  C   UNL A   1      32.622  19.382  23.816  1.00  0.00     0.067 A 
BRANCH  27  28
ATOM     28  S   UNL A   1      32.769  17.646  24.046  1.00  0.00     0.175 S 
ATOM     29  C   UNL A   1      34.477  17.502  24.563  1.00  0.00     0.163 C 
ATOM     30  O   UNL A   1      31.820  17.367  25.091  1.00  0.00    -0.224 OA
ATOM     31  O   UNL A   1      32.650  17.018  22.738  1.00  0.00    -0.224 OA
ENDBRANCH  27  28
ENDBRANCH  14  22
ENDBRANCH   8   9
ENDBRANCH   5   8
ENDBRANCH   3   4
ENDBRANCH   2   3
ENDBRANCH   1   2
BRANCH   1  32
ATOM     32  C   UNL A   1      33.176  27.222  26.467  1.00  0.00     0.002 C 
BRANCH  32  33
ATOM     33  C   UNL A   1      33.196  28.709  26.062  1.00  0.00     0.021 C 
BRANCH  33  34
ATOM     34  C   UNL A   1      34.022  29.684  26.930  1.00  0.00     0.116 C 
BRANCH  34  35
ATOM     35  N   UNL A   1      33.428  30.989  27.097  1.00  0.00    -0.352 N 
ATOM     36  C   UNL A   1      33.941  32.103  27.746  1.00  0.00     0.251 C 
ATOM     37  H   UNL A   1      32.537  31.105  26.696  1.00  0.00     0.163 HD
ATOM     38  O   UNL A   1      33.233  33.109  27.767  1.00  0.00    -0.269 OA
BRANCH  36  39
ATOM     39  C   UNL A   1      35.247  32.083  28.516  1.00  0.00     0.039 A 
ATOM     40  C   UNL A   1      35.250  31.478  29.761  1.00  0.00     0.014 A 
ATOM     41  C   UNL A   1      36.392  32.844  28.204  1.00  0.00     0.014 A 
ATOM     42  C   UNL A   1      36.385  31.585  30.625  1.00  0.00     0.010 A 
ATOM     43  C   UNL A   1      37.515  33.025  29.138  1.00  0.00     0.010 A 
ATOM     44  C   UNL A   1      37.555  32.413  30.406  1.00  0.00    -0.014 A 
BRANCH  44  45
ATOM     45  C   UNL A   1      38.375  32.856  31.775  1.00  0.00     0.031 A 
ATOM     46  C   UNL A   1      39.674  33.280  31.190  1.00  0.00     0.074 A 
ATOM     47  C   UNL A   1      38.390  32.843  33.183  1.00  0.00     0.049 A 
ATOM     48  N   UNL A   1      40.312  32.428  30.434  1.00  0.00    -0.248 NA
ATOM     49  C   UNL A   1      40.089  34.670  31.026  1.00  0.00     0.031 C 
ATOM     50  C   UNL A   1      37.497  32.115  34.087  1.00  0.00     0.029 A 
ATOM     51  N   UNL A   1      39.195  33.492  34.187  1.00  0.00    -0.354 N 
ATOM     52  C   UNL A   1      41.412  33.082  29.953  1.00  0.00     0.074 A 
ATOM     53  C   UNL A   1      41.080  34.494  30.143  1.00  0.00     0.031 C 
ATOM     54  C   UNL A   1      37.576  32.536  35.385  1.00  0.00     0.029 A 
ATOM     55  C   UNL A   1      38.672  33.484  35.553  1.00  0.00     0.049 A 
ATOM     56  H   UNL A   1      40.053  33.919  33.964  1.00  0.00     0.167 HD
ATOM     57  C   UNL A   1      42.589  32.448  30.232  1.00  0.00     0.037 A 
ATOM     58  C   UNL A   1      39.152  34.024  36.757  1.00  0.00     0.037 A 
ATOM     59  C   UNL A   1      43.198  32.975  31.425  1.00  0.00     0.049 A 
ATOM     60  C   UNL A   1      40.604  33.934  36.596  1.00  0.00     0.074 A 
ATOM     61  C   UNL A   1      43.399  34.267  31.869  1.00  0.00     0.029 A 
ATOM     62  N   UNL A   1      43.224  32.159  32.538  1.00  0.00    -0.354 N 
ATOM     63  N   UNL A   1      41.237  32.802  36.654  1.00  0.00    -0.248 NA
ATOM     64  C   UNL A   1      41.425  35.120  36.398  1.00  0.00     0.031 C 
ATOM     65  C   UNL A   1      42.985  34.235  33.215  1.00  0.00     0.029 A 
ATOM     66  C   UNL A   1      42.991  32.920  33.663  1.00  0.00     0.049 A 
ATOM     67  H   UNL A   1      43.382  31.188  32.530  1.00  0.00     0.167 HD
ATOM     68  C   UNL A   1      42.371  33.071  35.956  1.00  0.00     0.074 A 
ATOM     69  C   UNL A   1      42.566  34.506  36.081  1.00  0.00     0.031 C 
ATOM     70  C   UNL A   1      42.636  32.263  34.898  1.00  0.00     0.037 A 
BRANCH  57  71
ATOM     71  C   UNL A   1      42.601  30.987  29.864  1.00  0.00     0.058 A 
ATOM     72  C   UNL A   1      43.324  30.585  28.737  1.00  0.00     0.135 A 
ATOM     73  C   UNL A   1      41.858  29.994  30.544  1.00  0.00     0.135 A 
ATOM     74  F   UNL A   1      44.072  31.474  28.064  1.00  0.00    -0.206 F 
ATOM     75  C   UNL A   1      43.295  29.266  28.287  1.00  0.00     0.059 A 
ATOM     76  C   UNL A   1      41.774  28.684  30.085  1.00  0.00     0.059 A 
ATOM     77  F   UNL A   1      41.219  30.282  31.690  1.00  0.00    -0.206 F 
ATOM     78  C   UNL A   1      42.505  28.327  28.957  1.00  0.00     0.060 A 
BRANCH  78  79
ATOM     79  S   UNL A   1      42.457  26.636  28.331  1.00  0.00     0.124 S 
ATOM     80  O   UNL A   1      41.254  26.100  28.968  1.00  0.00    -0.237 OA
ATOM     81  O   UNL A   1      42.353  26.857  26.893  1.00  0.00    -0.237 OA
ATOM     82  O   UNL A   1      43.710  26.054  28.802  1.00  0.00    -0.744 OA
ENDBRANCH  78  79
ENDBRANCH  57  71
BRANCH  58  83
ATOM     83  C   UNL A   1      38.837  34.423  38.250  1.00  0.00     0.058 A 
ATOM     84  C   UNL A   1      38.649  33.422  39.271  1.00  0.00     0.135 A 
ATOM     85  C   UNL A   1      39.156  35.681  38.791  1.00  0.00     0.135 A 
ATOM     86  F   UNL A   1      38.287  32.170  38.956  1.00  0.00    -0.206 F 
ATOM     87  C   UNL A   1      38.903  33.607  40.648  1.00  0.00     0.059 A 
ATOM     88  C   UNL A   1      39.389  35.900  40.186  1.00  0.00     0.059 A 
ATOM     89  F   UNL A   1      39.344  36.727  37.975  1.00  0.00    -0.206 F 
ATOM     90  C   UNL A   1      39.317  34.846  41.100  1.00  0.00     0.060 A 
BRANCH  90  91
ATOM     91  S   UNL A   1      39.894  35.003  42.828  1.00  0.00     0.124 S 
ATOM     92  O   UNL A   1      41.226  35.577  42.674  1.00  0.00    -0.237 OA
ATOM     93  O   UNL A   1      38.891  35.890  43.415  1.00  0.00    -0.237 OA
ATOM     94  O   UNL A   1      39.859  33.630  43.323  1.00  0.00    -0.744 OA
ENDBRANCH  90  91
ENDBRANCH  58  83
BRANCH  70  95
ATOM     95  C   UNL A   1      42.422  30.768  35.087  1.00  0.00     0.058 A 
ATOM     96  C   UNL A   1      41.233  30.036  34.851  1.00  0.00     0.135 A 
ATOM     97  C   UNL A   1      43.485  30.035  35.643  1.00  0.00     0.135 A 
ATOM     98  F   UNL A   1      40.175  30.579  34.234  1.00  0.00    -0.206 F 
ATOM     99  C   UNL A   1      41.086  28.700  35.238  1.00  0.00     0.059 A 
ATOM    100  C   UNL A   1      43.378  28.689  35.989  1.00  0.00     0.059 A 
ATOM    101  F   UNL A   1      44.662  30.640  35.869  1.00  0.00    -0.206 F 
ATOM    102  C   UNL A   1      42.159  28.039  35.824  1.00  0.00     0.060 A 
BRANCH 102 103
ATOM    103  S   UNL A   1      41.941  26.334  36.380  1.00  0.00     0.124 S 
ATOM    104  O   UNL A   1      41.653  26.513  37.800  1.00  0.00    -0.237 OA
ATOM    105  O   UNL A   1      40.819  25.874  35.567  1.00  0.00    -0.237 OA
ATOM    106  O   UNL A   1      43.230  25.713  36.087  1.00  0.00    -0.744 OA
ENDBRANCH 102 103
ENDBRANCH  70  95
ENDBRANCH  44  45
ENDBRANCH  36  39
ENDBRANCH  34  35
ENDBRANCH  33  34
ENDBRANCH  32  33
ENDBRANCH   1  32
TORSDOF 20
ENDMDL
