MODEL 1
REMARK VINA RESULT:     -13.0      0.000      0.000
REMARK SMILES Cc1ccc([C@H](CC2CCCC2)C(=O)NCCCCCCNC(=O)c2ccc(-c3c4nc(c(-c5c(F)cc(S(=O)(=O)[O-])cc5F)c5ccc([nH]5)c(-c5c(F)cc(S(=O)(=O)[O-])cc5F)c5nc(c(-c6c(F)cc(S(=O)(=O)[O-])cc6F)c6ccc3[nH]6)C=C5)C=C4)cc2)cc1
REMARK SMILES IDX 19 1 18 2 17 3 16 4 15 5 13 6 14 7 6 9 5 10 1 11 2 12 3 13
REMARK SMILES IDX 92 14 4 15 91 16 7 17 8 18 9 19 12 20 10 21 11 22 20 23
REMARK SMILES IDX 21 24 22 25 23 26 24 28 25 29 26 30 90 31 27 32 89 33 28 34
REMARK SMILES IDX 29 35 30 36 83 37 31 38 88 39 82 40 84 41 32 42 87 43 81 44
REMARK SMILES IDX 80 45 33 47 67 48 46 49 66 50 47 51 50 52 65 53 85 54 48 55
REMARK SMILES IDX 49 56 64 58 86 59 51 60 34 61 35 62 44 63 36 64 37 65 43 66
REMARK SMILES IDX 45 67 38 68 39 69 40 70 41 71 42 72 68 73 69 74 78 75 70 76
REMARK SMILES IDX 71 77 77 78 79 79 72 80 73 81 74 82 75 83 76 84 52 85 53 86
REMARK SMILES IDX 62 87 54 88 55 89 61 90 63 91 56 92 57 93 58 94 59 95 60 96
REMARK H PARENT 15 8 22 27 84 46 50 57
REMARK Flexibility Score: inf
ROOT
ATOM      1  C   UNL A   1      32.562  30.469  26.603  1.00  0.00     0.002 C 
ENDROOT
BRANCH   1   2
ATOM      2  C   UNL A   1      31.687  29.383  25.957  1.00  0.00     0.002 C 
BRANCH   2   3
ATOM      3  C   UNL A   1      32.383  28.359  25.049  1.00  0.00     0.021 C 
BRANCH   3   4
ATOM      4  C   UNL A   1      31.736  28.139  23.684  1.00  0.00     0.116 C 
BRANCH   4   5
ATOM      5  N   UNL A   1      32.665  27.665  22.674  1.00  0.00    -0.356 N 
ATOM      6  C   UNL A   1      33.113  26.404  22.408  1.00  0.00     0.227 C 
ATOM      7  O   UNL A   1      33.702  26.236  21.333  1.00  0.00    -0.274 OA
ATOM      8  H   UNL A   1      33.031  28.366  22.087  1.00  0.00     0.163 HD
BRANCH   6   9
ATOM      9  C   UNL A   1      32.955  25.226  23.380  1.00  0.00     0.109 C 
BRANCH   9  10
ATOM     10  C   UNL A   1      34.242  24.515  23.822  1.00  0.00    -0.036 A 
ATOM     11  C   UNL A   1      37.544  22.267  25.502  1.00  0.00     0.044 C 
ATOM     12  C   UNL A   1      36.432  23.075  24.905  1.00  0.00    -0.051 A 
ATOM     13  C   UNL A   1      35.873  24.141  25.610  1.00  0.00     0.004 A 
ATOM     14  C   UNL A   1      35.965  22.805  23.617  1.00  0.00     0.004 A 
ATOM     15  C   UNL A   1      34.793  24.848  25.075  1.00  0.00     0.005 A 
ATOM     16  C   UNL A   1      34.899  23.533  23.075  1.00  0.00     0.005 A 
ENDBRANCH   9  10
BRANCH   9  17
ATOM     17  C   UNL A   1      31.862  24.209  22.956  1.00  0.00     0.022 C 
BRANCH  17  18
ATOM     18  C   UNL A   1      31.011  23.662  24.109  1.00  0.00    -0.010 C 
ATOM     19  C   UNL A   1      31.639  22.499  24.873  1.00  0.00     0.003 C 
ATOM     20  C   UNL A   1      30.845  24.710  25.214  1.00  0.00     0.003 C 
ATOM     21  C   UNL A   1      30.896  22.487  26.206  1.00  0.00     0.000 C 
ATOM     22  C   UNL A   1      30.409  23.917  26.437  1.00  0.00     0.000 C 
ENDBRANCH  17  18
ENDBRANCH   9  17
ENDBRANCH   6   9
ENDBRANCH   4   5
ENDBRANCH   3   4
ENDBRANCH   2   3
ENDBRANCH   1   2
BRANCH   1  23
ATOM     23  C   UNL A   1      33.636  30.005  27.590  1.00  0.00     0.021 C 
BRANCH  23  24
ATOM     24  C   UNL A   1      35.033  30.547  27.305  1.00  0.00     0.116 C 
BRANCH  24  25
ATOM     25  N   UNL A   1      35.603  31.285  28.431  1.00  0.00    -0.352 N 
ATOM     26  C   UNL A   1      36.579  30.867  29.317  1.00  0.00     0.251 C 
ATOM     27  H   UNL A   1      35.249  32.193  28.576  1.00  0.00     0.163 HD
ATOM     28  O   UNL A   1      36.919  31.506  30.307  1.00  0.00    -0.269 OA
BRANCH  26  29
ATOM     29  C   UNL A   1      37.324  29.653  28.941  1.00  0.00     0.039 A 
ATOM     30  C   UNL A   1      37.515  28.712  29.958  1.00  0.00     0.014 A 
ATOM     31  C   UNL A   1      38.117  29.674  27.797  1.00  0.00     0.014 A 
ATOM     32  C   UNL A   1      38.666  27.940  29.941  1.00  0.00     0.010 A 
ATOM     33  C   UNL A   1      39.302  28.966  27.824  1.00  0.00     0.010 A 
ATOM     34  C   UNL A   1      39.604  28.166  28.934  1.00  0.00    -0.014 A 
BRANCH  34  35
ATOM     35  C   UNL A   1      40.968  27.665  29.028  1.00  0.00     0.031 A 
ATOM     36  C   UNL A   1      41.236  26.262  28.663  1.00  0.00     0.074 A 
ATOM     37  C   UNL A   1      41.951  28.468  29.492  1.00  0.00     0.049 A 
ATOM     38  N   UNL A   1      42.266  25.591  29.050  1.00  0.00    -0.248 NA
ATOM     39  C   UNL A   1      40.272  25.459  27.916  1.00  0.00     0.031 C 
ATOM     40  C   UNL A   1      43.387  28.206  29.487  1.00  0.00     0.029 A 
ATOM     41  N   UNL A   1      41.803  29.595  30.307  1.00  0.00    -0.354 N 
ATOM     42  C   UNL A   1      42.242  24.380  28.398  1.00  0.00     0.074 A 
ATOM     43  C   UNL A   1      40.920  24.294  27.841  1.00  0.00     0.031 C 
ATOM     44  C   UNL A   1      43.963  28.949  30.443  1.00  0.00     0.029 A 
ATOM     45  C   UNL A   1      42.905  29.617  31.182  1.00  0.00     0.049 A 
ATOM     46  H   UNL A   1      41.067  30.248  30.275  1.00  0.00     0.167 HD
ATOM     47  C   UNL A   1      43.403  23.674  28.291  1.00  0.00     0.037 A 
ATOM     48  C   UNL A   1      42.726  29.520  32.531  1.00  0.00     0.037 A 
ATOM     49  C   UNL A   1      44.371  24.157  29.283  1.00  0.00     0.049 A 
ATOM     50  C   UNL A   1      43.317  28.266  33.137  1.00  0.00     0.074 A 
ATOM     51  C   UNL A   1      45.489  24.969  29.209  1.00  0.00     0.029 A 
ATOM     52  N   UNL A   1      44.052  24.059  30.640  1.00  0.00    -0.354 N 
ATOM     53  N   UNL A   1      43.711  27.231  32.443  1.00  0.00    -0.248 NA
ATOM     54  C   UNL A   1      43.517  28.074  34.572  1.00  0.00     0.031 C 
ATOM     55  C   UNL A   1      45.745  25.478  30.514  1.00  0.00     0.029 A 
ATOM     56  C   UNL A   1      44.825  24.926  31.391  1.00  0.00     0.049 A 
ATOM     57  H   UNL A   1      43.369  23.455  31.010  1.00  0.00     0.167 HD
ATOM     58  C   UNL A   1      44.180  26.255  33.284  1.00  0.00     0.074 A 
ATOM     59  C   UNL A   1      44.061  26.845  34.608  1.00  0.00     0.031 C 
ATOM     60  C   UNL A   1      44.625  25.043  32.834  1.00  0.00     0.037 A 
BRANCH  47  61
ATOM     61  C   UNL A   1      43.739  22.752  27.118  1.00  0.00     0.058 A 
ATOM     62  C   UNL A   1      43.015  21.552  26.924  1.00  0.00     0.135 A 
ATOM     63  C   UNL A   1      44.844  22.895  26.245  1.00  0.00     0.135 A 
ATOM     64  F   UNL A   1      41.930  21.270  27.661  1.00  0.00    -0.206 F 
ATOM     65  C   UNL A   1      43.392  20.567  25.995  1.00  0.00     0.059 A 
ATOM     66  C   UNL A   1      45.223  21.941  25.299  1.00  0.00     0.059 A 
ATOM     67  F   UNL A   1      45.666  23.943  26.272  1.00  0.00    -0.206 F 
ATOM     68  C   UNL A   1      44.511  20.764  25.196  1.00  0.00     0.060 A 
BRANCH  68  69
ATOM     69  S   UNL A   1      45.053  19.483  24.051  1.00  0.00     0.124 S 
ATOM     70  O   UNL A   1      44.425  18.291  24.612  1.00  0.00    -0.237 OA
ATOM     71  O   UNL A   1      44.513  19.953  22.780  1.00  0.00    -0.237 OA
ATOM     72  O   UNL A   1      46.510  19.524  24.157  1.00  0.00    -0.744 OA
ENDBRANCH  68  69
ENDBRANCH  47  61
BRANCH  48  73
ATOM     73  C   UNL A   1      41.563  30.302  33.032  1.00  0.00     0.058 A 
ATOM     74  C   UNL A   1      40.356  29.606  33.245  1.00  0.00     0.135 A 
ATOM     75  C   UNL A   1      41.705  31.544  33.666  1.00  0.00     0.135 A 
ATOM     76  F   UNL A   1      40.154  28.421  32.646  1.00  0.00    -0.206 F 
ATOM     77  C   UNL A   1      39.396  30.047  34.151  1.00  0.00     0.059 A 
ATOM     78  C   UNL A   1      40.753  32.007  34.583  1.00  0.00     0.059 A 
ATOM     79  F   UNL A   1      42.820  32.267  33.489  1.00  0.00    -0.206 F 
ATOM     80  C   UNL A   1      39.635  31.219  34.864  1.00  0.00     0.060 A 
BRANCH  80  81
ATOM     81  S   UNL A   1      38.498  31.653  36.205  1.00  0.00     0.124 S 
ATOM     82  O   UNL A   1      39.329  32.498  37.057  1.00  0.00    -0.237 OA
ATOM     83  O   UNL A   1      37.433  32.348  35.485  1.00  0.00    -0.237 OA
ATOM     84  O   UNL A   1      38.141  30.356  36.769  1.00  0.00    -0.744 OA
ENDBRANCH  80  81
ENDBRANCH  48  73
BRANCH  60  85
ATOM     85  C   UNL A   1      44.988  23.866  33.713  1.00  0.00     0.058 A 
ATOM     86  C   UNL A   1      44.163  22.746  33.913  1.00  0.00     0.135 A 
ATOM     87  C   UNL A   1      46.284  23.777  34.277  1.00  0.00     0.135 A 
ATOM     88  F   UNL A   1      42.951  22.665  33.345  1.00  0.00    -0.206 F 
ATOM     89  C   UNL A   1      44.569  21.641  34.666  1.00  0.00     0.059 A 
ATOM     90  C   UNL A   1      46.728  22.662  34.982  1.00  0.00     0.059 A 
ATOM     91  F   UNL A   1      47.170  24.776  34.147  1.00  0.00    -0.206 F 
ATOM     92  C   UNL A   1      45.856  21.605  35.193  1.00  0.00     0.060 A 
BRANCH  92  93
ATOM     93  S   UNL A   1      46.427  20.154  36.098  1.00  0.00     0.124 S 
ATOM     94  O   UNL A   1      47.831  20.097  35.704  1.00  0.00    -0.237 OA
ATOM     95  O   UNL A   1      46.178  20.514  37.491  1.00  0.00    -0.237 OA
ATOM     96  O   UNL A   1      45.579  19.087  35.575  1.00  0.00    -0.744 OA
ENDBRANCH  92  93
ENDBRANCH  60  85
ENDBRANCH  34  35
ENDBRANCH  26  29
ENDBRANCH  24  25
ENDBRANCH  23  24
ENDBRANCH   1  23
TORSDOF 19
ENDMDL
MODEL 2
REMARK VINA RESULT:     -12.7      5.126     11.650
REMARK SMILES Cc1ccc([C@H](CC2CCCC2)C(=O)NCCCCCCNC(=O)c2ccc(-c3c4nc(c(-c5c(F)cc(S(=O)(=O)[O-])cc5F)c5ccc([nH]5)c(-c5c(F)cc(S(=O)(=O)[O-])cc5F)c5nc(c(-c6c(F)cc(S(=O)(=O)[O-])cc6F)c6ccc3[nH]6)C=C5)C=C4)cc2)cc1
REMARK SMILES IDX 19 1 18 2 17 3 16 4 15 5 13 6 14 7 6 9 5 10 1 11 2 12 3 13
REMARK SMILES IDX 92 14 4 15 91 16 7 17 8 18 9 19 12 20 10 21 11 22 20 23
REMARK SMILES IDX 21 24 22 25 23 26 24 28 25 29 26 30 90 31 27 32 89 33 28 34
REMARK SMILES IDX 29 35 30 36 83 37 31 38 88 39 82 40 84 41 32 42 87 43 81 44
REMARK SMILES IDX 80 45 33 47 67 48 46 49 66 50 47 51 50 52 65 53 85 54 48 55
REMARK SMILES IDX 49 56 64 58 86 59 51 60 34 61 35 62 44 63 36 64 37 65 43 66
REMARK SMILES IDX 45 67 38 68 39 69 40 70 41 71 42 72 68 73 69 74 78 75 70 76
REMARK SMILES IDX 71 77 77 78 79 79 72 80 73 81 74 82 75 83 76 84 52 85 53 86
REMARK SMILES IDX 62 87 54 88 55 89 61 90 63 91 56 92 57 93 58 94 59 95 60 96
REMARK H PARENT 15 8 22 27 84 46 50 57
REMARK Flexibility Score: inf
ROOT
ATOM      1  C   UNL A   1      36.995  23.364  24.713  1.00  0.00     0.002 C 
ENDROOT
BRANCH   1   2
ATOM      2  C   UNL A   1      35.555  22.937  25.041  1.00  0.00     0.002 C 
BRANCH   2   3
ATOM      3  C   UNL A   1      34.723  23.874  25.929  1.00  0.00     0.021 C 
BRANCH   3   4
ATOM      4  C   UNL A   1      34.455  25.263  25.356  1.00  0.00     0.116 C 
BRANCH   4   5
ATOM      5  N   UNL A   1      33.533  26.049  26.155  1.00  0.00    -0.356 N 
ATOM      6  C   UNL A   1      32.184  26.217  26.036  1.00  0.00     0.227 C 
ATOM      7  O   UNL A   1      31.599  26.732  26.997  1.00  0.00    -0.274 OA
ATOM      8  H   UNL A   1      33.946  26.539  26.902  1.00  0.00     0.163 HD
BRANCH   6   9
ATOM      9  C   UNL A   1      31.390  25.839  24.777  1.00  0.00     0.109 C 
BRANCH   9  10
ATOM     10  C   UNL A   1      30.384  26.876  24.256  1.00  0.00    -0.036 A 
ATOM     11  C   UNL A   1      27.854  29.783  22.274  1.00  0.00     0.044 C 
ATOM     12  C   UNL A   1      28.718  28.796  22.999  1.00  0.00    -0.051 A 
ATOM     13  C   UNL A   1      30.036  29.115  23.327  1.00  0.00     0.004 A 
ATOM     14  C   UNL A   1      28.209  27.559  23.399  1.00  0.00     0.004 A 
ATOM     15  C   UNL A   1      30.856  28.166  23.944  1.00  0.00     0.005 A 
ATOM     16  C   UNL A   1      29.027  26.622  24.041  1.00  0.00     0.005 A 
ENDBRANCH   9  10
BRANCH   9  17
ATOM     17  C   UNL A   1      30.763  24.420  24.837  1.00  0.00     0.022 C 
BRANCH  17  18
ATOM     18  C   UNL A   1      31.219  23.470  23.722  1.00  0.00    -0.010 C 
ATOM     19  C   UNL A   1      32.348  24.005  22.846  1.00  0.00     0.003 C 
ATOM     20  C   UNL A   1      31.849  22.202  24.306  1.00  0.00     0.003 C 
ATOM     21  C   UNL A   1      32.942  22.755  22.202  1.00  0.00     0.000 C 
ATOM     22  C   UNL A   1      32.643  21.600  23.155  1.00  0.00     0.000 C 
ENDBRANCH  17  18
ENDBRANCH   9  17
ENDBRANCH   6   9
ENDBRANCH   4   5
ENDBRANCH   3   4
ENDBRANCH   2   3
ENDBRANCH   1   2
BRANCH   1  23
ATOM     23  C   UNL A   1      38.124  22.627  25.439  1.00  0.00     0.021 C 
BRANCH  23  24
ATOM     24  C   UNL A   1      38.594  23.299  26.724  1.00  0.00     0.116 C 
BRANCH  24  25
ATOM     25  N   UNL A   1      40.047  23.446  26.797  1.00  0.00    -0.352 N 
ATOM     26  C   UNL A   1      40.782  24.614  26.890  1.00  0.00     0.251 C 
ATOM     27  H   UNL A   1      40.567  22.609  26.779  1.00  0.00     0.163 HD
ATOM     28  O   UNL A   1      42.006  24.655  26.829  1.00  0.00    -0.269 OA
BRANCH  26  29
ATOM     29  C   UNL A   1      40.027  25.835  27.219  1.00  0.00     0.039 A 
ATOM     30  C   UNL A   1      40.391  26.989  26.516  1.00  0.00     0.014 A 
ATOM     31  C   UNL A   1      39.326  25.894  28.420  1.00  0.00     0.014 A 
ATOM     32  C   UNL A   1      40.267  28.217  27.145  1.00  0.00     0.010 A 
ATOM     33  C   UNL A   1      39.281  27.107  29.078  1.00  0.00     0.010 A 
ATOM     34  C   UNL A   1      39.825  28.245  28.468  1.00  0.00    -0.014 A 
BRANCH  34  35
ATOM     35  C   UNL A   1      39.990  29.422  29.309  1.00  0.00     0.031 A 
ATOM     36  C   UNL A   1      38.979  30.494  29.237  1.00  0.00     0.074 A 
ATOM     37  C   UNL A   1      41.080  29.540  30.098  1.00  0.00     0.049 A 
ATOM     38  N   UNL A   1      39.181  31.712  29.606  1.00  0.00    -0.248 NA
ATOM     39  C   UNL A   1      37.675  30.288  28.614  1.00  0.00     0.031 C 
ATOM     40  C   UNL A   1      41.326  30.544  31.128  1.00  0.00     0.029 A 
ATOM     41  N   UNL A   1      42.313  28.900  29.930  1.00  0.00    -0.354 N 
ATOM     42  C   UNL A   1      37.979  32.375  29.524  1.00  0.00     0.074 A 
ATOM     43  C   UNL A   1      37.131  31.497  28.763  1.00  0.00     0.031 C 
ATOM     44  C   UNL A   1      42.650  30.649  31.319  1.00  0.00     0.029 A 
ATOM     45  C   UNL A   1      43.308  29.812  30.330  1.00  0.00     0.049 A 
ATOM     46  H   UNL A   1      42.458  27.985  29.596  1.00  0.00     0.167 HD
ATOM     47  C   UNL A   1      37.815  33.520  30.245  1.00  0.00     0.037 A 
ATOM     48  C   UNL A   1      44.243  30.257  29.441  1.00  0.00     0.037 A 
ATOM     49  C   UNL A   1      39.126  34.054  30.633  1.00  0.00     0.049 A 
ATOM     50  C   UNL A   1      44.157  31.741  29.155  1.00  0.00     0.074 A 
ATOM     51  C   UNL A   1      39.845  34.052  31.816  1.00  0.00     0.029 A 
ATOM     52  N   UNL A   1      40.027  34.423  29.632  1.00  0.00    -0.354 N 
ATOM     53  N   UNL A   1      43.139  32.492  29.481  1.00  0.00    -0.248 NA
ATOM     54  C   UNL A   1      45.210  32.500  28.484  1.00  0.00     0.031 C 
ATOM     55  C   UNL A   1      41.214  34.273  31.493  1.00  0.00     0.029 A 
ATOM     56  C   UNL A   1      41.318  34.475  30.126  1.00  0.00     0.049 A 
ATOM     57  H   UNL A   1      39.777  34.618  28.700  1.00  0.00     0.167 HD
ATOM     58  C   UNL A   1      43.360  33.781  29.068  1.00  0.00     0.074 A 
ATOM     59  C   UNL A   1      44.685  33.738  28.472  1.00  0.00     0.031 C 
ATOM     60  C   UNL A   1      42.442  34.781  29.244  1.00  0.00     0.037 A 
BRANCH  47  61
ATOM     61  C   UNL A   1      36.476  33.987  30.817  1.00  0.00     0.058 A 
ATOM     62  C   UNL A   1      35.409  34.325  29.952  1.00  0.00     0.135 A 
ATOM     63  C   UNL A   1      36.215  34.276  32.178  1.00  0.00     0.135 A 
ATOM     64  F   UNL A   1      35.490  34.102  28.632  1.00  0.00    -0.206 F 
ATOM     65  C   UNL A   1      34.227  34.945  30.392  1.00  0.00     0.059 A 
ATOM     66  C   UNL A   1      35.039  34.868  32.641  1.00  0.00     0.059 A 
ATOM     67  F   UNL A   1      37.093  34.050  33.154  1.00  0.00    -0.206 F 
ATOM     68  C   UNL A   1      34.058  35.229  31.741  1.00  0.00     0.060 A 
BRANCH  68  69
ATOM     69  S   UNL A   1      32.582  36.087  32.317  1.00  0.00     0.124 S 
ATOM     70  O   UNL A   1      31.705  34.975  32.668  1.00  0.00    -0.237 OA
ATOM     71  O   UNL A   1      33.096  36.875  33.432  1.00  0.00    -0.237 OA
ATOM     72  O   UNL A   1      32.161  36.863  31.152  1.00  0.00    -0.744 OA
ENDBRANCH  68  69
ENDBRANCH  47  61
BRANCH  48  73
ATOM     73  C   UNL A   1      44.753  29.192  28.536  1.00  0.00     0.058 A 
ATOM     74  C   UNL A   1      44.178  29.101  27.252  1.00  0.00     0.135 A 
ATOM     75  C   UNL A   1      45.995  28.571  28.724  1.00  0.00     0.135 A 
ATOM     76  F   UNL A   1      42.979  29.658  27.017  1.00  0.00    -0.206 F 
ATOM     77  C   UNL A   1      44.859  28.547  26.172  1.00  0.00     0.059 A 
ATOM     78  C   UNL A   1      46.700  28.010  27.652  1.00  0.00     0.059 A 
ATOM     79  F   UNL A   1      46.588  28.603  29.927  1.00  0.00    -0.206 F 
ATOM     80  C   UNL A   1      46.149  28.062  26.370  1.00  0.00     0.060 A 
BRANCH  80  81
ATOM     81  S   UNL A   1      47.111  27.567  24.918  1.00  0.00     0.124 S 
ATOM     82  O   UNL A   1      46.538  26.265  24.593  1.00  0.00    -0.237 OA
ATOM     83  O   UNL A   1      46.803  28.638  23.972  1.00  0.00    -0.237 OA
ATOM     84  O   UNL A   1      48.479  27.540  25.421  1.00  0.00    -0.744 OA
ENDBRANCH  80  81
ENDBRANCH  48  73
BRANCH  60  85
ATOM     85  C   UNL A   1      42.548  36.174  28.662  1.00  0.00     0.058 A 
ATOM     86  C   UNL A   1      43.040  37.286  29.364  1.00  0.00     0.135 A 
ATOM     87  C   UNL A   1      42.278  36.389  27.289  1.00  0.00     0.135 A 
ATOM     88  F   UNL A   1      43.429  37.186  30.644  1.00  0.00    -0.206 F 
ATOM     89  C   UNL A   1      43.200  38.539  28.765  1.00  0.00     0.059 A 
ATOM     90  C   UNL A   1      42.483  37.614  26.660  1.00  0.00     0.059 A 
ATOM     91  F   UNL A   1      41.813  35.403  26.507  1.00  0.00    -0.206 F 
ATOM     92  C   UNL A   1      42.923  38.693  27.411  1.00  0.00     0.060 A 
BRANCH  92  93
ATOM     93  S   UNL A   1      43.201  40.281  26.602  1.00  0.00     0.124 S 
ATOM     94  O   UNL A   1      43.458  41.150  27.745  1.00  0.00    -0.237 OA
ATOM     95  O   UNL A   1      44.350  40.016  25.741  1.00  0.00    -0.237 OA
ATOM     96  O   UNL A   1      41.943  40.514  25.898  1.00  0.00    -0.744 OA
ENDBRANCH  92  93
ENDBRANCH  60  85
ENDBRANCH  34  35
ENDBRANCH  26  29
ENDBRANCH  24  25
ENDBRANCH  23  24
ENDBRANCH   1  23
TORSDOF 19
ENDMDL
MODEL 3
REMARK VINA RESULT:     -12.6      4.962     11.552
REMARK SMILES Cc1ccc([C@H](CC2CCCC2)C(=O)NCCCCCCNC(=O)c2ccc(-c3c4nc(c(-c5c(F)cc(S(=O)(=O)[O-])cc5F)c5ccc([nH]5)c(-c5c(F)cc(S(=O)(=O)[O-])cc5F)c5nc(c(-c6c(F)cc(S(=O)(=O)[O-])cc6F)c6ccc3[nH]6)C=C5)C=C4)cc2)cc1
REMARK SMILES IDX 19 1 18 2 17 3 16 4 15 5 13 6 14 7 6 9 5 10 1 11 2 12 3 13
REMARK SMILES IDX 92 14 4 15 91 16 7 17 8 18 9 19 12 20 10 21 11 22 20 23
REMARK SMILES IDX 21 24 22 25 23 26 24 28 25 29 26 30 90 31 27 32 89 33 28 34
REMARK SMILES IDX 29 35 30 36 83 37 31 38 88 39 82 40 84 41 32 42 87 43 81 44
REMARK SMILES IDX 80 45 33 47 67 48 46 49 66 50 47 51 50 52 65 53 85 54 48 55
REMARK SMILES IDX 49 56 64 58 86 59 51 60 34 61 35 62 44 63 36 64 37 65 43 66
REMARK SMILES IDX 45 67 38 68 39 69 40 70 41 71 42 72 68 73 69 74 78 75 70 76
REMARK SMILES IDX 71 77 77 78 79 79 72 80 73 81 74 82 75 83 76 84 52 85 53 86
REMARK SMILES IDX 62 87 54 88 55 89 61 90 63 91 56 92 57 93 58 94 59 95 60 96
REMARK H PARENT 15 8 22 27 84 46 50 57
REMARK Flexibility Score: inf
ROOT
ATOM      1  C   UNL A   1      36.694  21.744  25.326  1.00  0.00     0.002 C 
ENDROOT
BRANCH   1   2
ATOM      2  C   UNL A   1      36.087  22.650  24.243  1.00  0.00     0.002 C 
BRANCH   2   3
ATOM      3  C   UNL A   1      34.582  22.516  23.968  1.00  0.00     0.021 C 
BRANCH   3   4
ATOM      4  C   UNL A   1      33.777  23.810  24.046  1.00  0.00     0.116 C 
BRANCH   4   5
ATOM      5  N   UNL A   1      32.634  23.727  24.936  1.00  0.00    -0.356 N 
ATOM      6  C   UNL A   1      31.569  24.566  25.087  1.00  0.00     0.227 C 
ATOM      7  O   UNL A   1      30.605  24.135  25.732  1.00  0.00    -0.274 OA
ATOM      8  H   UNL A   1      32.624  22.938  25.525  1.00  0.00     0.163 HD
BRANCH   6   9
ATOM      9  C   UNL A   1      31.536  26.001  24.539  1.00  0.00     0.109 C 
BRANCH   9  10
ATOM     10  C   UNL A   1      32.074  27.106  25.458  1.00  0.00    -0.036 A 
ATOM     11  C   UNL A   1      33.554  30.585  27.577  1.00  0.00     0.044 C 
ATOM     12  C   UNL A   1      33.065  29.356  26.873  1.00  0.00    -0.051 A 
ATOM     13  C   UNL A   1      33.834  28.758  25.873  1.00  0.00     0.004 A 
ATOM     14  C   UNL A   1      31.855  28.760  27.233  1.00  0.00     0.004 A 
ATOM     15  C   UNL A   1      33.342  27.651  25.177  1.00  0.00     0.005 A 
ATOM     16  C   UNL A   1      31.378  27.636  26.549  1.00  0.00     0.005 A 
ENDBRANCH   9  10
BRANCH   9  17
ATOM     17  C   UNL A   1      30.173  26.397  23.911  1.00  0.00     0.022 C 
BRANCH  17  18
ATOM     18  C   UNL A   1      30.014  27.893  23.613  1.00  0.00    -0.010 C 
ATOM     19  C   UNL A   1      30.734  28.376  22.357  1.00  0.00     0.003 C 
ATOM     20  C   UNL A   1      28.557  28.237  23.291  1.00  0.00     0.003 C 
ATOM     21  C   UNL A   1      30.034  29.687  22.009  1.00  0.00     0.000 C 
ATOM     22  C   UNL A   1      28.624  29.586  22.588  1.00  0.00     0.000 C 
ENDBRANCH  17  18
ENDBRANCH   9  17
ENDBRANCH   6   9
ENDBRANCH   4   5
ENDBRANCH   3   4
ENDBRANCH   2   3
ENDBRANCH   1   2
BRANCH   1  23
ATOM     23  C   UNL A   1      38.196  21.882  25.589  1.00  0.00     0.021 C 
BRANCH  23  24
ATOM     24  C   UNL A   1      38.618  23.238  26.143  1.00  0.00     0.116 C 
BRANCH  24  25
ATOM     25  N   UNL A   1      40.024  23.283  26.543  1.00  0.00    -0.352 N 
ATOM     26  C   UNL A   1      40.755  24.378  26.965  1.00  0.00     0.251 C 
ATOM     27  H   UNL A   1      40.511  22.428  26.506  1.00  0.00     0.163 HD
ATOM     28  O   UNL A   1      41.964  24.352  27.171  1.00  0.00    -0.269 OA
BRANCH  26  29
ATOM     29  C   UNL A   1      39.982  25.584  27.311  1.00  0.00     0.039 A 
ATOM     30  C   UNL A   1      40.287  26.738  26.581  1.00  0.00     0.014 A 
ATOM     31  C   UNL A   1      39.330  25.640  28.540  1.00  0.00     0.014 A 
ATOM     32  C   UNL A   1      40.156  27.970  27.201  1.00  0.00     0.010 A 
ATOM     33  C   UNL A   1      39.280  26.859  29.185  1.00  0.00     0.010 A 
ATOM     34  C   UNL A   1      39.768  28.003  28.541  1.00  0.00    -0.014 A 
BRANCH  34  35
ATOM     35  C   UNL A   1      39.937  29.194  29.361  1.00  0.00     0.031 A 
ATOM     36  C   UNL A   1      38.940  30.276  29.255  1.00  0.00     0.074 A 
ATOM     37  C   UNL A   1      41.019  29.315  30.160  1.00  0.00     0.049 A 
ATOM     38  N   UNL A   1      39.151  31.499  29.603  1.00  0.00    -0.248 NA
ATOM     39  C   UNL A   1      37.641  30.073  28.620  1.00  0.00     0.031 C 
ATOM     40  C   UNL A   1      41.264  30.337  31.173  1.00  0.00     0.029 A 
ATOM     41  N   UNL A   1      42.247  28.658  30.020  1.00  0.00    -0.354 N 
ATOM     42  C   UNL A   1      37.958  32.174  29.494  1.00  0.00     0.074 A 
ATOM     43  C   UNL A   1      37.110  31.291  28.739  1.00  0.00     0.031 C 
ATOM     44  C   UNL A   1      42.586  30.430  31.378  1.00  0.00     0.029 A 
ATOM     45  C   UNL A   1      43.247  29.567  30.414  1.00  0.00     0.049 A 
ATOM     46  H   UNL A   1      42.384  27.736  29.705  1.00  0.00     0.167 HD
ATOM     47  C   UNL A   1      37.798  33.334  30.189  1.00  0.00     0.037 A 
ATOM     48  C   UNL A   1      44.198  29.983  29.529  1.00  0.00     0.037 A 
ATOM     49  C   UNL A   1      39.111  33.861  30.583  1.00  0.00     0.049 A 
ATOM     50  C   UNL A   1      44.132  31.462  29.213  1.00  0.00     0.074 A 
ATOM     51  C   UNL A   1      39.815  33.874  31.775  1.00  0.00     0.029 A 
ATOM     52  N   UNL A   1      40.029  34.200  29.586  1.00  0.00    -0.354 N 
ATOM     53  N   UNL A   1      43.119  32.232  29.511  1.00  0.00    -0.248 NA
ATOM     54  C   UNL A   1      45.202  32.196  28.540  1.00  0.00     0.031 C 
ATOM     55  C   UNL A   1      41.191  34.074  31.465  1.00  0.00     0.029 A 
ATOM     56  C   UNL A   1      41.314  34.247  30.095  1.00  0.00     0.049 A 
ATOM     57  H   UNL A   1      39.792  34.380  28.648  1.00  0.00     0.167 HD
ATOM     58  C   UNL A   1      43.360  33.510  29.076  1.00  0.00     0.074 A 
ATOM     59  C   UNL A   1      44.692  33.440  28.498  1.00  0.00     0.031 C 
ATOM     60  C   UNL A   1      42.452  34.522  29.221  1.00  0.00     0.037 A 
BRANCH  47  61
ATOM     61  C   UNL A   1      36.459  33.828  30.736  1.00  0.00     0.058 A 
ATOM     62  C   UNL A   1      35.441  34.257  29.851  1.00  0.00     0.135 A 
ATOM     63  C   UNL A   1      36.156  34.056  32.100  1.00  0.00     0.135 A 
ATOM     64  F   UNL A   1      35.564  34.099  28.525  1.00  0.00    -0.206 F 
ATOM     65  C   UNL A   1      34.268  34.902  30.280  1.00  0.00     0.059 A 
ATOM     66  C   UNL A   1      34.988  34.673  32.551  1.00  0.00     0.059 A 
ATOM     67  F   UNL A   1      36.985  33.742  33.094  1.00  0.00    -0.206 F 
ATOM     68  C   UNL A   1      34.058  35.122  31.635  1.00  0.00     0.060 A 
BRANCH  68  69
ATOM     69  S   UNL A   1      32.597  36.012  32.201  1.00  0.00     0.124 S 
ATOM     70  O   UNL A   1      33.138  36.814  33.293  1.00  0.00    -0.237 OA
ATOM     71  O   UNL A   1      32.197  36.744  31.005  1.00  0.00    -0.237 OA
ATOM     72  O   UNL A   1      31.684  34.946  32.609  1.00  0.00    -0.744 OA
ENDBRANCH  68  69
ENDBRANCH  47  61
BRANCH  48  73
ATOM     73  C   UNL A   1      44.706  28.895  28.650  1.00  0.00     0.058 A 
ATOM     74  C   UNL A   1      44.170  28.807  27.350  1.00  0.00     0.135 A 
ATOM     75  C   UNL A   1      45.924  28.242  28.885  1.00  0.00     0.135 A 
ATOM     76  F   UNL A   1      42.995  29.394  27.071  1.00  0.00    -0.206 F 
ATOM     77  C   UNL A   1      44.870  28.223  26.298  1.00  0.00     0.059 A 
ATOM     78  C   UNL A   1      46.647  27.651  27.841  1.00  0.00     0.059 A 
ATOM     79  F   UNL A   1      46.478  28.270  30.106  1.00  0.00    -0.206 F 
ATOM     80  C   UNL A   1      46.139  27.704  26.542  1.00  0.00     0.060 A 
BRANCH  80  81
ATOM     81  S   UNL A   1      47.132  27.167  25.127  1.00  0.00     0.124 S 
ATOM     82  O   UNL A   1      48.415  26.854  25.747  1.00  0.00    -0.237 OA
ATOM     83  O   UNL A   1      46.374  26.014  24.645  1.00  0.00    -0.237 OA
ATOM     84  O   UNL A   1      47.128  28.337  24.257  1.00  0.00    -0.744 OA
ENDBRANCH  80  81
ENDBRANCH  48  73
BRANCH  60  85
ATOM     85  C   UNL A   1      42.581  35.903  28.614  1.00  0.00     0.058 A 
ATOM     86  C   UNL A   1      41.897  36.323  27.460  1.00  0.00     0.135 A 
ATOM     87  C   UNL A   1      43.312  36.908  29.290  1.00  0.00     0.135 A 
ATOM     88  F   UNL A   1      41.089  35.491  26.787  1.00  0.00    -0.206 F 
ATOM     89  C   UNL A   1      41.978  37.633  26.977  1.00  0.00     0.059 A 
ATOM     90  C   UNL A   1      43.360  38.231  28.858  1.00  0.00     0.059 A 
ATOM     91  F   UNL A   1      44.000  36.636  30.410  1.00  0.00    -0.206 F 
ATOM     92  C   UNL A   1      42.708  38.582  27.686  1.00  0.00     0.060 A 
BRANCH  92  93
ATOM     93  S   UNL A   1      42.758  40.294  27.124  1.00  0.00     0.124 S 
ATOM     94  O   UNL A   1      41.478  40.412  26.432  1.00  0.00    -0.237 OA
ATOM     95  O   UNL A   1      42.872  41.047  28.370  1.00  0.00    -0.237 OA
ATOM     96  O   UNL A   1      43.944  40.326  26.273  1.00  0.00    -0.744 OA
ENDBRANCH  92  93
ENDBRANCH  60  85
ENDBRANCH  34  35
ENDBRANCH  26  29
ENDBRANCH  24  25
ENDBRANCH  23  24
ENDBRANCH   1  23
TORSDOF 19
ENDMDL
