MODEL 1
REMARK VINA RESULT:     -11.4      0.000      0.000
REMARK SMILES Cc1nn(C)c(C)c1[C@H](C)N1C(=O)CC[C@@H](C(=O)NCCCCCCNC(=O)c2ccc(-c3c4nc(c(-c5c(F)cc(S(=O)(=O)[O-])cc5F)c5ccc([nH]5)c(-c5c(F)cc(S(=O)(=O)[O-])cc5F)c5nc(c(-c6c(F)cc(S(=O)(=O)[O-])cc6F)c6ccc3[nH]6)C=C5)C=C4)cc2)[C@@H]1c1ccco1
REMARK SMILES IDX 23 1 22 2 21 3 20 4 19 5 17 6 18 7 16 9 11 10 12 11 95 12
REMARK SMILES IDX 13 13 14 14 15 15 9 16 10 17 8 18 1 19 2 20 3 21 4 22 6 23
REMARK SMILES IDX 5 24 7 25 96 26 97 27 100 28 98 29 99 30 24 31 25 32 26 33
REMARK SMILES IDX 27 34 28 36 29 37 30 38 94 39 31 40 93 41 32 42 33 43 34 44
REMARK SMILES IDX 87 45 35 46 92 47 86 48 88 49 36 50 91 51 85 52 84 53 37 55
REMARK SMILES IDX 71 56 50 57 70 58 51 59 54 60 69 61 89 62 52 63 53 64 68 66
REMARK SMILES IDX 90 67 55 68 38 69 39 70 48 71 40 72 41 73 47 74 49 75 42 76
REMARK SMILES IDX 43 77 44 78 45 79 46 80 72 81 73 82 82 83 74 84 75 85 81 86
REMARK SMILES IDX 83 87 76 88 77 89 78 90 79 91 80 92 56 93 57 94 66 95 58 96
REMARK SMILES IDX 59 97 65 98 67 99 60 100 61 101 62 102 63 103 64 104
REMARK H PARENT 19 8 26 35 88 54 54 65
REMARK Flexibility Score: inf
ROOT
ATOM      1  C   UNL A   1      42.311  22.016  26.245  1.00  0.00     0.002 C 
ENDROOT
BRANCH   1   2
ATOM      2  C   UNL A   1      41.038  22.203  27.077  1.00  0.00     0.002 C 
BRANCH   2   3
ATOM      3  C   UNL A   1      39.824  21.385  26.607  1.00  0.00     0.021 C 
BRANCH   3   4
ATOM      4  C   UNL A   1      38.832  22.175  25.751  1.00  0.00     0.116 C 
BRANCH   4   5
ATOM      5  N   UNL A   1      37.882  21.272  25.135  1.00  0.00    -0.356 N 
ATOM      6  C   UNL A   1      36.573  21.453  24.830  1.00  0.00     0.225 C 
ATOM      7  O   UNL A   1      35.909  20.433  24.636  1.00  0.00    -0.275 OA
ATOM      8  H   UNL A   1      38.245  20.387  24.899  1.00  0.00     0.163 HD
BRANCH   6   9
ATOM      9  C   UNL A   1      36.002  22.856  24.647  1.00  0.00     0.109 C 
ATOM     10  N   UNL A   1      33.651  22.300  25.397  1.00  0.00    -0.325 N 
ATOM     11  C   UNL A   1      34.063  22.439  26.722  1.00  0.00     0.223 C 
ATOM     12  C   UNL A   1      34.514  22.720  24.279  1.00  0.00     0.164 C 
ATOM     13  O   UNL A   1      33.440  21.950  27.670  1.00  0.00    -0.275 OA
ATOM     14  C   UNL A   1      35.330  23.213  27.045  1.00  0.00     0.101 C 
ATOM     15  C   UNL A   1      36.159  23.715  25.886  1.00  0.00     0.026 C 
BRANCH  10  16
ATOM     16  C   UNL A   1      32.355  21.584  25.170  1.00  0.00     0.117 C 
ATOM     17  C   UNL A   1      31.263  22.568  24.719  1.00  0.00     0.036 C 
BRANCH  16  18
ATOM     18  C   UNL A   1      32.444  20.329  24.294  1.00  0.00     0.018 A 
ATOM     19  C   UNL A   1      31.779  21.070  21.795  1.00  0.00     0.069 C 
ATOM     20  C   UNL A   1      32.215  20.151  22.881  1.00  0.00     0.065 A 
ATOM     21  N   UNL A   1      32.408  18.882  22.503  1.00  0.00    -0.178 NA
ATOM     22  N   UNL A   1      32.746  18.238  23.619  1.00  0.00    -0.272 N 
ATOM     23  C   UNL A   1      32.683  19.021  24.738  1.00  0.00     0.040 A 
ATOM     24  C   UNL A   1      33.126  16.849  23.500  1.00  0.00     0.174 C 
ATOM     25  C   UNL A   1      32.902  18.466  26.102  1.00  0.00     0.067 C 
ENDBRANCH  16  18
ENDBRANCH  10  16
BRANCH  12  26
ATOM     26  C   UNL A   1      33.999  23.947  23.582  1.00  0.00     0.127 A 
ATOM     27  C   UNL A   1      33.738  25.219  24.053  1.00  0.00     0.048 A 
ATOM     28  O   UNL A   1      33.745  23.889  22.242  1.00  0.00    -0.467 OA
ATOM     29  C   UNL A   1      33.325  25.984  22.940  1.00  0.00     0.042 A 
ATOM     30  C   UNL A   1      33.358  25.134  21.861  1.00  0.00     0.195 A 
ENDBRANCH  12  26
ENDBRANCH   6   9
ENDBRANCH   4   5
ENDBRANCH   3   4
ENDBRANCH   2   3
ENDBRANCH   1   2
BRANCH   1  31
ATOM     31  C   UNL A   1      43.570  22.643  26.845  1.00  0.00     0.021 C 
BRANCH  31  32
ATOM     32  C   UNL A   1      43.725  24.136  26.571  1.00  0.00     0.116 C 
BRANCH  32  33
ATOM     33  N   UNL A   1      42.751  24.617  25.605  1.00  0.00    -0.352 N 
ATOM     34  C   UNL A   1      41.739  25.527  25.779  1.00  0.00     0.251 C 
ATOM     35  H   UNL A   1      42.828  24.237  24.700  1.00  0.00     0.163 HD
ATOM     36  O   UNL A   1      40.884  25.669  24.908  1.00  0.00    -0.269 OA
BRANCH  34  37
ATOM     37  C   UNL A   1      41.668  26.317  27.027  1.00  0.00     0.039 A 
ATOM     38  C   UNL A   1      42.315  27.553  27.085  1.00  0.00     0.014 A 
ATOM     39  C   UNL A   1      40.955  25.843  28.134  1.00  0.00     0.014 A 
ATOM     40  C   UNL A   1      42.193  28.343  28.230  1.00  0.00     0.010 A 
ATOM     41  C   UNL A   1      40.772  26.665  29.243  1.00  0.00     0.010 A 
ATOM     42  C   UNL A   1      41.388  27.924  29.304  1.00  0.00    -0.014 A 
BRANCH  42  43
ATOM     43  C   UNL A   1      41.164  28.796  30.486  1.00  0.00     0.031 A 
ATOM     44  C   UNL A   1      41.996  28.617  31.728  1.00  0.00     0.074 A 
ATOM     45  C   UNL A   1      40.168  29.703  30.464  1.00  0.00     0.049 A 
ATOM     46  N   UNL A   1      41.899  29.231  32.880  1.00  0.00    -0.248 NA
ATOM     47  C   UNL A   1      43.057  27.599  31.678  1.00  0.00     0.031 C 
ATOM     48  C   UNL A   1      39.265  29.939  29.335  1.00  0.00     0.029 A 
ATOM     49  N   UNL A   1      39.737  30.589  31.420  1.00  0.00    -0.354 N 
ATOM     50  C   UNL A   1      42.878  28.669  33.692  1.00  0.00     0.074 A 
ATOM     51  C   UNL A   1      43.520  27.628  32.919  1.00  0.00     0.031 C 
ATOM     52  C   UNL A   1      38.404  30.919  29.655  1.00  0.00     0.029 A 
ATOM     53  C   UNL A   1      38.661  31.349  31.026  1.00  0.00     0.049 A 
ATOM     54  H   UNL A   1      40.160  30.673  32.305  1.00  0.00     0.167 HD
ATOM     55  C   UNL A   1      43.223  29.006  34.958  1.00  0.00     0.037 A 
ATOM     56  C   UNL A   1      37.951  32.279  31.695  1.00  0.00     0.037 A 
ATOM     57  C   UNL A   1      42.589  30.055  35.714  1.00  0.00     0.049 A 
ATOM     58  C   UNL A   1      38.343  32.623  33.106  1.00  0.00     0.074 A 
ATOM     59  C   UNL A   1      42.901  30.508  36.984  1.00  0.00     0.029 A 
ATOM     60  N   UNL A   1      41.511  30.811  35.276  1.00  0.00    -0.354 N 
ATOM     61  N   UNL A   1      39.312  32.124  33.837  1.00  0.00    -0.248 NA
ATOM     62  C   UNL A   1      37.552  33.659  33.784  1.00  0.00     0.031 C 
ATOM     63  C   UNL A   1      41.979  31.499  37.335  1.00  0.00     0.029 A 
ATOM     64  C   UNL A   1      41.130  31.709  36.259  1.00  0.00     0.049 A 
ATOM     65  H   UNL A   1      41.081  30.723  34.394  1.00  0.00     0.167 HD
ATOM     66  C   UNL A   1      39.266  32.808  35.048  1.00  0.00     0.074 A 
ATOM     67  C   UNL A   1      38.182  33.763  34.945  1.00  0.00     0.031 C 
ATOM     68  C   UNL A   1      40.053  32.661  36.142  1.00  0.00     0.037 A 
BRANCH  55  69
ATOM     69  C   UNL A   1      44.338  28.233  35.611  1.00  0.00     0.058 A 
ATOM     70  C   UNL A   1      45.645  28.741  35.686  1.00  0.00     0.135 A 
ATOM     71  C   UNL A   1      44.086  26.989  36.212  1.00  0.00     0.135 A 
ATOM     72  F   UNL A   1      45.947  29.918  35.116  1.00  0.00    -0.206 F 
ATOM     73  C   UNL A   1      46.667  28.032  36.308  1.00  0.00     0.059 A 
ATOM     74  C   UNL A   1      45.087  26.276  36.868  1.00  0.00     0.059 A 
ATOM     75  F   UNL A   1      42.856  26.453  36.171  1.00  0.00    -0.206 F 
ATOM     76  C   UNL A   1      46.377  26.801  36.899  1.00  0.00     0.060 A 
BRANCH  76  77
ATOM     77  S   UNL A   1      47.714  25.902  37.713  1.00  0.00     0.124 S 
ATOM     78  O   UNL A   1      48.475  25.411  36.567  1.00  0.00    -0.237 OA
ATOM     79  O   UNL A   1      48.358  26.948  38.500  1.00  0.00    -0.237 OA
ATOM     80  O   UNL A   1      47.016  24.878  38.484  1.00  0.00    -0.744 OA
ENDBRANCH  76  77
ENDBRANCH  55  69
BRANCH  56  81
ATOM     81  C   UNL A   1      36.803  32.958  31.034  1.00  0.00     0.058 A 
ATOM     82  C   UNL A   1      37.010  33.999  30.115  1.00  0.00     0.135 A 
ATOM     83  C   UNL A   1      35.479  32.576  31.300  1.00  0.00     0.135 A 
ATOM     84  F   UNL A   1      38.257  34.404  29.830  1.00  0.00    -0.206 F 
ATOM     85  C   UNL A   1      35.945  34.649  29.499  1.00  0.00     0.059 A 
ATOM     86  C   UNL A   1      34.400  33.192  30.674  1.00  0.00     0.059 A 
ATOM     87  F   UNL A   1      35.226  31.575  32.158  1.00  0.00    -0.206 F 
ATOM     88  C   UNL A   1      34.643  34.236  29.783  1.00  0.00     0.060 A 
BRANCH  88  89
ATOM     89  S   UNL A   1      33.271  35.057  28.945  1.00  0.00     0.124 S 
ATOM     90  O   UNL A   1      32.382  35.356  30.060  1.00  0.00    -0.237 OA
ATOM     91  O   UNL A   1      33.932  36.203  28.327  1.00  0.00    -0.237 OA
ATOM     92  O   UNL A   1      32.793  34.041  28.011  1.00  0.00    -0.744 OA
ENDBRANCH  88  89
ENDBRANCH  56  81
BRANCH  68  93
ATOM     93  C   UNL A   1      39.801  33.580  37.308  1.00  0.00     0.058 A 
ATOM     94  C   UNL A   1      40.446  34.822  37.427  1.00  0.00     0.135 A 
ATOM     95  C   UNL A   1      38.860  33.235  38.291  1.00  0.00     0.135 A 
ATOM     96  F   UNL A   1      41.360  35.199  36.519  1.00  0.00    -0.206 F 
ATOM     97  C   UNL A   1      40.185  35.675  38.493  1.00  0.00     0.059 A 
ATOM     98  C   UNL A   1      38.560  34.088  39.348  1.00  0.00     0.059 A 
ATOM     99  F   UNL A   1      38.207  32.064  38.220  1.00  0.00    -0.206 F 
ATOM    100  C   UNL A   1      39.237  35.301  39.447  1.00  0.00     0.060 A 
BRANCH 100 101
ATOM    101  S   UNL A   1      38.883  36.435  40.806  1.00  0.00     0.124 S 
ATOM    102  O   UNL A   1      37.860  35.702  41.543  1.00  0.00    -0.237 OA
ATOM    103  O   UNL A   1      40.181  36.547  41.464  1.00  0.00    -0.237 OA
ATOM    104  O   UNL A   1      38.424  37.644  40.129  1.00  0.00    -0.744 OA
ENDBRANCH 100 101
ENDBRANCH  68  93
ENDBRANCH  42  43
ENDBRANCH  34  37
ENDBRANCH  32  33
ENDBRANCH  31  32
ENDBRANCH   1  31
TORSDOF 19
ENDMDL
MODEL 2
REMARK VINA RESULT:     -11.3      0.568      7.947
REMARK SMILES Cc1nn(C)c(C)c1[C@H](C)N1C(=O)CC[C@@H](C(=O)NCCCCCCNC(=O)c2ccc(-c3c4nc(c(-c5c(F)cc(S(=O)(=O)[O-])cc5F)c5ccc([nH]5)c(-c5c(F)cc(S(=O)(=O)[O-])cc5F)c5nc(c(-c6c(F)cc(S(=O)(=O)[O-])cc6F)c6ccc3[nH]6)C=C5)C=C4)cc2)[C@@H]1c1ccco1
REMARK SMILES IDX 23 1 22 2 21 3 20 4 19 5 17 6 18 7 16 9 11 10 12 11 95 12
REMARK SMILES IDX 13 13 14 14 15 15 9 16 10 17 8 18 1 19 2 20 3 21 4 22 6 23
REMARK SMILES IDX 5 24 7 25 96 26 97 27 100 28 98 29 99 30 24 31 25 32 26 33
REMARK SMILES IDX 27 34 28 36 29 37 30 38 94 39 31 40 93 41 32 42 33 43 34 44
REMARK SMILES IDX 87 45 35 46 92 47 86 48 88 49 36 50 91 51 85 52 84 53 37 55
REMARK SMILES IDX 71 56 50 57 70 58 51 59 54 60 69 61 89 62 52 63 53 64 68 66
REMARK SMILES IDX 90 67 55 68 38 69 39 70 48 71 40 72 41 73 47 74 49 75 42 76
REMARK SMILES IDX 43 77 44 78 45 79 46 80 72 81 73 82 82 83 74 84 75 85 81 86
REMARK SMILES IDX 83 87 76 88 77 89 78 90 79 91 80 92 56 93 57 94 66 95 58 96
REMARK SMILES IDX 59 97 65 98 67 99 60 100 61 101 62 102 63 103 64 104
REMARK H PARENT 19 8 26 35 88 54 54 65
REMARK Flexibility Score: inf
ROOT
ATOM      1  C   UNL A   1      42.230  22.164  26.202  1.00  0.00     0.002 C 
ENDROOT
BRANCH   1   2
ATOM      2  C   UNL A   1      40.979  22.330  27.071  1.00  0.00     0.002 C 
BRANCH   2   3
ATOM      3  C   UNL A   1      39.779  21.463  26.660  1.00  0.00     0.021 C 
BRANCH   3   4
ATOM      4  C   UNL A   1      38.792  22.164  25.725  1.00  0.00     0.116 C 
BRANCH   4   5
ATOM      5  N   UNL A   1      37.813  21.215  25.237  1.00  0.00    -0.356 N 
ATOM      6  C   UNL A   1      36.491  21.376  24.980  1.00  0.00     0.225 C 
ATOM      7  O   UNL A   1      35.817  20.347  24.909  1.00  0.00    -0.275 OA
ATOM      8  H   UNL A   1      38.163  20.310  25.064  1.00  0.00     0.163 HD
BRANCH   6   9
ATOM      9  C   UNL A   1      35.914  22.761  24.699  1.00  0.00     0.109 C 
ATOM     10  N   UNL A   1      33.536  22.211  25.365  1.00  0.00    -0.325 N 
ATOM     11  C   UNL A   1      33.884  22.422  26.699  1.00  0.00     0.223 C 
ATOM     12  C   UNL A   1      34.447  22.587  24.269  1.00  0.00     0.164 C 
ATOM     13  O   UNL A   1      33.222  21.973  27.641  1.00  0.00    -0.275 OA
ATOM     14  C   UNL A   1      35.125  23.229  27.041  1.00  0.00     0.101 C 
ATOM     15  C   UNL A   1      36.003  23.682  25.899  1.00  0.00     0.026 C 
BRANCH  10  16
ATOM     16  C   UNL A   1      32.260  21.467  25.115  1.00  0.00     0.117 C 
ATOM     17  C   UNL A   1      31.161  22.425  24.626  1.00  0.00     0.036 C 
BRANCH  16  18
ATOM     18  C   UNL A   1      32.396  20.205  24.256  1.00  0.00     0.018 A 
ATOM     19  C   UNL A   1      31.745  20.897  21.739  1.00  0.00     0.069 C 
ATOM     20  C   UNL A   1      32.191  20.003  22.842  1.00  0.00     0.065 A 
ATOM     21  N   UNL A   1      32.424  18.736  22.483  1.00  0.00    -0.178 NA
ATOM     22  N   UNL A   1      32.763  18.115  23.611  1.00  0.00    -0.272 N 
ATOM     23  C   UNL A   1      32.664  18.909  24.719  1.00  0.00     0.040 A 
ATOM     24  C   UNL A   1      33.183  16.735  23.515  1.00  0.00     0.174 C 
ATOM     25  C   UNL A   1      32.879  18.377  26.094  1.00  0.00     0.067 C 
ENDBRANCH  16  18
ENDBRANCH  10  16
BRANCH  12  26
ATOM     26  C   UNL A   1      33.952  23.769  23.487  1.00  0.00     0.127 A 
ATOM     27  C   UNL A   1      33.469  23.869  22.197  1.00  0.00     0.048 A 
ATOM     28  O   UNL A   1      33.914  24.993  24.091  1.00  0.00    -0.467 OA
ATOM     29  C   UNL A   1      33.094  25.219  22.010  1.00  0.00     0.042 A 
ATOM     30  C   UNL A   1      33.372  25.858  23.195  1.00  0.00     0.195 A 
ENDBRANCH  12  26
ENDBRANCH   6   9
ENDBRANCH   4   5
ENDBRANCH   3   4
ENDBRANCH   2   3
ENDBRANCH   1   2
BRANCH   1  31
ATOM     31  C   UNL A   1      43.544  22.547  26.884  1.00  0.00     0.021 C 
BRANCH  31  32
ATOM     32  C   UNL A   1      43.835  24.044  26.900  1.00  0.00     0.116 C 
BRANCH  32  33
ATOM     33  N   UNL A   1      43.127  24.749  25.844  1.00  0.00    -0.352 N 
ATOM     34  C   UNL A   1      42.257  25.806  25.944  1.00  0.00     0.251 C 
ATOM     35  H   UNL A   1      43.294  24.423  24.931  1.00  0.00     0.163 HD
ATOM     36  O   UNL A   1      41.594  26.150  24.968  1.00  0.00    -0.269 OA
BRANCH  34  37
ATOM     37  C   UNL A   1      42.102  26.510  27.235  1.00  0.00     0.039 A 
ATOM     38  C   UNL A   1      42.876  27.645  27.483  1.00  0.00     0.014 A 
ATOM     39  C   UNL A   1      41.188  26.058  28.192  1.00  0.00     0.014 A 
ATOM     40  C   UNL A   1      42.687  28.365  28.665  1.00  0.00     0.010 A 
ATOM     41  C   UNL A   1      40.947  26.819  29.333  1.00  0.00     0.010 A 
ATOM     42  C   UNL A   1      41.693  27.981  29.582  1.00  0.00    -0.014 A 
BRANCH  42  43
ATOM     43  C   UNL A   1      41.408  28.791  30.795  1.00  0.00     0.031 A 
ATOM     44  C   UNL A   1      40.269  29.776  30.798  1.00  0.00     0.074 A 
ATOM     45  C   UNL A   1      42.215  28.687  31.869  1.00  0.00     0.049 A 
ATOM     46  N   UNL A   1      39.912  30.620  31.733  1.00  0.00    -0.248 NA
ATOM     47  C   UNL A   1      39.439  29.838  29.585  1.00  0.00     0.031 C 
ATOM     48  C   UNL A   1      43.377  27.801  31.970  1.00  0.00     0.029 A 
ATOM     49  N   UNL A   1      42.193  29.339  33.077  1.00  0.00    -0.354 N 
ATOM     50  C   UNL A   1      38.826  31.318  31.217  1.00  0.00     0.074 A 
ATOM     51  C   UNL A   1      38.616  30.837  29.869  1.00  0.00     0.031 C 
ATOM     52  C   UNL A   1      43.941  27.948  33.179  1.00  0.00     0.029 A 
ATOM     53  C   UNL A   1      43.212  28.971  33.923  1.00  0.00     0.049 A 
ATOM     54  H   UNL A   1      41.509  30.006  33.316  1.00  0.00     0.167 HD
ATOM     55  C   UNL A   1      38.060  32.259  31.822  1.00  0.00     0.037 A 
ATOM     56  C   UNL A   1      43.534  29.414  35.155  1.00  0.00     0.037 A 
ATOM     57  C   UNL A   1      38.266  32.719  33.171  1.00  0.00     0.049 A 
ATOM     58  C   UNL A   1      42.679  30.471  35.798  1.00  0.00     0.074 A 
ATOM     59  C   UNL A   1      37.513  33.629  33.893  1.00  0.00     0.029 A 
ATOM     60  N   UNL A   1      39.301  32.313  34.001  1.00  0.00    -0.354 N 
ATOM     61  N   UNL A   1      41.616  31.076  35.320  1.00  0.00    -0.248 NA
ATOM     62  C   UNL A   1      43.058  30.905  37.150  1.00  0.00     0.031 C 
ATOM     63  C   UNL A   1      38.123  33.815  35.136  1.00  0.00     0.029 A 
ATOM     64  C   UNL A   1      39.222  32.973  35.217  1.00  0.00     0.049 A 
ATOM     65  H   UNL A   1      39.991  31.652  33.762  1.00  0.00     0.167 HD
ATOM     66  C   UNL A   1      41.183  31.936  36.324  1.00  0.00     0.074 A 
ATOM     67  C   UNL A   1      42.092  31.764  37.439  1.00  0.00     0.031 C 
ATOM     68  C   UNL A   1      40.128  32.787  36.323  1.00  0.00     0.037 A 
BRANCH  55  69
ATOM     69  C   UNL A   1      36.926  32.855  31.032  1.00  0.00     0.058 A 
ATOM     70  C   UNL A   1      35.591  32.484  31.259  1.00  0.00     0.135 A 
ATOM     71  C   UNL A   1      37.172  33.846  30.068  1.00  0.00     0.135 A 
ATOM     72  F   UNL A   1      35.297  31.530  32.157  1.00  0.00    -0.206 F 
ATOM     73  C   UNL A   1      34.544  33.052  30.540  1.00  0.00     0.059 A 
ATOM     74  C   UNL A   1      36.138  34.452  29.359  1.00  0.00     0.059 A 
ATOM     75  F   UNL A   1      38.430  34.240  29.808  1.00  0.00    -0.206 F 
ATOM     76  C   UNL A   1      34.829  34.039  29.594  1.00  0.00     0.060 A 
BRANCH  76  77
ATOM     77  S   UNL A   1      33.457  34.775  28.680  1.00  0.00     0.124 S 
ATOM     78  O   UNL A   1      32.494  35.022  29.750  1.00  0.00    -0.237 OA
ATOM     79  O   UNL A   1      34.073  35.961  28.096  1.00  0.00    -0.237 OA
ATOM     80  O   UNL A   1      33.081  33.732  27.731  1.00  0.00    -0.744 OA
ENDBRANCH  76  77
ENDBRANCH  55  69
BRANCH  56  81
ATOM     81  C   UNL A   1      44.716  28.851  35.864  1.00  0.00     0.058 A 
ATOM     82  C   UNL A   1      44.587  27.748  36.722  1.00  0.00     0.135 A 
ATOM     83  C   UNL A   1      45.997  29.399  35.693  1.00  0.00     0.135 A 
ATOM     84  F   UNL A   1      43.382  27.192  36.923  1.00  0.00    -0.206 F 
ATOM     85  C   UNL A   1      45.681  27.220  37.399  1.00  0.00     0.059 A 
ATOM     86  C   UNL A   1      47.110  28.870  36.337  1.00  0.00     0.059 A 
ATOM     87  F   UNL A   1      46.178  30.444  34.871  1.00  0.00    -0.206 F 
ATOM     88  C   UNL A   1      46.940  27.787  37.198  1.00  0.00     0.060 A 
BRANCH  88  89
ATOM     89  S   UNL A   1      48.361  27.066  38.048  1.00  0.00     0.124 S 
ATOM     90  O   UNL A   1      48.318  25.688  37.574  1.00  0.00    -0.237 OA
ATOM     91  O   UNL A   1      49.463  27.882  37.547  1.00  0.00    -0.237 OA
ATOM     92  O   UNL A   1      48.040  27.260  39.459  1.00  0.00    -0.744 OA
ENDBRANCH  88  89
ENDBRANCH  56  81
BRANCH  68  93
ATOM     93  C   UNL A   1      39.867  33.572  37.581  1.00  0.00     0.058 A 
ATOM     94  C   UNL A   1      40.530  34.779  37.853  1.00  0.00     0.135 A 
ATOM     95  C   UNL A   1      38.898  33.137  38.499  1.00  0.00     0.135 A 
ATOM     96  F   UNL A   1      41.471  35.238  37.013  1.00  0.00    -0.206 F 
ATOM     97  C   UNL A   1      40.261  35.512  39.005  1.00  0.00     0.059 A 
ATOM     98  C   UNL A   1      38.589  33.870  39.640  1.00  0.00     0.059 A 
ATOM     99  F   UNL A   1      38.226  31.995  38.282  1.00  0.00    -0.206 F 
ATOM    100  C   UNL A   1      39.285  35.050  39.890  1.00  0.00     0.060 A 
BRANCH 100 101
ATOM    101  S   UNL A   1      38.921  36.030  41.362  1.00  0.00     0.124 S 
ATOM    102  O   UNL A   1      38.755  37.363  40.794  1.00  0.00    -0.237 OA
ATOM    103  O   UNL A   1      37.704  35.399  41.864  1.00  0.00    -0.237 OA
ATOM    104  O   UNL A   1      40.105  35.846  42.195  1.00  0.00    -0.744 OA
ENDBRANCH 100 101
ENDBRANCH  68  93
ENDBRANCH  42  43
ENDBRANCH  34  37
ENDBRANCH  32  33
ENDBRANCH  31  32
ENDBRANCH   1  31
TORSDOF 19
ENDMDL
MODEL 3
REMARK VINA RESULT:     -11.3      3.028      8.902
REMARK SMILES Cc1nn(C)c(C)c1[C@H](C)N1C(=O)CC[C@@H](C(=O)NCCCCCCNC(=O)c2ccc(-c3c4nc(c(-c5c(F)cc(S(=O)(=O)[O-])cc5F)c5ccc([nH]5)c(-c5c(F)cc(S(=O)(=O)[O-])cc5F)c5nc(c(-c6c(F)cc(S(=O)(=O)[O-])cc6F)c6ccc3[nH]6)C=C5)C=C4)cc2)[C@@H]1c1ccco1
REMARK SMILES IDX 23 1 22 2 21 3 20 4 19 5 17 6 18 7 16 9 11 10 12 11 95 12
REMARK SMILES IDX 13 13 14 14 15 15 9 16 10 17 8 18 1 19 2 20 3 21 4 22 6 23
REMARK SMILES IDX 5 24 7 25 96 26 97 27 100 28 98 29 99 30 24 31 25 32 26 33
REMARK SMILES IDX 27 34 28 36 29 37 30 38 94 39 31 40 93 41 32 42 33 43 34 44
REMARK SMILES IDX 87 45 35 46 92 47 86 48 88 49 36 50 91 51 85 52 84 53 37 55
REMARK SMILES IDX 71 56 50 57 70 58 51 59 54 60 69 61 89 62 52 63 53 64 68 66
REMARK SMILES IDX 90 67 55 68 38 69 39 70 48 71 40 72 41 73 47 74 49 75 42 76
REMARK SMILES IDX 43 77 44 78 45 79 46 80 72 81 73 82 82 83 74 84 75 85 81 86
REMARK SMILES IDX 83 87 76 88 77 89 78 90 79 91 80 92 56 93 57 94 66 95 58 96
REMARK SMILES IDX 59 97 65 98 67 99 60 100 61 101 62 102 63 103 64 104
REMARK H PARENT 19 8 26 35 88 54 54 65
REMARK Flexibility Score: inf
ROOT
ATOM      1  C   UNL A   1      35.886  33.518  28.228  1.00  0.00     0.002 C 
ENDROOT
BRANCH   1   2
ATOM      2  C   UNL A   1      35.509  32.155  28.818  1.00  0.00     0.002 C 
BRANCH   2   3
ATOM      3  C   UNL A   1      35.712  30.958  27.876  1.00  0.00     0.021 C 
BRANCH   3   4
ATOM      4  C   UNL A   1      34.423  30.442  27.234  1.00  0.00     0.116 C 
BRANCH   4   5
ATOM      5  N   UNL A   1      34.727  29.382  26.295  1.00  0.00    -0.356 N 
ATOM      6  C   UNL A   1      33.902  28.635  25.521  1.00  0.00     0.225 C 
ATOM      7  O   UNL A   1      34.366  27.582  25.080  1.00  0.00    -0.275 OA
ATOM      8  H   UNL A   1      35.685  29.170  26.206  1.00  0.00     0.163 HD
BRANCH   6   9
ATOM      9  C   UNL A   1      32.511  29.142  25.148  1.00  0.00     0.109 C 
ATOM     10  N   UNL A   1      31.398  26.871  25.076  1.00  0.00    -0.325 N 
ATOM     11  C   UNL A   1      31.249  26.923  26.461  1.00  0.00     0.223 C 
ATOM     12  C   UNL A   1      31.818  28.057  24.306  1.00  0.00     0.164 C 
ATOM     13  O   UNL A   1      31.060  25.915  27.150  1.00  0.00    -0.275 OA
ATOM     14  C   UNL A   1      31.324  28.258  27.183  1.00  0.00     0.101 C 
ATOM     15  C   UNL A   1      31.670  29.479  26.364  1.00  0.00     0.026 C 
BRANCH  10  16
ATOM     16  C   UNL A   1      31.239  25.527  24.434  1.00  0.00     0.117 C 
ATOM     17  C   UNL A   1      30.019  25.512  23.499  1.00  0.00     0.036 C 
BRANCH  16  18
ATOM     18  C   UNL A   1      32.508  24.955  23.790  1.00  0.00     0.018 A 
ATOM     19  C   UNL A   1      32.516  25.765  21.224  1.00  0.00     0.069 C 
ATOM     20  C   UNL A   1      33.023  25.089  22.449  1.00  0.00     0.065 A 
ATOM     21  N   UNL A   1      34.177  24.431  22.294  1.00  0.00    -0.178 NA
ATOM     22  N   UNL A   1      34.420  23.875  23.480  1.00  0.00    -0.272 N 
ATOM     23  C   UNL A   1      33.411  24.062  24.383  1.00  0.00     0.040 A 
ATOM     24  C   UNL A   1      35.675  23.179  23.649  1.00  0.00     0.174 C 
ATOM     25  C   UNL A   1      33.426  23.420  25.727  1.00  0.00     0.067 C 
ENDBRANCH  16  18
ENDBRANCH  10  16
BRANCH  12  26
ATOM     26  C   UNL A   1      30.709  28.625  23.470  1.00  0.00     0.127 A 
ATOM     27  C   UNL A   1      29.336  28.576  23.624  1.00  0.00     0.048 A 
ATOM     28  O   UNL A   1      31.023  29.356  22.361  1.00  0.00    -0.467 OA
ATOM     29  C   UNL A   1      28.785  29.335  22.568  1.00  0.00     0.042 A 
ATOM     30  C   UNL A   1      29.851  29.798  21.835  1.00  0.00     0.195 A 
ENDBRANCH  12  26
ENDBRANCH   6   9
ENDBRANCH   4   5
ENDBRANCH   3   4
ENDBRANCH   2   3
ENDBRANCH   1   2
BRANCH   1  31
ATOM     31  C   UNL A   1      34.753  34.546  28.206  1.00  0.00     0.021 C 
BRANCH  31  32
ATOM     32  C   UNL A   1      33.439  34.052  28.800  1.00  0.00     0.116 C 
BRANCH  32  33
ATOM     33  N   UNL A   1      32.839  35.032  29.690  1.00  0.00    -0.352 N 
ATOM     34  C   UNL A   1      33.094  35.263  31.019  1.00  0.00     0.251 C 
ATOM     35  H   UNL A   1      32.154  35.610  29.284  1.00  0.00     0.163 HD
ATOM     36  O   UNL A   1      32.353  35.997  31.668  1.00  0.00    -0.269 OA
BRANCH  34  37
ATOM     37  C   UNL A   1      34.247  34.605  31.670  1.00  0.00     0.039 A 
ATOM     38  C   UNL A   1      34.105  33.299  32.141  1.00  0.00     0.014 A 
ATOM     39  C   UNL A   1      35.469  35.272  31.805  1.00  0.00     0.014 A 
ATOM     40  C   UNL A   1      35.207  32.638  32.689  1.00  0.00     0.010 A 
ATOM     41  C   UNL A   1      36.584  34.587  32.281  1.00  0.00     0.010 A 
ATOM     42  C   UNL A   1      36.466  33.263  32.727  1.00  0.00    -0.014 A 
BRANCH  42  43
ATOM     43  C   UNL A   1      37.670  32.540  33.212  1.00  0.00     0.031 A 
ATOM     44  C   UNL A   1      38.324  32.940  34.508  1.00  0.00     0.074 A 
ATOM     45  C   UNL A   1      38.213  31.568  32.452  1.00  0.00     0.049 A 
ATOM     46  N   UNL A   1      39.419  32.477  35.056  1.00  0.00    -0.248 NA
ATOM     47  C   UNL A   1      37.678  34.016  35.276  1.00  0.00     0.031 C 
ATOM     48  C   UNL A   1      37.697  31.121  31.156  1.00  0.00     0.029 A 
ATOM     49  N   UNL A   1      39.325  30.787  32.650  1.00  0.00    -0.354 N 
ATOM     50  C   UNL A   1      39.597  33.211  36.223  1.00  0.00     0.074 A 
ATOM     51  C   UNL A   1      38.529  34.184  36.277  1.00  0.00     0.031 C 
ATOM     52  C   UNL A   1      38.476  30.133  30.688  1.00  0.00     0.029 A 
ATOM     53  C   UNL A   1      39.572  29.906  31.624  1.00  0.00     0.049 A 
ATOM     54  H   UNL A   1      39.891  30.851  33.453  1.00  0.00     0.167 HD
ATOM     55  C   UNL A   1      40.553  33.069  37.174  1.00  0.00     0.037 A 
ATOM     56  C   UNL A   1      40.575  29.023  31.448  1.00  0.00     0.037 A 
ATOM     57  C   UNL A   1      41.603  32.085  37.120  1.00  0.00     0.049 A 
ATOM     58  C   UNL A   1      41.634  28.897  32.509  1.00  0.00     0.074 A 
ATOM     59  C   UNL A   1      42.586  31.826  38.059  1.00  0.00     0.029 A 
ATOM     60  N   UNL A   1      41.813  31.202  36.071  1.00  0.00    -0.354 N 
ATOM     61  N   UNL A   1      41.751  29.557  33.638  1.00  0.00    -0.248 NA
ATOM     62  C   UNL A   1      42.693  27.905  32.280  1.00  0.00     0.031 C 
ATOM     63  C   UNL A   1      43.423  30.827  37.554  1.00  0.00     0.029 A 
ATOM     64  C   UNL A   1      42.925  30.416  36.327  1.00  0.00     0.049 A 
ATOM     65  H   UNL A   1      41.253  31.142  35.263  1.00  0.00     0.167 HD
ATOM     66  C   UNL A   1      42.878  29.036  34.267  1.00  0.00     0.074 A 
ATOM     67  C   UNL A   1      43.398  28.001  33.398  1.00  0.00     0.031 C 
ATOM     68  C   UNL A   1      43.428  29.382  35.457  1.00  0.00     0.037 A 
BRANCH  55  69
ATOM     69  C   UNL A   1      40.509  33.999  38.357  1.00  0.00     0.058 A 
ATOM     70  C   UNL A   1      41.220  35.210  38.372  1.00  0.00     0.135 A 
ATOM     71  C   UNL A   1      39.706  33.700  39.470  1.00  0.00     0.135 A 
ATOM     72  F   UNL A   1      42.014  35.541  37.342  1.00  0.00    -0.206 F 
ATOM     73  C   UNL A   1      41.160  36.076  39.459  1.00  0.00     0.059 A 
ATOM     74  C   UNL A   1      39.606  34.567  40.555  1.00  0.00     0.059 A 
ATOM     75  F   UNL A   1      39.005  32.556  39.512  1.00  0.00    -0.206 F 
ATOM     76  C   UNL A   1      40.347  35.747  40.545  1.00  0.00     0.060 A 
BRANCH  76  77
ATOM     77  S   UNL A   1      40.272  36.890  41.940  1.00  0.00     0.124 S 
ATOM     78  O   UNL A   1      41.612  36.752  42.502  1.00  0.00    -0.237 OA
ATOM     79  O   UNL A   1      39.987  38.162  41.285  1.00  0.00    -0.237 OA
ATOM     80  O   UNL A   1      39.191  36.354  42.762  1.00  0.00    -0.744 OA
ENDBRANCH  76  77
ENDBRANCH  55  69
BRANCH  56  81
ATOM     81  C   UNL A   1      40.621  28.182  30.220  1.00  0.00     0.058 A 
ATOM     82  C   UNL A   1      41.567  28.424  29.212  1.00  0.00     0.135 A 
ATOM     83  C   UNL A   1      39.726  27.117  30.033  1.00  0.00     0.135 A 
ATOM     84  F   UNL A   1      42.441  29.435  29.341  1.00  0.00    -0.206 F 
ATOM     85  C   UNL A   1      41.613  27.653  28.055  1.00  0.00     0.059 A 
ATOM     86  C   UNL A   1      39.772  26.314  28.898  1.00  0.00     0.059 A 
ATOM     87  F   UNL A   1      38.813  26.832  30.974  1.00  0.00    -0.206 F 
ATOM     88  C   UNL A   1      40.711  26.598  27.909  1.00  0.00     0.060 A 
BRANCH  88  89
ATOM     89  S   UNL A   1      40.808  25.576  26.423  1.00  0.00     0.124 S 
ATOM     90  O   UNL A   1      41.178  26.560  25.414  1.00  0.00    -0.237 OA
ATOM     91  O   UNL A   1      41.841  24.609  26.784  1.00  0.00    -0.237 OA
ATOM     92  O   UNL A   1      39.460  25.026  26.307  1.00  0.00    -0.744 OA
ENDBRANCH  88  89
ENDBRANCH  56  81
BRANCH  68  93
ATOM     93  C   UNL A   1      44.636  28.608  35.916  1.00  0.00     0.058 A 
ATOM     94  C   UNL A   1      44.520  27.432  36.672  1.00  0.00     0.135 A 
ATOM     95  C   UNL A   1      45.925  29.023  35.544  1.00  0.00     0.135 A 
ATOM     96  F   UNL A   1      43.312  26.993  37.060  1.00  0.00    -0.206 F 
ATOM     97  C   UNL A   1      45.641  26.709  37.067  1.00  0.00     0.059 A 
ATOM     98  C   UNL A   1      47.058  28.299  35.900  1.00  0.00     0.059 A 
ATOM     99  F   UNL A   1      46.092  30.136  34.812  1.00  0.00    -0.206 F 
ATOM    100  C   UNL A   1      46.906  27.150  36.672  1.00  0.00     0.060 A 
BRANCH 100 101
ATOM    101  S   UNL A   1      48.350  26.182  37.162  1.00  0.00     0.124 S 
ATOM    102  O   UNL A   1      48.548  26.625  38.537  1.00  0.00    -0.237 OA
ATOM    103  O   UNL A   1      47.875  24.811  36.999  1.00  0.00    -0.237 OA
ATOM    104  O   UNL A   1      49.377  26.599  36.213  1.00  0.00    -0.744 OA
ENDBRANCH 100 101
ENDBRANCH  68  93
ENDBRANCH  42  43
ENDBRANCH  34  37
ENDBRANCH  32  33
ENDBRANCH  31  32
ENDBRANCH   1  31
TORSDOF 19
ENDMDL
