MODEL 1
REMARK VINA RESULT:     -11.5      0.000      0.000
REMARK SMILES O=C(CSCc1ccc(C(=O)NCCCCCCNC(=O)c2ccc(-c3c4nc(c(-c5c(F)cc(S(=O)(=O)[O-])cc5F)c5ccc([nH]5)c(-c5c(F)cc(S(=O)(=O)[O-])cc5F)c5nc(c(-c6c(F)cc(S(=O)(=O)[O-])cc6F)c6ccc3[nH]6)C=C5)C=C4)cc2)cc1)Nc1ccc(Cl)cc1
REMARK SMILES IDX 14 1 13 2 12 3 10 4 11 5 9 7 6 8 7 9 89 10 8 11 88 12 5 13
REMARK SMILES IDX 4 14 3 15 2 16 1 17 90 18 91 20 92 21 97 22 93 23 96 24
REMARK SMILES IDX 94 25 95 26 15 27 16 28 17 29 18 30 19 31 20 32 21 34 22 35
REMARK SMILES IDX 23 36 87 37 24 38 86 39 25 40 26 41 27 42 80 43 28 44 85 45
REMARK SMILES IDX 79 46 81 47 29 48 84 49 78 50 77 51 30 53 64 54 43 55 63 56
REMARK SMILES IDX 44 57 47 58 62 59 82 60 45 61 46 62 61 64 83 65 48 66 31 67
REMARK SMILES IDX 32 68 41 69 33 70 34 71 40 72 42 73 35 74 36 75 37 76 38 77
REMARK SMILES IDX 39 78 65 79 66 80 75 81 67 82 68 83 74 84 76 85 69 86 70 87
REMARK SMILES IDX 71 88 72 89 73 90 49 91 50 92 59 93 51 94 52 95 58 96 60 97
REMARK SMILES IDX 53 98 54 99 55 100 56 101 57 102
REMARK H PARENT 12 6 90 19 19 33 81 52 47 63
REMARK Flexibility Score: inf
ROOT
ATOM      1  C   UNL A   1      35.172  21.838  26.440  1.00  0.00     0.021 C 
ENDROOT
BRANCH   1   2
ATOM      2  C   UNL A   1      35.403  20.735  25.405  1.00  0.00     0.116 C 
BRANCH   2   3
ATOM      3  N   UNL A   1      34.240  19.867  25.338  1.00  0.00    -0.352 N 
ATOM      4  C   UNL A   1      32.951  20.097  24.932  1.00  0.00     0.251 C 
ATOM      5  O   UNL A   1      32.154  19.159  24.961  1.00  0.00    -0.269 OA
ATOM      6  H   UNL A   1      34.409  18.945  25.639  1.00  0.00     0.163 HD
BRANCH   4   7
ATOM      7  C   UNL A   1      32.504  21.411  24.400  1.00  0.00     0.039 A 
ATOM      8  C   UNL A   1      31.481  23.878  23.483  1.00  0.00    -0.038 A 
ATOM      9  C   UNL A   1      31.132  23.390  24.749  1.00  0.00     0.005 A 
ATOM     10  C   UNL A   1      32.390  23.145  22.709  1.00  0.00     0.005 A 
ATOM     11  C   UNL A   1      31.641  22.169  25.203  1.00  0.00     0.014 A 
ATOM     12  C   UNL A   1      32.916  21.936  23.174  1.00  0.00     0.014 A 
BRANCH   8  13
ATOM     13  C   UNL A   1      30.928  25.179  22.969  1.00  0.00     0.105 C 
BRANCH  13  14
ATOM     14  S   UNL A   1      29.478  25.811  23.873  1.00  0.00    -0.147 SA
BRANCH  14  15
ATOM     15  C   UNL A   1      29.548  27.593  23.479  1.00  0.00     0.170 C 
BRANCH  15  16
ATOM     16  C   UNL A   1      30.848  28.268  23.888  1.00  0.00     0.234 C 
ATOM     17  O   UNL A   1      31.527  28.859  23.051  1.00  0.00    -0.274 OA
ATOM     18  N   UNL A   1      31.141  28.170  25.237  1.00  0.00    -0.325 N 
ATOM     19  H   UNL A   1      30.569  27.573  25.772  1.00  0.00     0.169 HD
BRANCH  18  20
ATOM     20  C   UNL A   1      32.175  28.839  25.922  1.00  0.00     0.041 A 
ATOM     21  C   UNL A   1      31.946  30.163  26.317  1.00  0.00     0.027 A 
ATOM     22  C   UNL A   1      33.416  28.256  26.198  1.00  0.00     0.027 A 
ATOM     23  C   UNL A   1      32.929  30.877  27.011  1.00  0.00     0.022 A 
ATOM     24  C   UNL A   1      34.407  28.976  26.874  1.00  0.00     0.022 A 
ATOM     25  C   UNL A   1      34.156  30.279  27.288  1.00  0.00     0.041 A 
ATOM     26  Cl  UNL A   1      35.361  31.159  28.142  1.00  0.00    -0.084 Cl
ENDBRANCH  18  20
ENDBRANCH  15  16
ENDBRANCH  14  15
ENDBRANCH  13  14
ENDBRANCH   8  13
ENDBRANCH   4   7
ENDBRANCH   2   3
ENDBRANCH   1   2
BRANCH   1  27
ATOM     27  C   UNL A   1      35.842  23.167  26.067  1.00  0.00     0.002 C 
BRANCH  27  28
ATOM     28  C   UNL A   1      37.285  23.040  25.565  1.00  0.00     0.002 C 
BRANCH  28  29
ATOM     29  C   UNL A   1      38.250  24.101  26.104  1.00  0.00     0.021 C 
BRANCH  29  30
ATOM     30  C   UNL A   1      39.400  23.536  26.932  1.00  0.00     0.116 C 
BRANCH  30  31
ATOM     31  N   UNL A   1      40.683  23.755  26.284  1.00  0.00    -0.352 N 
ATOM     32  C   UNL A   1      41.522  24.840  26.367  1.00  0.00     0.251 C 
ATOM     33  H   UNL A   1      40.995  23.023  25.704  1.00  0.00     0.163 HD
ATOM     34  O   UNL A   1      42.443  24.965  25.566  1.00  0.00    -0.269 OA
BRANCH  32  35
ATOM     35  C   UNL A   1      41.303  25.856  27.417  1.00  0.00     0.039 A 
ATOM     36  C   UNL A   1      40.318  25.635  28.383  1.00  0.00     0.014 A 
ATOM     37  C   UNL A   1      42.061  27.031  27.441  1.00  0.00     0.014 A 
ATOM     38  C   UNL A   1      40.130  26.568  29.403  1.00  0.00     0.010 A 
ATOM     39  C   UNL A   1      41.922  27.923  28.500  1.00  0.00     0.010 A 
ATOM     40  C   UNL A   1      40.951  27.705  29.488  1.00  0.00    -0.014 A 
BRANCH  40  41
ATOM     41  C   UNL A   1      40.806  28.679  30.600  1.00  0.00     0.031 A 
ATOM     42  C   UNL A   1      41.668  28.559  31.827  1.00  0.00     0.074 A 
ATOM     43  C   UNL A   1      39.855  29.632  30.530  1.00  0.00     0.049 A 
ATOM     44  N   UNL A   1      41.647  29.271  32.925  1.00  0.00    -0.248 NA
ATOM     45  C   UNL A   1      42.671  27.481  31.832  1.00  0.00     0.031 C 
ATOM     46  C   UNL A   1      38.926  29.818  29.412  1.00  0.00     0.029 A 
ATOM     47  N   UNL A   1      39.505  30.616  31.418  1.00  0.00    -0.354 N 
ATOM     48  C   UNL A   1      42.619  28.720  33.753  1.00  0.00     0.074 A 
ATOM     49  C   UNL A   1      43.173  27.582  33.054  1.00  0.00     0.031 C 
ATOM     50  C   UNL A   1      38.128  30.865  29.674  1.00  0.00     0.029 A 
ATOM     51  C   UNL A   1      38.459  31.401  30.991  1.00  0.00     0.049 A 
ATOM     52  H   UNL A   1      39.959  30.749  32.282  1.00  0.00     0.167 HD
ATOM     53  C   UNL A   1      43.027  29.141  34.974  1.00  0.00     0.037 A 
ATOM     54  C   UNL A   1      37.831  32.428  31.595  1.00  0.00     0.037 A 
ATOM     55  C   UNL A   1      42.484  30.288  35.653  1.00  0.00     0.049 A 
ATOM     56  C   UNL A   1      38.298  32.872  32.955  1.00  0.00     0.074 A 
ATOM     57  C   UNL A   1      42.866  30.832  36.866  1.00  0.00     0.029 A 
ATOM     58  N   UNL A   1      41.436  31.067  35.180  1.00  0.00    -0.354 N 
ATOM     59  N   UNL A   1      39.264  32.382  33.695  1.00  0.00    -0.248 NA
ATOM     60  C   UNL A   1      37.597  34.013  33.558  1.00  0.00     0.031 C 
ATOM     61  C   UNL A   1      42.019  31.908  37.151  1.00  0.00     0.029 A 
ATOM     62  C   UNL A   1      41.146  32.071  36.088  1.00  0.00     0.049 A 
ATOM     63  H   UNL A   1      40.970  30.927  34.325  1.00  0.00     0.167 HD
ATOM     64  C   UNL A   1      39.304  33.171  34.840  1.00  0.00     0.074 A 
ATOM     65  C   UNL A   1      38.274  34.179  34.686  1.00  0.00     0.031 C 
ATOM     66  C   UNL A   1      40.120  33.072  35.917  1.00  0.00     0.037 A 
BRANCH  53  67
ATOM     67  C   UNL A   1      44.118  28.357  35.654  1.00  0.00     0.058 A 
ATOM     68  C   UNL A   1      43.830  27.301  36.534  1.00  0.00     0.135 A 
ATOM     69  C   UNL A   1      45.469  28.641  35.397  1.00  0.00     0.135 A 
ATOM     70  F   UNL A   1      42.556  26.993  36.829  1.00  0.00    -0.206 F 
ATOM     71  C   UNL A   1      44.841  26.577  37.158  1.00  0.00     0.059 A 
ATOM     72  C   UNL A   1      46.496  27.910  35.986  1.00  0.00     0.059 A 
ATOM     73  F   UNL A   1      45.803  29.640  34.565  1.00  0.00    -0.206 F 
ATOM     74  C   UNL A   1      46.172  26.888  36.878  1.00  0.00     0.060 A 
BRANCH  74  75
ATOM     75  S   UNL A   1      47.470  25.935  37.692  1.00  0.00     0.124 S 
ATOM     76  O   UNL A   1      47.386  26.438  39.060  1.00  0.00    -0.237 OA
ATOM     77  O   UNL A   1      47.018  24.561  37.494  1.00  0.00    -0.237 OA
ATOM     78  O   UNL A   1      48.677  26.307  36.960  1.00  0.00    -0.744 OA
ENDBRANCH  74  75
ENDBRANCH  53  67
BRANCH  54  79
ATOM     79  C   UNL A   1      36.705  33.118  30.908  1.00  0.00     0.058 A 
ATOM     80  C   UNL A   1      35.380  32.926  31.323  1.00  0.00     0.135 A 
ATOM     81  C   UNL A   1      36.933  33.994  29.835  1.00  0.00     0.135 A 
ATOM     82  F   UNL A   1      35.110  32.095  32.341  1.00  0.00    -0.206 F 
ATOM     83  C   UNL A   1      34.317  33.564  30.690  1.00  0.00     0.059 A 
ATOM     84  C   UNL A   1      35.890  34.664  29.203  1.00  0.00     0.059 A 
ATOM     85  F   UNL A   1      38.185  34.226  29.409  1.00  0.00    -0.206 F 
ATOM     86  C   UNL A   1      34.584  34.433  29.631  1.00  0.00     0.060 A 
BRANCH  86  87
ATOM     87  S   UNL A   1      33.202  35.292  28.847  1.00  0.00     0.124 S 
ATOM     88  O   UNL A   1      32.600  34.222  28.060  1.00  0.00    -0.237 OA
ATOM     89  O   UNL A   1      32.432  35.749  29.999  1.00  0.00    -0.237 OA
ATOM     90  O   UNL A   1      33.855  36.349  28.080  1.00  0.00    -0.744 OA
ENDBRANCH  86  87
ENDBRANCH  54  79
BRANCH  66  91
ATOM     91  C   UNL A   1      39.960  34.100  37.005  1.00  0.00     0.058 A 
ATOM     92  C   UNL A   1      40.535  35.376  36.908  1.00  0.00     0.135 A 
ATOM     93  C   UNL A   1      39.176  33.817  38.137  1.00  0.00     0.135 A 
ATOM     94  F   UNL A   1      41.299  35.695  35.853  1.00  0.00    -0.206 F 
ATOM     95  C   UNL A   1      40.358  36.329  37.906  1.00  0.00     0.059 A 
ATOM     96  C   UNL A   1      38.961  34.766  39.131  1.00  0.00     0.059 A 
ATOM     97  F   UNL A   1      38.595  32.616  38.274  1.00  0.00    -0.206 F 
ATOM     98  C   UNL A   1      39.567  36.016  39.013  1.00  0.00     0.060 A 
BRANCH  98  99
ATOM     99  S   UNL A   1      39.317  37.274  40.283  1.00  0.00     0.124 S 
ATOM    100  O   UNL A   1      38.574  36.529  41.294  1.00  0.00    -0.237 OA
ATOM    101  O   UNL A   1      40.686  37.634  40.639  1.00  0.00    -0.237 OA
ATOM    102  O   UNL A   1      38.562  38.314  39.588  1.00  0.00    -0.744 OA
ENDBRANCH  98  99
ENDBRANCH  66  91
ENDBRANCH  40  41
ENDBRANCH  32  35
ENDBRANCH  30  31
ENDBRANCH  29  30
ENDBRANCH  28  29
ENDBRANCH  27  28
ENDBRANCH   1  27
TORSDOF 21
ENDMDL
MODEL 2
REMARK VINA RESULT:     -11.0      0.724      8.056
REMARK SMILES O=C(CSCc1ccc(C(=O)NCCCCCCNC(=O)c2ccc(-c3c4nc(c(-c5c(F)cc(S(=O)(=O)[O-])cc5F)c5ccc([nH]5)c(-c5c(F)cc(S(=O)(=O)[O-])cc5F)c5nc(c(-c6c(F)cc(S(=O)(=O)[O-])cc6F)c6ccc3[nH]6)C=C5)C=C4)cc2)cc1)Nc1ccc(Cl)cc1
REMARK SMILES IDX 14 1 13 2 12 3 10 4 11 5 9 7 6 8 7 9 89 10 8 11 88 12 5 13
REMARK SMILES IDX 4 14 3 15 2 16 1 17 90 18 91 20 92 21 97 22 93 23 96 24
REMARK SMILES IDX 94 25 95 26 15 27 16 28 17 29 18 30 19 31 20 32 21 34 22 35
REMARK SMILES IDX 23 36 87 37 24 38 86 39 25 40 26 41 27 42 80 43 28 44 85 45
REMARK SMILES IDX 79 46 81 47 29 48 84 49 78 50 77 51 30 53 64 54 43 55 63 56
REMARK SMILES IDX 44 57 47 58 62 59 82 60 45 61 46 62 61 64 83 65 48 66 31 67
REMARK SMILES IDX 32 68 41 69 33 70 34 71 40 72 42 73 35 74 36 75 37 76 38 77
REMARK SMILES IDX 39 78 65 79 66 80 75 81 67 82 68 83 74 84 76 85 69 86 70 87
REMARK SMILES IDX 71 88 72 89 73 90 49 91 50 92 59 93 51 94 52 95 58 96 60 97
REMARK SMILES IDX 53 98 54 99 55 100 56 101 57 102
REMARK H PARENT 12 6 90 19 19 33 81 52 47 63
REMARK Flexibility Score: inf
ROOT
ATOM      1  C   UNL A   1      35.157  21.453  26.278  1.00  0.00     0.021 C 
ENDROOT
BRANCH   1   2
ATOM      2  C   UNL A   1      35.357  20.411  25.177  1.00  0.00     0.116 C 
BRANCH   2   3
ATOM      3  N   UNL A   1      34.172  19.579  25.060  1.00  0.00    -0.352 N 
ATOM      4  C   UNL A   1      32.890  19.866  24.668  1.00  0.00     0.251 C 
ATOM      5  O   UNL A   1      32.069  18.950  24.642  1.00  0.00    -0.269 OA
ATOM      6  H   UNL A   1      34.317  18.637  25.307  1.00  0.00     0.163 HD
BRANCH   4   7
ATOM      7  C   UNL A   1      32.479  21.221  24.213  1.00  0.00     0.039 A 
ATOM      8  C   UNL A   1      31.531  23.771  23.459  1.00  0.00    -0.038 A 
ATOM      9  C   UNL A   1      31.276  23.268  24.742  1.00  0.00     0.005 A 
ATOM     10  C   UNL A   1      32.312  23.007  22.583  1.00  0.00     0.005 A 
ATOM     11  C   UNL A   1      31.748  22.006  25.114  1.00  0.00     0.014 A 
ATOM     12  C   UNL A   1      32.803  21.755  22.965  1.00  0.00     0.014 A 
BRANCH   8  13
ATOM     13  C   UNL A   1      31.015  25.118  23.032  1.00  0.00     0.105 C 
BRANCH  13  14
ATOM     14  S   UNL A   1      29.499  25.667  23.881  1.00  0.00    -0.147 SA
BRANCH  14  15
ATOM     15  C   UNL A   1      30.157  26.196  25.501  1.00  0.00     0.170 C 
BRANCH  15  16
ATOM     16  C   UNL A   1      31.157  27.339  25.421  1.00  0.00     0.234 C 
ATOM     17  O   UNL A   1      31.295  27.966  24.374  1.00  0.00    -0.274 OA
ATOM     18  N   UNL A   1      31.827  27.593  26.605  1.00  0.00    -0.325 N 
ATOM     19  H   UNL A   1      31.701  26.943  27.334  1.00  0.00     0.169 HD
BRANCH  18  20
ATOM     20  C   UNL A   1      32.672  28.689  26.873  1.00  0.00     0.041 A 
ATOM     21  C   UNL A   1      34.050  28.449  26.944  1.00  0.00     0.027 A 
ATOM     22  C   UNL A   1      32.199  29.986  27.095  1.00  0.00     0.027 A 
ATOM     23  C   UNL A   1      34.941  29.497  27.193  1.00  0.00     0.022 A 
ATOM     24  C   UNL A   1      33.088  31.032  27.365  1.00  0.00     0.022 A 
ATOM     25  C   UNL A   1      34.456  30.786  27.402  1.00  0.00     0.041 A 
ATOM     26  Cl  UNL A   1      35.555  32.073  27.709  1.00  0.00    -0.084 Cl
ENDBRANCH  18  20
ENDBRANCH  15  16
ENDBRANCH  14  15
ENDBRANCH  13  14
ENDBRANCH   8  13
ENDBRANCH   4   7
ENDBRANCH   2   3
ENDBRANCH   1   2
BRANCH   1  27
ATOM     27  C   UNL A   1      35.771  22.818  25.939  1.00  0.00     0.002 C 
BRANCH  27  28
ATOM     28  C   UNL A   1      37.291  22.804  25.730  1.00  0.00     0.002 C 
BRANCH  28  29
ATOM     29  C   UNL A   1      38.005  24.102  26.116  1.00  0.00     0.021 C 
BRANCH  29  30
ATOM     30  C   UNL A   1      39.322  23.893  26.859  1.00  0.00     0.116 C 
BRANCH  30  31
ATOM     31  N   UNL A   1      40.458  24.343  26.070  1.00  0.00    -0.352 N 
ATOM     32  C   UNL A   1      41.148  25.527  26.142  1.00  0.00     0.251 C 
ATOM     33  H   UNL A   1      40.777  23.708  25.388  1.00  0.00     0.163 HD
ATOM     34  O   UNL A   1      41.919  25.843  25.242  1.00  0.00    -0.269 OA
BRANCH  32  35
ATOM     35  C   UNL A   1      40.951  26.420  27.303  1.00  0.00     0.039 A 
ATOM     36  C   UNL A   1      40.103  26.015  28.336  1.00  0.00     0.014 A 
ATOM     37  C   UNL A   1      41.593  27.661  27.365  1.00  0.00     0.014 A 
ATOM     38  C   UNL A   1      39.942  26.832  29.456  1.00  0.00     0.010 A 
ATOM     39  C   UNL A   1      41.488  28.439  28.513  1.00  0.00     0.010 A 
ATOM     40  C   UNL A   1      40.656  28.037  29.568  1.00  0.00    -0.014 A 
BRANCH  40  41
ATOM     41  C   UNL A   1      40.542  28.890  30.779  1.00  0.00     0.031 A 
ATOM     42  C   UNL A   1      39.508  29.981  30.839  1.00  0.00     0.074 A 
ATOM     43  C   UNL A   1      41.411  28.722  31.795  1.00  0.00     0.049 A 
ATOM     44  N   UNL A   1      39.296  30.868  31.778  1.00  0.00    -0.248 NA
ATOM     45  C   UNL A   1      38.609  30.111  29.680  1.00  0.00     0.031 C 
ATOM     46  C   UNL A   1      42.487  27.729  31.831  1.00  0.00     0.029 A 
ATOM     47  N   UNL A   1      41.534  29.385  32.989  1.00  0.00    -0.354 N 
ATOM     48  C   UNL A   1      38.254  31.665  31.319  1.00  0.00     0.074 A 
ATOM     49  C   UNL A   1      37.912  31.193  29.995  1.00  0.00     0.031 C 
ATOM     50  C   UNL A   1      43.146  27.835  32.996  1.00  0.00     0.029 A 
ATOM     51  C   UNL A   1      42.567  28.927  33.773  1.00  0.00     0.049 A 
ATOM     52  H   UNL A   1      40.938  30.122  33.260  1.00  0.00     0.167 HD
ATOM     53  C   UNL A   1      37.623  32.682  31.954  1.00  0.00     0.037 A 
ATOM     54  C   UNL A   1      43.004  29.345  34.977  1.00  0.00     0.037 A 
ATOM     55  C   UNL A   1      37.956  33.131  33.280  1.00  0.00     0.049 A 
ATOM     56  C   UNL A   1      42.292  30.482  35.659  1.00  0.00     0.074 A 
ATOM     57  C   UNL A   1      37.342  34.115  34.036  1.00  0.00     0.029 A 
ATOM     58  N   UNL A   1      38.999  32.630  34.049  1.00  0.00    -0.354 N 
ATOM     59  N   UNL A   1      41.264  31.181  35.239  1.00  0.00    -0.248 NA
ATOM     60  C   UNL A   1      42.793  30.881  36.981  1.00  0.00     0.031 C 
ATOM     61  C   UNL A   1      38.042  34.243  35.240  1.00  0.00     0.029 A 
ATOM     62  C   UNL A   1      39.058  33.301  35.260  1.00  0.00     0.049 A 
ATOM     63  H   UNL A   1      39.605  31.906  33.775  1.00  0.00     0.167 HD
ATOM     64  C   UNL A   1      40.978  32.085  36.257  1.00  0.00     0.074 A 
ATOM     65  C   UNL A   1      41.933  31.834  37.317  1.00  0.00     0.031 C 
ATOM     66  C   UNL A   1      40.012  33.034  36.309  1.00  0.00     0.037 A 
BRANCH  53  67
ATOM     67  C   UNL A   1      36.506  33.377  31.223  1.00  0.00     0.058 A 
ATOM     68  C   UNL A   1      35.158  33.147  31.542  1.00  0.00     0.135 A 
ATOM     69  C   UNL A   1      36.786  34.313  30.213  1.00  0.00     0.135 A 
ATOM     70  F   UNL A   1      34.830  32.253  32.489  1.00  0.00    -0.206 F 
ATOM     71  C   UNL A   1      34.129  33.794  30.866  1.00  0.00     0.059 A 
ATOM     72  C   UNL A   1      35.773  34.994  29.545  1.00  0.00     0.059 A 
ATOM     73  F   UNL A   1      38.056  34.573  29.865  1.00  0.00    -0.206 F 
ATOM     74  C   UNL A   1      34.446  34.717  29.868  1.00  0.00     0.060 A 
BRANCH  74  75
ATOM     75  S   UNL A   1      33.097  35.551  29.006  1.00  0.00     0.124 S 
ATOM     76  O   UNL A   1      33.825  36.543  28.221  1.00  0.00    -0.237 OA
ATOM     77  O   UNL A   1      32.493  34.461  28.245  1.00  0.00    -0.237 OA
ATOM     78  O   UNL A   1      32.279  36.086  30.089  1.00  0.00    -0.744 OA
ENDBRANCH  74  75
ENDBRANCH  53  67
BRANCH  54  79
ATOM     79  C   UNL A   1      44.165  28.671  35.621  1.00  0.00     0.058 A 
ATOM     80  C   UNL A   1      45.478  29.085  35.356  1.00  0.00     0.135 A 
ATOM     81  C   UNL A   1      43.983  27.612  36.523  1.00  0.00     0.135 A 
ATOM     82  F   UNL A   1      45.704  30.089  34.496  1.00  0.00    -0.206 F 
ATOM     83  C   UNL A   1      46.572  28.463  35.949  1.00  0.00     0.059 A 
ATOM     84  C   UNL A   1      45.059  26.991  37.150  1.00  0.00     0.059 A 
ATOM     85  F   UNL A   1      42.745  27.188  36.825  1.00  0.00    -0.206 F 
ATOM     86  C   UNL A   1      46.352  27.418  36.848  1.00  0.00     0.060 A 
BRANCH  86  87
ATOM     87  S   UNL A   1      47.777  26.649  37.649  1.00  0.00     0.124 S 
ATOM     88  O   UNL A   1      47.716  25.293  37.117  1.00  0.00    -0.237 OA
ATOM     89  O   UNL A   1      48.880  27.474  37.169  1.00  0.00    -0.237 OA
ATOM     90  O   UNL A   1      47.475  26.784  39.071  1.00  0.00    -0.744 OA
ENDBRANCH  86  87
ENDBRANCH  54  79
BRANCH  66  91
ATOM     91  C   UNL A   1      39.912  33.854  37.568  1.00  0.00     0.058 A 
ATOM     92  C   UNL A   1      40.721  34.980  37.784  1.00  0.00     0.135 A 
ATOM     93  C   UNL A   1      38.956  33.534  38.547  1.00  0.00     0.135 A 
ATOM     94  F   UNL A   1      41.654  35.324  36.884  1.00  0.00    -0.206 F 
ATOM     95  C   UNL A   1      40.601  35.748  38.938  1.00  0.00     0.059 A 
ATOM     96  C   UNL A   1      38.800  34.306  39.693  1.00  0.00     0.059 A 
ATOM     97  F   UNL A   1      38.150  32.474  38.385  1.00  0.00    -0.206 F 
ATOM     98  C   UNL A   1      39.636  35.405  39.886  1.00  0.00     0.060 A 
BRANCH  98  99
ATOM     99  S   UNL A   1      39.469  36.431  41.362  1.00  0.00     0.124 S 
ATOM    100  O   UNL A   1      40.860  36.577  41.778  1.00  0.00    -0.237 OA
ATOM    101  O   UNL A   1      38.836  37.635  40.834  1.00  0.00    -0.237 OA
ATOM    102  O   UNL A   1      38.631  35.624  42.244  1.00  0.00    -0.744 OA
ENDBRANCH  98  99
ENDBRANCH  66  91
ENDBRANCH  40  41
ENDBRANCH  32  35
ENDBRANCH  30  31
ENDBRANCH  29  30
ENDBRANCH  28  29
ENDBRANCH  27  28
ENDBRANCH   1  27
TORSDOF 21
ENDMDL
MODEL 3
REMARK VINA RESULT:     -10.9      2.647      9.147
REMARK SMILES O=C(CSCc1ccc(C(=O)NCCCCCCNC(=O)c2ccc(-c3c4nc(c(-c5c(F)cc(S(=O)(=O)[O-])cc5F)c5ccc([nH]5)c(-c5c(F)cc(S(=O)(=O)[O-])cc5F)c5nc(c(-c6c(F)cc(S(=O)(=O)[O-])cc6F)c6ccc3[nH]6)C=C5)C=C4)cc2)cc1)Nc1ccc(Cl)cc1
REMARK SMILES IDX 14 1 13 2 12 3 10 4 11 5 9 7 6 8 7 9 89 10 8 11 88 12 5 13
REMARK SMILES IDX 4 14 3 15 2 16 1 17 90 18 91 20 92 21 97 22 93 23 96 24
REMARK SMILES IDX 94 25 95 26 15 27 16 28 17 29 18 30 19 31 20 32 21 34 22 35
REMARK SMILES IDX 23 36 87 37 24 38 86 39 25 40 26 41 27 42 80 43 28 44 85 45
REMARK SMILES IDX 79 46 81 47 29 48 84 49 78 50 77 51 30 53 64 54 43 55 63 56
REMARK SMILES IDX 44 57 47 58 62 59 82 60 45 61 46 62 61 64 83 65 48 66 31 67
REMARK SMILES IDX 32 68 41 69 33 70 34 71 40 72 42 73 35 74 36 75 37 76 38 77
REMARK SMILES IDX 39 78 65 79 66 80 75 81 67 82 68 83 74 84 76 85 69 86 70 87
REMARK SMILES IDX 71 88 72 89 73 90 49 91 50 92 59 93 51 94 52 95 58 96 60 97
REMARK SMILES IDX 53 98 54 99 55 100 56 101 57 102
REMARK H PARENT 12 6 90 19 19 33 81 52 47 63
REMARK Flexibility Score: inf
ROOT
ATOM      1  C   UNL A   1      35.385  31.191  28.535  1.00  0.00     0.021 C 
ENDROOT
BRANCH   1   2
ATOM      2  C   UNL A   1      34.510  30.513  27.480  1.00  0.00     0.116 C 
BRANCH   2   3
ATOM      3  N   UNL A   1      33.334  31.324  27.214  1.00  0.00    -0.352 N 
ATOM      4  C   UNL A   1      32.112  31.012  26.677  1.00  0.00     0.251 C 
ATOM      5  O   UNL A   1      31.273  31.907  26.580  1.00  0.00    -0.269 OA
ATOM      6  H   UNL A   1      33.434  32.270  27.467  1.00  0.00     0.163 HD
BRANCH   4   7
ATOM      7  C   UNL A   1      31.747  29.628  26.274  1.00  0.00     0.039 A 
ATOM      8  C   UNL A   1      31.181  26.934  25.651  1.00  0.00    -0.038 A 
ATOM      9  C   UNL A   1      31.457  27.315  26.970  1.00  0.00     0.005 A 
ATOM     10  C   UNL A   1      31.136  27.925  24.661  1.00  0.00     0.005 A 
ATOM     11  C   UNL A   1      31.735  28.651  27.278  1.00  0.00     0.014 A 
ATOM     12  C   UNL A   1      31.391  29.263  24.975  1.00  0.00     0.014 A 
BRANCH   8  13
ATOM     13  C   UNL A   1      30.899  25.499  25.295  1.00  0.00     0.105 C 
BRANCH  13  14
ATOM     14  S   UNL A   1      30.223  25.237  23.624  1.00  0.00    -0.147 SA
BRANCH  14  15
ATOM     15  C   UNL A   1      31.744  24.962  22.652  1.00  0.00     0.170 C 
BRANCH  15  16
ATOM     16  C   UNL A   1      32.723  23.990  23.292  1.00  0.00     0.234 C 
ATOM     17  O   UNL A   1      32.433  22.801  23.394  1.00  0.00    -0.274 OA
ATOM     18  N   UNL A   1      33.917  24.565  23.692  1.00  0.00    -0.325 N 
ATOM     19  H   UNL A   1      33.971  25.547  23.653  1.00  0.00     0.169 HD
BRANCH  18  20
ATOM     20  C   UNL A   1      35.064  23.885  24.149  1.00  0.00     0.041 A 
ATOM     21  C   UNL A   1      35.470  24.106  25.471  1.00  0.00     0.027 A 
ATOM     22  C   UNL A   1      35.821  23.029  23.343  1.00  0.00     0.027 A 
ATOM     23  C   UNL A   1      36.592  23.450  25.988  1.00  0.00     0.022 A 
ATOM     24  C   UNL A   1      36.956  22.389  23.853  1.00  0.00     0.022 A 
ATOM     25  C   UNL A   1      37.331  22.593  25.176  1.00  0.00     0.041 A 
ATOM     26  Cl  UNL A   1      38.710  21.789  25.815  1.00  0.00    -0.084 Cl
ENDBRANCH  18  20
ENDBRANCH  15  16
ENDBRANCH  14  15
ENDBRANCH  13  14
ENDBRANCH   8  13
ENDBRANCH   4   7
ENDBRANCH   2   3
ENDBRANCH   1   2
BRANCH   1  27
ATOM     27  C   UNL A   1      36.087  32.454  28.018  1.00  0.00     0.002 C 
BRANCH  27  28
ATOM     28  C   UNL A   1      35.886  33.702  28.887  1.00  0.00     0.002 C 
BRANCH  28  29
ATOM     29  C   UNL A   1      34.711  34.593  28.473  1.00  0.00     0.021 C 
BRANCH  29  30
ATOM     30  C   UNL A   1      33.372  34.180  29.077  1.00  0.00     0.116 C 
BRANCH  30  31
ATOM     31  N   UNL A   1      32.879  35.177  30.014  1.00  0.00    -0.352 N 
ATOM     32  C   UNL A   1      33.205  35.361  31.335  1.00  0.00     0.251 C 
ATOM     33  H   UNL A   1      32.218  35.810  29.650  1.00  0.00     0.163 HD
ATOM     34  O   UNL A   1      32.517  36.091  32.041  1.00  0.00    -0.269 OA
BRANCH  32  35
ATOM     35  C   UNL A   1      34.383  34.671  31.901  1.00  0.00     0.039 A 
ATOM     36  C   UNL A   1      34.262  33.338  32.303  1.00  0.00     0.014 A 
ATOM     37  C   UNL A   1      35.602  35.341  32.045  1.00  0.00     0.014 A 
ATOM     38  C   UNL A   1      35.378  32.664  32.801  1.00  0.00     0.010 A 
ATOM     39  C   UNL A   1      36.729  34.647  32.472  1.00  0.00     0.010 A 
ATOM     40  C   UNL A   1      36.628  33.303  32.861  1.00  0.00    -0.014 A 
BRANCH  40  41
ATOM     41  C   UNL A   1      37.840  32.583  33.332  1.00  0.00     0.031 A 
ATOM     42  C   UNL A   1      38.476  32.954  34.643  1.00  0.00     0.074 A 
ATOM     43  C   UNL A   1      38.399  31.640  32.549  1.00  0.00     0.049 A 
ATOM     44  N   UNL A   1      39.569  32.488  35.193  1.00  0.00    -0.248 NA
ATOM     45  C   UNL A   1      37.813  34.007  35.431  1.00  0.00     0.031 C 
ATOM     46  C   UNL A   1      37.900  31.228  31.234  1.00  0.00     0.029 A 
ATOM     47  N   UNL A   1      39.514  30.864  32.737  1.00  0.00    -0.354 N 
ATOM     48  C   UNL A   1      39.730  33.196  36.378  1.00  0.00     0.074 A 
ATOM     49  C   UNL A   1      38.654  34.162  36.442  1.00  0.00     0.031 C 
ATOM     50  C   UNL A   1      38.693  30.261  30.746  1.00  0.00     0.029 A 
ATOM     51  C   UNL A   1      39.778  30.012  31.690  1.00  0.00     0.049 A 
ATOM     52  H   UNL A   1      40.074  30.913  33.545  1.00  0.00     0.167 HD
ATOM     53  C   UNL A   1      40.675  33.039  37.336  1.00  0.00     0.037 A 
ATOM     54  C   UNL A   1      40.785  29.136  31.507  1.00  0.00     0.037 A 
ATOM     55  C   UNL A   1      41.729  32.061  37.273  1.00  0.00     0.049 A 
ATOM     56  C   UNL A   1      41.827  28.984  32.583  1.00  0.00     0.074 A 
ATOM     57  C   UNL A   1      42.702  31.781  38.217  1.00  0.00     0.029 A 
ATOM     58  N   UNL A   1      41.953  31.204  36.204  1.00  0.00    -0.354 N 
ATOM     59  N   UNL A   1      41.926  29.615  33.729  1.00  0.00    -0.248 NA
ATOM     60  C   UNL A   1      42.888  27.996  32.345  1.00  0.00     0.031 C 
ATOM     61  C   UNL A   1      43.543  30.791  37.699  1.00  0.00     0.029 A 
ATOM     62  C   UNL A   1      43.061  30.412  36.456  1.00  0.00     0.049 A 
ATOM     63  H   UNL A   1      41.404  31.164  35.388  1.00  0.00     0.167 HD
ATOM     64  C   UNL A   1      43.044  29.082  34.361  1.00  0.00     0.074 A 
ATOM     65  C   UNL A   1      43.579  28.068  33.475  1.00  0.00     0.031 C 
ATOM     66  C   UNL A   1      43.578  29.402  35.566  1.00  0.00     0.037 A 
BRANCH  53  67
ATOM     67  C   UNL A   1      40.609  33.944  38.538  1.00  0.00     0.058 A 
ATOM     68  C   UNL A   1      41.311  35.160  38.587  1.00  0.00     0.135 A 
ATOM     69  C   UNL A   1      39.805  33.610  39.641  1.00  0.00     0.135 A 
ATOM     70  F   UNL A   1      42.106  35.523  37.567  1.00  0.00    -0.206 F 
ATOM     71  C   UNL A   1      41.244  35.994  39.697  1.00  0.00     0.059 A 
ATOM     72  C   UNL A   1      39.701  34.445  40.749  1.00  0.00     0.059 A 
ATOM     73  F   UNL A   1      39.113  32.461  39.649  1.00  0.00    -0.206 F 
ATOM     74  C   UNL A   1      40.436  35.629  40.775  1.00  0.00     0.060 A 
BRANCH  74  75
ATOM     75  S   UNL A   1      40.358  36.728  42.205  1.00  0.00     0.124 S 
ATOM     76  O   UNL A   1      41.495  36.260  42.992  1.00  0.00    -0.237 OA
ATOM     77  O   UNL A   1      40.510  38.045  41.594  1.00  0.00    -0.237 OA
ATOM     78  O   UNL A   1      39.044  36.451  42.775  1.00  0.00    -0.744 OA
ENDBRANCH  74  75
ENDBRANCH  53  67
BRANCH  54  79
ATOM     79  C   UNL A   1      40.844  28.321  30.263  1.00  0.00     0.058 A 
ATOM     80  C   UNL A   1      39.954  27.257  30.054  1.00  0.00     0.135 A 
ATOM     81  C   UNL A   1      41.779  28.598  29.254  1.00  0.00     0.135 A 
ATOM     82  F   UNL A   1      39.045  26.949  30.992  1.00  0.00    -0.206 F 
ATOM     83  C   UNL A   1      39.998  26.486  28.897  1.00  0.00     0.059 A 
ATOM     84  C   UNL A   1      41.826  27.858  28.076  1.00  0.00     0.059 A 
ATOM     85  F   UNL A   1      42.643  29.616  29.397  1.00  0.00    -0.206 F 
ATOM     86  C   UNL A   1      40.938  26.797  27.912  1.00  0.00     0.060 A 
BRANCH  86  87
ATOM     87  S   UNL A   1      40.955  25.819  26.393  1.00  0.00     0.124 S 
ATOM     88  O   UNL A   1      39.598  25.285  26.373  1.00  0.00    -0.237 OA
ATOM     89  O   UNL A   1      41.261  26.826  25.384  1.00  0.00    -0.237 OA
ATOM     90  O   UNL A   1      42.014  24.843  26.634  1.00  0.00    -0.744 OA
ENDBRANCH  86  87
ENDBRANCH  54  79
BRANCH  66  91
ATOM     91  C   UNL A   1      44.785  28.624  36.017  1.00  0.00     0.058 A 
ATOM     92  C   UNL A   1      44.667  27.410  36.711  1.00  0.00     0.135 A 
ATOM     93  C   UNL A   1      46.078  29.079  35.704  1.00  0.00     0.135 A 
ATOM     94  F   UNL A   1      43.457  26.936  37.041  1.00  0.00    -0.206 F 
ATOM     95  C   UNL A   1      45.789  26.685  37.099  1.00  0.00     0.059 A 
ATOM     96  C   UNL A   1      47.211  28.354  36.056  1.00  0.00     0.059 A 
ATOM     97  F   UNL A   1      46.247  30.228  35.033  1.00  0.00    -0.206 F 
ATOM     98  C   UNL A   1      47.057  27.163  36.765  1.00  0.00     0.060 A 
BRANCH  98  99
ATOM     99  S   UNL A   1      48.502  26.194  37.245  1.00  0.00     0.124 S 
ATOM    100  O   UNL A   1      47.883  24.971  37.746  1.00  0.00    -0.237 OA
ATOM    101  O   UNL A   1      49.226  26.068  35.984  1.00  0.00    -0.237 OA
ATOM    102  O   UNL A   1      49.152  27.027  38.253  1.00  0.00    -0.744 OA
ENDBRANCH  98  99
ENDBRANCH  66  91
ENDBRANCH  40  41
ENDBRANCH  32  35
ENDBRANCH  30  31
ENDBRANCH  29  30
ENDBRANCH  28  29
ENDBRANCH  27  28
ENDBRANCH   1  27
TORSDOF 21
ENDMDL
