MODEL 1
REMARK VINA RESULT:     -12.9      0.000      0.000
REMARK SMILES Cc1ccc(C[C@H](C(=O)NCCCCCCNC(=O)c2ccc(-c3c4nc(c(-c5c(F)cc(S(=O)(=O)[O-])cc5F)c5ccc([nH]5)c(-c5c(F)cc(S(=O)(=O)[O-])cc5F)c5nc(c(-c6c(F)cc(S(=O)(=O)[O-])cc6F)c6ccc3[nH]6)C=C5)C=C4)cc2)[C@@H]2CCCC[C@@H]2O)cc1
REMARK SMILES IDX 14 1 13 2 12 3 11 4 10 5 8 6 9 7 7 9 6 10 5 11 1 12 2 13
REMARK SMILES IDX 3 14 94 15 4 16 93 17 86 18 87 19 91 20 88 21 90 22 89 23
REMARK SMILES IDX 92 24 15 26 16 27 17 28 18 29 19 31 20 32 21 33 85 34 22 35
REMARK SMILES IDX 84 36 23 37 24 38 25 39 78 40 26 41 83 42 77 43 79 44 27 45
REMARK SMILES IDX 82 46 76 47 75 48 28 50 62 51 41 52 61 53 42 54 45 55 60 56
REMARK SMILES IDX 80 57 43 58 44 59 59 61 81 62 46 63 29 64 30 65 39 66 31 67
REMARK SMILES IDX 32 68 38 69 40 70 33 71 34 72 35 73 36 74 37 75 63 76 64 77
REMARK SMILES IDX 73 78 65 79 66 80 72 81 74 82 67 83 68 84 69 85 70 86 71 87
REMARK SMILES IDX 47 88 48 89 57 90 49 91 50 92 56 93 58 94 51 95 52 96 53 97
REMARK SMILES IDX 54 98 55 99
REMARK H PARENT 10 8 92 25 17 30 79 49 45 60
REMARK Flexibility Score: inf
ROOT
ATOM      1  C   UNL A   1      33.670  27.542  26.260  1.00  0.00     0.002 C 
ENDROOT
BRANCH   1   2
ATOM      2  C   UNL A   1      32.164  27.379  26.502  1.00  0.00     0.002 C 
BRANCH   2   3
ATOM      3  C   UNL A   1      31.578  25.972  26.323  1.00  0.00     0.021 C 
BRANCH   3   4
ATOM      4  C   UNL A   1      32.535  24.800  26.587  1.00  0.00     0.116 C 
BRANCH   4   5
ATOM      5  N   UNL A   1      31.973  23.568  26.079  1.00  0.00    -0.356 N 
ATOM      6  C   UNL A   1      32.349  22.670  25.143  1.00  0.00     0.223 C 
ATOM      7  O   UNL A   1      31.564  21.717  25.061  1.00  0.00    -0.275 OA
ATOM      8  H   UNL A   1      31.123  23.330  26.514  1.00  0.00     0.163 HD
BRANCH   6   9
ATOM      9  C   UNL A   1      33.669  22.724  24.317  1.00  0.00     0.088 C 
BRANCH   9  10
ATOM     10  C   UNL A   1      33.306  23.432  22.956  1.00  0.00     0.049 C 
BRANCH  10  11
ATOM     11  C   UNL A   1      32.736  24.846  22.897  1.00  0.00    -0.047 A 
ATOM     12  C   UNL A   1      31.248  28.910  22.574  1.00  0.00     0.044 C 
ATOM     13  C   UNL A   1      31.780  27.516  22.708  1.00  0.00    -0.051 A 
ATOM     14  C   UNL A   1      30.895  26.441  22.736  1.00  0.00     0.004 A 
ATOM     15  C   UNL A   1      33.151  27.256  22.774  1.00  0.00     0.004 A 
ATOM     16  C   UNL A   1      31.368  25.129  22.844  1.00  0.00     0.004 A 
ATOM     17  C   UNL A   1      33.621  25.939  22.854  1.00  0.00     0.004 A 
ENDBRANCH  10  11
ENDBRANCH   9  10
BRANCH   9  18
ATOM     18  C   UNL A   1      34.949  23.317  25.039  1.00  0.00     0.030 C 
ATOM     19  C   UNL A   1      36.142  23.705  24.119  1.00  0.00     0.007 C 
ATOM     20  C   UNL A   1      35.624  22.405  26.099  1.00  0.00     0.118 C 
ATOM     21  C   UNL A   1      36.827  22.506  23.456  1.00  0.00     0.001 C 
ATOM     22  C   UNL A   1      36.219  21.130  25.495  1.00  0.00     0.032 C 
ATOM     23  C   UNL A   1      37.297  21.468  24.471  1.00  0.00     0.003 C 
BRANCH  20  24
ATOM     24  O   UNL A   1      34.762  22.077  27.157  1.00  0.00    -0.393 OA
ATOM     25  H   UNL A   1      34.570  22.873  27.677  1.00  0.00     0.210 HD
ENDBRANCH  20  24
ENDBRANCH   9  18
ENDBRANCH   6   9
ENDBRANCH   4   5
ENDBRANCH   3   4
ENDBRANCH   2   3
ENDBRANCH   1   2
BRANCH   1  26
ATOM     26  C   UNL A   1      34.193  28.976  26.194  1.00  0.00     0.021 C 
BRANCH  26  27
ATOM     27  C   UNL A   1      34.330  29.665  27.548  1.00  0.00     0.116 C 
BRANCH  27  28
ATOM     28  N   UNL A   1      35.183  30.840  27.503  1.00  0.00    -0.352 N 
ATOM     29  C   UNL A   1      36.368  31.012  28.218  1.00  0.00     0.251 C 
ATOM     30  H   UNL A   1      34.901  31.580  26.918  1.00  0.00     0.163 HD
ATOM     31  O   UNL A   1      36.754  32.068  28.637  1.00  0.00    -0.269 OA
BRANCH  29  32
ATOM     32  C   UNL A   1      37.225  29.804  28.291  1.00  0.00     0.039 A 
ATOM     33  C   UNL A   1      37.329  29.163  29.532  1.00  0.00     0.014 A 
ATOM     34  C   UNL A   1      38.089  29.502  27.245  1.00  0.00     0.014 A 
ATOM     35  C   UNL A   1      38.418  28.334  29.781  1.00  0.00     0.010 A 
ATOM     36  C   UNL A   1      39.211  28.748  27.521  1.00  0.00     0.010 A 
ATOM     37  C   UNL A   1      39.399  28.203  28.801  1.00  0.00    -0.014 A 
BRANCH  37  38
ATOM     38  C   UNL A   1      40.706  27.600  29.035  1.00  0.00     0.031 A 
ATOM     39  C   UNL A   1      40.965  26.202  28.628  1.00  0.00     0.074 A 
ATOM     40  C   UNL A   1      41.716  28.380  29.476  1.00  0.00     0.049 A 
ATOM     41  N   UNL A   1      41.983  25.501  28.997  1.00  0.00    -0.248 NA
ATOM     42  C   UNL A   1      40.034  25.456  27.792  1.00  0.00     0.031 C 
ATOM     43  C   UNL A   1      43.146  28.109  29.383  1.00  0.00     0.029 A 
ATOM     44  N   UNL A   1      41.631  29.516  30.279  1.00  0.00    -0.354 N 
ATOM     45  C   UNL A   1      42.007  24.351  28.234  1.00  0.00     0.074 A 
ATOM     46  C   UNL A   1      40.724  24.335  27.570  1.00  0.00     0.031 C 
ATOM     47  C   UNL A   1      43.797  28.889  30.259  1.00  0.00     0.029 A 
ATOM     48  C   UNL A   1      42.793  29.561  31.068  1.00  0.00     0.049 A 
ATOM     49  H   UNL A   1      40.893  30.167  30.291  1.00  0.00     0.167 HD
ATOM     50  C   UNL A   1      43.169  23.636  28.150  1.00  0.00     0.037 A 
ATOM     51  C   UNL A   1      42.716  29.462  32.430  1.00  0.00     0.037 A 
ATOM     52  C   UNL A   1      44.164  24.157  29.095  1.00  0.00     0.049 A 
ATOM     53  C   UNL A   1      43.386  28.229  32.997  1.00  0.00     0.074 A 
ATOM     54  C   UNL A   1      45.249  25.007  28.945  1.00  0.00     0.029 A 
ATOM     55  N   UNL A   1      43.932  24.059  30.465  1.00  0.00    -0.354 N 
ATOM     56  N   UNL A   1      43.738  27.194  32.283  1.00  0.00    -0.248 NA
ATOM     57  C   UNL A   1      43.707  28.057  34.412  1.00  0.00     0.031 C 
ATOM     58  C   UNL A   1      45.611  25.490  30.228  1.00  0.00     0.029 A 
ATOM     59  C   UNL A   1      44.767  24.913  31.162  1.00  0.00     0.049 A 
ATOM     60  H   UNL A   1      43.266  23.464  30.879  1.00  0.00     0.167 HD
ATOM     61  C   UNL A   1      44.279  26.232  33.094  1.00  0.00     0.074 A 
ATOM     62  C   UNL A   1      44.264  26.832  34.416  1.00  0.00     0.031 C 
ATOM     63  C   UNL A   1      44.685  25.019  32.613  1.00  0.00     0.037 A 
BRANCH  50  64
ATOM     64  C   UNL A   1      43.519  22.691  27.002  1.00  0.00     0.058 A 
ATOM     65  C   UNL A   1      42.846  21.455  26.856  1.00  0.00     0.135 A 
ATOM     66  C   UNL A   1      44.560  22.884  26.072  1.00  0.00     0.135 A 
ATOM     67  F   UNL A   1      41.754  21.161  27.575  1.00  0.00    -0.206 F 
ATOM     68  C   UNL A   1      43.259  20.452  25.971  1.00  0.00     0.059 A 
ATOM     69  C   UNL A   1      45.024  21.882  25.210  1.00  0.00     0.059 A 
ATOM     70  F   UNL A   1      45.140  24.074  25.900  1.00  0.00    -0.206 F 
ATOM     71  C   UNL A   1      44.380  20.658  25.181  1.00  0.00     0.060 A 
BRANCH  71  72
ATOM     72  S   UNL A   1      44.962  19.329  24.111  1.00  0.00     0.124 S 
ATOM     73  O   UNL A   1      46.410  19.415  24.277  1.00  0.00    -0.237 OA
ATOM     74  O   UNL A   1      44.323  18.158  24.702  1.00  0.00    -0.237 OA
ATOM     75  O   UNL A   1      44.468  19.712  22.792  1.00  0.00    -0.744 OA
ENDBRANCH  71  72
ENDBRANCH  50  64
BRANCH  51  76
ATOM     76  C   UNL A   1      41.511  30.139  32.990  1.00  0.00     0.058 A 
ATOM     77  C   UNL A   1      41.563  31.539  33.123  1.00  0.00     0.135 A 
ATOM     78  C   UNL A   1      40.245  29.540  32.924  1.00  0.00     0.135 A 
ATOM     79  F   UNL A   1      42.751  32.160  33.218  1.00  0.00    -0.206 F 
ATOM     80  C   UNL A   1      40.424  32.328  33.003  1.00  0.00     0.059 A 
ATOM     81  C   UNL A   1      39.086  30.314  32.814  1.00  0.00     0.059 A 
ATOM     82  F   UNL A   1      40.130  28.209  32.809  1.00  0.00    -0.206 F 
ATOM     83  C   UNL A   1      39.200  31.706  32.769  1.00  0.00     0.060 A 
BRANCH  83  84
ATOM     84  S   UNL A   1      37.812  32.737  32.233  1.00  0.00     0.124 S 
ATOM     85  O   UNL A   1      36.793  31.741  31.922  1.00  0.00    -0.237 OA
ATOM     86  O   UNL A   1      37.559  33.549  33.425  1.00  0.00    -0.237 OA
ATOM     87  O   UNL A   1      38.356  33.463  31.092  1.00  0.00    -0.744 OA
ENDBRANCH  83  84
ENDBRANCH  51  76
BRANCH  63  88
ATOM     88  C   UNL A   1      45.124  23.844  33.453  1.00  0.00     0.058 A 
ATOM     89  C   UNL A   1      46.399  23.727  34.030  1.00  0.00     0.135 A 
ATOM     90  C   UNL A   1      44.190  22.846  33.821  1.00  0.00     0.135 A 
ATOM     91  F   UNL A   1      47.338  24.664  33.840  1.00  0.00    -0.206 F 
ATOM     92  C   UNL A   1      46.745  22.662  34.866  1.00  0.00     0.059 A 
ATOM     93  C   UNL A   1      44.498  21.806  34.695  1.00  0.00     0.059 A 
ATOM     94  F   UNL A   1      42.934  22.857  33.349  1.00  0.00    -0.206 F 
ATOM     95  C   UNL A   1      45.788  21.706  35.193  1.00  0.00     0.060 A 
BRANCH  95  96
ATOM     96  S   UNL A   1      46.202  20.363  36.323  1.00  0.00     0.124 S 
ATOM     97  O   UNL A   1      45.771  20.917  37.602  1.00  0.00    -0.237 OA
ATOM     98  O   UNL A   1      45.402  19.251  35.815  1.00  0.00    -0.237 OA
ATOM     99  O   UNL A   1      47.643  20.217  36.148  1.00  0.00    -0.744 OA
ENDBRANCH  95  96
ENDBRANCH  63  88
ENDBRANCH  37  38
ENDBRANCH  29  32
ENDBRANCH  27  28
ENDBRANCH  26  27
ENDBRANCH   1  26
TORSDOF 20
ENDMDL
MODEL 2
REMARK VINA RESULT:     -12.8      1.461      3.084
REMARK SMILES Cc1ccc(C[C@H](C(=O)NCCCCCCNC(=O)c2ccc(-c3c4nc(c(-c5c(F)cc(S(=O)(=O)[O-])cc5F)c5ccc([nH]5)c(-c5c(F)cc(S(=O)(=O)[O-])cc5F)c5nc(c(-c6c(F)cc(S(=O)(=O)[O-])cc6F)c6ccc3[nH]6)C=C5)C=C4)cc2)[C@@H]2CCCC[C@@H]2O)cc1
REMARK SMILES IDX 14 1 13 2 12 3 11 4 10 5 8 6 9 7 7 9 6 10 5 11 1 12 2 13
REMARK SMILES IDX 3 14 94 15 4 16 93 17 86 18 87 19 91 20 88 21 90 22 89 23
REMARK SMILES IDX 92 24 15 26 16 27 17 28 18 29 19 31 20 32 21 33 85 34 22 35
REMARK SMILES IDX 84 36 23 37 24 38 25 39 78 40 26 41 83 42 77 43 79 44 27 45
REMARK SMILES IDX 82 46 76 47 75 48 28 50 62 51 41 52 61 53 42 54 45 55 60 56
REMARK SMILES IDX 80 57 43 58 44 59 59 61 81 62 46 63 29 64 30 65 39 66 31 67
REMARK SMILES IDX 32 68 38 69 40 70 33 71 34 72 35 73 36 74 37 75 63 76 64 77
REMARK SMILES IDX 73 78 65 79 66 80 72 81 74 82 67 83 68 84 69 85 70 86 71 87
REMARK SMILES IDX 47 88 48 89 57 90 49 91 50 92 56 93 58 94 51 95 52 96 53 97
REMARK SMILES IDX 54 98 55 99
REMARK H PARENT 10 8 92 25 17 30 79 49 45 60
REMARK Flexibility Score: inf
ROOT
ATOM      1  C   UNL A   1      33.552  28.596  24.975  1.00  0.00     0.002 C 
ENDROOT
BRANCH   1   2
ATOM      2  C   UNL A   1      32.464  28.336  23.926  1.00  0.00     0.002 C 
BRANCH   2   3
ATOM      3  C   UNL A   1      31.339  27.367  24.316  1.00  0.00     0.021 C 
BRANCH   3   4
ATOM      4  C   UNL A   1      30.748  26.522  23.177  1.00  0.00     0.116 C 
BRANCH   4   5
ATOM      5  N   UNL A   1      31.735  26.315  22.141  1.00  0.00    -0.356 N 
ATOM      6  C   UNL A   1      32.692  25.389  21.913  1.00  0.00     0.223 C 
ATOM      7  O   UNL A   1      33.297  25.586  20.853  1.00  0.00    -0.275 OA
ATOM      8  H   UNL A   1      31.703  27.007  21.442  1.00  0.00     0.163 HD
BRANCH   6   9
ATOM      9  C   UNL A   1      32.964  24.136  22.797  1.00  0.00     0.088 C 
BRANCH   9  10
ATOM     10  C   UNL A   1      33.826  24.638  24.018  1.00  0.00     0.049 C 
BRANCH  10  11
ATOM     11  C   UNL A   1      35.083  23.910  24.485  1.00  0.00    -0.047 A 
ATOM     12  C   UNL A   1      38.746  21.881  25.628  1.00  0.00     0.044 C 
ATOM     13  C   UNL A   1      37.470  22.555  25.225  1.00  0.00    -0.051 A 
ATOM     14  C   UNL A   1      36.883  23.487  26.079  1.00  0.00     0.004 A 
ATOM     15  C   UNL A   1      36.861  22.299  23.994  1.00  0.00     0.004 A 
ATOM     16  C   UNL A   1      35.701  24.140  25.718  1.00  0.00     0.004 A 
ATOM     17  C   UNL A   1      35.692  22.978  23.625  1.00  0.00     0.004 A 
ENDBRANCH  10  11
ENDBRANCH   9  10
BRANCH   9  18
ATOM     18  C   UNL A   1      31.713  23.252  23.205  1.00  0.00     0.030 C 
ATOM     19  C   UNL A   1      31.332  23.247  24.712  1.00  0.00     0.007 C 
ATOM     20  C   UNL A   1      31.806  21.738  22.875  1.00  0.00     0.118 C 
ATOM     21  C   UNL A   1      32.363  22.553  25.608  1.00  0.00     0.001 C 
ATOM     22  C   UNL A   1      32.909  21.025  23.662  1.00  0.00     0.032 C 
ATOM     23  C   UNL A   1      32.655  21.123  25.162  1.00  0.00     0.003 C 
BRANCH  20  24
ATOM     24  O   UNL A   1      31.962  21.490  21.502  1.00  0.00    -0.393 OA
ATOM     25  H   UNL A   1      31.938  20.534  21.341  1.00  0.00     0.210 HD
ENDBRANCH  20  24
ENDBRANCH   9  18
ENDBRANCH   6   9
ENDBRANCH   4   5
ENDBRANCH   3   4
ENDBRANCH   2   3
ENDBRANCH   1   2
BRANCH   1  26
ATOM     26  C   UNL A   1      33.254  29.686  26.003  1.00  0.00     0.021 C 
BRANCH  26  27
ATOM     27  C   UNL A   1      34.200  29.709  27.200  1.00  0.00     0.116 C 
BRANCH  27  28
ATOM     28  N   UNL A   1      35.008  30.915  27.263  1.00  0.00    -0.352 N 
ATOM     29  C   UNL A   1      36.161  31.081  28.030  1.00  0.00     0.251 C 
ATOM     30  H   UNL A   1      34.717  31.680  26.717  1.00  0.00     0.163 HD
ATOM     31  O   UNL A   1      36.491  32.120  28.531  1.00  0.00    -0.269 OA
BRANCH  29  32
ATOM     32  C   UNL A   1      37.061  29.903  28.055  1.00  0.00     0.039 A 
ATOM     33  C   UNL A   1      37.106  29.153  29.237  1.00  0.00     0.014 A 
ATOM     34  C   UNL A   1      38.006  29.731  27.051  1.00  0.00     0.014 A 
ATOM     35  C   UNL A   1      38.211  28.344  29.488  1.00  0.00     0.010 A 
ATOM     36  C   UNL A   1      39.137  28.995  27.337  1.00  0.00     0.010 A 
ATOM     37  C   UNL A   1      39.260  28.341  28.573  1.00  0.00    -0.014 A 
BRANCH  37  38
ATOM     38  C   UNL A   1      40.573  27.766  28.844  1.00  0.00     0.031 A 
ATOM     39  C   UNL A   1      40.857  26.357  28.494  1.00  0.00     0.074 A 
ATOM     40  C   UNL A   1      41.567  28.576  29.267  1.00  0.00     0.049 A 
ATOM     41  N   UNL A   1      41.879  25.685  28.900  1.00  0.00    -0.248 NA
ATOM     42  C   UNL A   1      39.946  25.567  27.676  1.00  0.00     0.031 C 
ATOM     43  C   UNL A   1      43.001  28.322  29.201  1.00  0.00     0.029 A 
ATOM     44  N   UNL A   1      41.456  29.740  30.026  1.00  0.00    -0.354 N 
ATOM     45  C   UNL A   1      41.929  24.507  28.182  1.00  0.00     0.074 A 
ATOM     46  C   UNL A   1      40.654  24.448  27.505  1.00  0.00     0.031 C 
ATOM     47  C   UNL A   1      43.630  29.144  30.054  1.00  0.00     0.029 A 
ATOM     48  C   UNL A   1      42.608  29.832  30.825  1.00  0.00     0.049 A 
ATOM     49  H   UNL A   1      40.709  30.380  30.004  1.00  0.00     0.167 HD
ATOM     50  C   UNL A   1      43.101  23.807  28.139  1.00  0.00     0.037 A 
ATOM     51  C   UNL A   1      42.515  29.783  32.189  1.00  0.00     0.037 A 
ATOM     52  C   UNL A   1      44.077  24.378  29.074  1.00  0.00     0.049 A 
ATOM     53  C   UNL A   1      43.196  28.582  32.810  1.00  0.00     0.074 A 
ATOM     54  C   UNL A   1      45.152  25.236  28.905  1.00  0.00     0.029 A 
ATOM     55  N   UNL A   1      43.830  24.328  30.445  1.00  0.00    -0.354 N 
ATOM     56  N   UNL A   1      43.571  27.526  32.140  1.00  0.00    -0.248 NA
ATOM     57  C   UNL A   1      43.502  28.468  34.234  1.00  0.00     0.031 C 
ATOM     58  C   UNL A   1      45.492  25.773  30.173  1.00  0.00     0.029 A 
ATOM     59  C   UNL A   1      44.645  25.219  31.118  1.00  0.00     0.049 A 
ATOM     60  H   UNL A   1      43.167  23.739  30.873  1.00  0.00     0.167 HD
ATOM     61  C   UNL A   1      44.115  26.604  32.993  1.00  0.00     0.074 A 
ATOM     62  C   UNL A   1      44.076  27.253  34.291  1.00  0.00     0.031 C 
ATOM     63  C   UNL A   1      44.544  25.379  32.564  1.00  0.00     0.037 A 
BRANCH  50  64
ATOM     64  C   UNL A   1      43.478  22.824  27.032  1.00  0.00     0.058 A 
ATOM     65  C   UNL A   1      42.809  21.583  26.911  1.00  0.00     0.135 A 
ATOM     66  C   UNL A   1      44.540  22.987  26.119  1.00  0.00     0.135 A 
ATOM     67  F   UNL A   1      41.701  21.312  27.614  1.00  0.00    -0.206 F 
ATOM     68  C   UNL A   1      43.243  20.552  26.070  1.00  0.00     0.059 A 
ATOM     69  C   UNL A   1      45.025  21.958  25.303  1.00  0.00     0.059 A 
ATOM     70  F   UNL A   1      45.124  24.171  25.922  1.00  0.00    -0.206 F 
ATOM     71  C   UNL A   1      44.382  20.732  25.300  1.00  0.00     0.060 A 
BRANCH  71  72
ATOM     72  S   UNL A   1      44.990  19.369  24.289  1.00  0.00     0.124 S 
ATOM     73  O   UNL A   1      44.579  19.776  22.948  1.00  0.00    -0.237 OA
ATOM     74  O   UNL A   1      46.424  19.407  24.554  1.00  0.00    -0.237 OA
ATOM     75  O   UNL A   1      44.286  18.207  24.825  1.00  0.00    -0.744 OA
ENDBRANCH  71  72
ENDBRANCH  50  64
BRANCH  51  76
ATOM     76  C   UNL A   1      41.295  30.463  32.709  1.00  0.00     0.058 A 
ATOM     77  C   UNL A   1      40.210  29.645  33.077  1.00  0.00     0.135 A 
ATOM     78  C   UNL A   1      41.361  31.745  33.273  1.00  0.00     0.135 A 
ATOM     79  F   UNL A   1      40.085  28.417  32.545  1.00  0.00    -0.206 F 
ATOM     80  C   UNL A   1      39.339  30.002  34.101  1.00  0.00     0.059 A 
ATOM     81  C   UNL A   1      40.488  32.129  34.295  1.00  0.00     0.059 A 
ATOM     82  F   UNL A   1      42.364  32.575  32.952  1.00  0.00    -0.206 F 
ATOM     83  C   UNL A   1      39.538  31.215  34.757  1.00  0.00     0.060 A 
BRANCH  83  84
ATOM     84  S   UNL A   1      38.659  31.491  36.316  1.00  0.00     0.124 S 
ATOM     85  O   UNL A   1      38.241  30.141  36.673  1.00  0.00    -0.237 OA
ATOM     86  O   UNL A   1      39.708  32.072  37.157  1.00  0.00    -0.237 OA
ATOM     87  O   UNL A   1      37.589  32.406  35.938  1.00  0.00    -0.744 OA
ENDBRANCH  83  84
ENDBRANCH  51  76
BRANCH  63  88
ATOM     88  C   UNL A   1      44.989  24.243  33.452  1.00  0.00     0.058 A 
ATOM     89  C   UNL A   1      44.179  23.144  33.783  1.00  0.00     0.135 A 
ATOM     90  C   UNL A   1      46.333  24.167  33.889  1.00  0.00     0.135 A 
ATOM     91  F   UNL A   1      42.917  23.051  33.340  1.00  0.00    -0.206 F 
ATOM     92  C   UNL A   1      44.649  22.072  34.545  1.00  0.00     0.059 A 
ATOM     93  C   UNL A   1      46.837  23.083  34.604  1.00  0.00     0.059 A 
ATOM     94  F   UNL A   1      47.209  25.147  33.623  1.00  0.00    -0.206 F 
ATOM     95  C   UNL A   1      45.980  22.050  34.951  1.00  0.00     0.060 A 
BRANCH  95  96
ATOM     96  S   UNL A   1      46.618  20.642  35.879  1.00  0.00     0.124 S 
ATOM     97  O   UNL A   1      47.750  20.238  35.052  1.00  0.00    -0.237 OA
ATOM     98  O   UNL A   1      46.959  21.230  37.172  1.00  0.00    -0.237 OA
ATOM     99  O   UNL A   1      45.486  19.720  35.900  1.00  0.00    -0.744 OA
ENDBRANCH  95  96
ENDBRANCH  63  88
ENDBRANCH  37  38
ENDBRANCH  29  32
ENDBRANCH  27  28
ENDBRANCH  26  27
ENDBRANCH   1  26
TORSDOF 20
ENDMDL
MODEL 3
REMARK VINA RESULT:     -12.7      1.222      2.458
REMARK SMILES Cc1ccc(C[C@H](C(=O)NCCCCCCNC(=O)c2ccc(-c3c4nc(c(-c5c(F)cc(S(=O)(=O)[O-])cc5F)c5ccc([nH]5)c(-c5c(F)cc(S(=O)(=O)[O-])cc5F)c5nc(c(-c6c(F)cc(S(=O)(=O)[O-])cc6F)c6ccc3[nH]6)C=C5)C=C4)cc2)[C@@H]2CCCC[C@@H]2O)cc1
REMARK SMILES IDX 14 1 13 2 12 3 11 4 10 5 8 6 9 7 7 9 6 10 5 11 1 12 2 13
REMARK SMILES IDX 3 14 94 15 4 16 93 17 86 18 87 19 91 20 88 21 90 22 89 23
REMARK SMILES IDX 92 24 15 26 16 27 17 28 18 29 19 31 20 32 21 33 85 34 22 35
REMARK SMILES IDX 84 36 23 37 24 38 25 39 78 40 26 41 83 42 77 43 79 44 27 45
REMARK SMILES IDX 82 46 76 47 75 48 28 50 62 51 41 52 61 53 42 54 45 55 60 56
REMARK SMILES IDX 80 57 43 58 44 59 59 61 81 62 46 63 29 64 30 65 39 66 31 67
REMARK SMILES IDX 32 68 38 69 40 70 33 71 34 72 35 73 36 74 37 75 63 76 64 77
REMARK SMILES IDX 73 78 65 79 66 80 72 81 74 82 67 83 68 84 69 85 70 86 71 87
REMARK SMILES IDX 47 88 48 89 57 90 49 91 50 92 56 93 58 94 51 95 52 96 53 97
REMARK SMILES IDX 54 98 55 99
REMARK H PARENT 10 8 92 25 17 30 79 49 45 60
REMARK Flexibility Score: inf
ROOT
ATOM      1  C   UNL A   1      32.298  29.339  26.237  1.00  0.00     0.002 C 
ENDROOT
BRANCH   1   2
ATOM      2  C   UNL A   1      31.654  28.043  25.729  1.00  0.00     0.002 C 
BRANCH   2   3
ATOM      3  C   UNL A   1      31.690  26.832  26.671  1.00  0.00     0.021 C 
BRANCH   3   4
ATOM      4  C   UNL A   1      31.487  25.457  26.017  1.00  0.00     0.116 C 
BRANCH   4   5
ATOM      5  N   UNL A   1      31.711  24.403  26.981  1.00  0.00    -0.356 N 
ATOM      6  C   UNL A   1      32.506  23.313  27.029  1.00  0.00     0.223 C 
ATOM      7  O   UNL A   1      32.399  22.695  28.094  1.00  0.00    -0.275 OA
ATOM      8  H   UNL A   1      31.156  24.504  27.789  1.00  0.00     0.163 HD
BRANCH   6   9
ATOM      9  C   UNL A   1      33.542  22.904  25.939  1.00  0.00     0.088 C 
BRANCH   9  10
ATOM     10  C   UNL A   1      32.714  22.239  24.774  1.00  0.00     0.049 C 
BRANCH  10  11
ATOM     11  C   UNL A   1      32.957  20.805  24.314  1.00  0.00    -0.047 A 
ATOM     12  C   UNL A   1      33.647  16.665  23.207  1.00  0.00     0.044 C 
ATOM     13  C   UNL A   1      33.439  18.099  23.588  1.00  0.00    -0.051 A 
ATOM     14  C   UNL A   1      32.448  18.844  22.953  1.00  0.00     0.004 A 
ATOM     15  C   UNL A   1      34.194  18.710  24.593  1.00  0.00     0.004 A 
ATOM     16  C   UNL A   1      32.223  20.179  23.302  1.00  0.00     0.004 A 
ATOM     17  C   UNL A   1      33.946  20.039  24.959  1.00  0.00     0.004 A 
ENDBRANCH  10  11
ENDBRANCH   9  10
BRANCH   9  18
ATOM     18  C   UNL A   1      34.564  24.016  25.458  1.00  0.00     0.030 C 
ATOM     19  C   UNL A   1      34.432  24.484  23.981  1.00  0.00     0.007 C 
ATOM     20  C   UNL A   1      36.071  23.654  25.564  1.00  0.00     0.118 C 
ATOM     21  C   UNL A   1      34.812  23.410  22.957  1.00  0.00     0.001 C 
ATOM     22  C   UNL A   1      36.471  22.500  24.641  1.00  0.00     0.032 C 
ATOM     23  C   UNL A   1      36.217  22.860  23.181  1.00  0.00     0.003 C 
BRANCH  20  24
ATOM     24  O   UNL A   1      36.470  23.375  26.880  1.00  0.00    -0.393 OA
ATOM     25  H   UNL A   1      36.976  22.547  26.896  1.00  0.00     0.210 HD
ENDBRANCH  20  24
ENDBRANCH   9  18
ENDBRANCH   6   9
ENDBRANCH   4   5
ENDBRANCH   3   4
ENDBRANCH   2   3
ENDBRANCH   1   2
BRANCH   1  26
ATOM     26  C   UNL A   1      33.820  29.422  26.135  1.00  0.00     0.021 C 
BRANCH  26  27
ATOM     27  C   UNL A   1      34.536  29.638  27.465  1.00  0.00     0.116 C 
BRANCH  27  28
ATOM     28  N   UNL A   1      35.376  30.823  27.473  1.00  0.00    -0.352 N 
ATOM     29  C   UNL A   1      36.540  30.989  28.223  1.00  0.00     0.251 C 
ATOM     30  H   UNL A   1      35.100  31.574  26.899  1.00  0.00     0.163 HD
ATOM     31  O   UNL A   1      36.903  32.038  28.679  1.00  0.00    -0.269 OA
BRANCH  29  32
ATOM     32  C   UNL A   1      37.409  29.789  28.288  1.00  0.00     0.039 A 
ATOM     33  C   UNL A   1      37.469  29.103  29.507  1.00  0.00     0.014 A 
ATOM     34  C   UNL A   1      38.320  29.536  27.268  1.00  0.00     0.014 A 
ATOM     35  C   UNL A   1      38.558  28.278  29.771  1.00  0.00     0.010 A 
ATOM     36  C   UNL A   1      39.438  28.785  27.563  1.00  0.00     0.010 A 
ATOM     37  C   UNL A   1      39.580  28.195  28.829  1.00  0.00    -0.014 A 
BRANCH  37  38
ATOM     38  C   UNL A   1      40.884  27.599  29.095  1.00  0.00     0.031 A 
ATOM     39  C   UNL A   1      41.170  26.211  28.670  1.00  0.00     0.074 A 
ATOM     40  C   UNL A   1      41.872  28.378  29.586  1.00  0.00     0.049 A 
ATOM     41  N   UNL A   1      42.181  25.512  29.060  1.00  0.00    -0.248 NA
ATOM     42  C   UNL A   1      40.275  25.474  27.789  1.00  0.00     0.031 C 
ATOM     43  C   UNL A   1      43.306  28.121  29.536  1.00  0.00     0.029 A 
ATOM     44  N   UNL A   1      41.749  29.497  30.407  1.00  0.00    -0.354 N 
ATOM     45  C   UNL A   1      42.241  24.377  28.276  1.00  0.00     0.074 A 
ATOM     46  C   UNL A   1      40.982  24.364  27.569  1.00  0.00     0.031 C 
ATOM     47  C   UNL A   1      43.920  28.889  30.449  1.00  0.00     0.029 A 
ATOM     48  C   UNL A   1      42.883  29.537  31.236  1.00  0.00     0.049 A 
ATOM     49  H   UNL A   1      41.005  30.141  30.406  1.00  0.00     0.167 HD
ATOM     50  C   UNL A   1      43.412  23.674  28.218  1.00  0.00     0.037 A 
ATOM     51  C   UNL A   1      42.761  29.411  32.592  1.00  0.00     0.037 A 
ATOM     52  C   UNL A   1      44.369  24.185  29.206  1.00  0.00     0.049 A 
ATOM     53  C   UNL A   1      43.423  28.172  33.158  1.00  0.00     0.074 A 
ATOM     54  C   UNL A   1      45.451  25.047  29.109  1.00  0.00     0.029 A 
ATOM     55  N   UNL A   1      44.092  24.058  30.565  1.00  0.00    -0.354 N 
ATOM     56  N   UNL A   1      43.808  27.155  32.436  1.00  0.00    -0.248 NA
ATOM     57  C   UNL A   1      43.698  27.975  34.579  1.00  0.00     0.031 C 
ATOM     58  C   UNL A   1      45.765  25.507  30.413  1.00  0.00     0.029 A 
ATOM     59  C   UNL A   1      44.895  24.905  31.306  1.00  0.00     0.049 A 
ATOM     60  H   UNL A   1      43.418  23.449  30.945  1.00  0.00     0.167 HD
ATOM     61  C   UNL A   1      44.330  26.182  33.246  1.00  0.00     0.074 A 
ATOM     62  C   UNL A   1      44.265  26.755  34.578  1.00  0.00     0.031 C 
ATOM     63  C   UNL A   1      44.764  24.982  32.756  1.00  0.00     0.037 A 
BRANCH  50  64
ATOM     64  C   UNL A   1      43.809  22.755  27.065  1.00  0.00     0.058 A 
ATOM     65  C   UNL A   1      43.024  21.623  26.742  1.00  0.00     0.135 A 
ATOM     66  C   UNL A   1      44.988  22.865  26.299  1.00  0.00     0.135 A 
ATOM     67  F   UNL A   1      41.814  21.431  27.284  1.00  0.00    -0.206 F 
ATOM     68  C   UNL A   1      43.439  20.624  25.853  1.00  0.00     0.059 A 
ATOM     69  C   UNL A   1      45.449  21.860  25.440  1.00  0.00     0.059 A 
ATOM     70  F   UNL A   1      45.722  23.980  26.292  1.00  0.00    -0.206 F 
ATOM     71  C   UNL A   1      44.677  20.729  25.238  1.00  0.00     0.060 A 
BRANCH  71  72
ATOM     72  S   UNL A   1      45.247  19.396  24.166  1.00  0.00     0.124 S 
ATOM     73  O   UNL A   1      46.669  19.698  24.033  1.00  0.00    -0.237 OA
ATOM     74  O   UNL A   1      44.919  18.211  24.951  1.00  0.00    -0.237 OA
ATOM     75  O   UNL A   1      44.460  19.578  22.950  1.00  0.00    -0.744 OA
ENDBRANCH  71  72
ENDBRANCH  50  64
BRANCH  51  76
ATOM     76  C   UNL A   1      41.532  30.065  33.124  1.00  0.00     0.058 A 
ATOM     77  C   UNL A   1      41.566  31.463  33.286  1.00  0.00     0.135 A 
ATOM     78  C   UNL A   1      40.274  29.458  33.004  1.00  0.00     0.135 A 
ATOM     79  F   UNL A   1      42.744  32.092  33.433  1.00  0.00    -0.206 F 
ATOM     80  C   UNL A   1      40.424  32.245  33.142  1.00  0.00     0.059 A 
ATOM     81  C   UNL A   1      39.112  30.223  32.870  1.00  0.00     0.059 A 
ATOM     82  F   UNL A   1      40.175  28.128  32.859  1.00  0.00    -0.206 F 
ATOM     83  C   UNL A   1      39.215  31.616  32.855  1.00  0.00     0.060 A 
BRANCH  83  84
ATOM     84  S   UNL A   1      37.836  32.647  32.293  1.00  0.00     0.124 S 
ATOM     85  O   UNL A   1      37.553  33.451  33.476  1.00  0.00    -0.237 OA
ATOM     86  O   UNL A   1      38.435  33.367  31.167  1.00  0.00    -0.237 OA
ATOM     87  O   UNL A   1      36.815  31.671  31.933  1.00  0.00    -0.744 OA
ENDBRANCH  83  84
ENDBRANCH  51  76
BRANCH  63  88
ATOM     88  C   UNL A   1      45.184  23.794  33.587  1.00  0.00     0.058 A 
ATOM     89  C   UNL A   1      46.500  23.573  34.028  1.00  0.00     0.135 A 
ATOM     90  C   UNL A   1      44.210  22.898  34.091  1.00  0.00     0.135 A 
ATOM     91  F   UNL A   1      47.493  24.413  33.704  1.00  0.00    -0.206 F 
ATOM     92  C   UNL A   1      46.838  22.504  34.861  1.00  0.00     0.059 A 
ATOM     93  C   UNL A   1      44.518  21.859  34.964  1.00  0.00     0.059 A 
ATOM     94  F   UNL A   1      42.917  23.014  33.755  1.00  0.00    -0.206 F 
ATOM     95  C   UNL A   1      45.841  21.652  35.325  1.00  0.00     0.060 A 
BRANCH  95  96
ATOM     96  S   UNL A   1      46.254  20.307  36.453  1.00  0.00     0.124 S 
ATOM     97  O   UNL A   1      45.499  19.201  35.874  1.00  0.00    -0.237 OA
ATOM     98  O   UNL A   1      47.706  20.211  36.329  1.00  0.00    -0.237 OA
ATOM     99  O   UNL A   1      45.775  20.798  37.741  1.00  0.00    -0.744 OA
ENDBRANCH  95  96
ENDBRANCH  63  88
ENDBRANCH  37  38
ENDBRANCH  29  32
ENDBRANCH  27  28
ENDBRANCH  26  27
ENDBRANCH   1  26
TORSDOF 20
ENDMDL
