MODEL 1
REMARK VINA RESULT:     -13.3      0.000      0.000
REMARK SMILES Cc1ccc(NC(=O)[C@H]2CC(Cl)=CC[C@@H]2C(=O)NCCCCCCNC(=O)c2ccc(-c3c4nc(c(-c5c(F)cc(S(=O)(=O)[O-])cc5F)c5ccc([nH]5)c(-c5c(F)cc(S(=O)(=O)[O-])cc5F)c5nc(c(-c6c(F)cc(S(=O)(=O)[O-])cc6F)c6ccc3[nH]6)C=C5)C=C4)cc2)cc1[N+](=O)[O-]
REMARK SMILES IDX 21 1 20 2 19 3 18 4 16 5 17 6 15 8 9 9 10 10 11 11 14 12
REMARK SMILES IDX 12 13 13 14 7 15 6 16 8 18 5 19 1 20 2 21 3 22 95 23 4 24
REMARK SMILES IDX 94 25 96 26 97 27 98 28 22 29 23 30 24 31 25 32 26 33 27 35
REMARK SMILES IDX 28 36 29 37 93 38 30 39 92 40 31 41 32 42 33 43 86 44 34 45
REMARK SMILES IDX 91 46 85 47 87 48 35 49 90 50 84 51 83 52 36 54 70 55 49 56
REMARK SMILES IDX 69 57 50 58 53 59 68 60 88 61 51 62 52 63 67 65 89 66 54 67
REMARK SMILES IDX 37 68 38 69 47 70 39 71 40 72 46 73 48 74 41 75 42 76 43 77
REMARK SMILES IDX 44 78 45 79 71 80 72 81 81 82 73 83 74 84 80 85 82 86 75 87
REMARK SMILES IDX 76 88 77 89 78 90 79 91 55 92 56 93 65 94 57 95 58 96 64 97
REMARK SMILES IDX 66 98 59 99 60 100 61 101 62 102 63 103
REMARK H PARENT 18 7 6 17 25 34 87 53 53 64
REMARK Flexibility Score: inf
ROOT
ATOM      1  C   UNL A   1      39.328  20.061  25.767  1.00  0.00     0.002 C 
ENDROOT
BRANCH   1   2
ATOM      2  C   UNL A   1      38.465  21.223  25.252  1.00  0.00     0.021 C 
BRANCH   2   3
ATOM      3  C   UNL A   1      36.970  21.164  25.583  1.00  0.00     0.116 C 
BRANCH   3   4
ATOM      4  N   UNL A   1      36.126  21.511  24.451  1.00  0.00    -0.356 N 
ATOM      5  C   UNL A   1      35.224  22.503  24.242  1.00  0.00     0.224 C 
ATOM      6  O   UNL A   1      34.708  22.561  23.121  1.00  0.00    -0.275 OA
ATOM      7  H   UNL A   1      36.230  20.906  23.682  1.00  0.00     0.163 HD
BRANCH   5   8
ATOM      8  C   UNL A   1      34.829  23.495  25.337  1.00  0.00     0.095 C 
ATOM      9  C   UNL A   1      33.503  23.032  25.988  1.00  0.00     0.097 C 
ATOM     10  C   UNL A   1      32.866  24.139  26.852  1.00  0.00     0.062 C 
ATOM     11  C   UNL A   1      32.708  25.407  26.084  1.00  0.00     0.015 C 
ATOM     12  C   UNL A   1      34.696  24.895  24.664  1.00  0.00     0.043 C 
ATOM     13  Cl  UNL A   1      31.375  26.413  26.507  1.00  0.00    -0.089 Cl
ATOM     14  C   UNL A   1      33.538  25.749  25.093  1.00  0.00    -0.010 C 
BRANCH   9  15
ATOM     15  C   UNL A   1      33.711  21.830  26.896  1.00  0.00     0.228 C 
ATOM     16  N   UNL A   1      33.372  20.552  26.566  1.00  0.00    -0.326 N 
ATOM     17  H   UNL A   1      33.510  19.910  27.299  1.00  0.00     0.169 HD
ATOM     18  O   UNL A   1      34.305  21.977  27.972  1.00  0.00    -0.274 OA
BRANCH  16  19
ATOM     19  C   UNL A   1      32.864  19.960  25.398  1.00  0.00     0.048 A 
ATOM     20  C   UNL A   1      32.286  18.115  21.528  1.00  0.00     0.052 C 
ATOM     21  C   UNL A   1      32.379  18.668  22.920  1.00  0.00     0.027 A 
ATOM     22  C   UNL A   1      32.031  20.009  23.122  1.00  0.00     0.012 A 
ATOM     23  C   UNL A   1      32.868  17.960  24.028  1.00  0.00     0.274 A 
ATOM     24  C   UNL A   1      32.249  20.637  24.353  1.00  0.00     0.027 A 
ATOM     25  C   UNL A   1      33.070  18.585  25.269  1.00  0.00     0.112 A 
BRANCH  23  26
ATOM     26  N   UNL A   1      33.289  16.569  23.920  1.00  0.00     0.063 N 
ATOM     27  O   UNL A   1      32.858  15.787  24.777  1.00  0.00    -0.258 OA
ATOM     28  O   UNL A   1      34.083  16.286  23.013  1.00  0.00    -0.258 OA
ENDBRANCH  23  26
ENDBRANCH  16  19
ENDBRANCH   9  15
ENDBRANCH   5   8
ENDBRANCH   3   4
ENDBRANCH   2   3
ENDBRANCH   1   2
BRANCH   1  29
ATOM     29  C   UNL A   1      40.524  20.393  26.669  1.00  0.00     0.002 C 
BRANCH  29  30
ATOM     30  C   UNL A   1      41.367  21.612  26.290  1.00  0.00     0.021 C 
BRANCH  30  31
ATOM     31  C   UNL A   1      40.984  22.915  26.969  1.00  0.00     0.116 C 
BRANCH  31  32
ATOM     32  N   UNL A   1      40.489  23.988  26.125  1.00  0.00    -0.352 N 
ATOM     33  C   UNL A   1      39.417  24.744  26.621  1.00  0.00     0.251 C 
ATOM     34  H   UNL A   1      40.889  24.177  25.245  1.00  0.00     0.163 HD
ATOM     35  O   UNL A   1      38.250  24.450  26.511  1.00  0.00    -0.269 OA
BRANCH  33  36
ATOM     36  C   UNL A   1      39.857  25.783  27.588  1.00  0.00     0.039 A 
ATOM     37  C   UNL A   1      39.362  25.870  28.888  1.00  0.00     0.014 A 
ATOM     38  C   UNL A   1      40.695  26.775  27.073  1.00  0.00     0.014 A 
ATOM     39  C   UNL A   1      39.602  27.036  29.626  1.00  0.00     0.010 A 
ATOM     40  C   UNL A   1      40.850  27.953  27.758  1.00  0.00     0.010 A 
ATOM     41  C   UNL A   1      40.282  28.097  29.026  1.00  0.00    -0.014 A 
BRANCH  41  42
ATOM     42  C   UNL A   1      40.442  29.435  29.576  1.00  0.00     0.031 A 
ATOM     43  C   UNL A   1      39.341  30.419  29.457  1.00  0.00     0.074 A 
ATOM     44  C   UNL A   1      41.481  29.662  30.409  1.00  0.00     0.049 A 
ATOM     45  N   UNL A   1      39.438  31.658  29.800  1.00  0.00    -0.248 NA
ATOM     46  C   UNL A   1      38.039  30.098  28.873  1.00  0.00     0.031 C 
ATOM     47  C   UNL A   1      41.601  30.710  31.419  1.00  0.00     0.029 A 
ATOM     48  N   UNL A   1      42.750  29.083  30.363  1.00  0.00    -0.354 N 
ATOM     49  C   UNL A   1      38.181  32.216  29.756  1.00  0.00     0.074 A 
ATOM     50  C   UNL A   1      37.377  31.246  29.057  1.00  0.00     0.031 C 
ATOM     51  C   UNL A   1      42.897  30.875  31.726  1.00  0.00     0.029 A 
ATOM     52  C   UNL A   1      43.664  30.061  30.799  1.00  0.00     0.049 A 
ATOM     53  H   UNL A   1      42.965  28.165  30.079  1.00  0.00     0.167 HD
ATOM     54  C   UNL A   1      37.961  33.384  30.426  1.00  0.00     0.037 A 
ATOM     55  C   UNL A   1      44.606  30.558  29.940  1.00  0.00     0.037 A 
ATOM     56  C   UNL A   1      39.237  33.977  30.834  1.00  0.00     0.049 A 
ATOM     57  C   UNL A   1      44.448  32.032  29.644  1.00  0.00     0.074 A 
ATOM     58  C   UNL A   1      39.907  34.058  32.042  1.00  0.00     0.029 A 
ATOM     59  N   UNL A   1      40.142  34.370  29.852  1.00  0.00    -0.354 N 
ATOM     60  N   UNL A   1      43.367  32.721  29.896  1.00  0.00    -0.248 NA
ATOM     61  C   UNL A   1      45.496  32.852  29.042  1.00  0.00     0.031 C 
ATOM     62  C   UNL A   1      41.261  34.391  31.762  1.00  0.00     0.029 A 
ATOM     63  C   UNL A   1      41.397  34.561  30.394  1.00  0.00     0.049 A 
ATOM     64  H   UNL A   1      39.918  34.495  28.901  1.00  0.00     0.167 HD
ATOM     65  C   UNL A   1      43.529  34.013  29.468  1.00  0.00     0.074 A 
ATOM     66  C   UNL A   1      44.892  34.052  28.972  1.00  0.00     0.031 C 
ATOM     67  C   UNL A   1      42.523  34.936  29.544  1.00  0.00     0.037 A 
BRANCH  54  68
ATOM     68  C   UNL A   1      36.617  33.926  30.893  1.00  0.00     0.058 A 
ATOM     69  C   UNL A   1      35.614  34.246  29.944  1.00  0.00     0.135 A 
ATOM     70  C   UNL A   1      36.286  34.280  32.219  1.00  0.00     0.135 A 
ATOM     71  F   UNL A   1      35.777  33.969  28.642  1.00  0.00    -0.206 F 
ATOM     72  C   UNL A   1      34.418  34.893  30.278  1.00  0.00     0.059 A 
ATOM     73  C   UNL A   1      35.080  34.889  32.581  1.00  0.00     0.059 A 
ATOM     74  F   UNL A   1      37.131  34.114  33.240  1.00  0.00    -0.206 F 
ATOM     75  C   UNL A   1      34.161  35.221  31.601  1.00  0.00     0.060 A 
BRANCH  75  76
ATOM     76  S   UNL A   1      32.649  36.105  32.029  1.00  0.00     0.124 S 
ATOM     77  O   UNL A   1      32.311  36.749  30.763  1.00  0.00    -0.237 OA
ATOM     78  O   UNL A   1      31.763  35.026  32.453  1.00  0.00    -0.237 OA
ATOM     79  O   UNL A   1      33.075  37.012  33.093  1.00  0.00    -0.744 OA
ENDBRANCH  75  76
ENDBRANCH  54  68
BRANCH  55  80
ATOM     80  C   UNL A   1      45.113  29.519  28.995  1.00  0.00     0.058 A 
ATOM     81  C   UNL A   1      46.011  28.566  29.517  1.00  0.00     0.135 A 
ATOM     82  C   UNL A   1      44.380  29.159  27.855  1.00  0.00     0.135 A 
ATOM     83  F   UNL A   1      46.768  28.876  30.582  1.00  0.00    -0.206 F 
ATOM     84  C   UNL A   1      46.022  27.249  29.068  1.00  0.00     0.059 A 
ATOM     85  C   UNL A   1      44.392  27.848  27.373  1.00  0.00     0.059 A 
ATOM     86  F   UNL A   1      43.520  30.028  27.301  1.00  0.00    -0.206 F 
ATOM     87  C   UNL A   1      45.143  26.885  28.050  1.00  0.00     0.060 A 
BRANCH  87  88
ATOM     88  S   UNL A   1      44.866  25.119  27.755  1.00  0.00     0.124 S 
ATOM     89  O   UNL A   1      43.448  25.081  27.415  1.00  0.00    -0.237 OA
ATOM     90  O   UNL A   1      45.793  24.846  26.654  1.00  0.00    -0.237 OA
ATOM     91  O   UNL A   1      45.221  24.507  29.031  1.00  0.00    -0.744 OA
ENDBRANCH  87  88
ENDBRANCH  55  80
BRANCH  67  92
ATOM     92  C   UNL A   1      42.525  36.303  28.893  1.00  0.00     0.058 A 
ATOM     93  C   UNL A   1      43.139  37.441  29.444  1.00  0.00     0.135 A 
ATOM     94  C   UNL A   1      42.006  36.471  27.584  1.00  0.00     0.135 A 
ATOM     95  F   UNL A   1      43.781  37.388  30.620  1.00  0.00    -0.206 F 
ATOM     96  C   UNL A   1      43.164  38.674  28.788  1.00  0.00     0.059 A 
ATOM     97  C   UNL A   1      42.072  37.677  26.888  1.00  0.00     0.059 A 
ATOM     98  F   UNL A   1      41.420  35.459  26.928  1.00  0.00    -0.206 F 
ATOM     99  C   UNL A   1      42.625  38.784  27.511  1.00  0.00     0.060 A 
BRANCH  99 100
ATOM    100  S   UNL A   1      42.694  40.359  26.637  1.00  0.00     0.124 S 
ATOM    101  O   UNL A   1      42.940  41.290  27.734  1.00  0.00    -0.237 OA
ATOM    102  O   UNL A   1      43.807  40.171  25.711  1.00  0.00    -0.237 OA
ATOM    103  O   UNL A   1      41.378  40.450  26.012  1.00  0.00    -0.744 OA
ENDBRANCH  99 100
ENDBRANCH  67  92
ENDBRANCH  41  42
ENDBRANCH  33  36
ENDBRANCH  31  32
ENDBRANCH  30  31
ENDBRANCH  29  30
ENDBRANCH   1  29
TORSDOF 19
ENDMDL
MODEL 2
REMARK VINA RESULT:     -12.8      2.329      3.946
REMARK SMILES Cc1ccc(NC(=O)[C@H]2CC(Cl)=CC[C@@H]2C(=O)NCCCCCCNC(=O)c2ccc(-c3c4nc(c(-c5c(F)cc(S(=O)(=O)[O-])cc5F)c5ccc([nH]5)c(-c5c(F)cc(S(=O)(=O)[O-])cc5F)c5nc(c(-c6c(F)cc(S(=O)(=O)[O-])cc6F)c6ccc3[nH]6)C=C5)C=C4)cc2)cc1[N+](=O)[O-]
REMARK SMILES IDX 21 1 20 2 19 3 18 4 16 5 17 6 15 8 9 9 10 10 11 11 14 12
REMARK SMILES IDX 12 13 13 14 7 15 6 16 8 18 5 19 1 20 2 21 3 22 95 23 4 24
REMARK SMILES IDX 94 25 96 26 97 27 98 28 22 29 23 30 24 31 25 32 26 33 27 35
REMARK SMILES IDX 28 36 29 37 93 38 30 39 92 40 31 41 32 42 33 43 86 44 34 45
REMARK SMILES IDX 91 46 85 47 87 48 35 49 90 50 84 51 83 52 36 54 70 55 49 56
REMARK SMILES IDX 69 57 50 58 53 59 68 60 88 61 51 62 52 63 67 65 89 66 54 67
REMARK SMILES IDX 37 68 38 69 47 70 39 71 40 72 46 73 48 74 41 75 42 76 43 77
REMARK SMILES IDX 44 78 45 79 71 80 72 81 81 82 73 83 74 84 80 85 82 86 75 87
REMARK SMILES IDX 76 88 77 89 78 90 79 91 55 92 56 93 65 94 57 95 58 96 64 97
REMARK SMILES IDX 66 98 59 99 60 100 61 101 62 102 63 103
REMARK H PARENT 18 7 6 17 25 34 87 53 53 64
REMARK Flexibility Score: inf
ROOT
ATOM      1  C   UNL A   1      38.418  20.852  25.115  1.00  0.00     0.002 C 
ENDROOT
BRANCH   1   2
ATOM      2  C   UNL A   1      36.903  21.094  25.036  1.00  0.00     0.021 C 
BRANCH   2   3
ATOM      3  C   UNL A   1      36.419  22.050  23.940  1.00  0.00     0.116 C 
BRANCH   3   4
ATOM      4  N   UNL A   1      36.062  23.363  24.452  1.00  0.00    -0.356 N 
ATOM      5  C   UNL A   1      34.911  23.876  24.955  1.00  0.00     0.224 C 
ATOM      6  O   UNL A   1      34.954  25.039  25.371  1.00  0.00    -0.275 OA
ATOM      7  H   UNL A   1      36.804  24.010  24.428  1.00  0.00     0.163 HD
BRANCH   5   8
ATOM      8  C   UNL A   1      33.605  23.080  24.989  1.00  0.00     0.095 C 
ATOM      9  C   UNL A   1      32.425  24.028  24.666  1.00  0.00     0.097 C 
ATOM     10  C   UNL A   1      31.063  23.393  25.010  1.00  0.00     0.062 C 
ATOM     11  C   UNL A   1      31.030  22.905  26.419  1.00  0.00     0.015 C 
ATOM     12  C   UNL A   1      33.484  22.455  26.412  1.00  0.00     0.043 C 
ATOM     13  Cl  UNL A   1      29.504  22.943  27.220  1.00  0.00    -0.089 Cl
ATOM     14  C   UNL A   1      32.127  22.480  27.053  1.00  0.00    -0.010 C 
BRANCH   9  15
ATOM     15  C   UNL A   1      32.380  24.390  23.189  1.00  0.00     0.228 C 
ATOM     16  N   UNL A   1      31.889  25.564  22.702  1.00  0.00    -0.326 N 
ATOM     17  H   UNL A   1      31.872  25.601  21.719  1.00  0.00     0.169 HD
ATOM     18  O   UNL A   1      32.898  23.629  22.361  1.00  0.00    -0.274 OA
BRANCH  16  19
ATOM     19  C   UNL A   1      31.400  26.731  23.311  1.00  0.00     0.048 A 
ATOM     20  C   UNL A   1      30.223  30.769  24.324  1.00  0.00     0.052 C 
ATOM     21  C   UNL A   1      30.508  29.323  24.039  1.00  0.00     0.027 A 
ATOM     22  C   UNL A   1      31.620  28.736  24.656  1.00  0.00     0.012 A 
ATOM     23  C   UNL A   1      29.787  28.532  23.134  1.00  0.00     0.274 A 
ATOM     24  C   UNL A   1      32.043  27.447  24.312  1.00  0.00     0.027 A 
ATOM     25  C   UNL A   1      30.201  27.232  22.801  1.00  0.00     0.112 A 
BRANCH  23  26
ATOM     26  N   UNL A   1      28.633  29.055  22.412  1.00  0.00     0.063 N 
ATOM     27  O   UNL A   1      28.846  29.968  21.605  1.00  0.00    -0.258 OA
ATOM     28  O   UNL A   1      27.525  28.581  22.697  1.00  0.00    -0.258 OA
ENDBRANCH  23  26
ENDBRANCH  16  19
ENDBRANCH   9  15
ENDBRANCH   5   8
ENDBRANCH   3   4
ENDBRANCH   2   3
ENDBRANCH   1   2
BRANCH   1  29
ATOM     29  C   UNL A   1      39.161  21.327  26.371  1.00  0.00     0.002 C 
BRANCH  29  30
ATOM     30  C   UNL A   1      40.648  21.649  26.223  1.00  0.00     0.021 C 
BRANCH  30  31
ATOM     31  C   UNL A   1      41.045  23.084  26.522  1.00  0.00     0.116 C 
BRANCH  31  32
ATOM     32  N   UNL A   1      40.306  24.137  25.850  1.00  0.00    -0.352 N 
ATOM     33  C   UNL A   1      39.258  24.735  26.566  1.00  0.00     0.251 C 
ATOM     34  H   UNL A   1      40.529  24.418  24.934  1.00  0.00     0.163 HD
ATOM     35  O   UNL A   1      38.127  24.313  26.624  1.00  0.00    -0.269 OA
BRANCH  33  36
ATOM     36  C   UNL A   1      39.742  25.763  27.523  1.00  0.00     0.039 A 
ATOM     37  C   UNL A   1      39.327  25.821  28.851  1.00  0.00     0.014 A 
ATOM     38  C   UNL A   1      40.533  26.776  26.975  1.00  0.00     0.014 A 
ATOM     39  C   UNL A   1      39.595  26.978  29.594  1.00  0.00     0.010 A 
ATOM     40  C   UNL A   1      40.714  27.944  27.670  1.00  0.00     0.010 A 
ATOM     41  C   UNL A   1      40.223  28.058  28.972  1.00  0.00    -0.014 A 
BRANCH  41  42
ATOM     42  C   UNL A   1      40.398  29.390  29.536  1.00  0.00     0.031 A 
ATOM     43  C   UNL A   1      39.307  30.387  29.427  1.00  0.00     0.074 A 
ATOM     44  C   UNL A   1      41.440  29.597  30.370  1.00  0.00     0.049 A 
ATOM     45  N   UNL A   1      39.418  31.621  29.783  1.00  0.00    -0.248 NA
ATOM     46  C   UNL A   1      38.001  30.085  28.843  1.00  0.00     0.031 C 
ATOM     47  C   UNL A   1      41.573  30.633  31.389  1.00  0.00     0.029 A 
ATOM     48  N   UNL A   1      42.702  29.005  30.316  1.00  0.00    -0.354 N 
ATOM     49  C   UNL A   1      38.167  32.193  29.745  1.00  0.00     0.074 A 
ATOM     50  C   UNL A   1      37.352  31.239  29.038  1.00  0.00     0.031 C 
ATOM     51  C   UNL A   1      42.870  30.781  31.696  1.00  0.00     0.029 A 
ATOM     52  C   UNL A   1      43.627  29.969  30.760  1.00  0.00     0.049 A 
ATOM     53  H   UNL A   1      42.907  28.087  30.023  1.00  0.00     0.167 HD
ATOM     54  C   UNL A   1      37.961  33.357  30.427  1.00  0.00     0.037 A 
ATOM     55  C   UNL A   1      44.574  30.463  29.905  1.00  0.00     0.037 A 
ATOM     56  C   UNL A   1      39.244  33.932  30.840  1.00  0.00     0.049 A 
ATOM     57  C   UNL A   1      44.432  31.943  29.624  1.00  0.00     0.074 A 
ATOM     58  C   UNL A   1      39.915  33.993  32.047  1.00  0.00     0.029 A 
ATOM     59  N   UNL A   1      40.151  34.325  29.860  1.00  0.00    -0.354 N 
ATOM     60  N   UNL A   1      43.359  32.640  29.884  1.00  0.00    -0.248 NA
ATOM     61  C   UNL A   1      45.488  32.757  29.028  1.00  0.00     0.031 C 
ATOM     62  C   UNL A   1      41.273  34.314  31.769  1.00  0.00     0.029 A 
ATOM     63  C   UNL A   1      41.410  34.497  30.403  1.00  0.00     0.049 A 
ATOM     64  H   UNL A   1      39.928  34.461  28.911  1.00  0.00     0.167 HD
ATOM     65  C   UNL A   1      43.534  33.935  29.468  1.00  0.00     0.074 A 
ATOM     66  C   UNL A   1      44.897  33.964  28.971  1.00  0.00     0.031 C 
ATOM     67  C   UNL A   1      42.538  34.867  29.555  1.00  0.00     0.037 A 
BRANCH  54  68
ATOM     68  C   UNL A   1      36.623  33.908  30.901  1.00  0.00     0.058 A 
ATOM     69  C   UNL A   1      35.631  34.269  29.956  1.00  0.00     0.135 A 
ATOM     70  C   UNL A   1      36.291  34.234  32.235  1.00  0.00     0.135 A 
ATOM     71  F   UNL A   1      35.796  34.023  28.648  1.00  0.00    -0.206 F 
ATOM     72  C   UNL A   1      34.443  34.928  30.300  1.00  0.00     0.059 A 
ATOM     73  C   UNL A   1      35.093  34.853  32.606  1.00  0.00     0.059 A 
ATOM     74  F   UNL A   1      37.127  34.028  33.255  1.00  0.00    -0.206 F 
ATOM     75  C   UNL A   1      34.185  35.226  31.631  1.00  0.00     0.060 A 
BRANCH  75  76
ATOM     76  S   UNL A   1      32.685  36.123  32.073  1.00  0.00     0.124 S 
ATOM     77  O   UNL A   1      33.168  37.011  33.126  1.00  0.00    -0.237 OA
ATOM     78  O   UNL A   1      32.320  36.765  30.815  1.00  0.00    -0.237 OA
ATOM     79  O   UNL A   1      31.777  35.068  32.517  1.00  0.00    -0.744 OA
ENDBRANCH  75  76
ENDBRANCH  54  68
BRANCH  55  80
ATOM     80  C   UNL A   1      45.069  29.428  28.949  1.00  0.00     0.058 A 
ATOM     81  C   UNL A   1      45.863  28.395  29.484  1.00  0.00     0.135 A 
ATOM     82  C   UNL A   1      44.388  29.167  27.751  1.00  0.00     0.135 A 
ATOM     83  F   UNL A   1      46.569  28.607  30.607  1.00  0.00    -0.206 F 
ATOM     84  C   UNL A   1      45.812  27.099  28.980  1.00  0.00     0.059 A 
ATOM     85  C   UNL A   1      44.341  27.878  27.215  1.00  0.00     0.059 A 
ATOM     86  F   UNL A   1      43.628  30.116  27.183  1.00  0.00    -0.206 F 
ATOM     87  C   UNL A   1      44.979  26.838  27.894  1.00  0.00     0.060 A 
BRANCH  87  88
ATOM     88  S   UNL A   1      44.600  25.109  27.507  1.00  0.00     0.124 S 
ATOM     89  O   UNL A   1      44.211  24.578  28.808  1.00  0.00    -0.237 OA
ATOM     90  O   UNL A   1      43.520  25.248  26.527  1.00  0.00    -0.237 OA
ATOM     91  O   UNL A   1      45.859  24.602  26.973  1.00  0.00    -0.744 OA
ENDBRANCH  87  88
ENDBRANCH  55  80
BRANCH  67  92
ATOM     92  C   UNL A   1      42.554  36.240  28.917  1.00  0.00     0.058 A 
ATOM     93  C   UNL A   1      43.204  37.360  29.465  1.00  0.00     0.135 A 
ATOM     94  C   UNL A   1      42.010  36.433  27.622  1.00  0.00     0.135 A 
ATOM     95  F   UNL A   1      43.871  37.282  30.626  1.00  0.00    -0.206 F 
ATOM     96  C   UNL A   1      43.241  38.599  28.821  1.00  0.00     0.059 A 
ATOM     97  C   UNL A   1      42.085  37.644  26.937  1.00  0.00     0.059 A 
ATOM     98  F   UNL A   1      41.389  35.439  26.970  1.00  0.00    -0.206 F 
ATOM     99  C   UNL A   1      42.675  38.733  27.557  1.00  0.00     0.060 A 
BRANCH  99 100
ATOM    100  S   UNL A   1      42.757  40.315  26.697  1.00  0.00     0.124 S 
ATOM    101  O   UNL A   1      41.447  40.365  26.054  1.00  0.00    -0.237 OA
ATOM    102  O   UNL A   1      42.961  41.268  27.785  1.00  0.00    -0.237 OA
ATOM    103  O   UNL A   1      43.896  40.148  25.801  1.00  0.00    -0.744 OA
ENDBRANCH  99 100
ENDBRANCH  67  92
ENDBRANCH  41  42
ENDBRANCH  33  36
ENDBRANCH  31  32
ENDBRANCH  30  31
ENDBRANCH  29  30
ENDBRANCH   1  29
TORSDOF 19
ENDMDL
MODEL 3
REMARK VINA RESULT:     -12.3      4.449     10.692
REMARK SMILES Cc1ccc(NC(=O)[C@H]2CC(Cl)=CC[C@@H]2C(=O)NCCCCCCNC(=O)c2ccc(-c3c4nc(c(-c5c(F)cc(S(=O)(=O)[O-])cc5F)c5ccc([nH]5)c(-c5c(F)cc(S(=O)(=O)[O-])cc5F)c5nc(c(-c6c(F)cc(S(=O)(=O)[O-])cc6F)c6ccc3[nH]6)C=C5)C=C4)cc2)cc1[N+](=O)[O-]
REMARK SMILES IDX 21 1 20 2 19 3 18 4 16 5 17 6 15 8 9 9 10 10 11 11 14 12
REMARK SMILES IDX 12 13 13 14 7 15 6 16 8 18 5 19 1 20 2 21 3 22 95 23 4 24
REMARK SMILES IDX 94 25 96 26 97 27 98 28 22 29 23 30 24 31 25 32 26 33 27 35
REMARK SMILES IDX 28 36 29 37 93 38 30 39 92 40 31 41 32 42 33 43 86 44 34 45
REMARK SMILES IDX 91 46 85 47 87 48 35 49 90 50 84 51 83 52 36 54 70 55 49 56
REMARK SMILES IDX 69 57 50 58 53 59 68 60 88 61 51 62 52 63 67 65 89 66 54 67
REMARK SMILES IDX 37 68 38 69 47 70 39 71 40 72 46 73 48 74 41 75 42 76 43 77
REMARK SMILES IDX 44 78 45 79 71 80 72 81 81 82 73 83 74 84 80 85 82 86 75 87
REMARK SMILES IDX 76 88 77 89 78 90 79 91 55 92 56 93 65 94 57 95 58 96 64 97
REMARK SMILES IDX 66 98 59 99 60 100 61 101 62 102 63 103
REMARK H PARENT 18 7 6 17 25 34 87 53 53 64
REMARK Flexibility Score: inf
ROOT
ATOM      1  C   UNL A   1      32.853  30.092  26.197  1.00  0.00     0.002 C 
ENDROOT
BRANCH   1   2
ATOM      2  C   UNL A   1      31.585  29.226  26.266  1.00  0.00     0.021 C 
BRANCH   2   3
ATOM      3  C   UNL A   1      31.673  27.950  27.111  1.00  0.00     0.116 C 
BRANCH   3   4
ATOM      4  N   UNL A   1      32.843  27.145  26.799  1.00  0.00    -0.356 N 
ATOM      5  C   UNL A   1      33.267  26.535  25.664  1.00  0.00     0.224 C 
ATOM      6  O   UNL A   1      34.363  25.966  25.713  1.00  0.00    -0.275 OA
ATOM      7  H   UNL A   1      33.448  27.018  27.564  1.00  0.00     0.163 HD
BRANCH   5   8
ATOM      8  C   UNL A   1      32.432  26.515  24.383  1.00  0.00     0.095 C 
ATOM      9  C   UNL A   1      32.309  25.057  23.879  1.00  0.00     0.097 C 
ATOM     10  C   UNL A   1      31.782  24.987  22.432  1.00  0.00     0.062 C 
ATOM     11  C   UNL A   1      32.595  25.838  21.515  1.00  0.00     0.015 C 
ATOM     12  C   UNL A   1      33.152  27.435  23.350  1.00  0.00     0.043 C 
ATOM     13  Cl  UNL A   1      32.734  25.308  19.881  1.00  0.00    -0.089 Cl
ATOM     14  C   UNL A   1      33.215  26.946  21.932  1.00  0.00    -0.010 C 
BRANCH   9  15
ATOM     15  C   UNL A   1      31.350  24.244  24.735  1.00  0.00     0.228 C 
ATOM     16  N   UNL A   1      31.506  22.919  25.014  1.00  0.00    -0.326 N 
ATOM     17  H   UNL A   1      30.755  22.537  25.523  1.00  0.00     0.169 HD
ATOM     18  O   UNL A   1      30.409  24.814  25.303  1.00  0.00    -0.274 OA
BRANCH  16  19
ATOM     19  C   UNL A   1      32.513  21.985  24.724  1.00  0.00     0.048 A 
ATOM     20  C   UNL A   1      35.334  18.705  24.730  1.00  0.00     0.052 C 
ATOM     21  C   UNL A   1      34.342  19.821  24.583  1.00  0.00     0.027 A 
ATOM     22  C   UNL A   1      34.779  21.129  24.831  1.00  0.00     0.012 A 
ATOM     23  C   UNL A   1      32.982  19.646  24.292  1.00  0.00     0.274 A 
ATOM     24  C   UNL A   1      33.877  22.198  24.876  1.00  0.00     0.027 A 
ATOM     25  C   UNL A   1      32.079  20.721  24.319  1.00  0.00     0.112 A 
BRANCH  23  26
ATOM     26  N   UNL A   1      32.416  18.324  24.050  1.00  0.00     0.063 N 
ATOM     27  O   UNL A   1      31.971  17.718  25.033  1.00  0.00    -0.258 OA
ATOM     28  O   UNL A   1      32.468  17.889  22.892  1.00  0.00    -0.258 OA
ENDBRANCH  23  26
ENDBRANCH  16  19
ENDBRANCH   9  15
ENDBRANCH   5   8
ENDBRANCH   3   4
ENDBRANCH   2   3
ENDBRANCH   1   2
BRANCH   1  29
ATOM     29  C   UNL A   1      33.094  31.109  27.320  1.00  0.00     0.002 C 
BRANCH  29  30
ATOM     30  C   UNL A   1      34.511  31.198  27.888  1.00  0.00     0.021 C 
BRANCH  30  31
ATOM     31  C   UNL A   1      35.167  32.566  27.812  1.00  0.00     0.116 C 
BRANCH  31  32
ATOM     32  N   UNL A   1      35.761  33.092  29.028  1.00  0.00    -0.352 N 
ATOM     33  C   UNL A   1      35.730  32.263  30.160  1.00  0.00     0.251 C 
ATOM     34  H   UNL A   1      36.166  33.988  29.058  1.00  0.00     0.163 HD
ATOM     35  O   UNL A   1      34.807  32.181  30.936  1.00  0.00    -0.269 OA
BRANCH  33  36
ATOM     36  C   UNL A   1      36.809  31.241  30.141  1.00  0.00     0.039 A 
ATOM     37  C   UNL A   1      36.790  30.102  30.943  1.00  0.00     0.014 A 
ATOM     38  C   UNL A   1      37.933  31.560  29.376  1.00  0.00     0.014 A 
ATOM     39  C   UNL A   1      37.966  29.354  31.081  1.00  0.00     0.010 A 
ATOM     40  C   UNL A   1      39.108  30.884  29.584  1.00  0.00     0.010 A 
ATOM     41  C   UNL A   1      39.135  29.795  30.457  1.00  0.00    -0.014 A 
BRANCH  41  42
ATOM     42  C   UNL A   1      40.471  29.252  30.655  1.00  0.00     0.031 A 
ATOM     43  C   UNL A   1      40.869  28.001  29.967  1.00  0.00     0.074 A 
ATOM     44  C   UNL A   1      41.398  30.036  31.247  1.00  0.00     0.049 A 
ATOM     45  N   UNL A   1      41.980  27.382  30.178  1.00  0.00    -0.248 NA
ATOM     46  C   UNL A   1      40.007  27.300  29.016  1.00  0.00     0.031 C 
ATOM     47  C   UNL A   1      42.850  29.933  31.144  1.00  0.00     0.029 A 
ATOM     48  N   UNL A   1      41.191  30.991  32.243  1.00  0.00    -0.354 N 
ATOM     49  C   UNL A   1      42.110  26.395  29.227  1.00  0.00     0.074 A 
ATOM     50  C   UNL A   1      40.808  26.307  28.616  1.00  0.00     0.031 C 
ATOM     51  C   UNL A   1      43.409  30.584  32.175  1.00  0.00     0.029 A 
ATOM     52  C   UNL A   1      42.332  30.978  33.067  1.00  0.00     0.049 A 
ATOM     53  H   UNL A   1      40.398  31.565  32.349  1.00  0.00     0.167 HD
ATOM     54  C   UNL A   1      43.346  25.863  29.004  1.00  0.00     0.037 A 
ATOM     55  C   UNL A   1      42.236  30.586  34.374  1.00  0.00     0.037 A 
ATOM     56  C   UNL A   1      44.267  26.266  30.069  1.00  0.00     0.049 A 
ATOM     57  C   UNL A   1      43.014  29.329  34.695  1.00  0.00     0.074 A 
ATOM     58  C   UNL A   1      45.291  27.193  30.143  1.00  0.00     0.029 A 
ATOM     59  N   UNL A   1      44.006  25.859  31.375  1.00  0.00    -0.354 N 
ATOM     60  N   UNL A   1      43.473  28.500  33.797  1.00  0.00    -0.248 NA
ATOM     61  C   UNL A   1      43.339  28.905  36.054  1.00  0.00     0.031 C 
ATOM     62  C   UNL A   1      45.563  27.426  31.520  1.00  0.00     0.029 A 
ATOM     63  C   UNL A   1      44.741  26.605  32.274  1.00  0.00     0.049 A 
ATOM     64  H   UNL A   1      43.382  25.138  31.623  1.00  0.00     0.167 HD
ATOM     65  C   UNL A   1      44.089  27.441  34.414  1.00  0.00     0.074 A 
ATOM     66  C   UNL A   1      44.008  27.761  35.827  1.00  0.00     0.031 C 
ATOM     67  C   UNL A   1      44.599  26.386  33.710  1.00  0.00     0.037 A 
BRANCH  54  68
ATOM     68  C   UNL A   1      43.809  25.135  27.749  1.00  0.00     0.058 A 
ATOM     69  C   UNL A   1      43.953  23.725  27.761  1.00  0.00     0.135 A 
ATOM     70  C   UNL A   1      44.254  25.747  26.557  1.00  0.00     0.135 A 
ATOM     71  F   UNL A   1      43.573  22.998  28.822  1.00  0.00    -0.206 F 
ATOM     72  C   UNL A   1      44.522  23.001  26.706  1.00  0.00     0.059 A 
ATOM     73  C   UNL A   1      44.787  25.040  25.474  1.00  0.00     0.059 A 
ATOM     74  F   UNL A   1      44.257  27.071  26.386  1.00  0.00    -0.206 F 
ATOM     75  C   UNL A   1      44.947  23.669  25.566  1.00  0.00     0.060 A 
BRANCH  75  76
ATOM     76  S   UNL A   1      45.732  22.749  24.228  1.00  0.00     0.124 S 
ATOM     77  O   UNL A   1      46.354  21.643  24.951  1.00  0.00    -0.237 OA
ATOM     78  O   UNL A   1      44.597  22.398  23.380  1.00  0.00    -0.237 OA
ATOM     79  O   UNL A   1      46.662  23.716  23.651  1.00  0.00    -0.744 OA
ENDBRANCH  75  76
ENDBRANCH  54  68
BRANCH  55  80
ATOM     80  C   UNL A   1      40.946  31.007  34.997  1.00  0.00     0.058 A 
ATOM     81  C   UNL A   1      40.896  32.305  35.544  1.00  0.00     0.135 A 
ATOM     82  C   UNL A   1      39.731  30.420  34.611  1.00  0.00     0.135 A 
ATOM     83  F   UNL A   1      42.025  32.895  35.969  1.00  0.00    -0.206 F 
ATOM     84  C   UNL A   1      39.733  33.069  35.506  1.00  0.00     0.059 A 
ATOM     85  C   UNL A   1      38.548  31.163  34.586  1.00  0.00     0.059 A 
ATOM     86  F   UNL A   1      39.711  29.181  34.098  1.00  0.00    -0.206 F 
ATOM     87  C   UNL A   1      38.586  32.511  34.945  1.00  0.00     0.060 A 
BRANCH  87  88
ATOM     88  S   UNL A   1      37.217  33.620  34.526  1.00  0.00     0.124 S 
ATOM     89  O   UNL A   1      36.693  33.018  33.306  1.00  0.00    -0.237 OA
ATOM     90  O   UNL A   1      36.362  33.509  35.710  1.00  0.00    -0.237 OA
ATOM     91  O   UNL A   1      37.873  34.913  34.354  1.00  0.00    -0.744 OA
ENDBRANCH  87  88
ENDBRANCH  55  80
BRANCH  67  92
ATOM     92  C   UNL A   1      45.081  25.078  34.302  1.00  0.00     0.058 A 
ATOM     93  C   UNL A   1      46.433  24.710  34.412  1.00  0.00     0.135 A 
ATOM     94  C   UNL A   1      44.162  24.192  34.918  1.00  0.00     0.135 A 
ATOM     95  F   UNL A   1      47.414  25.519  33.985  1.00  0.00    -0.206 F 
ATOM     96  C   UNL A   1      46.841  23.517  35.012  1.00  0.00     0.059 A 
ATOM     97  C   UNL A   1      44.552  23.025  35.573  1.00  0.00     0.059 A 
ATOM     98  F   UNL A   1      42.844  24.437  34.915  1.00  0.00    -0.206 F 
ATOM     99  C   UNL A   1      45.893  22.677  35.587  1.00  0.00     0.060 A 
BRANCH  99 100
ATOM    100  S   UNL A   1      46.413  21.157  36.404  1.00  0.00     0.124 S 
ATOM    101  O   UNL A   1      47.836  21.411  36.611  1.00  0.00    -0.237 OA
ATOM    102  O   UNL A   1      45.595  21.139  37.613  1.00  0.00    -0.237 OA
ATOM    103  O   UNL A   1      46.091  20.126  35.424  1.00  0.00    -0.744 OA
ENDBRANCH  99 100
ENDBRANCH  67  92
ENDBRANCH  41  42
ENDBRANCH  33  36
ENDBRANCH  31  32
ENDBRANCH  30  31
ENDBRANCH  29  30
ENDBRANCH   1  29
TORSDOF 19
ENDMDL
