MODEL 1
REMARK VINA RESULT:     -12.4      0.000      0.000
REMARK SMILES Cc1ccc2[nH]c3c(=O)n(CC(=O)NCCCCCCNC(=O)c4ccc(-c5c6nc(c(-c7c(F)cc(S(=O)(=O)[O-])cc7F)c7ccc([nH]7)c(-c7c(F)cc(S(=O)(=O)[O-])cc7F)c7nc(c(-c8c(F)cc(S(=O)(=O)[O-])cc8F)c8ccc5[nH]8)C=C7)C=C6)cc4)cnc3c2c1
REMARK SMILES IDX 18 1 17 2 16 3 15 4 14 5 12 6 13 7 11 9 10 10 1 11 2 12 3 13
REMARK SMILES IDX 94 14 4 15 93 16 5 17 92 18 6 19 7 20 91 21 8 23 90 24 9 25
REMARK SMILES IDX 19 26 20 27 21 28 22 29 23 31 24 32 25 33 89 34 26 35 88 36
REMARK SMILES IDX 27 37 28 38 29 39 82 40 30 41 87 42 81 43 83 44 31 45 86 46
REMARK SMILES IDX 80 47 79 48 32 50 66 51 45 52 65 53 46 54 49 55 64 56 84 57
REMARK SMILES IDX 47 58 48 59 63 61 85 62 50 63 33 64 34 65 43 66 35 67 36 68
REMARK SMILES IDX 42 69 44 70 37 71 38 72 39 73 40 74 41 75 67 76 68 77 77 78
REMARK SMILES IDX 69 79 70 80 76 81 78 82 71 83 72 84 73 85 74 86 75 87 51 88
REMARK SMILES IDX 52 89 61 90 53 91 54 92 60 93 62 94 55 95 56 96 57 97 58 98
REMARK SMILES IDX 59 99
REMARK H PARENT 14 8 6 22 21 30 83 49 49 60
REMARK Flexibility Score: inf
ROOT
ATOM      1  C   UNL A   1      40.848  21.040  27.277  1.00  0.00     0.002 C 
ENDROOT
BRANCH   1   2
ATOM      2  C   UNL A   1      39.938  22.113  26.664  1.00  0.00     0.002 C 
BRANCH   2   3
ATOM      3  C   UNL A   1      38.800  21.573  25.786  1.00  0.00     0.021 C 
BRANCH   3   4
ATOM      4  C   UNL A   1      37.676  22.579  25.562  1.00  0.00     0.116 C 
BRANCH   4   5
ATOM      5  N   UNL A   1      37.310  22.662  24.163  1.00  0.00    -0.355 N 
ATOM      6  C   UNL A   1      36.081  22.726  23.578  1.00  0.00     0.240 C 
ATOM      7  O   UNL A   1      36.037  22.959  22.367  1.00  0.00    -0.273 OA
ATOM      8  H   UNL A   1      38.069  22.674  23.536  1.00  0.00     0.163 HD
BRANCH   6   9
ATOM      9  C   UNL A   1      34.798  22.664  24.412  1.00  0.00     0.226 C 
BRANCH   9  10
ATOM     10  N   UNL A   1      33.908  23.797  24.206  1.00  0.00    -0.288 N 
ATOM     11  C   UNL A   1      28.722  29.330  22.352  1.00  0.00     0.044 C 
ATOM     12  C   UNL A   1      29.896  28.819  23.136  1.00  0.00    -0.050 A 
ATOM     13  C   UNL A   1      30.482  29.626  24.118  1.00  0.00     0.005 A 
ATOM     14  C   UNL A   1      30.378  27.515  22.925  1.00  0.00     0.016 A 
ATOM     15  C   UNL A   1      31.564  29.181  24.884  1.00  0.00     0.027 A 
ATOM     16  C   UNL A   1      31.465  27.041  23.685  1.00  0.00     0.026 A 
ATOM     17  C   UNL A   1      32.037  27.888  24.644  1.00  0.00     0.048 A 
ATOM     18  C   UNL A   1      32.193  25.834  23.752  1.00  0.00     0.103 A 
ATOM     19  N   UNL A   1      33.076  27.199  25.239  1.00  0.00    -0.349 N 
ATOM     20  C   UNL A   1      33.166  25.950  24.698  1.00  0.00     0.132 A 
ATOM     21  N   UNL A   1      31.995  24.661  23.020  1.00  0.00    -0.236 NA
ATOM     22  H   UNL A   1      33.661  27.555  25.947  1.00  0.00     0.167 HD
ATOM     23  C   UNL A   1      34.086  24.913  25.020  1.00  0.00     0.278 A 
ATOM     24  C   UNL A   1      32.855  23.730  23.304  1.00  0.00     0.203 A 
ATOM     25  O   UNL A   1      34.914  25.005  25.910  1.00  0.00    -0.267 OA
ENDBRANCH   9  10
ENDBRANCH   6   9
ENDBRANCH   4   5
ENDBRANCH   3   4
ENDBRANCH   2   3
ENDBRANCH   1   2
BRANCH   1  26
ATOM     26  C   UNL A   1      41.123  19.828  26.378  1.00  0.00     0.021 C 
BRANCH  26  27
ATOM     27  C   UNL A   1      42.569  19.332  26.430  1.00  0.00     0.116 C 
BRANCH  27  28
ATOM     28  N   UNL A   1      43.327  19.641  25.237  1.00  0.00    -0.352 N 
ATOM     29  C   UNL A   1      44.055  20.716  24.811  1.00  0.00     0.251 C 
ATOM     30  H   UNL A   1      43.317  18.906  24.581  1.00  0.00     0.163 HD
ATOM     31  O   UNL A   1      44.680  20.562  23.759  1.00  0.00    -0.269 OA
BRANCH  29  32
ATOM     32  C   UNL A   1      44.067  22.050  25.468  1.00  0.00     0.039 A 
ATOM     33  C   UNL A   1      44.839  22.410  26.574  1.00  0.00     0.014 A 
ATOM     34  C   UNL A   1      43.153  22.986  24.950  1.00  0.00     0.014 A 
ATOM     35  C   UNL A   1      44.596  23.607  27.236  1.00  0.00     0.010 A 
ATOM     36  C   UNL A   1      42.927  24.196  25.591  1.00  0.00     0.010 A 
ATOM     37  C   UNL A   1      43.601  24.470  26.774  1.00  0.00    -0.014 A 
BRANCH  37  38
ATOM     38  C   UNL A   1      43.392  25.730  27.481  1.00  0.00     0.031 A 
ATOM     39  C   UNL A   1      44.485  26.721  27.250  1.00  0.00     0.074 A 
ATOM     40  C   UNL A   1      42.258  25.999  28.164  1.00  0.00     0.049 A 
ATOM     41  N   UNL A   1      45.290  27.244  28.117  1.00  0.00    -0.248 NA
ATOM     42  C   UNL A   1      44.836  27.037  25.850  1.00  0.00     0.031 C 
ATOM     43  C   UNL A   1      41.044  25.180  28.249  1.00  0.00     0.029 A 
ATOM     44  N   UNL A   1      41.905  27.115  28.863  1.00  0.00    -0.354 N 
ATOM     45  C   UNL A   1      46.088  28.134  27.401  1.00  0.00     0.074 A 
ATOM     46  C   UNL A   1      45.894  27.832  26.007  1.00  0.00     0.031 C 
ATOM     47  C   UNL A   1      40.027  25.925  28.739  1.00  0.00     0.029 A 
ATOM     48  C   UNL A   1      40.540  27.223  29.136  1.00  0.00     0.049 A 
ATOM     49  H   UNL A   1      42.560  27.791  29.152  1.00  0.00     0.167 HD
ATOM     50  C   UNL A   1      46.652  29.222  27.993  1.00  0.00     0.037 A 
ATOM     51  C   UNL A   1      39.886  28.320  29.604  1.00  0.00     0.037 A 
ATOM     52  C   UNL A   1      46.715  29.072  29.420  1.00  0.00     0.049 A 
ATOM     53  C   UNL A   1      40.913  29.194  30.229  1.00  0.00     0.074 A 
ATOM     54  C   UNL A   1      47.357  28.200  30.277  1.00  0.00     0.029 A 
ATOM     55  N   UNL A   1      45.725  29.668  30.160  1.00  0.00    -0.354 N 
ATOM     56  N   UNL A   1      41.589  28.869  31.297  1.00  0.00    -0.248 NA
ATOM     57  C   UNL A   1      41.517  30.215  29.390  1.00  0.00     0.031 C 
ATOM     58  C   UNL A   1      46.431  27.972  31.337  1.00  0.00     0.029 A 
ATOM     59  C   UNL A   1      45.309  28.772  31.112  1.00  0.00     0.049 A 
ATOM     60  H   UNL A   1      45.374  30.578  30.030  1.00  0.00     0.167 HD
ATOM     61  C   UNL A   1      42.878  29.313  31.046  1.00  0.00     0.074 A 
ATOM     62  C   UNL A   1      42.756  30.195  29.885  1.00  0.00     0.031 C 
ATOM     63  C   UNL A   1      43.957  28.706  31.624  1.00  0.00     0.037 A 
BRANCH  50  64
ATOM     64  C   UNL A   1      46.786  30.556  27.300  1.00  0.00     0.058 A 
ATOM     65  C   UNL A   1      48.035  31.202  27.237  1.00  0.00     0.135 A 
ATOM     66  C   UNL A   1      45.673  31.343  26.925  1.00  0.00     0.135 A 
ATOM     67  F   UNL A   1      49.154  30.562  27.616  1.00  0.00    -0.206 F 
ATOM     68  C   UNL A   1      48.164  32.538  26.846  1.00  0.00     0.059 A 
ATOM     69  C   UNL A   1      45.784  32.654  26.481  1.00  0.00     0.059 A 
ATOM     70  F   UNL A   1      44.414  30.905  27.063  1.00  0.00    -0.206 F 
ATOM     71  C   UNL A   1      47.031  33.254  26.468  1.00  0.00     0.060 A 
BRANCH  71  72
ATOM     72  S   UNL A   1      47.188  34.987  26.003  1.00  0.00     0.124 S 
ATOM     73  O   UNL A   1      46.017  35.173  25.155  1.00  0.00    -0.237 OA
ATOM     74  O   UNL A   1      47.151  35.649  27.303  1.00  0.00    -0.237 OA
ATOM     75  O   UNL A   1      48.478  35.036  25.319  1.00  0.00    -0.744 OA
ENDBRANCH  71  72
ENDBRANCH  50  64
BRANCH  51  76
ATOM     76  C   UNL A   1      38.555  28.856  29.183  1.00  0.00     0.058 A 
ATOM     77  C   UNL A   1      37.527  29.082  30.121  1.00  0.00     0.135 A 
ATOM     78  C   UNL A   1      38.367  29.449  27.917  1.00  0.00     0.135 A 
ATOM     79  F   UNL A   1      37.623  28.575  31.360  1.00  0.00    -0.206 F 
ATOM     80  C   UNL A   1      36.418  29.894  29.843  1.00  0.00     0.059 A 
ATOM     81  C   UNL A   1      37.269  30.255  27.616  1.00  0.00     0.059 A 
ATOM     82  F   UNL A   1      39.300  29.341  26.960  1.00  0.00    -0.206 F 
ATOM     83  C   UNL A   1      36.312  30.499  28.593  1.00  0.00     0.060 A 
BRANCH  83  84
ATOM     84  S   UNL A   1      34.984  31.692  28.288  1.00  0.00     0.124 S 
ATOM     85  O   UNL A   1      35.686  32.752  27.573  1.00  0.00    -0.237 OA
ATOM     86  O   UNL A   1      34.041  30.907  27.499  1.00  0.00    -0.237 OA
ATOM     87  O   UNL A   1      34.528  32.044  29.630  1.00  0.00    -0.744 OA
ENDBRANCH  83  84
ENDBRANCH  51  76
BRANCH  63  88
ATOM     88  C   UNL A   1      43.708  27.742  32.760  1.00  0.00     0.058 A 
ATOM     89  C   UNL A   1      43.717  26.339  32.645  1.00  0.00     0.135 A 
ATOM     90  C   UNL A   1      43.611  28.273  34.054  1.00  0.00     0.135 A 
ATOM     91  F   UNL A   1      43.898  25.746  31.456  1.00  0.00    -0.206 F 
ATOM     92  C   UNL A   1      43.607  25.508  33.764  1.00  0.00     0.059 A 
ATOM     93  C   UNL A   1      43.533  27.466  35.184  1.00  0.00     0.059 A 
ATOM     94  F   UNL A   1      43.652  29.604  34.237  1.00  0.00    -0.206 F 
ATOM     95  C   UNL A   1      43.522  26.082  35.032  1.00  0.00     0.060 A 
BRANCH  95  96
ATOM     96  S   UNL A   1      43.461  25.012  36.488  1.00  0.00     0.124 S 
ATOM     97  O   UNL A   1      42.031  24.760  36.627  1.00  0.00    -0.237 OA
ATOM     98  O   UNL A   1      44.269  23.868  36.072  1.00  0.00    -0.237 OA
ATOM     99  O   UNL A   1      44.055  25.833  37.541  1.00  0.00    -0.744 OA
ENDBRANCH  95  96
ENDBRANCH  63  88
ENDBRANCH  37  38
ENDBRANCH  29  32
ENDBRANCH  27  28
ENDBRANCH  26  27
ENDBRANCH   1  26
TORSDOF 17
ENDMDL
MODEL 2
REMARK VINA RESULT:     -11.9      2.598      8.908
REMARK SMILES Cc1ccc2[nH]c3c(=O)n(CC(=O)NCCCCCCNC(=O)c4ccc(-c5c6nc(c(-c7c(F)cc(S(=O)(=O)[O-])cc7F)c7ccc([nH]7)c(-c7c(F)cc(S(=O)(=O)[O-])cc7F)c7nc(c(-c8c(F)cc(S(=O)(=O)[O-])cc8F)c8ccc5[nH]8)C=C7)C=C6)cc4)cnc3c2c1
REMARK SMILES IDX 18 1 17 2 16 3 15 4 14 5 12 6 13 7 11 9 10 10 1 11 2 12 3 13
REMARK SMILES IDX 94 14 4 15 93 16 5 17 92 18 6 19 7 20 91 21 8 23 90 24 9 25
REMARK SMILES IDX 19 26 20 27 21 28 22 29 23 31 24 32 25 33 89 34 26 35 88 36
REMARK SMILES IDX 27 37 28 38 29 39 82 40 30 41 87 42 81 43 83 44 31 45 86 46
REMARK SMILES IDX 80 47 79 48 32 50 66 51 45 52 65 53 46 54 49 55 64 56 84 57
REMARK SMILES IDX 47 58 48 59 63 61 85 62 50 63 33 64 34 65 43 66 35 67 36 68
REMARK SMILES IDX 42 69 44 70 37 71 38 72 39 73 40 74 41 75 67 76 68 77 77 78
REMARK SMILES IDX 69 79 70 80 76 81 78 82 71 83 72 84 73 85 74 86 75 87 51 88
REMARK SMILES IDX 52 89 61 90 53 91 54 92 60 93 62 94 55 95 56 96 57 97 58 98
REMARK SMILES IDX 59 99
REMARK H PARENT 14 8 6 22 21 30 83 49 49 60
REMARK Flexibility Score: inf
ROOT
ATOM      1  C   UNL A   1      34.170  27.767  26.505  1.00  0.00     0.002 C 
ENDROOT
BRANCH   1   2
ATOM      2  C   UNL A   1      33.549  26.723  25.568  1.00  0.00     0.002 C 
BRANCH   2   3
ATOM      3  C   UNL A   1      33.629  25.274  26.068  1.00  0.00     0.021 C 
BRANCH   3   4
ATOM      4  C   UNL A   1      34.531  24.385  25.216  1.00  0.00     0.116 C 
BRANCH   4   5
ATOM      5  N   UNL A   1      34.012  23.036  25.125  1.00  0.00    -0.355 N 
ATOM      6  C   UNL A   1      33.469  22.372  24.067  1.00  0.00     0.240 C 
ATOM      7  O   UNL A   1      33.252  21.165  24.201  1.00  0.00    -0.273 OA
ATOM      8  H   UNL A   1      34.060  22.517  25.961  1.00  0.00     0.163 HD
BRANCH   6   9
ATOM      9  C   UNL A   1      33.277  23.058  22.711  1.00  0.00     0.226 C 
BRANCH   9  10
ATOM     10  N   UNL A   1      32.401  24.220  22.759  1.00  0.00    -0.288 N 
ATOM     11  C   UNL A   1      27.019  29.834  23.430  1.00  0.00     0.044 C 
ATOM     12  C   UNL A   1      28.360  29.326  22.985  1.00  0.00    -0.050 A 
ATOM     13  C   UNL A   1      29.262  30.196  22.363  1.00  0.00     0.005 A 
ATOM     14  C   UNL A   1      28.733  27.993  23.236  1.00  0.00     0.016 A 
ATOM     15  C   UNL A   1      30.529  29.768  21.952  1.00  0.00     0.027 A 
ATOM     16  C   UNL A   1      30.005  27.538  22.834  1.00  0.00     0.026 A 
ATOM     17  C   UNL A   1      30.871  28.435  22.195  1.00  0.00     0.048 A 
ATOM     18  C   UNL A   1      30.705  26.315  22.915  1.00  0.00     0.103 A 
ATOM     19  N   UNL A   1      32.034  27.750  21.901  1.00  0.00    -0.349 N 
ATOM     20  C   UNL A   1      31.931  26.463  22.342  1.00  0.00     0.132 A 
ATOM     21  N   UNL A   1      30.286  25.114  23.492  1.00  0.00    -0.236 NA
ATOM     22  H   UNL A   1      32.817  28.132  21.442  1.00  0.00     0.167 HD
ATOM     23  C   UNL A   1      32.895  25.419  22.251  1.00  0.00     0.278 A 
ATOM     24  C   UNL A   1      31.163  24.161  23.382  1.00  0.00     0.203 A 
ATOM     25  O   UNL A   1      34.012  25.577  21.791  1.00  0.00    -0.267 OA
ENDBRANCH   9  10
ENDBRANCH   6   9
ENDBRANCH   4   5
ENDBRANCH   3   4
ENDBRANCH   2   3
ENDBRANCH   1   2
BRANCH   1  26
ATOM     26  C   UNL A   1      33.192  28.811  27.058  1.00  0.00     0.021 C 
BRANCH  26  27
ATOM     27  C   UNL A   1      33.614  30.257  26.796  1.00  0.00     0.116 C 
BRANCH  27  28
ATOM     28  N   UNL A   1      33.750  31.045  28.001  1.00  0.00    -0.352 N 
ATOM     29  C   UNL A   1      34.792  31.383  28.818  1.00  0.00     0.251 C 
ATOM     30  H   UNL A   1      32.894  31.428  28.303  1.00  0.00     0.163 HD
ATOM     31  O   UNL A   1      34.539  32.197  29.708  1.00  0.00    -0.269 OA
BRANCH  29  32
ATOM     32  C   UNL A   1      36.150  30.778  28.759  1.00  0.00     0.039 A 
ATOM     33  C   UNL A   1      36.435  29.415  28.671  1.00  0.00     0.014 A 
ATOM     34  C   UNL A   1      37.220  31.685  28.880  1.00  0.00     0.014 A 
ATOM     35  C   UNL A   1      37.736  28.959  28.854  1.00  0.00     0.010 A 
ATOM     36  C   UNL A   1      38.524  31.237  29.033  1.00  0.00     0.010 A 
ATOM     37  C   UNL A   1      38.766  29.871  29.091  1.00  0.00    -0.014 A 
BRANCH  37  38
ATOM     38  C   UNL A   1      40.123  29.357  29.253  1.00  0.00     0.031 A 
ATOM     39  C   UNL A   1      40.558  29.284  30.680  1.00  0.00     0.074 A 
ATOM     40  C   UNL A   1      40.846  28.880  28.216  1.00  0.00     0.049 A 
ATOM     41  N   UNL A   1      41.538  29.905  31.252  1.00  0.00    -0.248 NA
ATOM     42  C   UNL A   1      39.682  28.562  31.625  1.00  0.00     0.031 C 
ATOM     43  C   UNL A   1      40.414  28.699  26.826  1.00  0.00     0.029 A 
ATOM     44  N   UNL A   1      42.108  28.364  28.197  1.00  0.00    -0.354 N 
ATOM     45  C   UNL A   1      41.544  29.462  32.573  1.00  0.00     0.074 A 
ATOM     46  C   UNL A   1      40.289  28.793  32.789  1.00  0.00     0.031 C 
ATOM     47  C   UNL A   1      41.292  27.902  26.176  1.00  0.00     0.029 A 
ATOM     48  C   UNL A   1      42.419  27.631  27.050  1.00  0.00     0.049 A 
ATOM     49  H   UNL A   1      42.749  28.497  28.932  1.00  0.00     0.167 HD
ATOM     50  C   UNL A   1      42.684  29.451  33.317  1.00  0.00     0.037 A 
ATOM     51  C   UNL A   1      43.500  26.825  26.865  1.00  0.00     0.037 A 
ATOM     52  C   UNL A   1      43.677  30.335  32.772  1.00  0.00     0.049 A 
ATOM     53  C   UNL A   1      44.515  27.237  27.869  1.00  0.00     0.074 A 
ATOM     54  C   UNL A   1      43.756  31.697  32.564  1.00  0.00     0.029 A 
ATOM     55  N   UNL A   1      44.651  29.775  31.982  1.00  0.00    -0.354 N 
ATOM     56  N   UNL A   1      45.106  28.400  27.867  1.00  0.00    -0.248 NA
ATOM     57  C   UNL A   1      44.516  26.534  29.141  1.00  0.00     0.031 C 
ATOM     58  C   UNL A   1      44.442  31.844  31.323  1.00  0.00     0.029 A 
ATOM     59  C   UNL A   1      44.812  30.575  30.879  1.00  0.00     0.049 A 
ATOM     60  H   UNL A   1      45.146  28.947  32.174  1.00  0.00     0.167 HD
ATOM     61  C   UNL A   1      45.169  28.766  29.203  1.00  0.00     0.074 A 
ATOM     62  C   UNL A   1      44.852  27.546  29.945  1.00  0.00     0.031 C 
ATOM     63  C   UNL A   1      45.193  30.081  29.573  1.00  0.00     0.037 A 
BRANCH  50  64
ATOM     64  C   UNL A   1      43.010  28.358  34.304  1.00  0.00     0.058 A 
ATOM     65  C   UNL A   1      43.251  28.668  35.656  1.00  0.00     0.135 A 
ATOM     66  C   UNL A   1      43.349  27.043  33.910  1.00  0.00     0.135 A 
ATOM     67  F   UNL A   1      43.009  29.902  36.126  1.00  0.00    -0.206 F 
ATOM     68  C   UNL A   1      43.807  27.743  36.544  1.00  0.00     0.059 A 
ATOM     69  C   UNL A   1      43.851  26.092  34.788  1.00  0.00     0.059 A 
ATOM     70  F   UNL A   1      43.300  26.649  32.630  1.00  0.00    -0.206 F 
ATOM     71  C   UNL A   1      44.101  26.456  36.099  1.00  0.00     0.060 A 
BRANCH  71  72
ATOM     72  S   UNL A   1      44.855  25.275  37.231  1.00  0.00     0.124 S 
ATOM     73  O   UNL A   1      44.186  25.601  38.486  1.00  0.00    -0.237 OA
ATOM     74  O   UNL A   1      44.489  24.001  36.622  1.00  0.00    -0.237 OA
ATOM     75  O   UNL A   1      46.276  25.608  37.167  1.00  0.00    -0.744 OA
ENDBRANCH  71  72
ENDBRANCH  50  64
BRANCH  51  76
ATOM     76  C   UNL A   1      43.555  25.486  26.202  1.00  0.00     0.058 A 
ATOM     77  C   UNL A   1      44.511  25.202  25.205  1.00  0.00     0.135 A 
ATOM     78  C   UNL A   1      42.888  24.368  26.743  1.00  0.00     0.135 A 
ATOM     79  F   UNL A   1      45.212  26.199  24.642  1.00  0.00    -0.206 F 
ATOM     80  C   UNL A   1      44.829  23.894  24.817  1.00  0.00     0.059 A 
ATOM     81  C   UNL A   1      43.183  23.057  26.368  1.00  0.00     0.059 A 
ATOM     82  F   UNL A   1      41.991  24.512  27.730  1.00  0.00    -0.206 F 
ATOM     83  C   UNL A   1      44.177  22.824  25.425  1.00  0.00     0.060 A 
BRANCH  83  84
ATOM     84  S   UNL A   1      44.709  21.131  25.065  1.00  0.00     0.124 S 
ATOM     85  O   UNL A   1      46.037  21.094  25.669  1.00  0.00    -0.237 OA
ATOM     86  O   UNL A   1      43.684  20.337  25.734  1.00  0.00    -0.237 OA
ATOM     87  O   UNL A   1      44.688  21.070  23.606  1.00  0.00    -0.744 OA
ENDBRANCH  83  84
ENDBRANCH  51  76
BRANCH  63  88
ATOM     88  C   UNL A   1      45.448  31.117  28.504  1.00  0.00     0.058 A 
ATOM     89  C   UNL A   1      44.460  31.682  27.675  1.00  0.00     0.135 A 
ATOM     90  C   UNL A   1      46.734  31.672  28.428  1.00  0.00     0.135 A 
ATOM     91  F   UNL A   1      43.184  31.275  27.748  1.00  0.00    -0.206 F 
ATOM     92  C   UNL A   1      44.747  32.730  26.796  1.00  0.00     0.059 A 
ATOM     93  C   UNL A   1      47.035  32.735  27.584  1.00  0.00     0.059 A 
ATOM     94  F   UNL A   1      47.709  31.214  29.232  1.00  0.00    -0.206 F 
ATOM     95  C   UNL A   1      46.039  33.255  26.762  1.00  0.00     0.060 A 
BRANCH  95  96
ATOM     96  S   UNL A   1      46.396  34.663  25.686  1.00  0.00     0.124 S 
ATOM     97  O   UNL A   1      47.807  34.465  25.375  1.00  0.00    -0.237 OA
ATOM     98  O   UNL A   1      45.467  34.457  24.579  1.00  0.00    -0.237 OA
ATOM     99  O   UNL A   1      46.100  35.820  26.528  1.00  0.00    -0.744 OA
ENDBRANCH  95  96
ENDBRANCH  63  88
ENDBRANCH  37  38
ENDBRANCH  29  32
ENDBRANCH  27  28
ENDBRANCH  26  27
ENDBRANCH   1  26
TORSDOF 17
ENDMDL
MODEL 3
REMARK VINA RESULT:     -11.9      2.832      9.694
REMARK SMILES Cc1ccc2[nH]c3c(=O)n(CC(=O)NCCCCCCNC(=O)c4ccc(-c5c6nc(c(-c7c(F)cc(S(=O)(=O)[O-])cc7F)c7ccc([nH]7)c(-c7c(F)cc(S(=O)(=O)[O-])cc7F)c7nc(c(-c8c(F)cc(S(=O)(=O)[O-])cc8F)c8ccc5[nH]8)C=C7)C=C6)cc4)cnc3c2c1
REMARK SMILES IDX 18 1 17 2 16 3 15 4 14 5 12 6 13 7 11 9 10 10 1 11 2 12 3 13
REMARK SMILES IDX 94 14 4 15 93 16 5 17 92 18 6 19 7 20 91 21 8 23 90 24 9 25
REMARK SMILES IDX 19 26 20 27 21 28 22 29 23 31 24 32 25 33 89 34 26 35 88 36
REMARK SMILES IDX 27 37 28 38 29 39 82 40 30 41 87 42 81 43 83 44 31 45 86 46
REMARK SMILES IDX 80 47 79 48 32 50 66 51 45 52 65 53 46 54 49 55 64 56 84 57
REMARK SMILES IDX 47 58 48 59 63 61 85 62 50 63 33 64 34 65 43 66 35 67 36 68
REMARK SMILES IDX 42 69 44 70 37 71 38 72 39 73 40 74 41 75 67 76 68 77 77 78
REMARK SMILES IDX 69 79 70 80 76 81 78 82 71 83 72 84 73 85 74 86 75 87 51 88
REMARK SMILES IDX 52 89 61 90 53 91 54 92 60 93 62 94 55 95 56 96 57 97 58 98
REMARK SMILES IDX 59 99
REMARK H PARENT 14 8 6 22 21 30 83 49 49 60
REMARK Flexibility Score: inf
ROOT
ATOM      1  C   UNL A   1      31.621  28.526  25.696  1.00  0.00     0.002 C 
ENDROOT
BRANCH   1   2
ATOM      2  C   UNL A   1      31.422  27.010  25.565  1.00  0.00     0.002 C 
BRANCH   2   3
ATOM      3  C   UNL A   1      30.374  26.581  24.528  1.00  0.00     0.021 C 
BRANCH   3   4
ATOM      4  C   UNL A   1      30.525  25.132  24.074  1.00  0.00     0.116 C 
BRANCH   4   5
ATOM      5  N   UNL A   1      31.599  24.988  23.113  1.00  0.00    -0.355 N 
ATOM      6  C   UNL A   1      32.847  24.462  23.260  1.00  0.00     0.240 C 
ATOM      7  O   UNL A   1      33.523  24.301  22.240  1.00  0.00    -0.273 OA
ATOM      8  H   UNL A   1      31.394  25.323  22.210  1.00  0.00     0.163 HD
BRANCH   6   9
ATOM      9  C   UNL A   1      33.338  23.946  24.616  1.00  0.00     0.226 C 
BRANCH   9  10
ATOM     10  N   UNL A   1      33.305  22.496  24.740  1.00  0.00    -0.288 N 
ATOM     11  C   UNL A   1      32.141  14.826  25.610  1.00  0.00     0.044 C 
ATOM     12  C   UNL A   1      33.025  16.018  25.380  1.00  0.00    -0.050 A 
ATOM     13  C   UNL A   1      34.396  15.836  25.162  1.00  0.00     0.005 A 
ATOM     14  C   UNL A   1      32.475  17.311  25.331  1.00  0.00     0.016 A 
ATOM     15  C   UNL A   1      35.250  16.918  24.923  1.00  0.00     0.027 A 
ATOM     16  C   UNL A   1      33.314  18.417  25.090  1.00  0.00     0.026 A 
ATOM     17  C   UNL A   1      34.684  18.195  24.897  1.00  0.00     0.048 A 
ATOM     18  C   UNL A   1      33.128  19.812  24.972  1.00  0.00     0.103 A 
ATOM     19  N   UNL A   1      35.278  19.424  24.689  1.00  0.00    -0.349 N 
ATOM     20  C   UNL A   1      34.330  20.405  24.732  1.00  0.00     0.132 A 
ATOM     21  N   UNL A   1      31.937  20.536  25.054  1.00  0.00    -0.236 NA
ATOM     22  H   UNL A   1      36.240  19.571  24.533  1.00  0.00     0.167 HD
ATOM     23  C   UNL A   1      34.502  21.808  24.563  1.00  0.00     0.278 A 
ATOM     24  C   UNL A   1      32.108  21.818  24.923  1.00  0.00     0.203 A 
ATOM     25  O   UNL A   1      35.572  22.323  24.288  1.00  0.00    -0.267 OA
ENDBRANCH   9  10
ENDBRANCH   6   9
ENDBRANCH   4   5
ENDBRANCH   3   4
ENDBRANCH   2   3
ENDBRANCH   1   2
BRANCH   1  26
ATOM     26  C   UNL A   1      32.156  28.998  27.053  1.00  0.00     0.021 C 
BRANCH  26  27
ATOM     27  C   UNL A   1      33.559  29.603  26.990  1.00  0.00     0.116 C 
BRANCH  27  28
ATOM     28  N   UNL A   1      33.762  30.686  27.928  1.00  0.00    -0.352 N 
ATOM     29  C   UNL A   1      34.857  31.264  28.507  1.00  0.00     0.251 C 
ATOM     30  H   UNL A   1      32.918  31.104  28.214  1.00  0.00     0.163 HD
ATOM     31  O   UNL A   1      34.642  32.276  29.179  1.00  0.00    -0.269 OA
BRANCH  29  32
ATOM     32  C   UNL A   1      36.238  30.715  28.454  1.00  0.00     0.039 A 
ATOM     33  C   UNL A   1      36.586  29.409  28.108  1.00  0.00     0.014 A 
ATOM     34  C   UNL A   1      37.254  31.597  28.869  1.00  0.00     0.014 A 
ATOM     35  C   UNL A   1      37.882  28.952  28.316  1.00  0.00     0.010 A 
ATOM     36  C   UNL A   1      38.556  31.154  29.050  1.00  0.00     0.010 A 
ATOM     37  C   UNL A   1      38.848  29.812  28.841  1.00  0.00    -0.014 A 
BRANCH  37  38
ATOM     38  C   UNL A   1      40.205  29.303  29.021  1.00  0.00     0.031 A 
ATOM     39  C   UNL A   1      40.611  29.210  30.455  1.00  0.00     0.074 A 
ATOM     40  C   UNL A   1      40.952  28.848  27.992  1.00  0.00     0.049 A 
ATOM     41  N   UNL A   1      41.576  29.827  31.057  1.00  0.00    -0.248 NA
ATOM     42  C   UNL A   1      39.721  28.467  31.370  1.00  0.00     0.031 C 
ATOM     43  C   UNL A   1      40.549  28.687  26.590  1.00  0.00     0.029 A 
ATOM     44  N   UNL A   1      42.217  28.340  27.990  1.00  0.00    -0.354 N 
ATOM     45  C   UNL A   1      41.558  29.363  32.370  1.00  0.00     0.074 A 
ATOM     46  C   UNL A   1      40.302  28.683  32.551  1.00  0.00     0.031 C 
ATOM     47  C   UNL A   1      41.445  27.906  25.946  1.00  0.00     0.029 A 
ATOM     48  C   UNL A   1      42.556  27.628  26.838  1.00  0.00     0.049 A 
ATOM     49  H   UNL A   1      42.842  28.465  28.740  1.00  0.00     0.167 HD
ATOM     50  C   UNL A   1      42.682  29.347  33.137  1.00  0.00     0.037 A 
ATOM     51  C   UNL A   1      43.645  26.831  26.662  1.00  0.00     0.037 A 
ATOM     52  C   UNL A   1      43.681  30.245  32.627  1.00  0.00     0.049 A 
ATOM     53  C   UNL A   1      44.637  27.233  27.693  1.00  0.00     0.074 A 
ATOM     54  C   UNL A   1      43.755  31.612  32.443  1.00  0.00     0.029 A 
ATOM     55  N   UNL A   1      44.674  29.705  31.849  1.00  0.00    -0.354 N 
ATOM     56  N   UNL A   1      45.221  28.400  27.722  1.00  0.00    -0.248 NA
ATOM     57  C   UNL A   1      44.617  26.510  28.953  1.00  0.00     0.031 C 
ATOM     58  C   UNL A   1      44.465  31.783  31.219  1.00  0.00     0.029 A 
ATOM     59  C   UNL A   1      44.852  30.523  30.762  1.00  0.00     0.049 A 
ATOM     60  H   UNL A   1      45.170  28.876  32.037  1.00  0.00     0.167 HD
ATOM     61  C   UNL A   1      45.254  28.744  29.064  1.00  0.00     0.074 A 
ATOM     62  C   UNL A   1      44.930  27.510  29.780  1.00  0.00     0.031 C 
ATOM     63  C   UNL A   1      45.263  30.053  29.456  1.00  0.00     0.037 A 
BRANCH  50  64
ATOM     64  C   UNL A   1      42.995  28.240  34.113  1.00  0.00     0.058 A 
ATOM     65  C   UNL A   1      43.168  28.524  35.481  1.00  0.00     0.135 A 
ATOM     66  C   UNL A   1      43.389  26.944  33.705  1.00  0.00     0.135 A 
ATOM     67  F   UNL A   1      42.869  29.740  35.967  1.00  0.00    -0.206 F 
ATOM     68  C   UNL A   1      43.709  27.594  36.373  1.00  0.00     0.059 A 
ATOM     69  C   UNL A   1      43.878  25.986  34.583  1.00  0.00     0.059 A 
ATOM     70  F   UNL A   1      43.407  26.580  32.416  1.00  0.00    -0.206 F 
ATOM     71  C   UNL A   1      44.059  26.326  35.912  1.00  0.00     0.060 A 
BRANCH  71  72
ATOM     72  S   UNL A   1      44.795  25.139  37.050  1.00  0.00     0.124 S 
ATOM     73  O   UNL A   1      44.399  23.871  36.450  1.00  0.00    -0.237 OA
ATOM     74  O   UNL A   1      46.212  25.477  36.958  1.00  0.00    -0.237 OA
ATOM     75  O   UNL A   1      44.163  25.461  38.327  1.00  0.00    -0.744 OA
ENDBRANCH  71  72
ENDBRANCH  50  64
BRANCH  51  76
ATOM     76  C   UNL A   1      43.722  25.504  25.978  1.00  0.00     0.058 A 
ATOM     77  C   UNL A   1      44.835  25.152  25.188  1.00  0.00     0.135 A 
ATOM     78  C   UNL A   1      42.865  24.442  26.334  1.00  0.00     0.135 A 
ATOM     79  F   UNL A   1      45.719  26.090  24.814  1.00  0.00    -0.206 F 
ATOM     80  C   UNL A   1      45.115  23.826  24.828  1.00  0.00     0.059 A 
ATOM     81  C   UNL A   1      43.120  23.115  25.982  1.00  0.00     0.059 A 
ATOM     82  F   UNL A   1      41.801  24.649  27.122  1.00  0.00    -0.206 F 
ATOM     83  C   UNL A   1      44.263  22.809  25.254  1.00  0.00     0.060 A 
BRANCH  83  84
ATOM     84  S   UNL A   1      44.713  21.081  24.953  1.00  0.00     0.124 S 
ATOM     85  O   UNL A   1      43.713  20.365  25.735  1.00  0.00    -0.237 OA
ATOM     86  O   UNL A   1      44.582  20.978  23.503  1.00  0.00    -0.237 OA
ATOM     87  O   UNL A   1      46.080  20.992  25.460  1.00  0.00    -0.744 OA
ENDBRANCH  83  84
ENDBRANCH  51  76
BRANCH  63  88
ATOM     88  C   UNL A   1      45.533  31.108  28.410  1.00  0.00     0.058 A 
ATOM     89  C   UNL A   1      44.551  31.711  27.600  1.00  0.00     0.135 A 
ATOM     90  C   UNL A   1      46.829  31.637  28.338  1.00  0.00     0.135 A 
ATOM     91  F   UNL A   1      43.268  31.329  27.672  1.00  0.00    -0.206 F 
ATOM     92  C   UNL A   1      44.855  32.774  26.743  1.00  0.00     0.059 A 
ATOM     93  C   UNL A   1      47.147  32.714  27.517  1.00  0.00     0.059 A 
ATOM     94  F   UNL A   1      47.799  31.142  29.125  1.00  0.00    -0.206 F 
ATOM     95  C   UNL A   1      46.157  33.273  26.713  1.00  0.00     0.060 A 
BRANCH  95  96
ATOM     96  S   UNL A   1      46.537  34.697  25.667  1.00  0.00     0.124 S 
ATOM     97  O   UNL A   1      47.946  34.485  25.354  1.00  0.00    -0.237 OA
ATOM     98  O   UNL A   1      45.607  34.528  24.554  1.00  0.00    -0.237 OA
ATOM     99  O   UNL A   1      46.256  35.841  26.532  1.00  0.00    -0.744 OA
ENDBRANCH  95  96
ENDBRANCH  63  88
ENDBRANCH  37  38
ENDBRANCH  29  32
ENDBRANCH  27  28
ENDBRANCH  26  27
ENDBRANCH   1  26
TORSDOF 17
ENDMDL
