MODEL 1
REMARK VINA RESULT:     -13.1      0.000      0.000
REMARK SMILES CC(C)n1c2c(c3ccccc31)[C@@H](c1ccccc1)N(CC(=O)NCCCCCCNC(=O)c1ccc(-c3c4nc(c(-c5c(F)cc(S(=O)(=O)[O-])cc5F)c5ccc([nH]5)c(-c5c(F)cc(S(=O)(=O)[O-])cc5F)c5nc(c(-c6c(F)cc(S(=O)(=O)[O-])cc6F)c6ccc3[nH]6)C=C5)C=C4)cc1)C2=O
REMARK SMILES IDX 28 1 27 2 26 3 25 4 24 5 22 6 23 7 21 9 20 10 4 11 5 12
REMARK SMILES IDX 12 13 6 14 100 15 7 16 11 17 13 18 101 19 8 20 10 21 9 22
REMARK SMILES IDX 2 23 1 24 3 25 14 26 15 27 19 28 16 29 18 30 17 31 29 32
REMARK SMILES IDX 30 33 31 34 32 35 33 37 34 38 35 39 99 40 36 41 98 42 37 43
REMARK SMILES IDX 38 44 39 45 92 46 40 47 97 48 91 49 93 50 41 51 96 52 90 53
REMARK SMILES IDX 89 54 42 56 76 57 55 58 75 59 56 60 59 61 74 62 94 63 57 64
REMARK SMILES IDX 58 65 73 67 95 68 60 69 43 70 44 71 53 72 45 73 46 74 52 75
REMARK SMILES IDX 54 76 47 77 48 78 49 79 50 80 51 81 77 82 78 83 87 84 79 85
REMARK SMILES IDX 80 86 86 87 88 88 81 89 82 90 83 91 84 92 85 93 61 94 62 95
REMARK SMILES IDX 71 96 63 97 64 98 70 99 72 100 65 101 66 102 67 103 68 104
REMARK SMILES IDX 69 105
REMARK H PARENT 24 8 31 36 93 55 59 66
REMARK Flexibility Score: inf
ROOT
ATOM      1  C   UNL A   1      36.405  22.972  23.323  1.00  0.00     0.002 C 
ENDROOT
BRANCH   1   2
ATOM      2  C   UNL A   1      35.137  23.696  23.785  1.00  0.00     0.002 C 
BRANCH   2   3
ATOM      3  C   UNL A   1      33.824  23.084  23.289  1.00  0.00     0.021 C 
BRANCH   3   4
ATOM      4  C   UNL A   1      32.940  24.043  22.492  1.00  0.00     0.116 C 
BRANCH   4   5
ATOM      5  N   UNL A   1      33.662  25.256  22.158  1.00  0.00    -0.355 N 
ATOM      6  C   UNL A   1      33.160  26.465  21.768  1.00  0.00     0.239 C 
ATOM      7  O   UNL A   1      33.942  27.335  21.379  1.00  0.00    -0.273 OA
ATOM      8  H   UNL A   1      34.642  25.202  22.223  1.00  0.00     0.163 HD
BRANCH   6   9
ATOM      9  C   UNL A   1      31.644  26.704  21.747  1.00  0.00     0.220 C 
BRANCH   9  10
ATOM     10  N   UNL A   1      31.221  27.541  22.855  1.00  0.00    -0.317 N 
ATOM     11  N   UNL A   1      30.072  30.645  24.228  1.00  0.00    -0.334 N 
ATOM     12  C   UNL A   1      30.468  29.402  23.812  1.00  0.00     0.114 A 
ATOM     13  C   UNL A   1      30.888  30.991  25.318  1.00  0.00     0.049 A 
ATOM     14  C   UNL A   1      31.494  28.945  24.589  1.00  0.00     0.018 A 
ATOM     15  C   UNL A   1      30.209  28.494  22.741  1.00  0.00     0.272 C 
ATOM     16  C   UNL A   1      31.800  29.927  25.535  1.00  0.00     0.006 A 
ATOM     17  C   UNL A   1      30.952  32.122  26.156  1.00  0.00     0.027 A 
ATOM     18  C   UNL A   1      31.980  27.620  24.128  1.00  0.00     0.150 C 
ATOM     19  O   UNL A   1      29.366  28.572  21.863  1.00  0.00    -0.267 OA
ATOM     20  C   UNL A   1      32.763  30.010  26.558  1.00  0.00     0.011 A 
ATOM     21  C   UNL A   1      31.907  32.172  27.181  1.00  0.00     0.002 A 
ATOM     22  C   UNL A   1      32.806  31.134  27.379  1.00  0.00     0.001 A 
BRANCH  11  23
ATOM     23  C   UNL A   1      28.961  31.373  23.600  1.00  0.00     0.082 C 
ATOM     24  C   UNL A   1      29.152  31.809  22.144  1.00  0.00     0.031 C 
ATOM     25  C   UNL A   1      27.627  30.616  23.673  1.00  0.00     0.031 C 
ENDBRANCH  11  23
BRANCH  18  26
ATOM     26  C   UNL A   1      31.546  26.529  25.098  1.00  0.00    -0.021 A 
ATOM     27  C   UNL A   1      32.551  25.820  25.784  1.00  0.00     0.006 A 
ATOM     28  C   UNL A   1      30.213  26.129  25.316  1.00  0.00     0.006 A 
ATOM     29  C   UNL A   1      32.241  24.739  26.615  1.00  0.00     0.000 A 
ATOM     30  C   UNL A   1      29.901  25.064  26.165  1.00  0.00     0.000 A 
ATOM     31  C   UNL A   1      30.916  24.360  26.804  1.00  0.00     0.000 A 
ENDBRANCH  18  26
ENDBRANCH   9  10
ENDBRANCH   6   9
ENDBRANCH   4   5
ENDBRANCH   3   4
ENDBRANCH   2   3
ENDBRANCH   1   2
BRANCH   1  32
ATOM     32  C   UNL A   1      37.046  22.035  24.356  1.00  0.00     0.021 C 
BRANCH  32  33
ATOM     33  C   UNL A   1      37.809  22.748  25.473  1.00  0.00     0.116 C 
BRANCH  33  34
ATOM     34  N   UNL A   1      39.062  22.115  25.822  1.00  0.00    -0.352 N 
ATOM     35  C   UNL A   1      40.150  22.474  26.569  1.00  0.00     0.251 C 
ATOM     36  H   UNL A   1      39.154  21.216  25.431  1.00  0.00     0.163 HD
ATOM     37  O   UNL A   1      41.003  21.599  26.735  1.00  0.00    -0.269 OA
BRANCH  35  38
ATOM     38  C   UNL A   1      40.398  23.833  27.126  1.00  0.00     0.039 A 
ATOM     39  C   UNL A   1      41.543  24.236  27.814  1.00  0.00     0.014 A 
ATOM     40  C   UNL A   1      39.345  24.758  26.980  1.00  0.00     0.014 A 
ATOM     41  C   UNL A   1      41.586  25.478  28.440  1.00  0.00     0.010 A 
ATOM     42  C   UNL A   1      39.393  26.011  27.582  1.00  0.00     0.010 A 
ATOM     43  C   UNL A   1      40.495  26.348  28.359  1.00  0.00    -0.014 A 
BRANCH  43  44
ATOM     44  C   UNL A   1      40.605  27.639  29.034  1.00  0.00     0.031 A 
ATOM     45  C   UNL A   1      41.703  28.511  28.526  1.00  0.00     0.074 A 
ATOM     46  C   UNL A   1      39.745  28.066  29.981  1.00  0.00     0.049 A 
ATOM     47  N   UNL A   1      42.768  28.908  29.146  1.00  0.00    -0.248 NA
ATOM     48  C   UNL A   1      41.673  28.875  27.100  1.00  0.00     0.031 C 
ATOM     49  C   UNL A   1      38.478  27.460  30.400  1.00  0.00     0.029 A 
ATOM     50  N   UNL A   1      39.796  29.204  30.729  1.00  0.00    -0.354 N 
ATOM     51  C   UNL A   1      43.442  29.743  28.254  1.00  0.00     0.074 A 
ATOM     52  C   UNL A   1      42.808  29.562  26.974  1.00  0.00     0.031 C 
ATOM     53  C   UNL A   1      37.785  28.342  31.158  1.00  0.00     0.029 A 
ATOM     54  C   UNL A   1      38.617  29.508  31.403  1.00  0.00     0.049 A 
ATOM     55  H   UNL A   1      40.602  29.766  30.787  1.00  0.00     0.167 HD
ATOM     56  C   UNL A   1      44.338  30.678  28.679  1.00  0.00     0.037 A 
ATOM     57  C   UNL A   1      38.341  30.658  32.071  1.00  0.00     0.037 A 
ATOM     58  C   UNL A   1      44.806  30.394  30.010  1.00  0.00     0.049 A 
ATOM     59  C   UNL A   1      39.644  31.287  32.401  1.00  0.00     0.074 A 
ATOM     60  C   UNL A   1      45.522  29.372  30.599  1.00  0.00     0.029 A 
ATOM     61  N   UNL A   1      44.245  31.100  31.044  1.00  0.00    -0.354 N 
ATOM     62  N   UNL A   1      40.510  30.787  33.237  1.00  0.00    -0.248 NA
ATOM     63  C   UNL A   1      40.165  32.290  31.485  1.00  0.00     0.031 C 
ATOM     64  C   UNL A   1      44.971  29.237  31.908  1.00  0.00     0.029 A 
ATOM     65  C   UNL A   1      43.984  30.212  32.056  1.00  0.00     0.049 A 
ATOM     66  H   UNL A   1      44.064  32.067  31.057  1.00  0.00     0.167 HD
ATOM     67  C   UNL A   1      41.746  31.091  32.689  1.00  0.00     0.074 A 
ATOM     68  C   UNL A   1      41.472  32.101  31.671  1.00  0.00     0.031 C 
ATOM     69  C   UNL A   1      42.834  30.302  32.929  1.00  0.00     0.037 A 
BRANCH  56  70
ATOM     70  C   UNL A   1      44.518  32.035  28.032  1.00  0.00     0.058 A 
ATOM     71  C   UNL A   1      45.692  32.309  27.298  1.00  0.00     0.135 A 
ATOM     72  C   UNL A   1      43.723  33.162  28.341  1.00  0.00     0.135 A 
ATOM     73  F   UNL A   1      46.531  31.319  26.954  1.00  0.00    -0.206 F 
ATOM     74  C   UNL A   1      46.082  33.608  26.964  1.00  0.00     0.059 A 
ATOM     75  C   UNL A   1      44.065  34.459  27.972  1.00  0.00     0.059 A 
ATOM     76  F   UNL A   1      42.625  33.074  29.101  1.00  0.00    -0.206 F 
ATOM     77  C   UNL A   1      45.267  34.678  27.321  1.00  0.00     0.060 A 
BRANCH  77  78
ATOM     78  S   UNL A   1      45.818  36.362  26.990  1.00  0.00     0.124 S 
ATOM     79  O   UNL A   1      46.568  36.184  25.753  1.00  0.00    -0.237 OA
ATOM     80  O   UNL A   1      44.550  37.075  26.873  1.00  0.00    -0.237 OA
ATOM     81  O   UNL A   1      46.609  36.694  28.170  1.00  0.00    -0.744 OA
ENDBRANCH  77  78
ENDBRANCH  56  70
BRANCH  57  82
ATOM     82  C   UNL A   1      37.074  31.441  32.099  1.00  0.00     0.058 A 
ATOM     83  C   UNL A   1      36.618  32.013  33.303  1.00  0.00     0.135 A 
ATOM     84  C   UNL A   1      36.481  31.930  30.918  1.00  0.00     0.135 A 
ATOM     85  F   UNL A   1      37.124  31.606  34.478  1.00  0.00    -0.206 F 
ATOM     86  C   UNL A   1      35.710  33.075  33.331  1.00  0.00     0.059 A 
ATOM     87  C   UNL A   1      35.564  32.982  30.923  1.00  0.00     0.059 A 
ATOM     88  F   UNL A   1      36.854  31.473  29.715  1.00  0.00    -0.206 F 
ATOM     89  C   UNL A   1      35.215  33.577  32.129  1.00  0.00     0.060 A 
BRANCH  89  90
ATOM     90  S   UNL A   1      34.228  35.093  32.145  1.00  0.00     0.124 S 
ATOM     91  O   UNL A   1      34.125  35.403  30.724  1.00  0.00    -0.237 OA
ATOM     92  O   UNL A   1      32.998  34.650  32.793  1.00  0.00    -0.237 OA
ATOM     93  O   UNL A   1      35.043  36.020  32.928  1.00  0.00    -0.744 OA
ENDBRANCH  89  90
ENDBRANCH  57  82
BRANCH  69  94
ATOM     94  C   UNL A   1      42.741  29.295  34.046  1.00  0.00     0.058 A 
ATOM     95  C   UNL A   1      42.191  28.006  33.916  1.00  0.00     0.135 A 
ATOM     96  C   UNL A   1      43.360  29.605  35.267  1.00  0.00     0.135 A 
ATOM     97  F   UNL A   1      41.668  27.594  32.753  1.00  0.00    -0.206 F 
ATOM     98  C   UNL A   1      42.221  27.083  34.965  1.00  0.00     0.059 A 
ATOM     99  C   UNL A   1      43.429  28.690  36.315  1.00  0.00     0.059 A 
ATOM    100  F   UNL A   1      43.953  30.798  35.436  1.00  0.00    -0.206 F 
ATOM    101  C   UNL A   1      42.848  27.433  36.161  1.00  0.00     0.060 A 
BRANCH 101 102
ATOM    102  S   UNL A   1      42.960  26.210  37.485  1.00  0.00     0.124 S 
ATOM    103  O   UNL A   1      43.873  26.853  38.424  1.00  0.00    -0.237 OA
ATOM    104  O   UNL A   1      41.573  26.096  37.927  1.00  0.00    -0.237 OA
ATOM    105  O   UNL A   1      43.489  25.026  36.813  1.00  0.00    -0.744 OA
ENDBRANCH 101 102
ENDBRANCH  69  94
ENDBRANCH  43  44
ENDBRANCH  35  38
ENDBRANCH  33  34
ENDBRANCH  32  33
ENDBRANCH   1  32
TORSDOF 19
ENDMDL
MODEL 2
REMARK VINA RESULT:     -12.5      2.450      4.395
REMARK SMILES CC(C)n1c2c(c3ccccc31)[C@@H](c1ccccc1)N(CC(=O)NCCCCCCNC(=O)c1ccc(-c3c4nc(c(-c5c(F)cc(S(=O)(=O)[O-])cc5F)c5ccc([nH]5)c(-c5c(F)cc(S(=O)(=O)[O-])cc5F)c5nc(c(-c6c(F)cc(S(=O)(=O)[O-])cc6F)c6ccc3[nH]6)C=C5)C=C4)cc1)C2=O
REMARK SMILES IDX 28 1 27 2 26 3 25 4 24 5 22 6 23 7 21 9 20 10 4 11 5 12
REMARK SMILES IDX 12 13 6 14 100 15 7 16 11 17 13 18 101 19 8 20 10 21 9 22
REMARK SMILES IDX 2 23 1 24 3 25 14 26 15 27 19 28 16 29 18 30 17 31 29 32
REMARK SMILES IDX 30 33 31 34 32 35 33 37 34 38 35 39 99 40 36 41 98 42 37 43
REMARK SMILES IDX 38 44 39 45 92 46 40 47 97 48 91 49 93 50 41 51 96 52 90 53
REMARK SMILES IDX 89 54 42 56 76 57 55 58 75 59 56 60 59 61 74 62 94 63 57 64
REMARK SMILES IDX 58 65 73 67 95 68 60 69 43 70 44 71 53 72 45 73 46 74 52 75
REMARK SMILES IDX 54 76 47 77 48 78 49 79 50 80 51 81 77 82 78 83 87 84 79 85
REMARK SMILES IDX 80 86 86 87 88 88 81 89 82 90 83 91 84 92 85 93 61 94 62 95
REMARK SMILES IDX 71 96 63 97 64 98 70 99 72 100 65 101 66 102 67 103 68 104
REMARK SMILES IDX 69 105
REMARK H PARENT 24 8 31 36 93 55 59 66
REMARK Flexibility Score: inf
ROOT
ATOM      1  C   UNL A   1      41.877  23.296  28.081  1.00  0.00     0.002 C 
ENDROOT
BRANCH   1   2
ATOM      2  C   UNL A   1      40.351  23.358  27.974  1.00  0.00     0.002 C 
BRANCH   2   3
ATOM      3  C   UNL A   1      39.815  24.278  26.874  1.00  0.00     0.021 C 
BRANCH   3   4
ATOM      4  C   UNL A   1      38.343  24.057  26.523  1.00  0.00     0.116 C 
BRANCH   4   5
ATOM      5  N   UNL A   1      38.212  23.191  25.366  1.00  0.00    -0.355 N 
ATOM      6  C   UNL A   1      37.317  22.180  25.158  1.00  0.00     0.239 C 
ATOM      7  O   UNL A   1      37.461  21.453  24.172  1.00  0.00    -0.273 OA
ATOM      8  H   UNL A   1      38.851  23.353  24.636  1.00  0.00     0.163 HD
BRANCH   6   9
ATOM      9  C   UNL A   1      36.198  21.914  26.174  1.00  0.00     0.220 C 
BRANCH   9  10
ATOM     10  N   UNL A   1      34.935  22.481  25.738  1.00  0.00    -0.317 N 
ATOM     11  N   UNL A   1      32.677  25.226  25.291  1.00  0.00    -0.334 N 
ATOM     12  C   UNL A   1      33.469  24.113  25.373  1.00  0.00     0.114 A 
ATOM     13  C   UNL A   1      31.424  24.876  25.823  1.00  0.00     0.049 A 
ATOM     14  C   UNL A   1      32.776  23.076  25.930  1.00  0.00     0.018 A 
ATOM     15  C   UNL A   1      34.833  23.746  25.160  1.00  0.00     0.272 C 
ATOM     16  C   UNL A   1      31.491  23.525  26.245  1.00  0.00     0.006 A 
ATOM     17  C   UNL A   1      30.218  25.584  25.998  1.00  0.00     0.027 A 
ATOM     18  C   UNL A   1      33.628  21.868  26.081  1.00  0.00     0.150 C 
ATOM     19  O   UNL A   1      35.734  24.412  24.678  1.00  0.00    -0.267 OA
ATOM     20  C   UNL A   1      30.377  22.908  26.845  1.00  0.00     0.011 A 
ATOM     21  C   UNL A   1      29.116  24.942  26.580  1.00  0.00     0.002 A 
ATOM     22  C   UNL A   1      29.193  23.623  27.004  1.00  0.00     0.001 A 
BRANCH  11  23
ATOM     23  C   UNL A   1      33.143  26.488  24.701  1.00  0.00     0.082 C 
ATOM     24  C   UNL A   1      32.364  27.020  23.495  1.00  0.00     0.031 C 
ATOM     25  C   UNL A   1      33.234  27.633  25.721  1.00  0.00     0.031 C 
ENDBRANCH  11  23
BRANCH  18  26
ATOM     26  C   UNL A   1      33.230  20.809  25.062  1.00  0.00    -0.021 A 
ATOM     27  C   UNL A   1      32.763  21.245  23.806  1.00  0.00     0.006 A 
ATOM     28  C   UNL A   1      33.234  19.421  25.299  1.00  0.00     0.006 A 
ATOM     29  C   UNL A   1      32.285  20.342  22.853  1.00  0.00     0.000 A 
ATOM     30  C   UNL A   1      32.778  18.516  24.337  1.00  0.00     0.000 A 
ATOM     31  C   UNL A   1      32.291  18.977  23.119  1.00  0.00     0.000 A 
ENDBRANCH  18  26
ENDBRANCH   9  10
ENDBRANCH   6   9
ENDBRANCH   4   5
ENDBRANCH   3   4
ENDBRANCH   2   3
ENDBRANCH   1   2
BRANCH   1  32
ATOM     32  C   UNL A   1      42.561  22.253  27.187  1.00  0.00     0.021 C 
BRANCH  32  33
ATOM     33  C   UNL A   1      42.294  22.426  25.692  1.00  0.00     0.116 C 
BRANCH  33  34
ATOM     34  N   UNL A   1      43.431  22.925  24.948  1.00  0.00    -0.352 N 
ATOM     35  C   UNL A   1      44.181  24.068  24.983  1.00  0.00     0.251 C 
ATOM     36  H   UNL A   1      43.736  22.294  24.256  1.00  0.00     0.163 HD
ATOM     37  O   UNL A   1      45.170  24.086  24.246  1.00  0.00    -0.269 OA
BRANCH  35  38
ATOM     38  C   UNL A   1      43.856  25.284  25.779  1.00  0.00     0.039 A 
ATOM     39  C   UNL A   1      44.420  25.630  27.007  1.00  0.00     0.014 A 
ATOM     40  C   UNL A   1      42.846  26.112  25.250  1.00  0.00     0.014 A 
ATOM     41  C   UNL A   1      43.910  26.697  27.739  1.00  0.00     0.010 A 
ATOM     42  C   UNL A   1      42.350  27.196  25.966  1.00  0.00     0.010 A 
ATOM     43  C   UNL A   1      42.847  27.453  27.238  1.00  0.00    -0.014 A 
BRANCH  43  44
ATOM     44  C   UNL A   1      42.360  28.564  28.054  1.00  0.00     0.031 A 
ATOM     45  C   UNL A   1      43.308  29.710  28.167  1.00  0.00     0.074 A 
ATOM     46  C   UNL A   1      41.127  28.611  28.597  1.00  0.00     0.049 A 
ATOM     47  N   UNL A   1      43.919  30.148  29.221  1.00  0.00    -0.248 NA
ATOM     48  C   UNL A   1      43.730  30.366  26.919  1.00  0.00     0.031 C 
ATOM     49  C   UNL A   1      39.995  27.709  28.365  1.00  0.00     0.029 A 
ATOM     50  N   UNL A   1      40.599  29.547  29.435  1.00  0.00    -0.354 N 
ATOM     51  C   UNL A   1      44.644  31.265  28.808  1.00  0.00     0.074 A 
ATOM     52  C   UNL A   1      44.613  31.257  27.368  1.00  0.00     0.031 C 
ATOM     53  C   UNL A   1      38.867  28.264  28.868  1.00  0.00     0.029 A 
ATOM     54  C   UNL A   1      39.217  29.479  29.583  1.00  0.00     0.049 A 
ATOM     55  H   UNL A   1      41.151  30.220  29.896  1.00  0.00     0.167 HD
ATOM     56  C   UNL A   1      45.043  32.231  29.683  1.00  0.00     0.037 A 
ATOM     57  C   UNL A   1      38.426  30.385  30.213  1.00  0.00     0.037 A 
ATOM     58  C   UNL A   1      45.026  31.752  31.040  1.00  0.00     0.049 A 
ATOM     59  C   UNL A   1      39.299  31.152  31.135  1.00  0.00     0.074 A 
ATOM     60  C   UNL A   1      45.699  30.772  31.742  1.00  0.00     0.029 A 
ATOM     61  N   UNL A   1      43.955  32.101  31.823  1.00  0.00    -0.354 N 
ATOM     62  N   UNL A   1      39.879  30.647  32.187  1.00  0.00    -0.248 NA
ATOM     63  C   UNL A   1      39.855  32.408  30.657  1.00  0.00     0.031 C 
ATOM     64  C   UNL A   1      44.746  30.257  32.670  1.00  0.00     0.029 A 
ATOM     65  C   UNL A   1      43.564  30.981  32.512  1.00  0.00     0.049 A 
ATOM     66  H   UNL A   1      43.542  32.993  31.881  1.00  0.00     0.167 HD
ATOM     67  C   UNL A   1      41.109  31.281  32.252  1.00  0.00     0.074 A 
ATOM     68  C   UNL A   1      40.995  32.423  31.349  1.00  0.00     0.031 C 
ATOM     69  C   UNL A   1      42.187  30.669  32.825  1.00  0.00     0.037 A 
BRANCH  56  70
ATOM     70  C   UNL A   1      45.103  33.706  29.348  1.00  0.00     0.058 A 
ATOM     71  C   UNL A   1      43.918  34.394  29.010  1.00  0.00     0.135 A 
ATOM     72  C   UNL A   1      46.304  34.397  29.069  1.00  0.00     0.135 A 
ATOM     73  F   UNL A   1      42.717  33.834  29.220  1.00  0.00    -0.206 F 
ATOM     74  C   UNL A   1      43.930  35.640  28.376  1.00  0.00     0.059 A 
ATOM     75  C   UNL A   1      46.337  35.660  28.487  1.00  0.00     0.059 A 
ATOM     76  F   UNL A   1      47.508  33.843  29.256  1.00  0.00    -0.206 F 
ATOM     77  C   UNL A   1      45.148  36.256  28.104  1.00  0.00     0.060 A 
BRANCH  77  78
ATOM     78  S   UNL A   1      45.171  37.808  27.189  1.00  0.00     0.124 S 
ATOM     79  O   UNL A   1      43.805  37.869  26.684  1.00  0.00    -0.237 OA
ATOM     80  O   UNL A   1      45.510  38.769  28.235  1.00  0.00    -0.237 OA
ATOM     81  O   UNL A   1      46.209  37.591  26.187  1.00  0.00    -0.744 OA
ENDBRANCH  77  78
ENDBRANCH  56  70
BRANCH  57  82
ATOM     82  C   UNL A   1      37.089  30.901  29.805  1.00  0.00     0.058 A 
ATOM     83  C   UNL A   1      36.226  31.474  30.760  1.00  0.00     0.135 A 
ATOM     84  C   UNL A   1      36.775  31.158  28.455  1.00  0.00     0.135 A 
ATOM     85  F   UNL A   1      36.445  31.281  32.070  1.00  0.00    -0.206 F 
ATOM     86  C   UNL A   1      35.182  32.334  30.405  1.00  0.00     0.059 A 
ATOM     87  C   UNL A   1      35.732  32.003  28.078  1.00  0.00     0.059 A 
ATOM     88  F   UNL A   1      37.541  30.679  27.464  1.00  0.00    -0.206 F 
ATOM     89  C   UNL A   1      34.966  32.620  29.059  1.00  0.00     0.060 A 
BRANCH  89  90
ATOM     90  S   UNL A   1      33.775  33.906  28.611  1.00  0.00     0.124 S 
ATOM     91  O   UNL A   1      32.816  33.163  27.801  1.00  0.00    -0.237 OA
ATOM     92  O   UNL A   1      33.297  34.349  29.917  1.00  0.00    -0.237 OA
ATOM     93  O   UNL A   1      34.585  34.880  27.884  1.00  0.00    -0.744 OA
ENDBRANCH  89  90
ENDBRANCH  57  82
BRANCH  69  94
ATOM     94  C   UNL A   1      41.936  29.442  33.664  1.00  0.00     0.058 A 
ATOM     95  C   UNL A   1      41.872  28.129  33.160  1.00  0.00     0.135 A 
ATOM     96  C   UNL A   1      41.892  29.593  35.058  1.00  0.00     0.135 A 
ATOM     97  F   UNL A   1      42.004  27.887  31.848  1.00  0.00    -0.206 F 
ATOM     98  C   UNL A   1      41.732  27.023  34.002  1.00  0.00     0.059 A 
ATOM     99  C   UNL A   1      41.784  28.503  35.918  1.00  0.00     0.059 A 
ATOM    100  F   UNL A   1      42.004  30.815  35.605  1.00  0.00    -0.206 F 
ATOM    101  C   UNL A   1      41.695  27.220  35.382  1.00  0.00     0.060 A 
BRANCH 101 102
ATOM    102  S   UNL A   1      41.599  25.784  36.473  1.00  0.00     0.124 S 
ATOM    103  O   UNL A   1      42.738  24.985  36.035  1.00  0.00    -0.237 OA
ATOM    104  O   UNL A   1      41.717  26.385  37.798  1.00  0.00    -0.237 OA
ATOM    105  O   UNL A   1      40.286  25.214  36.173  1.00  0.00    -0.744 OA
ENDBRANCH 101 102
ENDBRANCH  69  94
ENDBRANCH  43  44
ENDBRANCH  35  38
ENDBRANCH  33  34
ENDBRANCH  32  33
ENDBRANCH   1  32
TORSDOF 19
ENDMDL
MODEL 3
REMARK VINA RESULT:     -12.2      4.836      9.451
REMARK SMILES CC(C)n1c2c(c3ccccc31)[C@@H](c1ccccc1)N(CC(=O)NCCCCCCNC(=O)c1ccc(-c3c4nc(c(-c5c(F)cc(S(=O)(=O)[O-])cc5F)c5ccc([nH]5)c(-c5c(F)cc(S(=O)(=O)[O-])cc5F)c5nc(c(-c6c(F)cc(S(=O)(=O)[O-])cc6F)c6ccc3[nH]6)C=C5)C=C4)cc1)C2=O
REMARK SMILES IDX 28 1 27 2 26 3 25 4 24 5 22 6 23 7 21 9 20 10 4 11 5 12
REMARK SMILES IDX 12 13 6 14 100 15 7 16 11 17 13 18 101 19 8 20 10 21 9 22
REMARK SMILES IDX 2 23 1 24 3 25 14 26 15 27 19 28 16 29 18 30 17 31 29 32
REMARK SMILES IDX 30 33 31 34 32 35 33 37 34 38 35 39 99 40 36 41 98 42 37 43
REMARK SMILES IDX 38 44 39 45 92 46 40 47 97 48 91 49 93 50 41 51 96 52 90 53
REMARK SMILES IDX 89 54 42 56 76 57 55 58 75 59 56 60 59 61 74 62 94 63 57 64
REMARK SMILES IDX 58 65 73 67 95 68 60 69 43 70 44 71 53 72 45 73 46 74 52 75
REMARK SMILES IDX 54 76 47 77 48 78 49 79 50 80 51 81 77 82 78 83 87 84 79 85
REMARK SMILES IDX 80 86 86 87 88 88 81 89 82 90 83 91 84 92 85 93 61 94 62 95
REMARK SMILES IDX 71 96 63 97 64 98 70 99 72 100 65 101 66 102 67 103 68 104
REMARK SMILES IDX 69 105
REMARK H PARENT 24 8 31 36 93 55 59 66
REMARK Flexibility Score: inf
ROOT
ATOM      1  C   UNL A   1      43.845  23.939  25.361  1.00  0.00     0.002 C 
ENDROOT
BRANCH   1   2
ATOM      2  C   UNL A   1      43.028  25.096  24.778  1.00  0.00     0.002 C 
BRANCH   2   3
ATOM      3  C   UNL A   1      43.253  26.452  25.452  1.00  0.00     0.021 C 
BRANCH   3   4
ATOM      4  C   UNL A   1      44.719  26.786  25.731  1.00  0.00     0.116 C 
BRANCH   4   5
ATOM      5  N   UNL A   1      45.273  27.607  24.671  1.00  0.00    -0.355 N 
ATOM      6  C   UNL A   1      46.569  27.686  24.244  1.00  0.00     0.239 C 
ATOM      7  O   UNL A   1      46.873  28.559  23.429  1.00  0.00    -0.273 OA
ATOM      8  H   UNL A   1      44.632  28.183  24.197  1.00  0.00     0.163 HD
BRANCH   6   9
ATOM      9  C   UNL A   1      47.635  26.748  24.828  1.00  0.00     0.220 C 
BRANCH   9  10
ATOM     10  N   UNL A   1      48.032  27.159  26.162  1.00  0.00    -0.317 N 
ATOM     11  N   UNL A   1      49.884  29.232  28.423  1.00  0.00    -0.334 N 
ATOM     12  C   UNL A   1      49.100  28.409  27.660  1.00  0.00     0.114 A 
ATOM     13  C   UNL A   1      50.571  28.411  29.335  1.00  0.00     0.049 A 
ATOM     14  C   UNL A   1      49.257  27.108  28.047  1.00  0.00     0.018 A 
ATOM     15  C   UNL A   1      48.259  28.491  26.509  1.00  0.00     0.272 C 
ATOM     16  C   UNL A   1      50.191  27.069  29.085  1.00  0.00     0.006 A 
ATOM     17  C   UNL A   1      51.499  28.675  30.362  1.00  0.00     0.027 A 
ATOM     18  C   UNL A   1      48.457  26.187  27.200  1.00  0.00     0.150 C 
ATOM     19  O   UNL A   1      47.897  29.483  25.899  1.00  0.00    -0.267 OA
ATOM     20  C   UNL A   1      50.746  26.017  29.839  1.00  0.00     0.011 A 
ATOM     21  C   UNL A   1      52.022  27.613  31.112  1.00  0.00     0.002 A 
ATOM     22  C   UNL A   1      51.657  26.300  30.853  1.00  0.00     0.001 A 
BRANCH  11  23
ATOM     23  C   UNL A   1      49.896  30.691  28.258  1.00  0.00     0.082 C 
ATOM     24  C   UNL A   1      49.418  31.528  29.449  1.00  0.00     0.031 C 
ATOM     25  C   UNL A   1      51.270  31.239  27.843  1.00  0.00     0.031 C 
ENDBRANCH  11  23
BRANCH  18  26
ATOM     26  C   UNL A   1      47.262  25.654  27.979  1.00  0.00    -0.021 A 
ATOM     27  C   UNL A   1      46.779  24.373  27.650  1.00  0.00     0.006 A 
ATOM     28  C   UNL A   1      46.559  26.373  28.966  1.00  0.00     0.006 A 
ATOM     29  C   UNL A   1      45.627  23.853  28.247  1.00  0.00     0.000 A 
ATOM     30  C   UNL A   1      45.421  25.844  29.581  1.00  0.00     0.000 A 
ATOM     31  C   UNL A   1      44.947  24.589  29.211  1.00  0.00     0.000 A 
ENDBRANCH  18  26
ENDBRANCH   9  10
ENDBRANCH   6   9
ENDBRANCH   4   5
ENDBRANCH   3   4
ENDBRANCH   2   3
ENDBRANCH   1   2
BRANCH   1  32
ATOM     32  C   UNL A   1      43.371  22.533  24.972  1.00  0.00     0.021 C 
BRANCH  32  33
ATOM     33  C   UNL A   1      42.741  21.736  26.115  1.00  0.00     0.116 C 
BRANCH  33  34
ATOM     34  N   UNL A   1      41.293  21.752  26.111  1.00  0.00    -0.352 N 
ATOM     35  C   UNL A   1      40.338  22.683  26.411  1.00  0.00     0.251 C 
ATOM     36  H   UNL A   1      40.907  20.892  25.827  1.00  0.00     0.163 HD
ATOM     37  O   UNL A   1      39.173  22.354  26.172  1.00  0.00    -0.269 OA
BRANCH  35  38
ATOM     38  C   UNL A   1      40.596  24.004  27.048  1.00  0.00     0.039 A 
ATOM     39  C   UNL A   1      41.479  24.242  28.102  1.00  0.00     0.014 A 
ATOM     40  C   UNL A   1      39.826  25.080  26.564  1.00  0.00     0.014 A 
ATOM     41  C   UNL A   1      41.504  25.483  28.730  1.00  0.00     0.010 A 
ATOM     42  C   UNL A   1      39.867  26.330  27.172  1.00  0.00     0.010 A 
ATOM     43  C   UNL A   1      40.668  26.514  28.293  1.00  0.00    -0.014 A 
BRANCH  43  44
ATOM     44  C   UNL A   1      40.746  27.794  28.992  1.00  0.00     0.031 A 
ATOM     45  C   UNL A   1      41.836  28.694  28.514  1.00  0.00     0.074 A 
ATOM     46  C   UNL A   1      39.865  28.190  29.933  1.00  0.00     0.049 A 
ATOM     47  N   UNL A   1      42.885  29.099  29.155  1.00  0.00    -0.248 NA
ATOM     48  C   UNL A   1      41.819  29.083  27.094  1.00  0.00     0.031 C 
ATOM     49  C   UNL A   1      38.603  27.554  30.324  1.00  0.00     0.029 A 
ATOM     50  N   UNL A   1      39.886  29.315  30.702  1.00  0.00    -0.354 N 
ATOM     51  C   UNL A   1      43.556  29.961  28.288  1.00  0.00     0.074 A 
ATOM     52  C   UNL A   1      42.943  29.791  26.996  1.00  0.00     0.031 C 
ATOM     53  C   UNL A   1      37.885  28.411  31.087  1.00  0.00     0.029 A 
ATOM     54  C   UNL A   1      38.693  29.587  31.364  1.00  0.00     0.049 A 
ATOM     55  H   UNL A   1      40.681  29.890  30.781  1.00  0.00     0.167 HD
ATOM     56  C   UNL A   1      44.430  30.903  28.741  1.00  0.00     0.037 A 
ATOM     57  C   UNL A   1      38.388  30.719  32.048  1.00  0.00     0.037 A 
ATOM     58  C   UNL A   1      44.884  30.604  30.074  1.00  0.00     0.049 A 
ATOM     59  C   UNL A   1      39.675  31.365  32.407  1.00  0.00     0.074 A 
ATOM     60  C   UNL A   1      45.610  29.584  30.655  1.00  0.00     0.029 A 
ATOM     61  N   UNL A   1      44.297  31.282  31.112  1.00  0.00    -0.354 N 
ATOM     62  N   UNL A   1      40.538  30.866  33.247  1.00  0.00    -0.248 NA
ATOM     63  C   UNL A   1      40.190  32.393  31.517  1.00  0.00     0.031 C 
ATOM     64  C   UNL A   1      45.044  29.416  31.954  1.00  0.00     0.029 A 
ATOM     65  C   UNL A   1      44.038  30.372  32.105  1.00  0.00     0.049 A 
ATOM     66  H   UNL A   1      44.098  32.246  31.139  1.00  0.00     0.167 HD
ATOM     67  C   UNL A   1      41.776  31.200  32.722  1.00  0.00     0.074 A 
ATOM     68  C   UNL A   1      41.498  32.224  31.718  1.00  0.00     0.031 C 
ATOM     69  C   UNL A   1      42.874  30.426  32.963  1.00  0.00     0.037 A 
BRANCH  56  70
ATOM     70  C   UNL A   1      44.595  32.275  28.121  1.00  0.00     0.058 A 
ATOM     71  C   UNL A   1      45.831  32.635  27.543  1.00  0.00     0.135 A 
ATOM     72  C   UNL A   1      43.690  33.340  28.325  1.00  0.00     0.135 A 
ATOM     73  F   UNL A   1      46.774  31.709  27.310  1.00  0.00    -0.206 F 
ATOM     74  C   UNL A   1      46.167  33.961  27.259  1.00  0.00     0.059 A 
ATOM     75  C   UNL A   1      43.984  34.661  28.000  1.00  0.00     0.059 A 
ATOM     76  F   UNL A   1      42.513  33.171  28.939  1.00  0.00    -0.206 F 
ATOM     77  C   UNL A   1      45.240  34.969  27.508  1.00  0.00     0.060 A 
BRANCH  77  78
ATOM     78  S   UNL A   1      45.709  36.689  27.247  1.00  0.00     0.124 S 
ATOM     79  O   UNL A   1      46.415  36.990  28.487  1.00  0.00    -0.237 OA
ATOM     80  O   UNL A   1      46.535  36.597  26.047  1.00  0.00    -0.237 OA
ATOM     81  O   UNL A   1      44.427  37.363  27.068  1.00  0.00    -0.744 OA
ENDBRANCH  77  78
ENDBRANCH  56  70
BRANCH  57  82
ATOM     82  C   UNL A   1      37.107  31.481  32.072  1.00  0.00     0.058 A 
ATOM     83  C   UNL A   1      36.615  32.006  33.283  1.00  0.00     0.135 A 
ATOM     84  C   UNL A   1      36.532  31.997  30.894  1.00  0.00     0.135 A 
ATOM     85  F   UNL A   1      37.101  31.571  34.456  1.00  0.00    -0.206 F 
ATOM     86  C   UNL A   1      35.688  33.052  33.323  1.00  0.00     0.059 A 
ATOM     87  C   UNL A   1      35.597  33.032  30.911  1.00  0.00     0.059 A 
ATOM     88  F   UNL A   1      36.939  31.583  29.686  1.00  0.00    -0.206 F 
ATOM     89  C   UNL A   1      35.211  33.583  32.127  1.00  0.00     0.060 A 
BRANCH  89  90
ATOM     90  S   UNL A   1      34.198  35.081  32.168  1.00  0.00     0.124 S 
ATOM     91  O   UNL A   1      34.015  35.363  30.749  1.00  0.00    -0.237 OA
ATOM     92  O   UNL A   1      33.011  34.628  32.886  1.00  0.00    -0.237 OA
ATOM     93  O   UNL A   1      35.034  36.036  32.892  1.00  0.00    -0.744 OA
ENDBRANCH  89  90
ENDBRANCH  57  82
BRANCH  69  94
ATOM     94  C   UNL A   1      42.784  29.398  34.061  1.00  0.00     0.058 A 
ATOM     95  C   UNL A   1      42.978  29.670  35.428  1.00  0.00     0.135 A 
ATOM     96  C   UNL A   1      42.350  28.107  33.723  1.00  0.00     0.135 A 
ATOM     97  F   UNL A   1      43.298  30.902  35.847  1.00  0.00    -0.206 F 
ATOM     98  C   UNL A   1      42.786  28.693  36.408  1.00  0.00     0.059 A 
ATOM     99  C   UNL A   1      42.122  27.127  34.685  1.00  0.00     0.059 A 
ATOM    100  F   UNL A   1      42.093  27.800  32.441  1.00  0.00    -0.206 F 
ATOM    101  C   UNL A   1      42.352  27.423  36.027  1.00  0.00     0.060 A 
BRANCH 101 102
ATOM    102  S   UNL A   1      42.023  26.187  37.301  1.00  0.00     0.124 S 
ATOM    103  O   UNL A   1      42.178  24.936  36.567  1.00  0.00    -0.237 OA
ATOM    104  O   UNL A   1      43.056  26.473  38.292  1.00  0.00    -0.237 OA
ATOM    105  O   UNL A   1      40.660  26.492  37.730  1.00  0.00    -0.744 OA
ENDBRANCH 101 102
ENDBRANCH  69  94
ENDBRANCH  43  44
ENDBRANCH  35  38
ENDBRANCH  33  34
ENDBRANCH  32  33
ENDBRANCH   1  32
TORSDOF 19
ENDMDL
