MODEL 1
REMARK VINA RESULT:      -8.9      0.000      0.000
REMARK SMILES C=CC[N@@H+](CC(=O)NCCCCCCNC(=O)c1ccc(-c2c3nc(c(-c4c(F)cc(S(=O)(=O)[O-])cc4F)c4ccc([nH]4)c(-c4c(F)cc(S(=O)(=O)[O-])cc4F)c4nc(c(-c5c(F)cc(S(=O)(=O)[O-])cc5F)c5ccc2[nH]5)C=C4)C=C3)cc1)Cc1ccc([N+](=O)[O-])o1
REMARK SMILES IDX 11 1 10 2 9 3 8 4 6 5 7 6 5 8 4 9 3 11 2 12 1 13 84 14 85 15
REMARK SMILES IDX 86 16 92 17 87 18 88 19 89 20 90 21 91 22 12 23 13 24 14 25
REMARK SMILES IDX 15 26 16 27 17 29 18 30 19 31 83 32 20 33 82 34 21 35 22 36
REMARK SMILES IDX 23 37 76 38 24 39 81 40 75 41 77 42 25 43 80 44 74 45 73 46
REMARK SMILES IDX 26 48 60 49 39 50 59 51 40 52 43 53 58 54 78 55 41 56 42 57
REMARK SMILES IDX 57 59 79 60 44 61 27 62 28 63 37 64 29 65 30 66 36 67 38 68
REMARK SMILES IDX 31 69 32 70 33 71 34 72 35 73 61 74 62 75 71 76 63 77 64 78
REMARK SMILES IDX 70 79 72 80 65 81 66 82 67 83 68 84 69 85 45 86 46 87 55 88
REMARK SMILES IDX 47 89 48 90 54 91 56 92 49 93 50 94 51 95 52 96 53 97
REMARK H PARENT 8 7 4 10 15 28 77 47 43 58
REMARK Flexibility Score: inf
ROOT
ATOM      1  C   UNL A   1      44.227  23.531  33.282  1.00  0.00     0.002 C 
ENDROOT
BRANCH   1   2
ATOM      2  C   UNL A   1      44.621  24.608  32.276  1.00  0.00     0.021 C 
BRANCH   2   3
ATOM      3  C   UNL A   1      44.334  24.310  30.795  1.00  0.00     0.116 C 
BRANCH   3   4
ATOM      4  N   UNL A   1      45.484  24.545  29.944  1.00  0.00    -0.351 N 
ATOM      5  C   UNL A   1      45.681  24.314  28.610  1.00  0.00     0.275 C 
ATOM      6  O   UNL A   1      46.780  24.617  28.127  1.00  0.00    -0.269 OA
ATOM      7  H   UNL A   1      46.259  24.939  30.407  1.00  0.00     0.163 HD
BRANCH   5   8
ATOM      8  C   UNL A   1      44.587  23.737  27.710  1.00  0.00     0.364 C 
BRANCH   8   9
ATOM      9  N   UNL A   1      44.459  24.313  26.359  1.00  0.00    -0.318 N 
ATOM     10  H   UNL A   1      45.419  24.351  26.016  1.00  0.00     0.349 HD
BRANCH   9  11
ATOM     11  C   UNL A   1      44.145  25.722  26.327  1.00  0.00     0.291 C 
BRANCH  11  12
ATOM     12  C   UNL A   1      44.930  26.599  25.403  1.00  0.00     0.025 C 
ATOM     13  C   UNL A   1      46.049  27.235  25.782  1.00  0.00     0.010 C 
ENDBRANCH  11  12
ENDBRANCH   9  11
BRANCH   9  14
ATOM     14  C   UNL A   1      44.062  23.436  25.263  1.00  0.00     0.339 C 
BRANCH  14  15
ATOM     15  C   UNL A   1      43.923  21.951  25.451  1.00  0.00     0.165 A 
ATOM     16  C   UNL A   1      42.815  21.182  25.787  1.00  0.00     0.059 A 
ATOM     17  O   UNL A   1      44.966  21.120  25.157  1.00  0.00    -0.400 OA
ATOM     18  C   UNL A   1      43.188  19.820  25.646  1.00  0.00     0.134 A 
ATOM     19  C   UNL A   1      44.491  19.851  25.219  1.00  0.00     0.433 A 
BRANCH  19  20
ATOM     20  N   UNL A   1      45.379  18.804  24.829  1.00  0.00     0.102 N 
ATOM     21  O   UNL A   1      46.011  18.986  23.780  1.00  0.00    -0.256 OA
ATOM     22  O   UNL A   1      45.479  17.815  25.568  1.00  0.00    -0.256 OA
ENDBRANCH  19  20
ENDBRANCH  14  15
ENDBRANCH   9  14
ENDBRANCH   8   9
ENDBRANCH   5   8
ENDBRANCH   3   4
ENDBRANCH   2   3
ENDBRANCH   1   2
BRANCH   1  23
ATOM     23  C   UNL A   1      45.388  22.788  33.931  1.00  0.00     0.002 C 
BRANCH  23  24
ATOM     24  C   UNL A   1      45.877  23.394  35.245  1.00  0.00     0.021 C 
BRANCH  24  25
ATOM     25  C   UNL A   1      46.926  24.491  35.082  1.00  0.00     0.116 C 
BRANCH  25  26
ATOM     26  N   UNL A   1      47.489  24.898  36.361  1.00  0.00    -0.352 N 
ATOM     27  C   UNL A   1      47.266  26.050  37.071  1.00  0.00     0.251 C 
ATOM     28  H   UNL A   1      48.115  24.260  36.773  1.00  0.00     0.163 HD
ATOM     29  O   UNL A   1      47.998  26.358  38.009  1.00  0.00    -0.269 OA
BRANCH  27  30
ATOM     30  C   UNL A   1      46.138  26.920  36.686  1.00  0.00     0.039 A 
ATOM     31  C   UNL A   1      46.373  28.022  35.864  1.00  0.00     0.014 A 
ATOM     32  C   UNL A   1      44.845  26.620  37.123  1.00  0.00     0.014 A 
ATOM     33  C   UNL A   1      45.295  28.794  35.431  1.00  0.00     0.010 A 
ATOM     34  C   UNL A   1      43.766  27.340  36.625  1.00  0.00     0.010 A 
ATOM     35  C   UNL A   1      43.980  28.439  35.781  1.00  0.00    -0.014 A 
BRANCH  35  36
ATOM     36  C   UNL A   1      42.816  29.211  35.279  1.00  0.00     0.031 A 
ATOM     37  C   UNL A   1      42.185  28.845  33.962  1.00  0.00     0.074 A 
ATOM     38  C   UNL A   1      42.369  30.272  35.978  1.00  0.00     0.049 A 
ATOM     39  N   UNL A   1      41.200  29.429  33.330  1.00  0.00    -0.248 NA
ATOM     40  C   UNL A   1      42.752  27.689  33.250  1.00  0.00     0.031 C 
ATOM     41  C   UNL A   1      42.934  30.752  37.242  1.00  0.00     0.029 A 
ATOM     42  N   UNL A   1      41.340  31.145  35.724  1.00  0.00    -0.354 N 
ATOM     43  C   UNL A   1      41.038  28.719  32.145  1.00  0.00     0.074 A 
ATOM     44  C   UNL A   1      42.065  27.702  32.118  1.00  0.00     0.031 C 
ATOM     45  C   UNL A   1      42.229  31.815  37.664  1.00  0.00     0.029 A 
ATOM     46  C   UNL A   1      41.191  32.118  36.684  1.00  0.00     0.049 A 
ATOM     47  H   UNL A   1      40.764  31.081  34.929  1.00  0.00     0.167 HD
ATOM     48  C   UNL A   1      40.101  28.884  31.182  1.00  0.00     0.037 A 
ATOM     49  C   UNL A   1      40.320  33.144  36.763  1.00  0.00     0.037 A 
ATOM     50  C   UNL A   1      39.070  29.889  31.229  1.00  0.00     0.049 A 
ATOM     51  C   UNL A   1      39.296  33.313  35.672  1.00  0.00     0.074 A 
ATOM     52  C   UNL A   1      38.040  30.105  30.333  1.00  0.00     0.029 A 
ATOM     53  N   UNL A   1      38.943  30.848  32.225  1.00  0.00    -0.354 N 
ATOM     54  N   UNL A   1      39.113  32.591  34.593  1.00  0.00    -0.248 NA
ATOM     55  C   UNL A   1      38.356  34.433  35.813  1.00  0.00     0.031 C 
ATOM     56  C   UNL A   1      37.323  31.229  30.756  1.00  0.00     0.029 A 
ATOM     57  C   UNL A   1      37.867  31.675  31.950  1.00  0.00     0.049 A 
ATOM     58  H   UNL A   1      39.532  30.928  33.010  1.00  0.00     0.167 HD
ATOM     59  C   UNL A   1      38.019  33.149  33.941  1.00  0.00     0.074 A 
ATOM     60  C   UNL A   1      37.574  34.262  34.756  1.00  0.00     0.031 C 
ATOM     61  C   UNL A   1      37.435  32.776  32.775  1.00  0.00     0.037 A 
BRANCH  48  62
ATOM     62  C   UNL A   1      40.146  27.957  29.997  1.00  0.00     0.058 A 
ATOM     63  C   UNL A   1      41.017  28.179  28.917  1.00  0.00     0.135 A 
ATOM     64  C   UNL A   1      39.334  26.812  29.955  1.00  0.00     0.135 A 
ATOM     65  F   UNL A   1      41.805  29.265  28.895  1.00  0.00    -0.206 F 
ATOM     66  C   UNL A   1      41.059  27.316  27.826  1.00  0.00     0.059 A 
ATOM     67  C   UNL A   1      39.384  25.918  28.889  1.00  0.00     0.059 A 
ATOM     68  F   UNL A   1      38.482  26.550  30.959  1.00  0.00    -0.206 F 
ATOM     69  C   UNL A   1      40.239  26.188  27.822  1.00  0.00     0.060 A 
BRANCH  69  70
ATOM     70  S   UNL A   1      40.313  25.076  26.402  1.00  0.00     0.124 S 
ATOM     71  O   UNL A   1      41.185  24.019  26.904  1.00  0.00    -0.237 OA
ATOM     72  O   UNL A   1      38.911  24.709  26.223  1.00  0.00    -0.237 OA
ATOM     73  O   UNL A   1      40.880  25.908  25.346  1.00  0.00    -0.744 OA
ENDBRANCH  69  70
ENDBRANCH  48  62
BRANCH  49  74
ATOM     74  C   UNL A   1      40.369  34.075  37.921  1.00  0.00     0.058 A 
ATOM     75  C   UNL A   1      39.619  33.828  39.081  1.00  0.00     0.135 A 
ATOM     76  C   UNL A   1      41.172  35.227  37.898  1.00  0.00     0.135 A 
ATOM     77  F   UNL A   1      38.832  32.743  39.151  1.00  0.00    -0.206 F 
ATOM     78  C   UNL A   1      39.649  34.695  40.168  1.00  0.00     0.059 A 
ATOM     79  C   UNL A   1      41.240  36.094  38.983  1.00  0.00     0.059 A 
ATOM     80  F   UNL A   1      41.923  35.502  36.819  1.00  0.00    -0.206 F 
ATOM     81  C   UNL A   1      40.465  35.825  40.111  1.00  0.00     0.060 A 
BRANCH  81  82
ATOM     82  S   UNL A   1      40.527  36.922  41.544  1.00  0.00     0.124 S 
ATOM     83  O   UNL A   1      41.793  37.613  41.331  1.00  0.00    -0.237 OA
ATOM     84  O   UNL A   1      39.321  37.724  41.366  1.00  0.00    -0.237 OA
ATOM     85  O   UNL A   1      40.495  35.998  42.675  1.00  0.00    -0.744 OA
ENDBRANCH  81  82
ENDBRANCH  49  74
BRANCH  61  86
ATOM     86  C   UNL A   1      36.227  33.553  32.325  1.00  0.00     0.058 A 
ATOM     87  C   UNL A   1      35.010  33.498  33.020  1.00  0.00     0.135 A 
ATOM     88  C   UNL A   1      36.309  34.408  31.213  1.00  0.00     0.135 A 
ATOM     89  F   UNL A   1      34.875  32.693  34.086  1.00  0.00    -0.206 F 
ATOM     90  C   UNL A   1      33.907  34.243  32.613  1.00  0.00     0.059 A 
ATOM     91  C   UNL A   1      35.229  35.186  30.808  1.00  0.00     0.059 A 
ATOM     92  F   UNL A   1      37.454  34.507  30.519  1.00  0.00    -0.206 F 
ATOM     93  C   UNL A   1      34.028  35.086  31.508  1.00  0.00     0.060 A 
BRANCH  93  94
ATOM     94  S   UNL A   1      32.600  36.073  31.013  1.00  0.00     0.124 S 
ATOM     95  O   UNL A   1      32.442  35.683  29.616  1.00  0.00    -0.237 OA
ATOM     96  O   UNL A   1      31.563  35.598  31.924  1.00  0.00    -0.237 OA
ATOM     97  O   UNL A   1      33.040  37.447  31.236  1.00  0.00    -0.744 OA
ENDBRANCH  93  94
ENDBRANCH  61  86
ENDBRANCH  35  36
ENDBRANCH  27  30
ENDBRANCH  25  26
ENDBRANCH  24  25
ENDBRANCH  23  24
ENDBRANCH   1  23
TORSDOF 22
ENDMDL
MODEL 2
REMARK VINA RESULT:      -8.8      6.634     12.770
REMARK SMILES C=CC[N@@H+](CC(=O)NCCCCCCNC(=O)c1ccc(-c2c3nc(c(-c4c(F)cc(S(=O)(=O)[O-])cc4F)c4ccc([nH]4)c(-c4c(F)cc(S(=O)(=O)[O-])cc4F)c4nc(c(-c5c(F)cc(S(=O)(=O)[O-])cc5F)c5ccc2[nH]5)C=C4)C=C3)cc1)Cc1ccc([N+](=O)[O-])o1
REMARK SMILES IDX 11 1 10 2 9 3 8 4 6 5 7 6 5 8 4 9 3 11 2 12 1 13 84 14 85 15
REMARK SMILES IDX 86 16 92 17 87 18 88 19 89 20 90 21 91 22 12 23 13 24 14 25
REMARK SMILES IDX 15 26 16 27 17 29 18 30 19 31 83 32 20 33 82 34 21 35 22 36
REMARK SMILES IDX 23 37 76 38 24 39 81 40 75 41 77 42 25 43 80 44 74 45 73 46
REMARK SMILES IDX 26 48 60 49 39 50 59 51 40 52 43 53 58 54 78 55 41 56 42 57
REMARK SMILES IDX 57 59 79 60 44 61 27 62 28 63 37 64 29 65 30 66 36 67 38 68
REMARK SMILES IDX 31 69 32 70 33 71 34 72 35 73 61 74 62 75 71 76 63 77 64 78
REMARK SMILES IDX 70 79 72 80 65 81 66 82 67 83 68 84 69 85 45 86 46 87 55 88
REMARK SMILES IDX 47 89 48 90 54 91 56 92 49 93 50 94 51 95 52 96 53 97
REMARK H PARENT 8 7 4 10 15 28 77 47 43 58
REMARK Flexibility Score: inf
ROOT
ATOM      1  C   UNL A   1      34.695  30.663  27.473  1.00  0.00     0.002 C 
ENDROOT
BRANCH   1   2
ATOM      2  C   UNL A   1      33.428  30.489  26.641  1.00  0.00     0.021 C 
BRANCH   2   3
ATOM      3  C   UNL A   1      33.407  29.312  25.652  1.00  0.00     0.116 C 
BRANCH   3   4
ATOM      4  N   UNL A   1      32.549  29.556  24.508  1.00  0.00    -0.351 N 
ATOM      5  C   UNL A   1      32.229  28.769  23.437  1.00  0.00     0.275 C 
ATOM      6  O   UNL A   1      31.456  29.234  22.589  1.00  0.00    -0.269 OA
ATOM      7  H   UNL A   1      32.124  30.444  24.502  1.00  0.00     0.163 HD
BRANCH   5   8
ATOM      8  C   UNL A   1      32.762  27.344  23.281  1.00  0.00     0.364 C 
BRANCH   8   9
ATOM      9  N   UNL A   1      31.770  26.282  23.029  1.00  0.00    -0.318 N 
ATOM     10  H   UNL A   1      31.235  26.631  22.234  1.00  0.00     0.349 HD
BRANCH   9  11
ATOM     11  C   UNL A   1      30.711  26.198  24.005  1.00  0.00     0.291 C 
BRANCH  11  12
ATOM     12  C   UNL A   1      31.076  25.845  25.413  1.00  0.00     0.025 C 
ATOM     13  C   UNL A   1      31.003  26.724  26.424  1.00  0.00     0.010 C 
ENDBRANCH  11  12
ENDBRANCH   9  11
BRANCH   9  14
ATOM     14  C   UNL A   1      32.189  25.103  22.278  1.00  0.00     0.339 C 
BRANCH  14  15
ATOM     15  C   UNL A   1      33.103  24.070  22.876  1.00  0.00     0.165 A 
ATOM     16  C   UNL A   1      34.399  24.183  23.362  1.00  0.00     0.059 A 
ATOM     17  O   UNL A   1      32.641  22.811  23.133  1.00  0.00    -0.400 OA
ATOM     18  C   UNL A   1      34.726  22.949  23.985  1.00  0.00     0.134 A 
ATOM     19  C   UNL A   1      33.601  22.176  23.851  1.00  0.00     0.433 A 
BRANCH  19  20
ATOM     20  N   UNL A   1      33.291  20.872  24.343  1.00  0.00     0.102 N 
ATOM     21  O   UNL A   1      32.228  20.377  23.946  1.00  0.00    -0.256 OA
ATOM     22  O   UNL A   1      34.107  20.321  25.094  1.00  0.00    -0.256 OA
ENDBRANCH  19  20
ENDBRANCH  14  15
ENDBRANCH   9  14
ENDBRANCH   8   9
ENDBRANCH   5   8
ENDBRANCH   3   4
ENDBRANCH   2   3
ENDBRANCH   1   2
BRANCH   1  23
ATOM     23  C   UNL A   1      34.638  31.763  28.526  1.00  0.00     0.002 C 
BRANCH  23  24
ATOM     24  C   UNL A   1      35.719  32.833  28.389  1.00  0.00     0.021 C 
BRANCH  24  25
ATOM     25  C   UNL A   1      36.783  32.799  29.482  1.00  0.00     0.116 C 
BRANCH  25  26
ATOM     26  N   UNL A   1      36.364  31.996  30.622  1.00  0.00    -0.352 N 
ATOM     27  C   UNL A   1      36.861  30.793  31.055  1.00  0.00     0.251 C 
ATOM     28  H   UNL A   1      35.625  32.367  31.155  1.00  0.00     0.163 HD
ATOM     29  O   UNL A   1      36.245  30.124  31.882  1.00  0.00    -0.269 OA
BRANCH  27  30
ATOM     30  C   UNL A   1      38.142  30.309  30.506  1.00  0.00     0.039 A 
ATOM     31  C   UNL A   1      38.287  30.172  29.125  1.00  0.00     0.014 A 
ATOM     32  C   UNL A   1      39.204  30.018  31.366  1.00  0.00     0.014 A 
ATOM     33  C   UNL A   1      39.524  29.797  28.601  1.00  0.00     0.010 A 
ATOM     34  C   UNL A   1      40.456  29.725  30.838  1.00  0.00     0.010 A 
ATOM     35  C   UNL A   1      40.627  29.603  29.452  1.00  0.00    -0.014 A 
BRANCH  35  36
ATOM     36  C   UNL A   1      41.966  29.265  28.909  1.00  0.00     0.031 A 
ATOM     37  C   UNL A   1      42.253  27.865  28.436  1.00  0.00     0.074 A 
ATOM     38  C   UNL A   1      42.936  30.201  28.898  1.00  0.00     0.049 A 
ATOM     39  N   UNL A   1      43.371  27.361  27.983  1.00  0.00    -0.248 NA
ATOM     40  C   UNL A   1      41.146  26.898  28.509  1.00  0.00     0.031 C 
ATOM     41  C   UNL A   1      42.789  31.577  29.377  1.00  0.00     0.029 A 
ATOM     42  N   UNL A   1      44.240  30.136  28.474  1.00  0.00    -0.354 N 
ATOM     43  C   UNL A   1      43.105  26.021  27.726  1.00  0.00     0.074 A 
ATOM     44  C   UNL A   1      41.740  25.775  28.133  1.00  0.00     0.031 C 
ATOM     45  C   UNL A   1      43.947  32.233  29.196  1.00  0.00     0.029 A 
ATOM     46  C   UNL A   1      44.930  31.315  28.628  1.00  0.00     0.049 A 
ATOM     47  H   UNL A   1      44.643  29.322  28.095  1.00  0.00     0.167 HD
ATOM     48  C   UNL A   1      43.917  25.087  27.177  1.00  0.00     0.037 A 
ATOM     49  C   UNL A   1      46.213  31.621  28.351  1.00  0.00     0.037 A 
ATOM     50  C   UNL A   1      45.270  25.348  26.757  1.00  0.00     0.049 A 
ATOM     51  C   UNL A   1      47.100  30.562  27.753  1.00  0.00     0.074 A 
ATOM     52  C   UNL A   1      46.159  24.488  26.140  1.00  0.00     0.029 A 
ATOM     53  N   UNL A   1      45.930  26.558  26.919  1.00  0.00    -0.354 N 
ATOM     54  N   UNL A   1      46.812  29.318  27.452  1.00  0.00    -0.248 NA
ATOM     55  C   UNL A   1      48.484  30.948  27.448  1.00  0.00     0.031 C 
ATOM     56  C   UNL A   1      47.375  25.160  25.977  1.00  0.00     0.029 A 
ATOM     57  C   UNL A   1      47.224  26.459  26.436  1.00  0.00     0.049 A 
ATOM     58  H   UNL A   1      45.537  27.368  27.317  1.00  0.00     0.167 HD
ATOM     59  C   UNL A   1      47.968  28.782  26.896  1.00  0.00     0.074 A 
ATOM     60  C   UNL A   1      48.956  29.842  26.890  1.00  0.00     0.031 C 
ATOM     61  C   UNL A   1      48.194  27.527  26.433  1.00  0.00     0.037 A 
BRANCH  48  62
ATOM     62  C   UNL A   1      43.365  23.699  26.996  1.00  0.00     0.058 A 
ATOM     63  C   UNL A   1      42.927  23.235  25.744  1.00  0.00     0.135 A 
ATOM     64  C   UNL A   1      43.304  22.807  28.078  1.00  0.00     0.135 A 
ATOM     65  F   UNL A   1      42.946  24.048  24.676  1.00  0.00    -0.206 F 
ATOM     66  C   UNL A   1      42.421  21.949  25.579  1.00  0.00     0.059 A 
ATOM     67  C   UNL A   1      42.833  21.506  27.930  1.00  0.00     0.059 A 
ATOM     68  F   UNL A   1      43.708  23.196  29.298  1.00  0.00    -0.206 F 
ATOM     69  C   UNL A   1      42.380  21.091  26.678  1.00  0.00     0.060 A 
BRANCH  69  70
ATOM     70  S   UNL A   1      41.729  19.424  26.445  1.00  0.00     0.124 S 
ATOM     71  O   UNL A   1      42.202  18.755  27.652  1.00  0.00    -0.237 OA
ATOM     72  O   UNL A   1      40.290  19.661  26.374  1.00  0.00    -0.237 OA
ATOM     73  O   UNL A   1      42.352  18.986  25.200  1.00  0.00    -0.744 OA
ENDBRANCH  69  70
ENDBRANCH  48  62
BRANCH  49  74
ATOM     74  C   UNL A   1      46.727  32.990  28.620  1.00  0.00     0.058 A 
ATOM     75  C   UNL A   1      47.274  33.327  29.867  1.00  0.00     0.135 A 
ATOM     76  C   UNL A   1      46.691  33.989  27.633  1.00  0.00     0.135 A 
ATOM     77  F   UNL A   1      47.326  32.410  30.845  1.00  0.00    -0.206 F 
ATOM     78  C   UNL A   1      47.751  34.606  30.134  1.00  0.00     0.059 A 
ATOM     79  C   UNL A   1      47.188  35.267  27.867  1.00  0.00     0.059 A 
ATOM     80  F   UNL A   1      46.194  33.716  26.416  1.00  0.00    -0.206 F 
ATOM     81  C   UNL A   1      47.706  35.569  29.126  1.00  0.00     0.060 A 
BRANCH  81  82
ATOM     82  S   UNL A   1      48.365  37.215  29.470  1.00  0.00     0.124 S 
ATOM     83  O   UNL A   1      47.371  37.742  30.397  1.00  0.00    -0.237 OA
ATOM     84  O   UNL A   1      49.673  36.906  30.040  1.00  0.00    -0.237 OA
ATOM     85  O   UNL A   1      48.398  37.845  28.153  1.00  0.00    -0.744 OA
ENDBRANCH  81  82
ENDBRANCH  49  74
BRANCH  61  86
ATOM     86  C   UNL A   1      49.549  27.238  25.846  1.00  0.00     0.058 A 
ATOM     87  C   UNL A   1      50.625  26.815  26.641  1.00  0.00     0.135 A 
ATOM     88  C   UNL A   1      49.756  27.333  24.459  1.00  0.00     0.135 A 
ATOM     89  F   UNL A   1      50.484  26.712  27.972  1.00  0.00    -0.206 F 
ATOM     90  C   UNL A   1      51.867  26.521  26.085  1.00  0.00     0.059 A 
ATOM     91  C   UNL A   1      50.979  27.013  23.880  1.00  0.00     0.059 A 
ATOM     92  F   UNL A   1      48.756  27.722  23.652  1.00  0.00    -0.206 F 
ATOM     93  C   UNL A   1      52.032  26.620  24.703  1.00  0.00     0.060 A 
BRANCH  93  94
ATOM     94  S   UNL A   1      53.638  26.202  23.993  1.00  0.00     0.124 S 
ATOM     95  O   UNL A   1      54.453  27.334  24.420  1.00  0.00    -0.237 OA
ATOM     96  O   UNL A   1      53.940  24.927  24.635  1.00  0.00    -0.237 OA
ATOM     97  O   UNL A   1      53.369  26.127  22.560  1.00  0.00    -0.744 OA
ENDBRANCH  93  94
ENDBRANCH  61  86
ENDBRANCH  35  36
ENDBRANCH  27  30
ENDBRANCH  25  26
ENDBRANCH  24  25
ENDBRANCH  23  24
ENDBRANCH   1  23
TORSDOF 22
ENDMDL
MODEL 3
REMARK VINA RESULT:      -8.7      6.070     11.327
REMARK SMILES C=CC[N@@H+](CC(=O)NCCCCCCNC(=O)c1ccc(-c2c3nc(c(-c4c(F)cc(S(=O)(=O)[O-])cc4F)c4ccc([nH]4)c(-c4c(F)cc(S(=O)(=O)[O-])cc4F)c4nc(c(-c5c(F)cc(S(=O)(=O)[O-])cc5F)c5ccc2[nH]5)C=C4)C=C3)cc1)Cc1ccc([N+](=O)[O-])o1
REMARK SMILES IDX 11 1 10 2 9 3 8 4 6 5 7 6 5 8 4 9 3 11 2 12 1 13 84 14 85 15
REMARK SMILES IDX 86 16 92 17 87 18 88 19 89 20 90 21 91 22 12 23 13 24 14 25
REMARK SMILES IDX 15 26 16 27 17 29 18 30 19 31 83 32 20 33 82 34 21 35 22 36
REMARK SMILES IDX 23 37 76 38 24 39 81 40 75 41 77 42 25 43 80 44 74 45 73 46
REMARK SMILES IDX 26 48 60 49 39 50 59 51 40 52 43 53 58 54 78 55 41 56 42 57
REMARK SMILES IDX 57 59 79 60 44 61 27 62 28 63 37 64 29 65 30 66 36 67 38 68
REMARK SMILES IDX 31 69 32 70 33 71 34 72 35 73 61 74 62 75 71 76 63 77 64 78
REMARK SMILES IDX 70 79 72 80 65 81 66 82 67 83 68 84 69 85 45 86 46 87 55 88
REMARK SMILES IDX 47 89 48 90 54 91 56 92 49 93 50 94 51 95 52 96 53 97
REMARK H PARENT 8 7 4 10 15 28 77 47 43 58
REMARK Flexibility Score: inf
ROOT
ATOM      1  C   UNL A   1      34.538  23.041  23.418  1.00  0.00     0.002 C 
ENDROOT
BRANCH   1   2
ATOM      2  C   UNL A   1      33.699  24.309  23.549  1.00  0.00     0.021 C 
BRANCH   2   3
ATOM      3  C   UNL A   1      33.276  24.996  22.240  1.00  0.00     0.116 C 
BRANCH   3   4
ATOM      4  N   UNL A   1      33.719  26.374  22.162  1.00  0.00    -0.351 N 
ATOM      5  C   UNL A   1      33.071  27.547  22.438  1.00  0.00     0.275 C 
ATOM      6  O   UNL A   1      33.698  28.603  22.285  1.00  0.00    -0.269 OA
ATOM      7  H   UNL A   1      34.649  26.486  21.858  1.00  0.00     0.163 HD
BRANCH   5   8
ATOM      8  C   UNL A   1      31.632  27.584  22.955  1.00  0.00     0.364 C 
BRANCH   8   9
ATOM      9  N   UNL A   1      31.446  27.645  24.416  1.00  0.00    -0.318 N 
ATOM     10  H   UNL A   1      32.340  27.325  24.790  1.00  0.00     0.349 HD
BRANCH   9  11
ATOM     11  C   UNL A   1      30.586  26.622  24.961  1.00  0.00     0.291 C 
BRANCH  11  12
ATOM     12  C   UNL A   1      29.497  26.078  24.090  1.00  0.00     0.025 C 
ATOM     13  C   UNL A   1      28.345  26.731  23.876  1.00  0.00     0.010 C 
ENDBRANCH  11  12
ENDBRANCH   9  11
BRANCH   9  14
ATOM     14  C   UNL A   1      31.586  28.935  25.082  1.00  0.00     0.339 C 
BRANCH  14  15
ATOM     15  C   UNL A   1      32.725  29.221  26.020  1.00  0.00     0.165 A 
ATOM     16  C   UNL A   1      33.939  28.567  26.194  1.00  0.00     0.059 A 
ATOM     17  O   UNL A   1      32.715  30.349  26.790  1.00  0.00    -0.400 OA
ATOM     18  C   UNL A   1      34.722  29.358  27.074  1.00  0.00     0.134 A 
ATOM     19  C   UNL A   1      33.940  30.447  27.364  1.00  0.00     0.433 A 
BRANCH  19  20
ATOM     20  N   UNL A   1      34.209  31.623  28.127  1.00  0.00     0.102 N 
ATOM     21  O   UNL A   1      33.560  32.633  27.822  1.00  0.00    -0.256 OA
ATOM     22  O   UNL A   1      35.036  31.548  29.046  1.00  0.00    -0.256 OA
ENDBRANCH  19  20
ENDBRANCH  14  15
ENDBRANCH   9  14
ENDBRANCH   8   9
ENDBRANCH   5   8
ENDBRANCH   3   4
ENDBRANCH   2   3
ENDBRANCH   1   2
BRANCH   1  23
ATOM     23  C   UNL A   1      35.064  22.469  24.728  1.00  0.00     0.002 C 
BRANCH  23  24
ATOM     24  C   UNL A   1      35.455  23.516  25.770  1.00  0.00     0.021 C 
BRANCH  24  25
ATOM     25  C   UNL A   1      36.954  23.789  25.857  1.00  0.00     0.116 C 
BRANCH  25  26
ATOM     26  N   UNL A   1      37.714  22.573  26.112  1.00  0.00    -0.352 N 
ATOM     27  C   UNL A   1      39.044  22.439  26.419  1.00  0.00     0.251 C 
ATOM     28  H   UNL A   1      37.204  21.733  26.056  1.00  0.00     0.163 HD
ATOM     29  O   UNL A   1      39.589  21.339  26.364  1.00  0.00    -0.269 OA
BRANCH  27  30
ATOM     30  C   UNL A   1      39.812  23.637  26.808  1.00  0.00     0.039 A 
ATOM     31  C   UNL A   1      39.780  24.766  25.990  1.00  0.00     0.014 A 
ATOM     32  C   UNL A   1      40.541  23.641  28.000  1.00  0.00     0.014 A 
ATOM     33  C   UNL A   1      40.437  25.926  26.400  1.00  0.00     0.010 A 
ATOM     34  C   UNL A   1      41.125  24.821  28.445  1.00  0.00     0.010 A 
ATOM     35  C   UNL A   1      41.086  25.973  27.646  1.00  0.00    -0.014 A 
BRANCH  35  36
ATOM     36  C   UNL A   1      41.737  27.216  28.128  1.00  0.00     0.031 A 
ATOM     37  C   UNL A   1      43.221  27.401  27.961  1.00  0.00     0.074 A 
ATOM     38  C   UNL A   1      41.002  28.148  28.767  1.00  0.00     0.049 A 
ATOM     39  N   UNL A   1      43.980  28.387  28.363  1.00  0.00    -0.248 NA
ATOM     40  C   UNL A   1      43.953  26.322  27.277  1.00  0.00     0.031 C 
ATOM     41  C   UNL A   1      39.564  28.056  29.033  1.00  0.00     0.029 A 
ATOM     42  N   UNL A   1      41.362  29.354  29.316  1.00  0.00    -0.354 N 
ATOM     43  C   UNL A   1      45.275  28.044  27.990  1.00  0.00     0.074 A 
ATOM     44  C   UNL A   1      45.208  26.732  27.387  1.00  0.00     0.031 C 
ATOM     45  C   UNL A   1      39.161  29.168  29.668  1.00  0.00     0.029 A 
ATOM     46  C   UNL A   1      40.315  30.033  29.893  1.00  0.00     0.049 A 
ATOM     47  H   UNL A   1      42.283  29.700  29.297  1.00  0.00     0.167 HD
ATOM     48  C   UNL A   1      46.411  28.769  28.115  1.00  0.00     0.037 A 
ATOM     49  C   UNL A   1      40.290  31.215  30.539  1.00  0.00     0.037 A 
ATOM     50  C   UNL A   1      46.463  30.084  28.700  1.00  0.00     0.049 A 
ATOM     51  C   UNL A   1      41.569  31.997  30.676  1.00  0.00     0.074 A 
ATOM     52  C   UNL A   1      47.553  30.926  28.825  1.00  0.00     0.029 A 
ATOM     53  N   UNL A   1      45.380  30.744  29.263  1.00  0.00    -0.354 N 
ATOM     54  N   UNL A   1      42.773  31.689  30.256  1.00  0.00    -0.248 NA
ATOM     55  C   UNL A   1      41.486  33.290  31.368  1.00  0.00     0.031 C 
ATOM     56  C   UNL A   1      47.141  32.072  29.513  1.00  0.00     0.029 A 
ATOM     57  C   UNL A   1      45.781  31.973  29.761  1.00  0.00     0.049 A 
ATOM     58  H   UNL A   1      44.461  30.391  29.302  1.00  0.00     0.167 HD
ATOM     59  C   UNL A   1      43.585  32.762  30.607  1.00  0.00     0.074 A 
ATOM     60  C   UNL A   1      42.731  33.733  31.261  1.00  0.00     0.031 C 
ATOM     61  C   UNL A   1      44.916  32.930  30.406  1.00  0.00     0.037 A 
BRANCH  48  62
ATOM     62  C   UNL A   1      47.691  28.158  27.608  1.00  0.00     0.058 A 
ATOM     63  C   UNL A   1      48.558  27.449  28.455  1.00  0.00     0.135 A 
ATOM     64  C   UNL A   1      48.037  28.251  26.251  1.00  0.00     0.135 A 
ATOM     65  F   UNL A   1      48.286  27.340  29.765  1.00  0.00    -0.206 F 
ATOM     66  C   UNL A   1      49.737  26.881  27.981  1.00  0.00     0.059 A 
ATOM     67  C   UNL A   1      49.195  27.663  25.749  1.00  0.00     0.059 A 
ATOM     68  F   UNL A   1      47.246  28.918  25.395  1.00  0.00    -0.206 F 
ATOM     69  C   UNL A   1      50.045  26.992  26.626  1.00  0.00     0.060 A 
BRANCH  69  70
ATOM     70  S   UNL A   1      51.574  26.243  26.027  1.00  0.00     0.124 S 
ATOM     71  O   UNL A   1      51.359  26.256  24.584  1.00  0.00    -0.237 OA
ATOM     72  O   UNL A   1      52.588  27.168  26.525  1.00  0.00    -0.237 OA
ATOM     73  O   UNL A   1      51.574  24.923  26.649  1.00  0.00    -0.744 OA
ENDBRANCH  69  70
ENDBRANCH  48  62
BRANCH  49  74
ATOM     74  C   UNL A   1      39.009  31.738  31.085  1.00  0.00     0.058 A 
ATOM     75  C   UNL A   1      38.212  32.622  30.343  1.00  0.00     0.135 A 
ATOM     76  C   UNL A   1      38.550  31.358  32.357  1.00  0.00     0.135 A 
ATOM     77  F   UNL A   1      38.609  33.020  29.125  1.00  0.00    -0.206 F 
ATOM     78  C   UNL A   1      37.016  33.125  30.846  1.00  0.00     0.059 A 
ATOM     79  C   UNL A   1      37.344  31.825  32.870  1.00  0.00     0.059 A 
ATOM     80  F   UNL A   1      39.265  30.501  33.103  1.00  0.00    -0.206 F 
ATOM     81  C   UNL A   1      36.589  32.718  32.111  1.00  0.00     0.060 A 
BRANCH  81  82
ATOM     82  S   UNL A   1      35.015  33.345  32.737  1.00  0.00     0.124 S 
ATOM     83  O   UNL A   1      35.106  33.007  34.152  1.00  0.00    -0.237 OA
ATOM     84  O   UNL A   1      35.101  34.764  32.410  1.00  0.00    -0.237 OA
ATOM     85  O   UNL A   1      34.026  32.592  31.970  1.00  0.00    -0.744 OA
ENDBRANCH  81  82
ENDBRANCH  49  74
BRANCH  61  86
ATOM     86  C   UNL A   1      45.529  34.225  30.865  1.00  0.00     0.058 A 
ATOM     87  C   UNL A   1      46.097  34.364  32.140  1.00  0.00     0.135 A 
ATOM     88  C   UNL A   1      45.596  35.326  29.995  1.00  0.00     0.135 A 
ATOM     89  F   UNL A   1      46.055  33.346  33.015  1.00  0.00    -0.206 F 
ATOM     90  C   UNL A   1      46.688  35.557  32.547  1.00  0.00     0.059 A 
ATOM     91  C   UNL A   1      46.211  36.516  30.368  1.00  0.00     0.059 A 
ATOM     92  F   UNL A   1      45.078  35.243  28.759  1.00  0.00    -0.206 F 
ATOM     93  C   UNL A   1      46.743  36.626  31.651  1.00  0.00     0.060 A 
BRANCH  93  94
ATOM     94  S   UNL A   1      47.544  38.154  32.179  1.00  0.00     0.124 S 
ATOM     95  O   UNL A   1      47.057  39.102  31.182  1.00  0.00    -0.237 OA
ATOM     96  O   UNL A   1      47.018  38.331  33.529  1.00  0.00    -0.237 OA
ATOM     97  O   UNL A   1      48.967  37.839  32.104  1.00  0.00    -0.744 OA
ENDBRANCH  93  94
ENDBRANCH  61  86
ENDBRANCH  35  36
ENDBRANCH  27  30
ENDBRANCH  25  26
ENDBRANCH  24  25
ENDBRANCH  23  24
ENDBRANCH   1  23
TORSDOF 22
ENDMDL
