MODEL 1
REMARK VINA RESULT:     -11.7      0.000      0.000
REMARK SMILES Cc1ccc(NC(=O)c2cccnc2C(=O)NCCCCCCNC(=O)c2ccc(-c3c4nc(c(-c5c(F)cc(S(=O)(=O)[O-])cc5F)c5ccc([nH]5)c(-c5c(F)cc(S(=O)(=O)[O-])cc5F)c5nc(c(-c6c(F)cc(S(=O)(=O)[O-])cc6F)c6ccc3[nH]6)C=C5)C=C4)cc2)nc1
REMARK SMILES IDX 21 1 20 2 19 3 18 4 17 5 15 6 16 7 14 9 9 10 10 11 11 12
REMARK SMILES IDX 13 13 12 14 7 15 6 16 8 18 5 19 1 20 2 21 3 22 94 23 4 24
REMARK SMILES IDX 93 25 22 26 23 27 24 28 25 29 26 31 27 32 28 33 92 34 29 35
REMARK SMILES IDX 91 36 30 37 31 38 32 39 85 40 33 41 90 42 84 43 86 44 34 45
REMARK SMILES IDX 89 46 83 47 82 48 35 50 69 51 48 52 68 53 49 54 52 55 67 56
REMARK SMILES IDX 87 57 50 58 51 59 66 61 88 62 53 63 36 64 37 65 46 66 38 67
REMARK SMILES IDX 39 68 45 69 47 70 40 71 41 72 42 73 43 74 44 75 70 76 71 77
REMARK SMILES IDX 80 78 72 79 73 80 79 81 81 82 74 83 75 84 76 85 77 86 78 87
REMARK SMILES IDX 54 88 55 89 64 90 56 91 57 92 63 93 65 94 58 95 59 96 60 97
REMARK SMILES IDX 61 98 62 99
REMARK H PARENT 17 8 6 17 24 30 86 49 52 60
REMARK Flexibility Score: inf
ROOT
ATOM      1  C   UNL A   1      37.214  22.826  24.709  1.00  0.00     0.002 C 
ENDROOT
BRANCH   1   2
ATOM      2  C   UNL A   1      35.952  23.474  24.132  1.00  0.00     0.002 C 
BRANCH   2   3
ATOM      3  C   UNL A   1      35.054  24.161  25.166  1.00  0.00     0.021 C 
BRANCH   3   4
ATOM      4  C   UNL A   1      34.143  25.250  24.585  1.00  0.00     0.116 C 
BRANCH   4   5
ATOM      5  N   UNL A   1      33.884  26.259  25.591  1.00  0.00    -0.351 N 
ATOM      6  C   UNL A   1      33.060  27.357  25.650  1.00  0.00     0.270 C 
ATOM      7  O   UNL A   1      33.176  28.057  26.664  1.00  0.00    -0.267 OA
ATOM      8  H   UNL A   1      34.413  26.130  26.410  1.00  0.00     0.163 HD
BRANCH   6   9
ATOM      9  C   UNL A   1      31.965  27.680  24.669  1.00  0.00     0.140 A 
ATOM     10  C   UNL A   1      30.701  27.111  24.596  1.00  0.00     0.071 A 
ATOM     11  C   UNL A   1      29.824  27.546  23.580  1.00  0.00     0.018 A 
ATOM     12  C   UNL A   1      30.248  28.470  22.635  1.00  0.00     0.021 A 
ATOM     13  N   UNL A   1      32.367  28.621  23.752  1.00  0.00    -0.250 NA
ATOM     14  C   UNL A   1      31.531  28.957  22.749  1.00  0.00     0.112 A 
BRANCH  10  15
ATOM     15  C   UNL A   1      30.315  25.870  25.280  1.00  0.00     0.259 C 
ATOM     16  N   UNL A   1      29.941  24.826  24.458  1.00  0.00    -0.306 N 
ATOM     17  H   UNL A   1      29.132  24.899  23.902  1.00  0.00     0.171 HD
ATOM     18  O   UNL A   1      30.434  25.807  26.501  1.00  0.00    -0.269 OA
BRANCH  16  19
ATOM     19  C   UNL A   1      30.719  23.658  24.420  1.00  0.00     0.132 A 
ATOM     20  C   UNL A   1      33.590  20.543  24.625  1.00  0.00     0.046 C 
ATOM     21  C   UNL A   1      32.561  21.617  24.493  1.00  0.00    -0.033 A 
ATOM     22  C   UNL A   1      32.308  22.274  23.288  1.00  0.00     0.009 A 
ATOM     23  C   UNL A   1      31.844  22.030  25.605  1.00  0.00     0.117 A 
ATOM     24  C   UNL A   1      31.380  23.317  23.248  1.00  0.00     0.047 A 
ATOM     25  N   UNL A   1      30.940  23.026  25.588  1.00  0.00    -0.239 NA
ENDBRANCH  16  19
ENDBRANCH  10  15
ENDBRANCH   6   9
ENDBRANCH   4   5
ENDBRANCH   3   4
ENDBRANCH   2   3
ENDBRANCH   1   2
BRANCH   1  26
ATOM     26  C   UNL A   1      37.515  23.170  26.172  1.00  0.00     0.021 C 
BRANCH  26  27
ATOM     27  C   UNL A   1      38.393  24.404  26.373  1.00  0.00     0.116 C 
BRANCH  27  28
ATOM     28  N   UNL A   1      39.794  24.113  26.109  1.00  0.00    -0.352 N 
ATOM     29  C   UNL A   1      40.918  24.774  26.535  1.00  0.00     0.251 C 
ATOM     30  H   UNL A   1      39.958  23.325  25.541  1.00  0.00     0.163 HD
ATOM     31  O   UNL A   1      42.000  24.549  25.999  1.00  0.00    -0.269 OA
BRANCH  29  32
ATOM     32  C   UNL A   1      40.827  25.759  27.633  1.00  0.00     0.039 A 
ATOM     33  C   UNL A   1      41.774  26.784  27.708  1.00  0.00     0.014 A 
ATOM     34  C   UNL A   1      39.833  25.651  28.609  1.00  0.00     0.014 A 
ATOM     35  C   UNL A   1      41.695  27.728  28.735  1.00  0.00     0.010 A 
ATOM     36  C   UNL A   1      39.715  26.629  29.592  1.00  0.00     0.010 A 
ATOM     37  C   UNL A   1      40.649  27.673  29.672  1.00  0.00    -0.014 A 
BRANCH  37  38
ATOM     38  C   UNL A   1      40.527  28.684  30.753  1.00  0.00     0.031 A 
ATOM     39  C   UNL A   1      41.382  28.576  31.986  1.00  0.00     0.074 A 
ATOM     40  C   UNL A   1      39.606  29.663  30.650  1.00  0.00     0.049 A 
ATOM     41  N   UNL A   1      41.365  29.306  33.071  1.00  0.00    -0.248 NA
ATOM     42  C   UNL A   1      42.370  27.484  32.015  1.00  0.00     0.031 C 
ATOM     43  C   UNL A   1      38.690  29.849  29.521  1.00  0.00     0.029 A 
ATOM     44  N   UNL A   1      39.278  30.680  31.512  1.00  0.00    -0.354 N 
ATOM     45  C   UNL A   1      42.325  28.758  33.914  1.00  0.00     0.074 A 
ATOM     46  C   UNL A   1      42.870  27.601  33.237  1.00  0.00     0.031 C 
ATOM     47  C   UNL A   1      37.918  30.923  29.753  1.00  0.00     0.029 A 
ATOM     48  C   UNL A   1      38.255  31.480  31.059  1.00  0.00     0.049 A 
ATOM     49  H   UNL A   1      39.732  30.821  32.373  1.00  0.00     0.167 HD
ATOM     50  C   UNL A   1      42.732  29.192  35.131  1.00  0.00     0.037 A 
ATOM     51  C   UNL A   1      37.653  32.538  31.635  1.00  0.00     0.037 A 
ATOM     52  C   UNL A   1      42.205  30.361  35.785  1.00  0.00     0.049 A 
ATOM     53  C   UNL A   1      38.125  33.003  32.987  1.00  0.00     0.074 A 
ATOM     54  C   UNL A   1      42.585  30.914  36.997  1.00  0.00     0.029 A 
ATOM     55  N   UNL A   1      41.191  31.163  35.282  1.00  0.00    -0.354 N 
ATOM     56  N   UNL A   1      39.068  32.501  33.748  1.00  0.00    -0.248 NA
ATOM     57  C   UNL A   1      37.457  34.182  33.557  1.00  0.00     0.031 C 
ATOM     58  C   UNL A   1      41.774  32.026  37.243  1.00  0.00     0.029 A 
ATOM     59  C   UNL A   1      40.921  32.195  36.164  1.00  0.00     0.049 A 
ATOM     60  H   UNL A   1      40.730  31.018  34.424  1.00  0.00     0.167 HD
ATOM     61  C   UNL A   1      39.128  33.320  34.870  1.00  0.00     0.074 A 
ATOM     62  C   UNL A   1      38.132  34.355  34.685  1.00  0.00     0.031 C 
ATOM     63  C   UNL A   1      39.934  33.224  35.957  1.00  0.00     0.037 A 
BRANCH  50  64
ATOM     64  C   UNL A   1      43.807  28.407  35.832  1.00  0.00     0.058 A 
ATOM     65  C   UNL A   1      43.496  27.359  36.712  1.00  0.00     0.135 A 
ATOM     66  C   UNL A   1      45.164  28.675  35.588  1.00  0.00     0.135 A 
ATOM     67  F   UNL A   1      42.215  27.070  36.993  1.00  0.00    -0.206 F 
ATOM     68  C   UNL A   1      44.490  26.619  37.343  1.00  0.00     0.059 A 
ATOM     69  C   UNL A   1      46.176  27.930  36.186  1.00  0.00     0.059 A 
ATOM     70  F   UNL A   1      45.518  29.668  34.756  1.00  0.00    -0.206 F 
ATOM     71  C   UNL A   1      45.828  26.910  37.073  1.00  0.00     0.060 A 
BRANCH  71  72
ATOM     72  S   UNL A   1      47.105  25.928  37.886  1.00  0.00     0.124 S 
ATOM     73  O   UNL A   1      46.330  24.794  38.379  1.00  0.00    -0.237 OA
ATOM     74  O   UNL A   1      48.023  25.640  36.789  1.00  0.00    -0.237 OA
ATOM     75  O   UNL A   1      47.624  26.828  38.912  1.00  0.00    -0.744 OA
ENDBRANCH  71  72
ENDBRANCH  50  64
BRANCH  51  76
ATOM     76  C   UNL A   1      36.550  33.245  30.932  1.00  0.00     0.058 A 
ATOM     77  C   UNL A   1      35.218  33.103  31.350  1.00  0.00     0.135 A 
ATOM     78  C   UNL A   1      36.803  34.074  29.827  1.00  0.00     0.135 A 
ATOM     79  F   UNL A   1      34.925  32.318  32.398  1.00  0.00    -0.206 F 
ATOM     80  C   UNL A   1      34.173  33.736  30.684  1.00  0.00     0.059 A 
ATOM     81  C   UNL A   1      35.778  34.738  29.162  1.00  0.00     0.059 A 
ATOM     82  F   UNL A   1      38.061  34.259  29.398  1.00  0.00    -0.206 F 
ATOM     83  C   UNL A   1      34.464  34.551  29.590  1.00  0.00     0.060 A 
BRANCH  83  84
ATOM     84  S   UNL A   1      33.105  35.395  28.750  1.00  0.00     0.124 S 
ATOM     85  O   UNL A   1      32.528  34.311  27.966  1.00  0.00    -0.237 OA
ATOM     86  O   UNL A   1      32.302  35.874  29.871  1.00  0.00    -0.237 OA
ATOM     87  O   UNL A   1      33.784  36.437  27.985  1.00  0.00    -0.744 OA
ENDBRANCH  83  84
ENDBRANCH  51  76
BRANCH  63  88
ATOM     88  C   UNL A   1      39.803  34.287  37.012  1.00  0.00     0.058 A 
ATOM     89  C   UNL A   1      38.985  34.111  38.138  1.00  0.00     0.135 A 
ATOM     90  C   UNL A   1      40.547  35.474  36.918  1.00  0.00     0.135 A 
ATOM     91  F   UNL A   1      38.248  32.996  38.271  1.00  0.00    -0.206 F 
ATOM     92  C   UNL A   1      38.892  35.085  39.126  1.00  0.00     0.059 A 
ATOM     93  C   UNL A   1      40.490  36.450  37.907  1.00  0.00     0.059 A 
ATOM     94  F   UNL A   1      41.352  35.687  35.865  1.00  0.00    -0.206 F 
ATOM     95  C   UNL A   1      39.651  36.251  39.003  1.00  0.00     0.060 A 
BRANCH  95  96
ATOM     96  S   UNL A   1      39.548  37.493  40.309  1.00  0.00     0.124 S 
ATOM     97  O   UNL A   1      38.679  38.492  39.696  1.00  0.00    -0.237 OA
ATOM     98  O   UNL A   1      38.964  36.737  41.413  1.00  0.00    -0.237 OA
ATOM     99  O   UNL A   1      40.937  37.900  40.501  1.00  0.00    -0.744 OA
ENDBRANCH  95  96
ENDBRANCH  63  88
ENDBRANCH  37  38
ENDBRANCH  29  32
ENDBRANCH  27  28
ENDBRANCH  26  27
ENDBRANCH   1  26
TORSDOF 18
ENDMDL
MODEL 2
REMARK VINA RESULT:     -11.7      4.827     10.225
REMARK SMILES Cc1ccc(NC(=O)c2cccnc2C(=O)NCCCCCCNC(=O)c2ccc(-c3c4nc(c(-c5c(F)cc(S(=O)(=O)[O-])cc5F)c5ccc([nH]5)c(-c5c(F)cc(S(=O)(=O)[O-])cc5F)c5nc(c(-c6c(F)cc(S(=O)(=O)[O-])cc6F)c6ccc3[nH]6)C=C5)C=C4)cc2)nc1
REMARK SMILES IDX 21 1 20 2 19 3 18 4 17 5 15 6 16 7 14 9 9 10 10 11 11 12
REMARK SMILES IDX 13 13 12 14 7 15 6 16 8 18 5 19 1 20 2 21 3 22 94 23 4 24
REMARK SMILES IDX 93 25 22 26 23 27 24 28 25 29 26 31 27 32 28 33 92 34 29 35
REMARK SMILES IDX 91 36 30 37 31 38 32 39 85 40 33 41 90 42 84 43 86 44 34 45
REMARK SMILES IDX 89 46 83 47 82 48 35 50 69 51 48 52 68 53 49 54 52 55 67 56
REMARK SMILES IDX 87 57 50 58 51 59 66 61 88 62 53 63 36 64 37 65 46 66 38 67
REMARK SMILES IDX 39 68 45 69 47 70 40 71 41 72 42 73 43 74 44 75 70 76 71 77
REMARK SMILES IDX 80 78 72 79 73 80 79 81 81 82 74 83 75 84 76 85 77 86 78 87
REMARK SMILES IDX 54 88 55 89 64 90 56 91 57 92 63 93 65 94 58 95 59 96 60 97
REMARK SMILES IDX 61 98 62 99
REMARK H PARENT 17 8 6 17 24 30 86 49 52 60
REMARK Flexibility Score: inf
ROOT
ATOM      1  C   UNL A   1      32.867  28.120  24.512  1.00  0.00     0.002 C 
ENDROOT
BRANCH   1   2
ATOM      2  C   UNL A   1      33.048  27.646  23.068  1.00  0.00     0.002 C 
BRANCH   2   3
ATOM      3  C   UNL A   1      32.237  26.401  22.696  1.00  0.00     0.021 C 
BRANCH   3   4
ATOM      4  C   UNL A   1      33.089  25.188  22.303  1.00  0.00     0.116 C 
BRANCH   4   5
ATOM      5  N   UNL A   1      34.089  24.942  23.321  1.00  0.00    -0.351 N 
ATOM      6  C   UNL A   1      34.047  24.435  24.598  1.00  0.00     0.270 C 
ATOM      7  O   UNL A   1      35.119  24.459  25.216  1.00  0.00    -0.267 OA
ATOM      8  H   UNL A   1      34.997  25.191  23.035  1.00  0.00     0.163 HD
BRANCH   6   9
ATOM      9  C   UNL A   1      32.864  23.748  25.226  1.00  0.00     0.140 A 
ATOM     10  C   UNL A   1      32.533  22.402  25.155  1.00  0.00     0.071 A 
ATOM     11  C   UNL A   1      31.361  21.962  25.805  1.00  0.00     0.018 A 
ATOM     12  C   UNL A   1      30.525  22.872  26.436  1.00  0.00     0.021 A 
ATOM     13  N   UNL A   1      32.051  24.640  25.882  1.00  0.00    -0.250 NA
ATOM     14  C   UNL A   1      30.899  24.197  26.426  1.00  0.00     0.112 A 
BRANCH  10  15
ATOM     15  C   UNL A   1      33.122  21.458  24.197  1.00  0.00     0.259 C 
ATOM     16  N   UNL A   1      34.014  20.547  24.726  1.00  0.00    -0.306 N 
ATOM     17  H   UNL A   1      34.865  20.855  25.113  1.00  0.00     0.171 HD
ATOM     18  O   UNL A   1      32.729  21.475  23.034  1.00  0.00    -0.269 OA
BRANCH  16  19
ATOM     19  C   UNL A   1      33.702  19.178  24.710  1.00  0.00     0.132 A 
ATOM     20  C   UNL A   1      32.859  15.078  25.390  1.00  0.00     0.046 C 
ATOM     21  C   UNL A   1      33.188  16.504  25.094  1.00  0.00    -0.033 A 
ATOM     22  C   UNL A   1      34.419  16.900  24.569  1.00  0.00     0.009 A 
ATOM     23  C   UNL A   1      32.270  17.500  25.384  1.00  0.00     0.117 A 
ATOM     24  C   UNL A   1      34.688  18.258  24.382  1.00  0.00     0.047 A 
ATOM     25  N   UNL A   1      32.504  18.813  25.204  1.00  0.00    -0.239 NA
ENDBRANCH  16  19
ENDBRANCH  10  15
ENDBRANCH   6   9
ENDBRANCH   4   5
ENDBRANCH   3   4
ENDBRANCH   2   3
ENDBRANCH   1   2
BRANCH   1  26
ATOM     26  C   UNL A   1      34.133  28.085  25.375  1.00  0.00     0.021 C 
BRANCH  26  27
ATOM     27  C   UNL A   1      33.890  28.239  26.876  1.00  0.00     0.116 C 
BRANCH  27  28
ATOM     28  N   UNL A   1      33.720  29.634  27.251  1.00  0.00    -0.352 N 
ATOM     29  C   UNL A   1      34.539  30.442  27.999  1.00  0.00     0.251 C 
ATOM     30  H   UNL A   1      32.896  30.060  26.920  1.00  0.00     0.163 HD
ATOM     31  O   UNL A   1      34.112  31.507  28.438  1.00  0.00    -0.269 OA
BRANCH  29  32
ATOM     32  C   UNL A   1      35.931  30.032  28.278  1.00  0.00     0.039 A 
ATOM     33  C   UNL A   1      36.886  30.128  27.262  1.00  0.00     0.014 A 
ATOM     34  C   UNL A   1      36.286  29.516  29.528  1.00  0.00     0.014 A 
ATOM     35  C   UNL A   1      38.208  29.752  27.515  1.00  0.00     0.010 A 
ATOM     36  C   UNL A   1      37.616  29.205  29.799  1.00  0.00     0.010 A 
ATOM     37  C   UNL A   1      38.589  29.311  28.794  1.00  0.00    -0.014 A 
BRANCH  37  38
ATOM     38  C   UNL A   1      39.995  28.938  29.094  1.00  0.00     0.031 A 
ATOM     39  C   UNL A   1      40.928  29.950  29.702  1.00  0.00     0.074 A 
ATOM     40  C   UNL A   1      40.445  27.711  28.765  1.00  0.00     0.049 A 
ATOM     41  N   UNL A   1      42.207  29.846  29.959  1.00  0.00    -0.248 NA
ATOM     42  C   UNL A   1      40.355  31.263  30.041  1.00  0.00     0.031 C 
ATOM     43  C   UNL A   1      39.647  26.657  28.133  1.00  0.00     0.029 A 
ATOM     44  N   UNL A   1      41.689  27.145  28.903  1.00  0.00    -0.354 N 
ATOM     45  C   UNL A   1      42.593  31.077  30.476  1.00  0.00     0.074 A 
ATOM     46  C   UNL A   1      41.425  31.931  30.447  1.00  0.00     0.031 C 
ATOM     47  C   UNL A   1      40.415  25.570  27.956  1.00  0.00     0.029 A 
ATOM     48  C   UNL A   1      41.767  25.858  28.425  1.00  0.00     0.049 A 
ATOM     49  H   UNL A   1      42.452  27.617  29.307  1.00  0.00     0.167 HD
ATOM     50  C   UNL A   1      43.803  31.454  30.953  1.00  0.00     0.037 A 
ATOM     51  C   UNL A   1      42.812  25.011  28.364  1.00  0.00     0.037 A 
ATOM     52  C   UNL A   1      44.952  30.590  31.006  1.00  0.00     0.049 A 
ATOM     53  C   UNL A   1      44.146  25.453  28.903  1.00  0.00     0.074 A 
ATOM     54  C   UNL A   1      46.211  30.860  31.516  1.00  0.00     0.029 A 
ATOM     55  N   UNL A   1      44.984  29.284  30.539  1.00  0.00    -0.354 N 
ATOM     56  N   UNL A   1      44.479  26.606  29.433  1.00  0.00    -0.248 NA
ATOM     57  C   UNL A   1      45.245  24.479  28.843  1.00  0.00     0.031 C 
ATOM     58  C   UNL A   1      47.013  29.732  31.322  1.00  0.00     0.029 A 
ATOM     59  C   UNL A   1      46.243  28.742  30.734  1.00  0.00     0.049 A 
ATOM     60  H   UNL A   1      44.223  28.812  30.128  1.00  0.00     0.167 HD
ATOM     61  C   UNL A   1      45.816  26.484  29.798  1.00  0.00     0.074 A 
ATOM     62  C   UNL A   1      46.228  25.144  29.435  1.00  0.00     0.031 C 
ATOM     63  C   UNL A   1      46.630  27.400  30.379  1.00  0.00     0.037 A 
BRANCH  50  64
ATOM     64  C   UNL A   1      43.946  32.861  31.468  1.00  0.00     0.058 A 
ATOM     65  C   UNL A   1      43.717  33.176  32.816  1.00  0.00     0.135 A 
ATOM     66  C   UNL A   1      44.359  33.898  30.615  1.00  0.00     0.135 A 
ATOM     67  F   UNL A   1      43.305  32.227  33.672  1.00  0.00    -0.206 F 
ATOM     68  C   UNL A   1      43.871  34.472  33.297  1.00  0.00     0.059 A 
ATOM     69  C   UNL A   1      44.546  35.196  31.079  1.00  0.00     0.059 A 
ATOM     70  F   UNL A   1      44.589  33.651  29.315  1.00  0.00    -0.206 F 
ATOM     71  C   UNL A   1      44.288  35.476  32.421  1.00  0.00     0.060 A 
BRANCH  71  72
ATOM     72  S   UNL A   1      44.500  37.149  33.065  1.00  0.00     0.124 S 
ATOM     73  O   UNL A   1      45.628  37.625  32.271  1.00  0.00    -0.237 OA
ATOM     74  O   UNL A   1      43.211  37.764  32.768  1.00  0.00    -0.237 OA
ATOM     75  O   UNL A   1      44.777  36.934  34.483  1.00  0.00    -0.744 OA
ENDBRANCH  71  72
ENDBRANCH  50  64
BRANCH  51  76
ATOM     76  C   UNL A   1      42.638  23.651  27.787  1.00  0.00     0.058 A 
ATOM     77  C   UNL A   1      42.717  23.437  26.403  1.00  0.00     0.135 A 
ATOM     78  C   UNL A   1      42.389  22.539  28.607  1.00  0.00     0.135 A 
ATOM     79  F   UNL A   1      42.948  24.470  25.578  1.00  0.00    -0.206 F 
ATOM     80  C   UNL A   1      42.529  22.175  25.848  1.00  0.00     0.059 A 
ATOM     81  C   UNL A   1      42.225  21.262  28.078  1.00  0.00     0.059 A 
ATOM     82  F   UNL A   1      42.324  22.685  29.940  1.00  0.00    -0.206 F 
ATOM     83  C   UNL A   1      42.283  21.094  26.695  1.00  0.00     0.060 A 
BRANCH  83  84
ATOM     84  S   UNL A   1      42.072  19.453  25.969  1.00  0.00     0.124 S 
ATOM     85  O   UNL A   1      40.630  19.409  25.761  1.00  0.00    -0.237 OA
ATOM     86  O   UNL A   1      42.891  19.543  24.765  1.00  0.00    -0.237 OA
ATOM     87  O   UNL A   1      42.589  18.563  27.005  1.00  0.00    -0.744 OA
ENDBRANCH  83  84
ENDBRANCH  51  76
BRANCH  63  88
ATOM     88  C   UNL A   1      48.036  26.972  30.698  1.00  0.00     0.058 A 
ATOM     89  C   UNL A   1      49.103  27.235  29.826  1.00  0.00     0.135 A 
ATOM     90  C   UNL A   1      48.324  26.338  31.917  1.00  0.00     0.135 A 
ATOM     91  F   UNL A   1      48.878  27.834  28.645  1.00  0.00    -0.206 F 
ATOM     92  C   UNL A   1      50.405  26.865  30.141  1.00  0.00     0.059 A 
ATOM     93  C   UNL A   1      49.623  25.982  32.265  1.00  0.00     0.059 A 
ATOM     94  F   UNL A   1      47.340  26.072  32.791  1.00  0.00    -0.206 F 
ATOM     95  C   UNL A   1      50.656  26.241  31.365  1.00  0.00     0.060 A 
BRANCH  95  96
ATOM     96  S   UNL A   1      52.356  25.796  31.778  1.00  0.00     0.124 S 
ATOM     97  O   UNL A   1      53.033  26.013  30.503  1.00  0.00    -0.237 OA
ATOM     98  O   UNL A   1      52.679  26.747  32.837  1.00  0.00    -0.237 OA
ATOM     99  O   UNL A   1      52.250  24.404  32.205  1.00  0.00    -0.744 OA
ENDBRANCH  95  96
ENDBRANCH  63  88
ENDBRANCH  37  38
ENDBRANCH  29  32
ENDBRANCH  27  28
ENDBRANCH  26  27
ENDBRANCH   1  26
TORSDOF 18
ENDMDL
MODEL 3
REMARK VINA RESULT:     -11.6      6.527     11.944
REMARK SMILES Cc1ccc(NC(=O)c2cccnc2C(=O)NCCCCCCNC(=O)c2ccc(-c3c4nc(c(-c5c(F)cc(S(=O)(=O)[O-])cc5F)c5ccc([nH]5)c(-c5c(F)cc(S(=O)(=O)[O-])cc5F)c5nc(c(-c6c(F)cc(S(=O)(=O)[O-])cc6F)c6ccc3[nH]6)C=C5)C=C4)cc2)nc1
REMARK SMILES IDX 21 1 20 2 19 3 18 4 17 5 15 6 16 7 14 9 9 10 10 11 11 12
REMARK SMILES IDX 13 13 12 14 7 15 6 16 8 18 5 19 1 20 2 21 3 22 94 23 4 24
REMARK SMILES IDX 93 25 22 26 23 27 24 28 25 29 26 31 27 32 28 33 92 34 29 35
REMARK SMILES IDX 91 36 30 37 31 38 32 39 85 40 33 41 90 42 84 43 86 44 34 45
REMARK SMILES IDX 89 46 83 47 82 48 35 50 69 51 48 52 68 53 49 54 52 55 67 56
REMARK SMILES IDX 87 57 50 58 51 59 66 61 88 62 53 63 36 64 37 65 46 66 38 67
REMARK SMILES IDX 39 68 45 69 47 70 40 71 41 72 42 73 43 74 44 75 70 76 71 77
REMARK SMILES IDX 80 78 72 79 73 80 79 81 81 82 74 83 75 84 76 85 77 86 78 87
REMARK SMILES IDX 54 88 55 89 64 90 56 91 57 92 63 93 65 94 58 95 59 96 60 97
REMARK SMILES IDX 61 98 62 99
REMARK H PARENT 17 8 6 17 24 30 86 49 52 60
REMARK Flexibility Score: inf
ROOT
ATOM      1  C   UNL A   1      33.488  30.082  26.468  1.00  0.00     0.002 C 
ENDROOT
BRANCH   1   2
ATOM      2  C   UNL A   1      32.056  29.704  26.858  1.00  0.00     0.002 C 
BRANCH   2   3
ATOM      3  C   UNL A   1      31.875  28.248  27.300  1.00  0.00     0.021 C 
BRANCH   3   4
ATOM      4  C   UNL A   1      32.780  27.250  26.567  1.00  0.00     0.116 C 
BRANCH   4   5
ATOM      5  N   UNL A   1      32.104  25.975  26.443  1.00  0.00    -0.351 N 
ATOM      6  C   UNL A   1      31.532  25.295  25.395  1.00  0.00     0.270 C 
ATOM      7  O   UNL A   1      30.953  24.244  25.694  1.00  0.00    -0.267 OA
ATOM      8  H   UNL A   1      32.041  25.489  27.297  1.00  0.00     0.163 HD
BRANCH   6   9
ATOM      9  C   UNL A   1      31.676  25.654  23.940  1.00  0.00     0.140 A 
ATOM     10  C   UNL A   1      31.044  26.685  23.257  1.00  0.00     0.071 A 
ATOM     11  C   UNL A   1      31.305  26.840  21.880  1.00  0.00     0.018 A 
ATOM     12  C   UNL A   1      32.120  25.934  21.214  1.00  0.00     0.021 A 
ATOM     13  N   UNL A   1      32.511  24.782  23.283  1.00  0.00    -0.250 NA
ATOM     14  C   UNL A   1      32.677  24.913  21.951  1.00  0.00     0.112 A 
BRANCH  10  15
ATOM     15  C   UNL A   1      29.884  27.423  23.772  1.00  0.00     0.259 C 
ATOM     16  N   UNL A   1      30.082  28.773  23.988  1.00  0.00    -0.306 N 
ATOM     17  H   UNL A   1      30.718  29.075  24.675  1.00  0.00     0.171 HD
ATOM     18  O   UNL A   1      28.812  26.834  23.888  1.00  0.00    -0.269 OA
BRANCH  16  19
ATOM     19  C   UNL A   1      29.372  29.711  23.223  1.00  0.00     0.132 A 
ATOM     20  C   UNL A   1      27.879  32.692  20.601  1.00  0.00     0.046 C 
ATOM     21  C   UNL A   1      28.364  31.665  21.572  1.00  0.00    -0.033 A 
ATOM     22  C   UNL A   1      28.566  31.943  22.924  1.00  0.00     0.009 A 
ATOM     23  C   UNL A   1      28.675  30.389  21.131  1.00  0.00     0.117 A 
ATOM     24  C   UNL A   1      29.087  30.957  23.764  1.00  0.00     0.047 A 
ATOM     25  N   UNL A   1      29.170  29.421  21.923  1.00  0.00    -0.239 NA
ENDBRANCH  16  19
ENDBRANCH  10  15
ENDBRANCH   6   9
ENDBRANCH   4   5
ENDBRANCH   3   4
ENDBRANCH   2   3
ENDBRANCH   1   2
BRANCH   1  26
ATOM     26  C   UNL A   1      34.223  30.980  27.469  1.00  0.00     0.021 C 
BRANCH  26  27
ATOM     27  C   UNL A   1      35.305  30.276  28.285  1.00  0.00     0.116 C 
BRANCH  27  28
ATOM     28  N   UNL A   1      35.383  30.803  29.639  1.00  0.00    -0.352 N 
ATOM     29  C   UNL A   1      36.393  30.695  30.561  1.00  0.00     0.251 C 
ATOM     30  H   UNL A   1      34.594  31.311  29.937  1.00  0.00     0.163 HD
ATOM     31  O   UNL A   1      36.178  30.970  31.739  1.00  0.00    -0.269 OA
BRANCH  29  32
ATOM     32  C   UNL A   1      37.736  30.244  30.140  1.00  0.00     0.039 A 
ATOM     33  C   UNL A   1      38.107  30.372  28.799  1.00  0.00     0.014 A 
ATOM     34  C   UNL A   1      38.614  29.661  31.058  1.00  0.00     0.014 A 
ATOM     35  C   UNL A   1      39.377  29.959  28.388  1.00  0.00     0.010 A 
ATOM     36  C   UNL A   1      39.902  29.311  30.661  1.00  0.00     0.010 A 
ATOM     37  C   UNL A   1      40.294  29.448  29.321  1.00  0.00    -0.014 A 
BRANCH  37  38
ATOM     38  C   UNL A   1      41.661  29.033  28.913  1.00  0.00     0.031 A 
ATOM     39  C   UNL A   1      42.771  30.048  28.863  1.00  0.00     0.074 A 
ATOM     40  C   UNL A   1      41.887  27.761  28.531  1.00  0.00     0.049 A 
ATOM     41  N   UNL A   1      44.005  29.904  28.453  1.00  0.00    -0.248 NA
ATOM     42  C   UNL A   1      42.444  31.414  29.306  1.00  0.00     0.031 C 
ATOM     43  C   UNL A   1      40.882  26.695  28.497  1.00  0.00     0.029 A 
ATOM     44  N   UNL A   1      43.032  27.148  28.085  1.00  0.00    -0.354 N 
ATOM     45  C   UNL A   1      44.597  31.156  28.577  1.00  0.00     0.074 A 
ATOM     46  C   UNL A   1      43.571  32.061  29.049  1.00  0.00     0.031 C 
ATOM     47  C   UNL A   1      41.458  25.560  28.072  1.00  0.00     0.029 A 
ATOM     48  C   UNL A   1      42.861  25.821  27.767  1.00  0.00     0.049 A 
ATOM     49  H   UNL A   1      43.893  27.616  28.000  1.00  0.00     0.167 HD
ATOM     50  C   UNL A   1      45.881  31.513  28.341  1.00  0.00     0.037 A 
ATOM     51  C   UNL A   1      43.735  24.920  27.279  1.00  0.00     0.037 A 
ATOM     52  C   UNL A   1      46.902  30.601  27.899  1.00  0.00     0.049 A 
ATOM     53  C   UNL A   1      45.158  25.342  27.027  1.00  0.00     0.074 A 
ATOM     54  C   UNL A   1      48.246  30.853  27.678  1.00  0.00     0.029 A 
ATOM     55  N   UNL A   1      46.698  29.258  27.616  1.00  0.00    -0.354 N 
ATOM     56  N   UNL A   1      45.710  26.520  27.196  1.00  0.00    -0.248 NA
ATOM     57  C   UNL A   1      46.079  24.312  26.525  1.00  0.00     0.031 C 
ATOM     58  C   UNL A   1      48.844  29.673  27.226  1.00  0.00     0.029 A 
ATOM     59  C   UNL A   1      47.885  28.673  27.209  1.00  0.00     0.049 A 
ATOM     60  H   UNL A   1      45.834  28.790  27.694  1.00  0.00     0.167 HD
ATOM     61  C   UNL A   1      47.049  26.365  26.852  1.00  0.00     0.074 A 
ATOM     62  C   UNL A   1      47.225  24.978  26.473  1.00  0.00     0.031 C 
ATOM     63  C   UNL A   1      48.043  27.287  26.849  1.00  0.00     0.037 A 
BRANCH  50  64
ATOM     64  C   UNL A   1      46.261  32.952  28.566  1.00  0.00     0.058 A 
ATOM     65  C   UNL A   1      46.719  33.404  29.813  1.00  0.00     0.135 A 
ATOM     66  C   UNL A   1      46.209  33.880  27.513  1.00  0.00     0.135 A 
ATOM     67  F   UNL A   1      46.773  32.563  30.859  1.00  0.00    -0.206 F 
ATOM     68  C   UNL A   1      47.091  34.729  30.015  1.00  0.00     0.059 A 
ATOM     69  C   UNL A   1      46.603  35.204  27.685  1.00  0.00     0.059 A 
ATOM     70  F   UNL A   1      45.777  33.501  26.299  1.00  0.00    -0.206 F 
ATOM     71  C   UNL A   1      47.031  35.622  28.945  1.00  0.00     0.060 A 
BRANCH  71  72
ATOM     72  S   UNL A   1      47.535  37.333  29.220  1.00  0.00     0.124 S 
ATOM     73  O   UNL A   1      48.088  37.260  30.569  1.00  0.00    -0.237 OA
ATOM     74  O   UNL A   1      48.503  37.549  28.149  1.00  0.00    -0.237 OA
ATOM     75  O   UNL A   1      46.287  38.079  29.092  1.00  0.00    -0.744 OA
ENDBRANCH  71  72
ENDBRANCH  50  64
BRANCH  51  76
ATOM     76  C   UNL A   1      43.298  23.524  27.011  1.00  0.00     0.058 A 
ATOM     77  C   UNL A   1      43.047  23.084  25.703  1.00  0.00     0.135 A 
ATOM     78  C   UNL A   1      43.120  22.603  28.056  1.00  0.00     0.135 A 
ATOM     79  F   UNL A   1      43.198  23.928  24.671  1.00  0.00    -0.206 F 
ATOM     80  C   UNL A   1      42.611  21.789  25.440  1.00  0.00     0.059 A 
ATOM     81  C   UNL A   1      42.711  21.295  27.816  1.00  0.00     0.059 A 
ATOM     82  F   UNL A   1      43.365  22.968  29.324  1.00  0.00    -0.206 F 
ATOM     83  C   UNL A   1      42.445  20.902  26.505  1.00  0.00     0.060 A 
BRANCH  83  84
ATOM     84  S   UNL A   1      41.909  19.213  26.153  1.00  0.00     0.124 S 
ATOM     85  O   UNL A   1      42.724  18.884  24.991  1.00  0.00    -0.237 OA
ATOM     86  O   UNL A   1      42.249  18.520  27.392  1.00  0.00    -0.237 OA
ATOM     87  O   UNL A   1      40.479  19.364  25.902  1.00  0.00    -0.744 OA
ENDBRANCH  83  84
ENDBRANCH  51  76
BRANCH  63  88
ATOM     88  C   UNL A   1      49.419  26.820  26.462  1.00  0.00     0.058 A 
ATOM     89  C   UNL A   1      50.306  26.279  27.405  1.00  0.00     0.135 A 
ATOM     90  C   UNL A   1      49.831  26.866  25.121  1.00  0.00     0.135 A 
ATOM     91  F   UNL A   1      49.961  26.219  28.701  1.00  0.00    -0.206 F 
ATOM     92  C   UNL A   1      51.566  25.820  27.035  1.00  0.00     0.059 A 
ATOM     93  C   UNL A   1      51.076  26.388  24.725  1.00  0.00     0.059 A 
ATOM     94  F   UNL A   1      49.016  27.365  24.179  1.00  0.00    -0.206 F 
ATOM     95  C   UNL A   1      51.941  25.876  25.691  1.00  0.00     0.060 A 
BRANCH  95  96
ATOM     96  S   UNL A   1      53.565  25.245  25.219  1.00  0.00     0.124 S 
ATOM     97  O   UNL A   1      53.699  25.766  23.862  1.00  0.00    -0.237 OA
ATOM     98  O   UNL A   1      54.438  25.849  26.220  1.00  0.00    -0.237 OA
ATOM     99  O   UNL A   1      53.410  23.797  25.323  1.00  0.00    -0.744 OA
ENDBRANCH  95  96
ENDBRANCH  63  88
ENDBRANCH  37  38
ENDBRANCH  29  32
ENDBRANCH  27  28
ENDBRANCH  26  27
ENDBRANCH   1  26
TORSDOF 18
ENDMDL
