MODEL 1
REMARK VINA RESULT:     -11.1      0.000      0.000
REMARK SMILES CC(C)(C)c1cc2c(cc1Cl)C=C(C(=O)NCCCCCCNC(=O)c1ccc(-c3c4nc(c(-c5c(F)cc(S(=O)(=O)[O-])cc5F)c5ccc([nH]5)c(-c5c(F)cc(S(=O)(=O)[O-])cc5F)c5nc(c(-c6c(F)cc(S(=O)(=O)[O-])cc6F)c6ccc3[nH]6)C=C5)C=C4)cc1)[C@H](C(F)(F)F)O2
REMARK SMILES IDX 20 1 19 2 18 3 17 4 16 5 14 6 15 7 13 9 5 10 6 11 10 12 7 13
REMARK SMILES IDX 9 14 11 15 8 16 97 17 12 18 92 19 2 20 1 21 3 22 4 23 93 24
REMARK SMILES IDX 94 25 95 26 96 27 21 28 22 29 23 30 24 31 25 33 26 34 27 35
REMARK SMILES IDX 91 36 28 37 90 38 29 39 30 40 31 41 84 42 32 43 89 44 83 45
REMARK SMILES IDX 85 46 33 47 88 48 82 49 81 50 34 52 68 53 47 54 67 55 48 56
REMARK SMILES IDX 51 57 66 58 86 59 49 60 50 61 65 63 87 64 52 65 35 66 36 67
REMARK SMILES IDX 45 68 37 69 38 70 44 71 46 72 39 73 40 74 41 75 42 76 43 77
REMARK SMILES IDX 69 78 70 79 79 80 71 81 72 82 78 83 80 84 73 85 74 86 75 87
REMARK SMILES IDX 76 88 77 89 53 90 54 91 63 92 55 93 56 94 62 95 64 96 57 97
REMARK SMILES IDX 58 98 59 99 60 100 61 101
REMARK H PARENT 16 8 23 32 85 51 51 62
REMARK Flexibility Score: inf
ROOT
ATOM      1  C   UNL A   1      39.385  23.664  26.505  1.00  0.00     0.002 C 
ENDROOT
BRANCH   1   2
ATOM      2  C   UNL A   1      38.007  23.267  25.963  1.00  0.00     0.002 C 
BRANCH   2   3
ATOM      3  C   UNL A   1      37.876  21.817  25.488  1.00  0.00     0.021 C 
BRANCH   3   4
ATOM      4  C   UNL A   1      36.462  21.416  25.072  1.00  0.00     0.116 C 
BRANCH   4   5
ATOM      5  N   UNL A   1      35.588  21.268  26.221  1.00  0.00    -0.352 N 
ATOM      6  C   UNL A   1      34.420  21.790  26.663  1.00  0.00     0.251 C 
ATOM      7  O   UNL A   1      34.037  21.357  27.757  1.00  0.00    -0.270 OA
ATOM      8  H   UNL A   1      35.942  20.602  26.855  1.00  0.00     0.163 HD
BRANCH   6   9
ATOM      9  C   UNL A   1      33.590  22.806  25.945  1.00  0.00     0.067 C 
ATOM     10  C   UNL A   1      31.638  27.183  24.214  1.00  0.00    -0.020 A 
ATOM     11  C   UNL A   1      31.228  25.832  24.257  1.00  0.00     0.053 A 
ATOM     12  C   UNL A   1      32.897  27.465  24.798  1.00  0.00     0.045 A 
ATOM     13  C   UNL A   1      32.009  24.834  24.843  1.00  0.00     0.128 A 
ATOM     14  C   UNL A   1      33.667  26.455  25.407  1.00  0.00     0.032 A 
ATOM     15  Cl  UNL A   1      33.630  29.033  24.825  1.00  0.00    -0.084 Cl
ATOM     16  C   UNL A   1      33.223  25.136  25.435  1.00  0.00     0.019 A 
ATOM     17  O   UNL A   1      31.482  23.576  24.835  1.00  0.00    -0.475 OA
ATOM     18  C   UNL A   1      33.978  24.086  26.102  1.00  0.00     0.025 C 
ATOM     19  C   UNL A   1      32.409  22.482  25.071  1.00  0.00     0.314 C 
BRANCH  10  20
ATOM     20  C   UNL A   1      30.715  28.233  23.546  1.00  0.00    -0.012 C 
ATOM     21  C   UNL A   1      30.580  29.551  24.363  1.00  0.00     0.016 C 
ATOM     22  C   UNL A   1      29.283  27.675  23.412  1.00  0.00     0.016 C 
ATOM     23  C   UNL A   1      31.260  28.671  22.168  1.00  0.00     0.016 C 
ENDBRANCH  10  20
BRANCH  19  24
ATOM     24  C   UNL A   1      32.818  21.854  23.725  1.00  0.00     0.429 C 
ATOM     25  F   UNL A   1      33.906  22.481  23.216  1.00  0.00    -0.167 F 
ATOM     26  F   UNL A   1      33.121  20.540  23.833  1.00  0.00    -0.167 F 
ATOM     27  F   UNL A   1      31.845  21.949  22.788  1.00  0.00    -0.167 F 
ENDBRANCH  19  24
ENDBRANCH   6   9
ENDBRANCH   4   5
ENDBRANCH   3   4
ENDBRANCH   2   3
ENDBRANCH   1   2
BRANCH   1  28
ATOM     28  C   UNL A   1      39.601  25.162  26.732  1.00  0.00     0.021 C 
BRANCH  28  29
ATOM     29  C   UNL A   1      40.603  25.817  25.787  1.00  0.00     0.116 C 
BRANCH  29  30
ATOM     30  N   UNL A   1      41.873  25.111  25.749  1.00  0.00    -0.352 N 
ATOM     31  C   UNL A   1      42.974  25.265  26.562  1.00  0.00     0.251 C 
ATOM     32  H   UNL A   1      41.959  24.429  25.044  1.00  0.00     0.163 HD
ATOM     33  O   UNL A   1      44.027  24.704  26.295  1.00  0.00    -0.269 OA
BRANCH  31  34
ATOM     34  C   UNL A   1      42.874  26.146  27.747  1.00  0.00     0.039 A 
ATOM     35  C   UNL A   1      42.366  25.655  28.952  1.00  0.00     0.014 A 
ATOM     36  C   UNL A   1      43.248  27.487  27.631  1.00  0.00     0.014 A 
ATOM     37  C   UNL A   1      42.084  26.538  29.989  1.00  0.00     0.010 A 
ATOM     38  C   UNL A   1      43.032  28.358  28.702  1.00  0.00     0.010 A 
ATOM     39  C   UNL A   1      42.401  27.901  29.872  1.00  0.00    -0.014 A 
BRANCH  39  40
ATOM     40  C   UNL A   1      42.047  28.837  30.969  1.00  0.00     0.031 A 
ATOM     41  C   UNL A   1      40.827  29.716  30.859  1.00  0.00     0.074 A 
ATOM     42  C   UNL A   1      42.794  28.857  32.090  1.00  0.00     0.049 A 
ATOM     43  N   UNL A   1      40.376  30.610  31.702  1.00  0.00    -0.248 NA
ATOM     44  C   UNL A   1      40.008  29.573  29.645  1.00  0.00     0.031 C 
ATOM     45  C   UNL A   1      43.982  28.034  32.324  1.00  0.00     0.029 A 
ATOM     46  N   UNL A   1      42.655  29.579  33.247  1.00  0.00    -0.354 N 
ATOM     47  C   UNL A   1      39.236  31.147  31.117  1.00  0.00     0.074 A 
ATOM     48  C   UNL A   1      39.076  30.497  29.834  1.00  0.00     0.031 C 
ATOM     49  C   UNL A   1      44.436  28.263  33.565  1.00  0.00     0.029 A 
ATOM     50  C   UNL A   1      43.613  29.293  34.191  1.00  0.00     0.049 A 
ATOM     51  H   UNL A   1      41.939  30.239  33.389  1.00  0.00     0.167 HD
ATOM     52  C   UNL A   1      38.393  32.088  31.609  1.00  0.00     0.037 A 
ATOM     53  C   UNL A   1      43.818  29.812  35.415  1.00  0.00     0.037 A 
ATOM     54  C   UNL A   1      38.546  32.716  32.896  1.00  0.00     0.049 A 
ATOM     55  C   UNL A   1      42.899  30.887  35.917  1.00  0.00     0.074 A 
ATOM     56  C   UNL A   1      37.743  33.679  33.485  1.00  0.00     0.029 A 
ATOM     57  N   UNL A   1      39.564  32.441  33.797  1.00  0.00    -0.354 N 
ATOM     58  N   UNL A   1      41.843  31.405  35.336  1.00  0.00    -0.248 NA
ATOM     59  C   UNL A   1      43.206  31.460  37.234  1.00  0.00     0.031 C 
ATOM     60  C   UNL A   1      38.294  34.009  34.728  1.00  0.00     0.029 A 
ATOM     61  C   UNL A   1      39.418  33.224  34.931  1.00  0.00     0.049 A 
ATOM     62  H   UNL A   1      40.285  31.786  33.652  1.00  0.00     0.167 HD
ATOM     63  C   UNL A   1      41.357  32.363  36.217  1.00  0.00     0.074 A 
ATOM     64  C   UNL A   1      42.221  32.336  37.381  1.00  0.00     0.031 C 
ATOM     65  C   UNL A   1      40.296  33.194  36.074  1.00  0.00     0.037 A 
BRANCH  52  66
ATOM     66  C   UNL A   1      37.233  32.505  30.749  1.00  0.00     0.058 A 
ATOM     67  C   UNL A   1      35.969  31.907  30.877  1.00  0.00     0.135 A 
ATOM     68  C   UNL A   1      37.372  33.547  29.818  1.00  0.00     0.135 A 
ATOM     69  F   UNL A   1      35.786  30.893  31.738  1.00  0.00    -0.206 F 
ATOM     70  C   UNL A   1      34.889  32.315  30.100  1.00  0.00     0.059 A 
ATOM     71  C   UNL A   1      36.300  33.987  29.045  1.00  0.00     0.059 A 
ATOM     72  F   UNL A   1      38.559  34.153  29.654  1.00  0.00    -0.206 F 
ATOM     73  C   UNL A   1      35.065  33.356  29.186  1.00  0.00     0.060 A 
BRANCH  73  74
ATOM     74  S   UNL A   1      33.650  33.874  28.191  1.00  0.00     0.124 S 
ATOM     75  O   UNL A   1      34.282  34.783  27.238  1.00  0.00    -0.237 OA
ATOM     76  O   UNL A   1      33.176  32.609  27.640  1.00  0.00    -0.237 OA
ATOM     77  O   UNL A   1      32.762  34.504  29.162  1.00  0.00    -0.744 OA
ENDBRANCH  73  74
ENDBRANCH  52  66
BRANCH  53  78
ATOM     78  C   UNL A   1      44.950  29.321  36.243  1.00  0.00     0.058 A 
ATOM     79  C   UNL A   1      44.790  28.228  37.106  1.00  0.00     0.135 A 
ATOM     80  C   UNL A   1      46.221  29.910  36.156  1.00  0.00     0.135 A 
ATOM     81  F   UNL A   1      43.591  27.640  37.227  1.00  0.00    -0.206 F 
ATOM     82  C   UNL A   1      45.852  27.734  37.856  1.00  0.00     0.059 A 
ATOM     83  C   UNL A   1      47.304  29.418  36.878  1.00  0.00     0.059 A 
ATOM     84  F   UNL A   1      46.427  30.950  35.334  1.00  0.00    -0.206 F 
ATOM     85  C   UNL A   1      47.107  28.332  37.729  1.00  0.00     0.060 A 
BRANCH  85  86
ATOM     86  S   UNL A   1      48.495  27.637  38.652  1.00  0.00     0.124 S 
ATOM     87  O   UNL A   1      48.085  27.884  40.029  1.00  0.00    -0.237 OA
ATOM     88  O   UNL A   1      48.481  26.242  38.221  1.00  0.00    -0.237 OA
ATOM     89  O   UNL A   1      49.636  28.418  38.181  1.00  0.00    -0.744 OA
ENDBRANCH  85  86
ENDBRANCH  53  78
BRANCH  65  90
ATOM     90  C   UNL A   1      40.011  34.141  37.205  1.00  0.00     0.058 A 
ATOM     91  C   UNL A   1      39.178  33.772  38.272  1.00  0.00     0.135 A 
ATOM     92  C   UNL A   1      40.599  35.415  37.238  1.00  0.00     0.135 A 
ATOM     93  F   UNL A   1      38.587  32.567  38.283  1.00  0.00    -0.206 F 
ATOM     94  C   UNL A   1      38.918  34.643  39.324  1.00  0.00     0.059 A 
ATOM     95  C   UNL A   1      40.371  36.295  38.292  1.00  0.00     0.059 A 
ATOM     96  F   UNL A   1      41.410  35.811  36.245  1.00  0.00    -0.206 F 
ATOM     97  C   UNL A   1      39.519  35.904  39.324  1.00  0.00     0.060 A 
BRANCH  97  98
ATOM     98  S   UNL A   1      39.188  37.020  40.705  1.00  0.00     0.124 S 
ATOM     99  O   UNL A   1      40.536  37.439  41.074  1.00  0.00    -0.237 OA
ATOM    100  O   UNL A   1      38.351  38.043  40.086  1.00  0.00    -0.237 OA
ATOM    101  O   UNL A   1      38.508  36.166  41.675  1.00  0.00    -0.744 OA
ENDBRANCH  97  98
ENDBRANCH  65  90
ENDBRANCH  39  40
ENDBRANCH  31  34
ENDBRANCH  29  30
ENDBRANCH  28  29
ENDBRANCH   1  28
TORSDOF 18
ENDMDL
MODEL 2
REMARK VINA RESULT:     -11.0      2.728      8.569
REMARK SMILES CC(C)(C)c1cc2c(cc1Cl)C=C(C(=O)NCCCCCCNC(=O)c1ccc(-c3c4nc(c(-c5c(F)cc(S(=O)(=O)[O-])cc5F)c5ccc([nH]5)c(-c5c(F)cc(S(=O)(=O)[O-])cc5F)c5nc(c(-c6c(F)cc(S(=O)(=O)[O-])cc6F)c6ccc3[nH]6)C=C5)C=C4)cc1)[C@H](C(F)(F)F)O2
REMARK SMILES IDX 20 1 19 2 18 3 17 4 16 5 14 6 15 7 13 9 5 10 6 11 10 12 7 13
REMARK SMILES IDX 9 14 11 15 8 16 97 17 12 18 92 19 2 20 1 21 3 22 4 23 93 24
REMARK SMILES IDX 94 25 95 26 96 27 21 28 22 29 23 30 24 31 25 33 26 34 27 35
REMARK SMILES IDX 91 36 28 37 90 38 29 39 30 40 31 41 84 42 32 43 89 44 83 45
REMARK SMILES IDX 85 46 33 47 88 48 82 49 81 50 34 52 68 53 47 54 67 55 48 56
REMARK SMILES IDX 51 57 66 58 86 59 49 60 50 61 65 63 87 64 52 65 35 66 36 67
REMARK SMILES IDX 45 68 37 69 38 70 44 71 46 72 39 73 40 74 41 75 42 76 43 77
REMARK SMILES IDX 69 78 70 79 79 80 71 81 72 82 78 83 80 84 73 85 74 86 75 87
REMARK SMILES IDX 76 88 77 89 53 90 54 91 63 92 55 93 56 94 62 95 64 96 57 97
REMARK SMILES IDX 58 98 59 99 60 100 61 101
REMARK H PARENT 16 8 23 32 85 51 51 62
REMARK Flexibility Score: inf
ROOT
ATOM      1  C   UNL A   1      35.055  30.277  27.576  1.00  0.00     0.002 C 
ENDROOT
BRANCH   1   2
ATOM      2  C   UNL A   1      33.865  29.366  27.252  1.00  0.00     0.002 C 
BRANCH   2   3
ATOM      3  C   UNL A   1      33.596  29.133  25.763  1.00  0.00     0.021 C 
BRANCH   3   4
ATOM      4  C   UNL A   1      33.785  27.688  25.307  1.00  0.00     0.116 C 
BRANCH   4   5
ATOM      5  N   UNL A   1      33.821  27.585  23.859  1.00  0.00    -0.352 N 
ATOM      6  C   UNL A   1      33.664  26.622  22.921  1.00  0.00     0.251 C 
ATOM      7  O   UNL A   1      33.803  27.005  21.753  1.00  0.00    -0.270 OA
ATOM      8  H   UNL A   1      34.011  28.457  23.444  1.00  0.00     0.163 HD
BRANCH   6   9
ATOM      9  C   UNL A   1      33.339  25.186  23.188  1.00  0.00     0.067 C 
ATOM     10  C   UNL A   1      33.683  20.200  24.180  1.00  0.00    -0.020 A 
ATOM     11  C   UNL A   1      32.689  21.074  23.687  1.00  0.00     0.053 A 
ATOM     12  C   UNL A   1      34.932  20.795  24.482  1.00  0.00     0.045 A 
ATOM     13  C   UNL A   1      32.920  22.438  23.499  1.00  0.00     0.128 A 
ATOM     14  C   UNL A   1      35.164  22.167  24.269  1.00  0.00     0.032 A 
ATOM     15  Cl  UNL A   1      36.284  19.939  25.141  1.00  0.00    -0.084 Cl
ATOM     16  C   UNL A   1      34.159  22.993  23.773  1.00  0.00     0.019 A 
ATOM     17  O   UNL A   1      31.880  23.161  22.995  1.00  0.00    -0.475 OA
ATOM     18  C   UNL A   1      34.390  24.403  23.498  1.00  0.00     0.025 C 
ATOM     19  C   UNL A   1      31.953  24.604  23.157  1.00  0.00     0.314 C 
BRANCH  10  20
ATOM     20  C   UNL A   1      33.348  18.698  24.359  1.00  0.00    -0.012 C 
ATOM     21  C   UNL A   1      34.589  17.767  24.239  1.00  0.00     0.016 C 
ATOM     22  C   UNL A   1      32.369  18.235  23.261  1.00  0.00     0.016 C 
ATOM     23  C   UNL A   1      32.768  18.411  25.762  1.00  0.00     0.016 C 
ENDBRANCH  10  20
BRANCH  19  24
ATOM     24  C   UNL A   1      31.098  25.030  24.366  1.00  0.00     0.429 C 
ATOM     25  F   UNL A   1      29.934  24.335  24.397  1.00  0.00    -0.167 F 
ATOM     26  F   UNL A   1      31.726  24.821  25.547  1.00  0.00    -0.167 F 
ATOM     27  F   UNL A   1      30.764  26.341  24.334  1.00  0.00    -0.167 F 
ENDBRANCH  19  24
ENDBRANCH   6   9
ENDBRANCH   4   5
ENDBRANCH   3   4
ENDBRANCH   2   3
ENDBRANCH   1   2
BRANCH   1  28
ATOM     28  C   UNL A   1      34.746  31.774  27.636  1.00  0.00     0.021 C 
BRANCH  28  29
ATOM     29  C   UNL A   1      33.270  32.118  27.813  1.00  0.00     0.116 C 
BRANCH  29  30
ATOM     30  N   UNL A   1      33.035  33.552  27.854  1.00  0.00    -0.352 N 
ATOM     31  C   UNL A   1      33.592  34.498  28.686  1.00  0.00     0.251 C 
ATOM     32  H   UNL A   1      32.387  33.894  27.197  1.00  0.00     0.163 HD
ATOM     33  O   UNL A   1      33.165  35.643  28.697  1.00  0.00    -0.269 OA
BRANCH  31  34
ATOM     34  C   UNL A   1      34.694  34.099  29.589  1.00  0.00     0.039 A 
ATOM     35  C   UNL A   1      36.019  34.401  29.264  1.00  0.00     0.014 A 
ATOM     36  C   UNL A   1      34.397  33.376  30.746  1.00  0.00     0.014 A 
ATOM     37  C   UNL A   1      37.053  33.844  30.010  1.00  0.00     0.010 A 
ATOM     38  C   UNL A   1      35.438  32.879  31.535  1.00  0.00     0.010 A 
ATOM     39  C   UNL A   1      36.775  33.067  31.145  1.00  0.00    -0.014 A 
BRANCH  39  40
ATOM     40  C   UNL A   1      37.890  32.439  31.899  1.00  0.00     0.031 A 
ATOM     41  C   UNL A   1      38.683  31.310  31.291  1.00  0.00     0.074 A 
ATOM     42  C   UNL A   1      38.225  32.922  33.111  1.00  0.00     0.049 A 
ATOM     43  N   UNL A   1      39.671  30.625  31.808  1.00  0.00    -0.248 NA
ATOM     44  C   UNL A   1      38.318  30.898  29.926  1.00  0.00     0.031 C 
ATOM     45  C   UNL A   1      37.549  34.028  33.793  1.00  0.00     0.029 A 
ATOM     46  N   UNL A   1      39.226  32.560  33.976  1.00  0.00    -0.354 N 
ATOM     47  C   UNL A   1      40.035  29.691  30.844  1.00  0.00     0.074 A 
ATOM     48  C   UNL A   1      39.144  29.880  29.719  1.00  0.00     0.031 C 
ATOM     49  C   UNL A   1      38.183  34.285  34.946  1.00  0.00     0.029 A 
ATOM     50  C   UNL A   1      39.267  33.323  35.118  1.00  0.00     0.049 A 
ATOM     51  H   UNL A   1      39.854  31.824  33.796  1.00  0.00     0.167 HD
ATOM     52  C   UNL A   1      41.026  28.769  30.889  1.00  0.00     0.037 A 
ATOM     53  C   UNL A   1      40.075  33.248  36.192  1.00  0.00     0.037 A 
ATOM     54  C   UNL A   1      41.923  28.599  32.003  1.00  0.00     0.049 A 
ATOM     55  C   UNL A   1      41.135  32.186  36.238  1.00  0.00     0.074 A 
ATOM     56  C   UNL A   1      42.962  27.694  32.143  1.00  0.00     0.029 A 
ATOM     57  N   UNL A   1      41.893  29.353  33.167  1.00  0.00    -0.354 N 
ATOM     58  N   UNL A   1      41.444  31.292  35.329  1.00  0.00    -0.248 NA
ATOM     59  C   UNL A   1      41.946  32.113  37.460  1.00  0.00     0.031 C 
ATOM     60  C   UNL A   1      43.539  27.879  33.404  1.00  0.00     0.029 A 
ATOM     61  C   UNL A   1      42.886  28.926  34.034  1.00  0.00     0.049 A 
ATOM     62  H   UNL A   1      41.260  30.084  33.350  1.00  0.00     0.167 HD
ATOM     63  C   UNL A   1      42.488  30.550  35.868  1.00  0.00     0.074 A 
ATOM     64  C   UNL A   1      42.773  31.116  37.172  1.00  0.00     0.031 C 
ATOM     65  C   UNL A   1      43.146  29.492  35.334  1.00  0.00     0.037 A 
BRANCH  52  66
ATOM     66  C   UNL A   1      41.191  27.861  29.701  1.00  0.00     0.058 A 
ATOM     67  C   UNL A   1      42.283  27.984  28.827  1.00  0.00     0.135 A 
ATOM     68  C   UNL A   1      40.272  26.827  29.460  1.00  0.00     0.135 A 
ATOM     69  F   UNL A   1      43.181  28.967  29.001  1.00  0.00    -0.206 F 
ATOM     70  C   UNL A   1      42.449  27.124  27.746  1.00  0.00     0.059 A 
ATOM     71  C   UNL A   1      40.429  25.942  28.396  1.00  0.00     0.059 A 
ATOM     72  F   UNL A   1      39.209  26.666  30.263  1.00  0.00    -0.206 F 
ATOM     73  C   UNL A   1      41.516  26.106  27.538  1.00  0.00     0.060 A 
BRANCH  73  74
ATOM     74  S   UNL A   1      41.751  24.998  26.131  1.00  0.00     0.124 S 
ATOM     75  O   UNL A   1      41.481  25.892  25.009  1.00  0.00    -0.237 OA
ATOM     76  O   UNL A   1      43.141  24.583  26.291  1.00  0.00    -0.237 OA
ATOM     77  O   UNL A   1      40.758  23.952  26.352  1.00  0.00    -0.744 OA
ENDBRANCH  73  74
ENDBRANCH  52  66
BRANCH  53  78
ATOM     78  C   UNL A   1      39.900  34.208  37.313  1.00  0.00     0.058 A 
ATOM     79  C   UNL A   1      40.471  35.487  37.261  1.00  0.00     0.135 A 
ATOM     80  C   UNL A   1      39.126  33.878  38.436  1.00  0.00     0.135 A 
ATOM     81  F   UNL A   1      41.226  35.843  36.211  1.00  0.00    -0.206 F 
ATOM     82  C   UNL A   1      40.282  36.408  38.286  1.00  0.00     0.059 A 
ATOM     83  C   UNL A   1      38.902  34.791  39.461  1.00  0.00     0.059 A 
ATOM     84  F   UNL A   1      38.548  32.671  38.525  1.00  0.00    -0.206 F 
ATOM     85  C   UNL A   1      39.489  36.053  39.379  1.00  0.00     0.060 A 
BRANCH  85  86
ATOM     86  S   UNL A   1      39.190  37.281  40.668  1.00  0.00     0.124 S 
ATOM     87  O   UNL A   1      38.283  38.201  39.993  1.00  0.00    -0.237 OA
ATOM     88  O   UNL A   1      38.605  36.471  41.732  1.00  0.00    -0.237 OA
ATOM     89  O   UNL A   1      40.525  37.802  40.951  1.00  0.00    -0.744 OA
ENDBRANCH  85  86
ENDBRANCH  53  78
BRANCH  65  90
ATOM     90  C   UNL A   1      44.241  28.880  36.161  1.00  0.00     0.058 A 
ATOM     91  C   UNL A   1      44.005  27.759  36.971  1.00  0.00     0.135 A 
ATOM     92  C   UNL A   1      45.544  29.400  36.120  1.00  0.00     0.135 A 
ATOM     93  F   UNL A   1      42.774  27.230  37.050  1.00  0.00    -0.206 F 
ATOM     94  C   UNL A   1      45.018  27.187  37.731  1.00  0.00     0.059 A 
ATOM     95  C   UNL A   1      46.579  28.829  36.855  1.00  0.00     0.059 A 
ATOM     96  F   UNL A   1      45.823  30.466  35.354  1.00  0.00    -0.206 F 
ATOM     97  C   UNL A   1      46.303  27.730  37.667  1.00  0.00     0.060 A 
BRANCH  97  98
ATOM     98  S   UNL A   1      47.615  26.966  38.645  1.00  0.00     0.124 S 
ATOM     99  O   UNL A   1      46.847  26.151  39.580  1.00  0.00    -0.237 OA
ATOM    100  O   UNL A   1      48.371  26.233  37.635  1.00  0.00    -0.237 OA
ATOM    101  O   UNL A   1      48.310  28.109  39.232  1.00  0.00    -0.744 OA
ENDBRANCH  97  98
ENDBRANCH  65  90
ENDBRANCH  39  40
ENDBRANCH  31  34
ENDBRANCH  29  30
ENDBRANCH  28  29
ENDBRANCH   1  28
TORSDOF 18
ENDMDL
MODEL 3
REMARK VINA RESULT:     -10.9      9.677     16.719
REMARK SMILES CC(C)(C)c1cc2c(cc1Cl)C=C(C(=O)NCCCCCCNC(=O)c1ccc(-c3c4nc(c(-c5c(F)cc(S(=O)(=O)[O-])cc5F)c5ccc([nH]5)c(-c5c(F)cc(S(=O)(=O)[O-])cc5F)c5nc(c(-c6c(F)cc(S(=O)(=O)[O-])cc6F)c6ccc3[nH]6)C=C5)C=C4)cc1)[C@H](C(F)(F)F)O2
REMARK SMILES IDX 20 1 19 2 18 3 17 4 16 5 14 6 15 7 13 9 5 10 6 11 10 12 7 13
REMARK SMILES IDX 9 14 11 15 8 16 97 17 12 18 92 19 2 20 1 21 3 22 4 23 93 24
REMARK SMILES IDX 94 25 95 26 96 27 21 28 22 29 23 30 24 31 25 33 26 34 27 35
REMARK SMILES IDX 91 36 28 37 90 38 29 39 30 40 31 41 84 42 32 43 89 44 83 45
REMARK SMILES IDX 85 46 33 47 88 48 82 49 81 50 34 52 68 53 47 54 67 55 48 56
REMARK SMILES IDX 51 57 66 58 86 59 49 60 50 61 65 63 87 64 52 65 35 66 36 67
REMARK SMILES IDX 45 68 37 69 38 70 44 71 46 72 39 73 40 74 41 75 42 76 43 77
REMARK SMILES IDX 69 78 70 79 79 80 71 81 72 82 78 83 80 84 73 85 74 86 75 87
REMARK SMILES IDX 76 88 77 89 53 90 54 91 63 92 55 93 56 94 62 95 64 96 57 97
REMARK SMILES IDX 58 98 59 99 60 100 61 101
REMARK H PARENT 16 8 23 32 85 51 51 62
REMARK Flexibility Score: inf
ROOT
ATOM      1  C   UNL A   1      48.464  37.585  25.301  1.00  0.00     0.002 C 
ENDROOT
BRANCH   1   2
ATOM      2  C   UNL A   1      47.148  38.370  25.365  1.00  0.00     0.002 C 
BRANCH   2   3
ATOM      3  C   UNL A   1      47.274  39.840  25.774  1.00  0.00     0.021 C 
BRANCH   3   4
ATOM      4  C   UNL A   1      46.657  40.824  24.783  1.00  0.00     0.116 C 
BRANCH   4   5
ATOM      5  N   UNL A   1      45.352  41.283  25.226  1.00  0.00    -0.352 N 
ATOM      6  C   UNL A   1      44.371  42.097  24.773  1.00  0.00     0.251 C 
ATOM      7  O   UNL A   1      43.397  42.207  25.526  1.00  0.00    -0.270 OA
ATOM      8  H   UNL A   1      45.115  40.893  26.099  1.00  0.00     0.163 HD
BRANCH   6   9
ATOM      9  C   UNL A   1      44.379  42.834  23.471  1.00  0.00     0.067 C 
ATOM     10  C   UNL A   1      43.164  44.607  18.851  1.00  0.00    -0.020 A 
ATOM     11  C   UNL A   1      44.324  44.576  19.657  1.00  0.00     0.053 A 
ATOM     12  C   UNL A   1      42.013  43.993  19.402  1.00  0.00     0.045 A 
ATOM     13  C   UNL A   1      44.342  43.971  20.916  1.00  0.00     0.128 A 
ATOM     14  C   UNL A   1      42.047  43.366  20.663  1.00  0.00     0.032 A 
ATOM     15  Cl  UNL A   1      40.468  43.947  18.625  1.00  0.00    -0.084 Cl
ATOM     16  C   UNL A   1      43.213  43.350  21.422  1.00  0.00     0.019 A 
ATOM     17  O   UNL A   1      45.534  43.994  21.577  1.00  0.00    -0.475 OA
ATOM     18  C   UNL A   1      43.285  42.667  22.705  1.00  0.00     0.025 C 
ATOM     19  C   UNL A   1      45.489  43.737  23.006  1.00  0.00     0.314 C 
BRANCH  10  20
ATOM     20  C   UNL A   1      43.225  45.296  17.465  1.00  0.00    -0.012 C 
ATOM     21  C   UNL A   1      42.119  46.370  17.255  1.00  0.00     0.016 C 
ATOM     22  C   UNL A   1      43.017  44.257  16.344  1.00  0.00     0.016 C 
ATOM     23  C   UNL A   1      44.558  46.051  17.266  1.00  0.00     0.016 C 
ENDBRANCH  10  20
BRANCH  19  24
ATOM     24  C   UNL A   1      45.532  45.073  23.772  1.00  0.00     0.429 C 
ATOM     25  F   UNL A   1      46.506  45.876  23.276  1.00  0.00    -0.167 F 
ATOM     26  F   UNL A   1      44.366  45.756  23.695  1.00  0.00    -0.167 F 
ATOM     27  F   UNL A   1      45.798  44.912  25.089  1.00  0.00    -0.167 F 
ENDBRANCH  19  24
ENDBRANCH   6   9
ENDBRANCH   4   5
ENDBRANCH   3   4
ENDBRANCH   2   3
ENDBRANCH   1   2
BRANCH   1  28
ATOM     28  C   UNL A   1      49.571  38.071  26.239  1.00  0.00     0.021 C 
BRANCH  28  29
ATOM     29  C   UNL A   1      49.704  37.281  27.537  1.00  0.00     0.116 C 
BRANCH  29  30
ATOM     30  N   UNL A   1      48.804  37.759  28.574  1.00  0.00    -0.352 N 
ATOM     31  C   UNL A   1      47.724  37.122  29.144  1.00  0.00     0.251 C 
ATOM     32  H   UNL A   1      48.992  38.664  28.914  1.00  0.00     0.163 HD
ATOM     33  O   UNL A   1      46.971  37.728  29.892  1.00  0.00    -0.269 OA
BRANCH  31  34
ATOM     34  C   UNL A   1      47.471  35.703  28.813  1.00  0.00     0.039 A 
ATOM     35  C   UNL A   1      46.805  35.360  27.633  1.00  0.00     0.014 A 
ATOM     36  C   UNL A   1      47.863  34.713  29.716  1.00  0.00     0.014 A 
ATOM     37  C   UNL A   1      46.391  34.048  27.434  1.00  0.00     0.010 A 
ATOM     38  C   UNL A   1      47.509  33.382  29.477  1.00  0.00     0.010 A 
ATOM     39  C   UNL A   1      46.727  33.046  28.359  1.00  0.00    -0.014 A 
BRANCH  39  40
ATOM     40  C   UNL A   1      46.234  31.660  28.156  1.00  0.00     0.031 A 
ATOM     41  C   UNL A   1      47.136  30.606  27.567  1.00  0.00     0.074 A 
ATOM     42  C   UNL A   1      44.988  31.336  28.553  1.00  0.00     0.049 A 
ATOM     43  N   UNL A   1      46.873  29.354  27.293  1.00  0.00    -0.248 NA
ATOM     44  C   UNL A   1      48.513  31.012  27.243  1.00  0.00     0.031 C 
ATOM     45  C   UNL A   1      44.030  32.262  29.160  1.00  0.00     0.029 A 
ATOM     46  N   UNL A   1      44.320  30.139  28.523  1.00  0.00    -0.354 N 
ATOM     47  C   UNL A   1      48.038  28.827  26.751  1.00  0.00     0.074 A 
ATOM     48  C   UNL A   1      49.007  29.902  26.710  1.00  0.00     0.031 C 
ATOM     49  C   UNL A   1      42.917  31.589  29.488  1.00  0.00     0.029 A 
ATOM     50  C   UNL A   1      43.056  30.202  29.058  1.00  0.00     0.049 A 
ATOM     51  H   UNL A   1      44.709  29.313  28.155  1.00  0.00     0.167 HD
ATOM     52  C   UNL A   1      48.284  27.560  26.335  1.00  0.00     0.037 A 
ATOM     53  C   UNL A   1      42.106  29.256  29.174  1.00  0.00     0.037 A 
ATOM     54  C   UNL A   1      47.322  26.489  26.398  1.00  0.00     0.049 A 
ATOM     55  C   UNL A   1      42.385  27.872  28.662  1.00  0.00     0.074 A 
ATOM     56  C   UNL A   1      47.476  25.170  26.004  1.00  0.00     0.029 A 
ATOM     57  N   UNL A   1      46.032  26.609  26.891  1.00  0.00    -0.354 N 
ATOM     58  N   UNL A   1      43.484  27.400  28.124  1.00  0.00    -0.248 NA
ATOM     59  C   UNL A   1      41.292  26.897  28.760  1.00  0.00     0.031 C 
ATOM     60  C   UNL A   1      46.268  24.501  26.229  1.00  0.00     0.029 A 
ATOM     61  C   UNL A   1      45.374  25.393  26.800  1.00  0.00     0.049 A 
ATOM     62  H   UNL A   1      45.641  27.437  27.253  1.00  0.00     0.167 HD
ATOM     63  C   UNL A   1      43.216  26.071  27.819  1.00  0.00     0.074 A 
ATOM     64  C   UNL A   1      41.859  25.808  28.256  1.00  0.00     0.031 C 
ATOM     65  C   UNL A   1      44.018  25.153  27.227  1.00  0.00     0.037 A 
BRANCH  52  66
ATOM     66  C   UNL A   1      49.642  27.262  25.765  1.00  0.00     0.058 A 
ATOM     67  C   UNL A   1      50.704  26.836  26.578  1.00  0.00     0.135 A 
ATOM     68  C   UNL A   1      49.874  27.359  24.383  1.00  0.00     0.135 A 
ATOM     69  F   UNL A   1      50.542  26.744  27.907  1.00  0.00    -0.206 F 
ATOM     70  C   UNL A   1      51.953  26.532  26.043  1.00  0.00     0.059 A 
ATOM     71  C   UNL A   1      51.109  27.040  23.823  1.00  0.00     0.059 A 
ATOM     72  F   UNL A   1      48.893  27.764  23.560  1.00  0.00    -0.206 F 
ATOM     73  C   UNL A   1      52.145  26.637  24.664  1.00  0.00     0.060 A 
BRANCH  73  74
ATOM     74  S   UNL A   1      53.772  26.235  23.990  1.00  0.00     0.124 S 
ATOM     75  O   UNL A   1      54.071  24.984  24.681  1.00  0.00    -0.237 OA
ATOM     76  O   UNL A   1      53.496  26.120  22.562  1.00  0.00    -0.237 OA
ATOM     77  O   UNL A   1      54.593  27.377  24.377  1.00  0.00    -0.744 OA
ENDBRANCH  73  74
ENDBRANCH  52  66
BRANCH  53  78
ATOM     78  C   UNL A   1      40.800  29.595  29.797  1.00  0.00     0.058 A 
ATOM     79  C   UNL A   1      40.678  29.725  31.187  1.00  0.00     0.135 A 
ATOM     80  C   UNL A   1      39.662  29.835  29.012  1.00  0.00     0.135 A 
ATOM     81  F   UNL A   1      41.737  29.497  31.978  1.00  0.00    -0.206 F 
ATOM     82  C   UNL A   1      39.470  30.081  31.779  1.00  0.00     0.059 A 
ATOM     83  C   UNL A   1      38.451  30.216  29.579  1.00  0.00     0.059 A 
ATOM     84  F   UNL A   1      39.734  29.736  27.676  1.00  0.00    -0.206 F 
ATOM     85  C   UNL A   1      38.365  30.332  30.965  1.00  0.00     0.060 A 
BRANCH  85  86
ATOM     86  S   UNL A   1      36.822  30.865  31.739  1.00  0.00     0.124 S 
ATOM     87  O   UNL A   1      36.321  29.611  32.288  1.00  0.00    -0.237 OA
ATOM     88  O   UNL A   1      37.292  31.847  32.712  1.00  0.00    -0.237 OA
ATOM     89  O   UNL A   1      36.060  31.417  30.623  1.00  0.00    -0.744 OA
ENDBRANCH  85  86
ENDBRANCH  53  78
BRANCH  65  90
ATOM     90  C   UNL A   1      43.448  23.779  27.019  1.00  0.00     0.058 A 
ATOM     91  C   UNL A   1      43.078  23.328  25.743  1.00  0.00     0.135 A 
ATOM     92  C   UNL A   1      43.300  22.895  28.099  1.00  0.00     0.135 A 
ATOM     93  F   UNL A   1      43.194  24.138  24.679  1.00  0.00    -0.206 F 
ATOM     94  C   UNL A   1      42.557  22.054  25.547  1.00  0.00     0.059 A 
ATOM     95  C   UNL A   1      42.802  21.607  27.923  1.00  0.00     0.059 A 
ATOM     96  F   UNL A   1      43.648  23.276  29.338  1.00  0.00    -0.206 F 
ATOM     97  C   UNL A   1      42.422  21.201  26.644  1.00  0.00     0.060 A 
BRANCH  97  98
ATOM     98  S   UNL A   1      41.761  19.542  26.374  1.00  0.00     0.124 S 
ATOM     99  O   UNL A   1      42.445  19.149  25.147  1.00  0.00    -0.237 OA
ATOM    100  O   UNL A   1      42.175  18.839  27.585  1.00  0.00    -0.237 OA
ATOM    101  O   UNL A   1      40.323  19.766  26.248  1.00  0.00    -0.744 OA
ENDBRANCH  97  98
ENDBRANCH  65  90
ENDBRANCH  39  40
ENDBRANCH  31  34
ENDBRANCH  29  30
ENDBRANCH  28  29
ENDBRANCH   1  28
TORSDOF 18
ENDMDL
