MODEL 1
REMARK VINA RESULT:     -10.5      0.000      0.000
REMARK SMILES C[C@H](CC[NH2+]Cc1cc(C(=O)NCCCCCCNC(=O)c2ccc(-c3c4nc(c(-c5c(F)cc(S(=O)(=O)[O-])cc5F)c5ccc([nH]5)c(-c5c(F)cc(S(=O)(=O)[O-])cc5F)c5nc(c(-c6c(F)cc(S(=O)(=O)[O-])cc6F)c6ccc3[nH]6)C=C5)C=C4)cc2)cs1)c1ccccc1
REMARK SMILES IDX 14 1 13 2 12 3 10 4 11 5 9 7 7 8 8 9 89 10 88 11 6 12 5 13
REMARK SMILES IDX 4 16 3 17 2 18 1 19 90 20 91 21 95 22 92 23 94 24 93 25
REMARK SMILES IDX 15 26 16 27 17 28 18 29 19 30 20 31 21 33 22 34 23 35 87 36
REMARK SMILES IDX 24 37 86 38 25 39 26 40 27 41 80 42 28 43 85 44 79 45 81 46
REMARK SMILES IDX 29 47 84 48 78 49 77 50 30 52 64 53 43 54 63 55 44 56 47 57
REMARK SMILES IDX 62 58 82 59 45 60 46 61 61 63 83 64 48 65 31 66 32 67 41 68
REMARK SMILES IDX 33 69 34 70 40 71 42 72 35 73 36 74 37 75 38 76 39 77 65 78
REMARK SMILES IDX 66 79 75 80 67 81 68 82 74 83 76 84 69 85 70 86 71 87 72 88
REMARK SMILES IDX 73 89 49 90 50 91 59 92 51 93 52 94 58 95 60 96 53 97 54 98
REMARK SMILES IDX 55 99 56 100 57 101
REMARK H PARENT 12 6 5 14 5 15 19 32 81 51 47 62
REMARK Flexibility Score: inf
ROOT
ATOM      1  C   UNL A   1      31.101  29.076  23.423  1.00  0.00     0.021 C 
ENDROOT
BRANCH   1   2
ATOM      2  C   UNL A   1      30.411  27.854  22.817  1.00  0.00     0.116 C 
BRANCH   2   3
ATOM      3  N   UNL A   1      31.273  27.233  21.828  1.00  0.00    -0.352 N 
ATOM      4  C   UNL A   1      32.026  26.085  21.849  1.00  0.00     0.252 C 
ATOM      5  O   UNL A   1      32.630  25.786  20.824  1.00  0.00    -0.269 OA
ATOM      6  H   UNL A   1      31.329  27.731  20.980  1.00  0.00     0.163 HD
BRANCH   4   7
ATOM      7  C   UNL A   1      32.033  25.217  23.027  1.00  0.00     0.051 A 
ATOM      8  C   UNL A   1      32.759  24.130  24.978  1.00  0.00     0.059 A 
ATOM      9  C   UNL A   1      33.134  24.727  23.792  1.00  0.00     0.035 A 
ATOM     10  S   UNL A   1      31.073  23.884  25.033  1.00  0.00    -0.142 S 
ATOM     11  C   UNL A   1      30.855  24.703  23.546  1.00  0.00     0.079 A 
BRANCH   8  12
ATOM     12  C   UNL A   1      33.672  23.722  26.093  1.00  0.00     0.308 C 
BRANCH  12  13
ATOM     13  N   UNL A   1      34.896  23.065  25.647  1.00  0.00    -0.342 N 
ATOM     14  H   UNL A   1      34.889  23.043  24.627  1.00  0.00     0.346 HD
ATOM     15  H   UNL A   1      35.667  23.608  26.035  1.00  0.00     0.346 HD
BRANCH  13  16
ATOM     16  C   UNL A   1      35.077  21.694  26.129  1.00  0.00     0.261 C 
BRANCH  16  17
ATOM     17  C   UNL A   1      34.908  20.673  24.994  1.00  0.00     0.069 C 
BRANCH  17  18
ATOM     18  C   UNL A   1      33.493  20.041  24.809  1.00  0.00     0.021 C 
ATOM     19  C   UNL A   1      32.712  20.698  23.660  1.00  0.00     0.013 C 
BRANCH  18  20
ATOM     20  C   UNL A   1      33.434  18.506  24.795  1.00  0.00    -0.045 A 
ATOM     21  C   UNL A   1      32.622  17.783  25.690  1.00  0.00     0.004 A 
ATOM     22  C   UNL A   1      34.321  17.762  23.997  1.00  0.00     0.004 A 
ATOM     23  C   UNL A   1      32.705  16.390  25.796  1.00  0.00     0.000 A 
ATOM     24  C   UNL A   1      34.392  16.366  24.090  1.00  0.00     0.000 A 
ATOM     25  C   UNL A   1      33.593  15.681  24.997  1.00  0.00     0.000 A 
ENDBRANCH  18  20
ENDBRANCH  17  18
ENDBRANCH  16  17
ENDBRANCH  13  16
ENDBRANCH  12  13
ENDBRANCH   8  12
ENDBRANCH   4   7
ENDBRANCH   2   3
ENDBRANCH   1   2
BRANCH   1  26
ATOM     26  C   UNL A   1      32.245  28.691  24.370  1.00  0.00     0.002 C 
BRANCH  26  27
ATOM     27  C   UNL A   1      31.786  28.104  25.712  1.00  0.00     0.002 C 
BRANCH  27  28
ATOM     28  C   UNL A   1      32.873  27.357  26.490  1.00  0.00     0.021 C 
BRANCH  28  29
ATOM     29  C   UNL A   1      34.151  28.163  26.698  1.00  0.00     0.116 C 
BRANCH  29  30
ATOM     30  N   UNL A   1      33.859  29.488  27.221  1.00  0.00    -0.352 N 
ATOM     31  C   UNL A   1      34.604  30.279  28.056  1.00  0.00     0.251 C 
ATOM     32  H   UNL A   1      33.000  29.875  26.931  1.00  0.00     0.163 HD
ATOM     33  O   UNL A   1      34.083  31.246  28.602  1.00  0.00    -0.269 OA
BRANCH  31  34
ATOM     34  C   UNL A   1      36.028  29.963  28.297  1.00  0.00     0.039 A 
ATOM     35  C   UNL A   1      36.936  30.102  27.245  1.00  0.00     0.014 A 
ATOM     36  C   UNL A   1      36.461  29.496  29.542  1.00  0.00     0.014 A 
ATOM     37  C   UNL A   1      38.282  29.803  27.454  1.00  0.00     0.010 A 
ATOM     38  C   UNL A   1      37.815  29.278  29.771  1.00  0.00     0.010 A 
ATOM     39  C   UNL A   1      38.739  29.411  28.724  1.00  0.00    -0.014 A 
BRANCH  39  40
ATOM     40  C   UNL A   1      40.176  29.122  28.960  1.00  0.00     0.031 A 
ATOM     41  C   UNL A   1      40.747  27.774  28.611  1.00  0.00     0.074 A 
ATOM     42  C   UNL A   1      40.957  30.066  29.521  1.00  0.00     0.049 A 
ATOM     43  N   UNL A   1      41.972  27.336  28.751  1.00  0.00    -0.248 NA
ATOM     44  C   UNL A   1      39.817  26.777  28.055  1.00  0.00     0.031 C 
ATOM     45  C   UNL A   1      40.502  31.391  29.952  1.00  0.00     0.029 A 
ATOM     46  N   UNL A   1      42.295  30.060  29.826  1.00  0.00    -0.354 N 
ATOM     47  C   UNL A   1      41.958  26.018  28.309  1.00  0.00     0.074 A 
ATOM     48  C   UNL A   1      40.591  25.707  27.955  1.00  0.00     0.031 C 
ATOM     49  C   UNL A   1      41.550  32.080  30.432  1.00  0.00     0.029 A 
ATOM     50  C   UNL A   1      42.739  31.236  30.382  1.00  0.00     0.049 A 
ATOM     51  H   UNL A   1      42.880  29.286  29.663  1.00  0.00     0.167 HD
ATOM     52  C   UNL A   1      42.994  25.156  28.183  1.00  0.00     0.037 A 
ATOM     53  C   UNL A   1      43.967  31.595  30.804  1.00  0.00     0.037 A 
ATOM     54  C   UNL A   1      44.355  25.482  28.521  1.00  0.00     0.049 A 
ATOM     55  C   UNL A   1      45.103  30.619  30.654  1.00  0.00     0.074 A 
ATOM     56  C   UNL A   1      45.488  24.699  28.382  1.00  0.00     0.029 A 
ATOM     57  N   UNL A   1      44.769  26.688  29.068  1.00  0.00    -0.354 N 
ATOM     58  N   UNL A   1      45.084  29.400  30.170  1.00  0.00    -0.248 NA
ATOM     59  C   UNL A   1      46.429  31.070  31.097  1.00  0.00     0.031 C 
ATOM     60  C   UNL A   1      46.577  25.411  28.895  1.00  0.00     0.029 A 
ATOM     61  C   UNL A   1      46.136  26.663  29.293  1.00  0.00     0.049 A 
ATOM     62  H   UNL A   1      44.179  27.451  29.266  1.00  0.00     0.167 HD
ATOM     63  C   UNL A   1      46.400  28.951  30.217  1.00  0.00     0.074 A 
ATOM     64  C   UNL A   1      47.188  30.035  30.768  1.00  0.00     0.031 C 
ATOM     65  C   UNL A   1      46.909  27.754  29.834  1.00  0.00     0.037 A 
BRANCH  52  66
ATOM     66  C   UNL A   1      42.699  23.775  27.656  1.00  0.00     0.058 A 
ATOM     67  C   UNL A   1      42.679  23.497  26.279  1.00  0.00     0.135 A 
ATOM     68  C   UNL A   1      42.472  22.707  28.540  1.00  0.00     0.135 A 
ATOM     69  F   UNL A   1      42.875  24.482  25.387  1.00  0.00    -0.206 F 
ATOM     70  C   UNL A   1      42.413  22.219  25.797  1.00  0.00     0.059 A 
ATOM     71  C   UNL A   1      42.236  21.414  28.080  1.00  0.00     0.059 A 
ATOM     72  F   UNL A   1      42.478  22.913  29.866  1.00  0.00    -0.206 F 
ATOM     73  C   UNL A   1      42.194  21.183  26.706  1.00  0.00     0.060 A 
BRANCH  73  74
ATOM     74  S   UNL A   1      41.858  19.531  26.063  1.00  0.00     0.124 S 
ATOM     75  O   UNL A   1      42.747  19.483  24.907  1.00  0.00    -0.237 OA
ATOM     76  O   UNL A   1      42.232  18.678  27.185  1.00  0.00    -0.237 OA
ATOM     77  O   UNL A   1      40.432  19.568  25.755  1.00  0.00    -0.744 OA
ENDBRANCH  73  74
ENDBRANCH  52  66
BRANCH  53  78
ATOM     78  C   UNL A   1      44.188  32.950  31.378  1.00  0.00     0.058 A 
ATOM     79  C   UNL A   1      44.513  34.041  30.559  1.00  0.00     0.135 A 
ATOM     80  C   UNL A   1      44.065  33.183  32.758  1.00  0.00     0.135 A 
ATOM     81  F   UNL A   1      44.646  33.869  29.235  1.00  0.00    -0.206 F 
ATOM     82  C   UNL A   1      44.727  35.311  31.086  1.00  0.00     0.059 A 
ATOM     83  C   UNL A   1      44.245  34.450  33.305  1.00  0.00     0.059 A 
ATOM     84  F   UNL A   1      43.737  32.177  33.583  1.00  0.00    -0.206 F 
ATOM     85  C   UNL A   1      44.587  35.506  32.460  1.00  0.00     0.060 A 
BRANCH  85  86
ATOM     86  S   UNL A   1      44.821  37.167  33.128  1.00  0.00     0.124 S 
ATOM     87  O   UNL A   1      45.544  37.820  32.043  1.00  0.00    -0.237 OA
ATOM     88  O   UNL A   1      43.446  37.609  33.337  1.00  0.00    -0.237 OA
ATOM     89  O   UNL A   1      45.589  36.933  34.348  1.00  0.00    -0.744 OA
ENDBRANCH  85  86
ENDBRANCH  53  78
BRANCH  65  90
ATOM     90  C   UNL A   1      48.397  27.564  29.950  1.00  0.00     0.058 A 
ATOM     91  C   UNL A   1      48.988  26.992  31.087  1.00  0.00     0.135 A 
ATOM     92  C   UNL A   1      49.239  27.915  28.881  1.00  0.00     0.135 A 
ATOM     93  F   UNL A   1      48.231  26.642  32.139  1.00  0.00    -0.206 F 
ATOM     94  C   UNL A   1      50.364  26.803  31.173  1.00  0.00     0.059 A 
ATOM     95  C   UNL A   1      50.613  27.704  28.931  1.00  0.00     0.059 A 
ATOM     96  F   UNL A   1      48.725  28.455  27.764  1.00  0.00    -0.206 F 
ATOM     97  C   UNL A   1      51.168  27.159  30.088  1.00  0.00     0.060 A 
BRANCH  97  98
ATOM     98  S   UNL A   1      52.948  26.881  30.202  1.00  0.00     0.124 S 
ATOM     99  O   UNL A   1      53.033  25.982  31.348  1.00  0.00    -0.237 OA
ATOM    100  O   UNL A   1      53.254  26.286  28.904  1.00  0.00    -0.237 OA
ATOM    101  O   UNL A   1      53.489  28.220  30.414  1.00  0.00    -0.744 OA
ENDBRANCH  97  98
ENDBRANCH  65  90
ENDBRANCH  39  40
ENDBRANCH  31  34
ENDBRANCH  29  30
ENDBRANCH  28  29
ENDBRANCH  27  28
ENDBRANCH  26  27
ENDBRANCH   1  26
TORSDOF 22
ENDMDL
MODEL 2
REMARK VINA RESULT:     -10.4      2.486      8.640
REMARK SMILES C[C@H](CC[NH2+]Cc1cc(C(=O)NCCCCCCNC(=O)c2ccc(-c3c4nc(c(-c5c(F)cc(S(=O)(=O)[O-])cc5F)c5ccc([nH]5)c(-c5c(F)cc(S(=O)(=O)[O-])cc5F)c5nc(c(-c6c(F)cc(S(=O)(=O)[O-])cc6F)c6ccc3[nH]6)C=C5)C=C4)cc2)cs1)c1ccccc1
REMARK SMILES IDX 14 1 13 2 12 3 10 4 11 5 9 7 7 8 8 9 89 10 88 11 6 12 5 13
REMARK SMILES IDX 4 16 3 17 2 18 1 19 90 20 91 21 95 22 92 23 94 24 93 25
REMARK SMILES IDX 15 26 16 27 17 28 18 29 19 30 20 31 21 33 22 34 23 35 87 36
REMARK SMILES IDX 24 37 86 38 25 39 26 40 27 41 80 42 28 43 85 44 79 45 81 46
REMARK SMILES IDX 29 47 84 48 78 49 77 50 30 52 64 53 43 54 63 55 44 56 47 57
REMARK SMILES IDX 62 58 82 59 45 60 46 61 61 63 83 64 48 65 31 66 32 67 41 68
REMARK SMILES IDX 33 69 34 70 40 71 42 72 35 73 36 74 37 75 38 76 39 77 65 78
REMARK SMILES IDX 66 79 75 80 67 81 68 82 74 83 76 84 69 85 70 86 71 87 72 88
REMARK SMILES IDX 73 89 49 90 50 91 59 92 51 93 52 94 58 95 60 96 53 97 54 98
REMARK SMILES IDX 55 99 56 100 57 101
REMARK H PARENT 12 6 5 14 5 15 19 32 81 51 47 62
REMARK Flexibility Score: inf
ROOT
ATOM      1  C   UNL A   1      31.482  30.491  25.812  1.00  0.00     0.021 C 
ENDROOT
BRANCH   1   2
ATOM      2  C   UNL A   1      31.398  29.361  24.786  1.00  0.00     0.116 C 
BRANCH   2   3
ATOM      3  N   UNL A   1      32.576  29.367  23.939  1.00  0.00    -0.352 N 
ATOM      4  C   UNL A   1      33.397  28.362  23.492  1.00  0.00     0.252 C 
ATOM      5  O   UNL A   1      34.310  28.673  22.733  1.00  0.00    -0.269 OA
ATOM      6  H   UNL A   1      32.836  30.264  23.626  1.00  0.00     0.163 HD
BRANCH   4   7
ATOM      7  C   UNL A   1      33.134  26.967  23.846  1.00  0.00     0.051 A 
ATOM      8  C   UNL A   1      32.303  24.772  23.752  1.00  0.00     0.059 A 
ATOM      9  C   UNL A   1      32.104  26.089  23.390  1.00  0.00     0.035 A 
ATOM     10  S   UNL A   1      33.561  24.634  24.894  1.00  0.00    -0.142 S 
ATOM     11  C   UNL A   1      33.914  26.305  24.781  1.00  0.00     0.079 A 
BRANCH   8  12
ATOM     12  C   UNL A   1      31.537  23.589  23.247  1.00  0.00     0.308 C 
BRANCH  12  13
ATOM     13  N   UNL A   1      32.311  22.707  22.380  1.00  0.00    -0.342 N 
ATOM     14  H   UNL A   1      32.027  22.884  21.416  1.00  0.00     0.346 HD
ATOM     15  H   UNL A   1      33.291  22.921  22.560  1.00  0.00     0.346 HD
BRANCH  13  16
ATOM     16  C   UNL A   1      32.149  21.276  22.646  1.00  0.00     0.261 C 
BRANCH  16  17
ATOM     17  C   UNL A   1      32.372  20.953  24.131  1.00  0.00     0.069 C 
BRANCH  17  18
ATOM     18  C   UNL A   1      33.710  20.246  24.513  1.00  0.00     0.021 C 
ATOM     19  C   UNL A   1      34.427  20.954  25.674  1.00  0.00     0.013 C 
BRANCH  18  20
ATOM     20  C   UNL A   1      33.651  18.719  24.665  1.00  0.00    -0.045 A 
ATOM     21  C   UNL A   1      32.547  18.069  25.251  1.00  0.00     0.004 A 
ATOM     22  C   UNL A   1      34.776  17.926  24.377  1.00  0.00     0.004 A 
ATOM     23  C   UNL A   1      32.572  16.703  25.550  1.00  0.00     0.000 A 
ATOM     24  C   UNL A   1      34.796  16.554  24.660  1.00  0.00     0.000 A 
ATOM     25  C   UNL A   1      33.698  15.944  25.257  1.00  0.00     0.000 A 
ENDBRANCH  18  20
ENDBRANCH  17  18
ENDBRANCH  16  17
ENDBRANCH  13  16
ENDBRANCH  12  13
ENDBRANCH   8  12
ENDBRANCH   4   7
ENDBRANCH   2   3
ENDBRANCH   1   2
BRANCH   1  26
ATOM     26  C   UNL A   1      32.869  30.590  26.458  1.00  0.00     0.002 C 
BRANCH  26  27
ATOM     27  C   UNL A   1      33.224  29.416  27.379  1.00  0.00     0.002 C 
BRANCH  27  28
ATOM     28  C   UNL A   1      34.725  29.149  27.526  1.00  0.00     0.021 C 
BRANCH  28  29
ATOM     29  C   UNL A   1      35.523  30.350  28.022  1.00  0.00     0.116 C 
BRANCH  29  30
ATOM     30  N   UNL A   1      35.516  30.425  29.474  1.00  0.00    -0.352 N 
ATOM     31  C   UNL A   1      36.469  30.018  30.371  1.00  0.00     0.251 C 
ATOM     32  H   UNL A   1      34.710  30.828  29.870  1.00  0.00     0.163 HD
ATOM     33  O   UNL A   1      36.180  29.915  31.559  1.00  0.00    -0.269 OA
BRANCH  31  34
ATOM     34  C   UNL A   1      37.836  29.703  29.906  1.00  0.00     0.039 A 
ATOM     35  C   UNL A   1      38.793  29.310  30.844  1.00  0.00     0.014 A 
ATOM     36  C   UNL A   1      38.184  29.830  28.558  1.00  0.00     0.014 A 
ATOM     37  C   UNL A   1      40.089  29.014  30.423  1.00  0.00     0.010 A 
ATOM     38  C   UNL A   1      39.453  29.455  28.129  1.00  0.00     0.010 A 
ATOM     39  C   UNL A   1      40.426  29.061  29.059  1.00  0.00    -0.014 A 
BRANCH  39  40
ATOM     40  C   UNL A   1      41.796  28.716  28.601  1.00  0.00     0.031 A 
ATOM     41  C   UNL A   1      42.863  29.775  28.536  1.00  0.00     0.074 A 
ATOM     42  C   UNL A   1      42.065  27.454  28.212  1.00  0.00     0.049 A 
ATOM     43  N   UNL A   1      44.111  29.666  28.156  1.00  0.00    -0.248 NA
ATOM     44  C   UNL A   1      42.475  31.142  28.923  1.00  0.00     0.031 C 
ATOM     45  C   UNL A   1      41.096  26.356  28.180  1.00  0.00     0.029 A 
ATOM     46  N   UNL A   1      43.230  26.881  27.770  1.00  0.00    -0.354 N 
ATOM     47  C   UNL A   1      44.651  30.943  28.253  1.00  0.00     0.074 A 
ATOM     48  C   UNL A   1      43.581  31.823  28.665  1.00  0.00     0.031 C 
ATOM     49  C   UNL A   1      41.715  25.235  27.776  1.00  0.00     0.029 A 
ATOM     50  C   UNL A   1      43.110  25.542  27.481  1.00  0.00     0.049 A 
ATOM     51  H   UNL A   1      44.071  27.381  27.668  1.00  0.00     0.167 HD
ATOM     52  C   UNL A   1      45.929  31.340  28.043  1.00  0.00     0.037 A 
ATOM     53  C   UNL A   1      44.024  24.660  27.030  1.00  0.00     0.037 A 
ATOM     54  C   UNL A   1      46.991  30.451  27.650  1.00  0.00     0.049 A 
ATOM     55  C   UNL A   1      45.437  25.125  26.804  1.00  0.00     0.074 A 
ATOM     56  C   UNL A   1      48.331  30.742  27.462  1.00  0.00     0.029 A 
ATOM     57  N   UNL A   1      46.835  29.099  27.381  1.00  0.00    -0.354 N 
ATOM     58  N   UNL A   1      45.947  26.323  26.966  1.00  0.00    -0.248 NA
ATOM     59  C   UNL A   1      46.402  24.117  26.346  1.00  0.00     0.031 C 
ATOM     60  C   UNL A   1      48.974  29.578  27.028  1.00  0.00     0.029 A 
ATOM     61  C   UNL A   1      48.049  28.546  27.007  1.00  0.00     0.049 A 
ATOM     62  H   UNL A   1      45.986  28.604  27.447  1.00  0.00     0.167 HD
ATOM     63  C   UNL A   1      47.299  26.206  26.664  1.00  0.00     0.074 A 
ATOM     64  C   UNL A   1      47.528  24.817  26.318  1.00  0.00     0.031 C 
ATOM     65  C   UNL A   1      48.264  27.159  26.676  1.00  0.00     0.037 A 
BRANCH  52  66
ATOM     66  C   UNL A   1      46.251  32.799  28.236  1.00  0.00     0.058 A 
ATOM     67  C   UNL A   1      46.679  33.305  29.475  1.00  0.00     0.135 A 
ATOM     68  C   UNL A   1      46.169  33.697  27.159  1.00  0.00     0.135 A 
ATOM     69  F   UNL A   1      46.763  32.496  30.543  1.00  0.00    -0.206 F 
ATOM     70  C   UNL A   1      46.983  34.652  29.647  1.00  0.00     0.059 A 
ATOM     71  C   UNL A   1      46.499  35.042  27.301  1.00  0.00     0.059 A 
ATOM     72  F   UNL A   1      45.764  33.271  25.952  1.00  0.00    -0.206 F 
ATOM     73  C   UNL A   1      46.891  35.513  28.553  1.00  0.00     0.060 A 
BRANCH  73  74
ATOM     74  S   UNL A   1      47.296  37.255  28.793  1.00  0.00     0.124 S 
ATOM     75  O   UNL A   1      48.750  37.204  28.901  1.00  0.00    -0.237 OA
ATOM     76  O   UNL A   1      46.773  37.867  27.576  1.00  0.00    -0.237 OA
ATOM     77  O   UNL A   1      46.588  37.604  30.021  1.00  0.00    -0.744 OA
ENDBRANCH  73  74
ENDBRANCH  52  66
BRANCH  53  78
ATOM     78  C   UNL A   1      43.633  23.244  26.793  1.00  0.00     0.058 A 
ATOM     79  C   UNL A   1      43.360  22.378  27.863  1.00  0.00     0.135 A 
ATOM     80  C   UNL A   1      43.511  22.731  25.492  1.00  0.00     0.135 A 
ATOM     81  F   UNL A   1      43.466  22.818  29.125  1.00  0.00    -0.206 F 
ATOM     82  C   UNL A   1      42.999  21.050  27.653  1.00  0.00     0.059 A 
ATOM     83  C   UNL A   1      43.123  21.416  25.256  1.00  0.00     0.059 A 
ATOM     84  F   UNL A   1      43.743  23.523  24.433  1.00  0.00    -0.206 F 
ATOM     85  C   UNL A   1      42.880  20.580  26.345  1.00  0.00     0.060 A 
BRANCH  85  86
ATOM     86  S   UNL A   1      42.366  18.868  26.083  1.00  0.00     0.124 S 
ATOM     87  O   UNL A   1      43.291  18.441  25.039  1.00  0.00    -0.237 OA
ATOM     88  O   UNL A   1      42.576  18.282  27.402  1.00  0.00    -0.237 OA
ATOM     89  O   UNL A   1      40.970  18.995  25.676  1.00  0.00    -0.744 OA
ENDBRANCH  85  86
ENDBRANCH  53  78
BRANCH  65  90
ATOM     90  C   UNL A   1      49.668  26.728  26.353  1.00  0.00     0.058 A 
ATOM     91  C   UNL A   1      50.208  26.855  25.063  1.00  0.00     0.135 A 
ATOM     92  C   UNL A   1      50.504  26.227  27.365  1.00  0.00     0.135 A 
ATOM     93  F   UNL A   1      49.452  27.323  24.057  1.00  0.00    -0.206 F 
ATOM     94  C   UNL A   1      51.516  26.472  24.782  1.00  0.00     0.059 A 
ATOM     95  C   UNL A   1      51.824  25.870  27.115  1.00  0.00     0.059 A 
ATOM     96  F   UNL A   1      50.043  26.095  28.620  1.00  0.00    -0.206 F 
ATOM     97  C   UNL A   1      52.317  25.983  25.816  1.00  0.00     0.060 A 
BRANCH  97  98
ATOM     98  S   UNL A   1      54.021  25.518  25.444  1.00  0.00     0.124 S 
ATOM     99  O   UNL A   1      54.767  26.600  26.076  1.00  0.00    -0.237 OA
ATOM    100  O   UNL A   1      54.133  24.210  26.084  1.00  0.00    -0.237 OA
ATOM    101  O   UNL A   1      54.058  25.499  23.984  1.00  0.00    -0.744 OA
ENDBRANCH  97  98
ENDBRANCH  65  90
ENDBRANCH  39  40
ENDBRANCH  31  34
ENDBRANCH  29  30
ENDBRANCH  28  29
ENDBRANCH  27  28
ENDBRANCH  26  27
ENDBRANCH   1  26
TORSDOF 22
ENDMDL
MODEL 3
REMARK VINA RESULT:     -10.4      4.374     10.809
REMARK SMILES C[C@H](CC[NH2+]Cc1cc(C(=O)NCCCCCCNC(=O)c2ccc(-c3c4nc(c(-c5c(F)cc(S(=O)(=O)[O-])cc5F)c5ccc([nH]5)c(-c5c(F)cc(S(=O)(=O)[O-])cc5F)c5nc(c(-c6c(F)cc(S(=O)(=O)[O-])cc6F)c6ccc3[nH]6)C=C5)C=C4)cc2)cs1)c1ccccc1
REMARK SMILES IDX 14 1 13 2 12 3 10 4 11 5 9 7 7 8 8 9 89 10 88 11 6 12 5 13
REMARK SMILES IDX 4 16 3 17 2 18 1 19 90 20 91 21 95 22 92 23 94 24 93 25
REMARK SMILES IDX 15 26 16 27 17 28 18 29 19 30 20 31 21 33 22 34 23 35 87 36
REMARK SMILES IDX 24 37 86 38 25 39 26 40 27 41 80 42 28 43 85 44 79 45 81 46
REMARK SMILES IDX 29 47 84 48 78 49 77 50 30 52 64 53 43 54 63 55 44 56 47 57
REMARK SMILES IDX 62 58 82 59 45 60 46 61 61 63 83 64 48 65 31 66 32 67 41 68
REMARK SMILES IDX 33 69 34 70 40 71 42 72 35 73 36 74 37 75 38 76 39 77 65 78
REMARK SMILES IDX 66 79 75 80 67 81 68 82 74 83 76 84 69 85 70 86 71 87 72 88
REMARK SMILES IDX 73 89 49 90 50 91 59 92 51 93 52 94 58 95 60 96 53 97 54 98
REMARK SMILES IDX 55 99 56 100 57 101
REMARK H PARENT 12 6 5 14 5 15 19 32 81 51 47 62
REMARK Flexibility Score: inf
ROOT
ATOM      1  C   UNL A   1      34.723  33.449  33.312  1.00  0.00     0.021 C 
ENDROOT
BRANCH   1   2
ATOM      2  C   UNL A   1      35.833  34.183  34.065  1.00  0.00     0.116 C 
BRANCH   2   3
ATOM      3  N   UNL A   1      36.850  34.637  33.136  1.00  0.00    -0.352 N 
ATOM      4  C   UNL A   1      38.003  34.054  32.671  1.00  0.00     0.252 C 
ATOM      5  O   UNL A   1      38.654  34.675  31.836  1.00  0.00    -0.269 OA
ATOM      6  H   UNL A   1      36.683  35.536  32.769  1.00  0.00     0.163 HD
BRANCH   4   7
ATOM      7  C   UNL A   1      38.385  32.708  33.098  1.00  0.00     0.051 A 
ATOM      8  C   UNL A   1      39.323  30.963  34.360  1.00  0.00     0.059 A 
ATOM      9  C   UNL A   1      39.402  32.295  34.012  1.00  0.00     0.035 A 
ATOM     10  S   UNL A   1      38.218  30.134  33.361  1.00  0.00    -0.142 S 
ATOM     11  C   UNL A   1      37.759  31.585  32.579  1.00  0.00     0.079 A 
BRANCH   8  12
ATOM     12  C   UNL A   1      40.091  30.284  35.452  1.00  0.00     0.308 C 
BRANCH  12  13
ATOM     13  N   UNL A   1      41.368  29.726  35.020  1.00  0.00    -0.342 N 
ATOM     14  H   UNL A   1      41.887  30.462  34.540  1.00  0.00     0.346 HD
ATOM     15  H   UNL A   1      41.829  29.388  35.864  1.00  0.00     0.346 HD
BRANCH  13  16
ATOM     16  C   UNL A   1      41.270  28.576  34.118  1.00  0.00     0.261 C 
BRANCH  16  17
ATOM     17  C   UNL A   1      42.040  27.366  34.668  1.00  0.00     0.069 C 
BRANCH  17  18
ATOM     18  C   UNL A   1      43.369  26.980  33.947  1.00  0.00     0.021 C 
ATOM     19  C   UNL A   1      44.540  27.882  34.370  1.00  0.00     0.013 C 
BRANCH  18  20
ATOM     20  C   UNL A   1      43.720  25.485  33.926  1.00  0.00    -0.045 A 
ATOM     21  C   UNL A   1      44.232  24.854  32.776  1.00  0.00     0.004 A 
ATOM     22  C   UNL A   1      43.379  24.655  35.009  1.00  0.00     0.004 A 
ATOM     23  C   UNL A   1      44.381  23.465  32.705  1.00  0.00     0.000 A 
ATOM     24  C   UNL A   1      43.544  23.265  34.945  1.00  0.00     0.000 A 
ATOM     25  C   UNL A   1      44.034  22.669  33.789  1.00  0.00     0.000 A 
ENDBRANCH  18  20
ENDBRANCH  17  18
ENDBRANCH  16  17
ENDBRANCH  13  16
ENDBRANCH  12  13
ENDBRANCH   8  12
ENDBRANCH   4   7
ENDBRANCH   2   3
ENDBRANCH   1   2
BRANCH   1  26
ATOM     26  C   UNL A   1      34.497  34.017  31.905  1.00  0.00     0.002 C 
BRANCH  26  27
ATOM     27  C   UNL A   1      34.775  33.023  30.770  1.00  0.00     0.002 C 
BRANCH  27  28
ATOM     28  C   UNL A   1      34.340  33.500  29.381  1.00  0.00     0.021 C 
BRANCH  28  29
ATOM     29  C   UNL A   1      34.880  32.649  28.236  1.00  0.00     0.116 C 
BRANCH  29  30
ATOM     30  N   UNL A   1      34.141  31.403  28.112  1.00  0.00    -0.352 N 
ATOM     31  C   UNL A   1      34.609  30.122  27.985  1.00  0.00     0.251 C 
ATOM     32  H   UNL A   1      33.160  31.493  28.121  1.00  0.00     0.163 HD
ATOM     33  O   UNL A   1      33.848  29.229  27.625  1.00  0.00    -0.269 OA
BRANCH  31  34
ATOM     34  C   UNL A   1      36.026  29.820  28.279  1.00  0.00     0.039 A 
ATOM     35  C   UNL A   1      36.365  29.347  29.547  1.00  0.00     0.014 A 
ATOM     36  C   UNL A   1      37.022  30.038  27.321  1.00  0.00     0.014 A 
ATOM     37  C   UNL A   1      37.698  29.062  29.843  1.00  0.00     0.010 A 
ATOM     38  C   UNL A   1      38.338  29.676  27.590  1.00  0.00     0.010 A 
ATOM     39  C   UNL A   1      38.694  29.202  28.861  1.00  0.00    -0.014 A 
BRANCH  39  40
ATOM     40  C   UNL A   1      40.110  28.870  29.160  1.00  0.00     0.031 A 
ATOM     41  C   UNL A   1      40.993  29.872  29.855  1.00  0.00     0.074 A 
ATOM     42  C   UNL A   1      40.606  27.679  28.774  1.00  0.00     0.049 A 
ATOM     43  N   UNL A   1      42.254  29.765  30.192  1.00  0.00    -0.248 NA
ATOM     44  C   UNL A   1      40.393  31.173  30.193  1.00  0.00     0.031 C 
ATOM     45  C   UNL A   1      39.859  26.650  28.045  1.00  0.00     0.029 A 
ATOM     46  N   UNL A   1      41.852  27.129  28.938  1.00  0.00    -0.354 N 
ATOM     47  C   UNL A   1      42.595  30.980  30.773  1.00  0.00     0.074 A 
ATOM     48  C   UNL A   1      41.431  31.832  30.686  1.00  0.00     0.031 C 
ATOM     49  C   UNL A   1      40.651  25.582  27.857  1.00  0.00     0.029 A 
ATOM     50  C   UNL A   1      41.970  25.864  28.413  1.00  0.00     0.049 A 
ATOM     51  H   UNL A   1      42.592  27.597  29.388  1.00  0.00     0.167 HD
ATOM     52  C   UNL A   1      43.765  31.343  31.351  1.00  0.00     0.037 A 
ATOM     53  C   UNL A   1      43.024  25.025  28.384  1.00  0.00     0.037 A 
ATOM     54  C   UNL A   1      44.913  30.481  31.449  1.00  0.00     0.049 A 
ATOM     55  C   UNL A   1      44.314  25.450  29.033  1.00  0.00     0.074 A 
ATOM     56  C   UNL A   1      46.129  30.732  32.061  1.00  0.00     0.029 A 
ATOM     57  N   UNL A   1      44.991  29.200  30.919  1.00  0.00    -0.354 N 
ATOM     58  N   UNL A   1      44.599  26.579  29.639  1.00  0.00    -0.248 NA
ATOM     59  C   UNL A   1      45.421  24.486  29.005  1.00  0.00     0.031 C 
ATOM     60  C   UNL A   1      46.959  29.626  31.854  1.00  0.00     0.029 A 
ATOM     61  C   UNL A   1      46.241  28.658  31.170  1.00  0.00     0.049 A 
ATOM     62  H   UNL A   1      44.265  28.744  30.436  1.00  0.00     0.167 HD
ATOM     63  C   UNL A   1      45.906  26.446  30.095  1.00  0.00     0.074 A 
ATOM     64  C   UNL A   1      46.350  25.124  29.702  1.00  0.00     0.031 C 
ATOM     65  C   UNL A   1      46.666  27.336  30.781  1.00  0.00     0.037 A 
BRANCH  52  66
ATOM     66  C   UNL A   1      43.863  32.733  31.925  1.00  0.00     0.058 A 
ATOM     67  C   UNL A   1      44.291  33.824  31.151  1.00  0.00     0.135 A 
ATOM     68  C   UNL A   1      43.488  32.985  33.256  1.00  0.00     0.135 A 
ATOM     69  F   UNL A   1      44.675  33.642  29.878  1.00  0.00    -0.206 F 
ATOM     70  C   UNL A   1      44.373  35.108  31.683  1.00  0.00     0.059 A 
ATOM     71  C   UNL A   1      43.532  34.266  33.798  1.00  0.00     0.059 A 
ATOM     72  F   UNL A   1      43.073  31.980  34.043  1.00  0.00    -0.206 F 
ATOM     73  C   UNL A   1      43.990  35.319  33.008  1.00  0.00     0.060 A 
BRANCH  73  74
ATOM     74  S   UNL A   1      44.096  36.991  33.679  1.00  0.00     0.124 S 
ATOM     75  O   UNL A   1      44.723  37.708  32.574  1.00  0.00    -0.237 OA
ATOM     76  O   UNL A   1      42.696  37.315  33.932  1.00  0.00    -0.237 OA
ATOM     77  O   UNL A   1      44.924  36.829  34.870  1.00  0.00    -0.744 OA
ENDBRANCH  73  74
ENDBRANCH  52  66
BRANCH  53  78
ATOM     78  C   UNL A   1      42.890  23.688  27.744  1.00  0.00     0.058 A 
ATOM     79  C   UNL A   1      43.107  23.518  26.368  1.00  0.00     0.135 A 
ATOM     80  C   UNL A   1      42.556  22.551  28.497  1.00  0.00     0.135 A 
ATOM     81  F   UNL A   1      43.425  24.573  25.604  1.00  0.00    -0.206 F 
ATOM     82  C   UNL A   1      42.979  22.274  25.758  1.00  0.00     0.059 A 
ATOM     83  C   UNL A   1      42.451  21.292  27.915  1.00  0.00     0.059 A 
ATOM     84  F   UNL A   1      42.357  22.656  29.820  1.00  0.00    -0.206 F 
ATOM     85  C   UNL A   1      42.654  21.166  26.542  1.00  0.00     0.060 A 
BRANCH  85  86
ATOM     86  S   UNL A   1      42.536  19.548  25.747  1.00  0.00     0.124 S 
ATOM     87  O   UNL A   1      43.480  19.692  24.645  1.00  0.00    -0.237 OA
ATOM     88  O   UNL A   1      42.941  18.650  26.824  1.00  0.00    -0.237 OA
ATOM     89  O   UNL A   1      41.129  19.463  25.367  1.00  0.00    -0.744 OA
ENDBRANCH  85  86
ENDBRANCH  53  78
BRANCH  65  90
ATOM     90  C   UNL A   1      48.043  26.896  31.196  1.00  0.00     0.058 A 
ATOM     91  C   UNL A   1      49.173  27.128  30.395  1.00  0.00     0.135 A 
ATOM     92  C   UNL A   1      48.241  26.275  32.441  1.00  0.00     0.135 A 
ATOM     93  F   UNL A   1      49.041  27.714  29.195  1.00  0.00    -0.206 F 
ATOM     94  C   UNL A   1      50.444  26.735  30.801  1.00  0.00     0.059 A 
ATOM     95  C   UNL A   1      49.507  25.903  32.881  1.00  0.00     0.059 A 
ATOM     96  F   UNL A   1      47.197  26.038  33.252  1.00  0.00    -0.206 F 
ATOM     97  C   UNL A   1      50.601  26.126  32.047  1.00  0.00     0.060 A 
BRANCH  97  98
ATOM     98  S   UNL A   1      52.260  25.646  32.573  1.00  0.00     0.124 S 
ATOM     99  O   UNL A   1      52.002  24.374  33.239  1.00  0.00    -0.237 OA
ATOM    100  O   UNL A   1      52.978  25.565  31.304  1.00  0.00    -0.237 OA
ATOM    101  O   UNL A   1      52.670  26.741  33.448  1.00  0.00    -0.744 OA
ENDBRANCH  97  98
ENDBRANCH  65  90
ENDBRANCH  39  40
ENDBRANCH  31  34
ENDBRANCH  29  30
ENDBRANCH  28  29
ENDBRANCH  27  28
ENDBRANCH  26  27
ENDBRANCH   1  26
TORSDOF 22
ENDMDL
