MODEL 1
REMARK VINA RESULT:     -10.4      0.000      0.000
REMARK SMILES C[C@H]([C@@H](C)O)[NH+]1CCC(C)(C(=O)NCCCCCCNC(=O)c2ccc(-c3c4nc(c(-c5c(F)cc(S(=O)(=O)[O-])cc5F)c5ccc([nH]5)c(-c5c(F)cc(S(=O)(=O)[O-])cc5F)c5nc(c(-c6c(F)cc(S(=O)(=O)[O-])cc6F)c6ccc3[nH]6)C=C5)C=C4)cc2)CC1
REMARK SMILES IDX 16 1 15 2 14 3 13 4 11 5 12 6 9 8 6 9 7 10 90 11 8 13 89 14
REMARK SMILES IDX 10 15 2 16 1 17 3 18 4 19 5 20 17 22 18 23 19 24 20 25 21 26
REMARK SMILES IDX 22 28 23 29 24 30 88 31 25 32 87 33 26 34 27 35 28 36 81 37
REMARK SMILES IDX 29 38 86 39 80 40 82 41 30 42 85 43 79 44 78 45 31 47 65 48
REMARK SMILES IDX 44 49 64 50 45 51 48 52 63 53 83 54 46 55 47 56 62 58 84 59
REMARK SMILES IDX 49 60 32 61 33 62 42 63 34 64 35 65 41 66 43 67 36 68 37 69
REMARK SMILES IDX 38 70 39 71 40 72 66 73 67 74 76 75 68 76 69 77 75 78 77 79
REMARK SMILES IDX 70 80 71 81 72 82 73 83 74 84 50 85 51 86 60 87 52 88 53 89
REMARK SMILES IDX 59 90 61 91 54 92 55 93 56 94 57 95 58 96
REMARK H PARENT 13 7 6 12 5 21 20 27 82 46 48 57
REMARK Flexibility Score: inf
ROOT
ATOM      1  C   UNL A   1      30.684  27.115  24.648  1.00  0.00     0.002 C 
ENDROOT
BRANCH   1   2
ATOM      2  C   UNL A   1      30.153  25.739  25.053  1.00  0.00     0.021 C 
BRANCH   2   3
ATOM      3  C   UNL A   1      30.695  24.594  24.198  1.00  0.00     0.116 C 
BRANCH   3   4
ATOM      4  N   UNL A   1      30.716  23.342  24.941  1.00  0.00    -0.356 N 
ATOM      5  C   UNL A   1      31.609  22.312  24.974  1.00  0.00     0.226 C 
ATOM      6  O   UNL A   1      31.297  21.330  25.651  1.00  0.00    -0.274 OA
ATOM      7  H   UNL A   1      29.938  23.215  25.531  1.00  0.00     0.163 HD
BRANCH   5   8
ATOM      8  C   UNL A   1      32.945  22.382  24.205  1.00  0.00     0.057 C 
ATOM      9  N   UNL A   1      35.367  22.842  25.902  1.00  0.00    -0.331 N 
ATOM     10  C   UNL A   1      34.551  21.650  26.035  1.00  0.00     0.263 C 
ATOM     11  C   UNL A   1      34.503  23.982  25.596  1.00  0.00     0.263 C 
ATOM     12  H   UNL A   1      35.795  22.993  26.816  1.00  0.00     0.348 HD
ATOM     13  C   UNL A   1      33.888  21.266  24.720  1.00  0.00     0.078 C 
ATOM     14  C   UNL A   1      33.601  23.794  24.371  1.00  0.00     0.078 C 
ATOM     15  C   UNL A   1      32.639  22.261  22.694  1.00  0.00     0.022 C 
BRANCH   9  16
ATOM     16  C   UNL A   1      36.650  22.754  25.164  1.00  0.00     0.209 C 
ATOM     17  C   UNL A   1      36.613  22.955  23.634  1.00  0.00     0.078 C 
BRANCH  16  18
ATOM     18  C   UNL A   1      37.595  21.564  25.571  1.00  0.00     0.169 C 
ATOM     19  C   UNL A   1      37.535  20.284  24.736  1.00  0.00     0.045 C 
BRANCH  18  20
ATOM     20  O   UNL A   1      38.961  22.023  25.547  1.00  0.00    -0.387 OA
ATOM     21  H   UNL A   1      39.066  22.755  26.175  1.00  0.00     0.211 HD
ENDBRANCH  18  20
ENDBRANCH  16  18
ENDBRANCH   9  16
ENDBRANCH   5   8
ENDBRANCH   3   4
ENDBRANCH   2   3
ENDBRANCH   1   2
BRANCH   1  22
ATOM     22  C   UNL A   1      31.652  27.741  25.655  1.00  0.00     0.002 C 
BRANCH  22  23
ATOM     23  C   UNL A   1      33.109  27.289  25.509  1.00  0.00     0.021 C 
BRANCH  23  24
ATOM     24  C   UNL A   1      34.057  27.895  26.536  1.00  0.00     0.116 C 
BRANCH  24  25
ATOM     25  N   UNL A   1      33.659  29.245  26.900  1.00  0.00    -0.352 N 
ATOM     26  C   UNL A   1      34.321  30.158  27.681  1.00  0.00     0.251 C 
ATOM     27  H   UNL A   1      32.793  29.544  26.538  1.00  0.00     0.163 HD
ATOM     28  O   UNL A   1      33.739  31.158  28.086  1.00  0.00    -0.269 OA
BRANCH  26  29
ATOM     29  C   UNL A   1      35.735  29.918  28.034  1.00  0.00     0.039 A 
ATOM     30  C   UNL A   1      36.049  29.510  29.332  1.00  0.00     0.014 A 
ATOM     31  C   UNL A   1      36.745  30.096  27.083  1.00  0.00     0.014 A 
ATOM     32  C   UNL A   1      37.376  29.232  29.662  1.00  0.00     0.010 A 
ATOM     33  C   UNL A   1      38.054  29.744  27.393  1.00  0.00     0.010 A 
ATOM     34  C   UNL A   1      38.385  29.319  28.688  1.00  0.00    -0.014 A 
BRANCH  34  35
ATOM     35  C   UNL A   1      39.796  28.982  29.008  1.00  0.00     0.031 A 
ATOM     36  C   UNL A   1      40.695  30.018  29.626  1.00  0.00     0.074 A 
ATOM     37  C   UNL A   1      40.278  27.766  28.687  1.00  0.00     0.049 A 
ATOM     38  N   UNL A   1      41.968  29.939  29.914  1.00  0.00    -0.248 NA
ATOM     39  C   UNL A   1      40.090  31.324  29.934  1.00  0.00     0.031 C 
ATOM     40  C   UNL A   1      39.514  26.693  28.045  1.00  0.00     0.029 A 
ATOM     41  N   UNL A   1      41.530  27.227  28.849  1.00  0.00    -0.354 N 
ATOM     42  C   UNL A   1      42.319  31.182  30.426  1.00  0.00     0.074 A 
ATOM     43  C   UNL A   1      41.140  32.017  30.353  1.00  0.00     0.031 C 
ATOM     44  C   UNL A   1      40.306  25.621  27.888  1.00  0.00     0.029 A 
ATOM     45  C   UNL A   1      41.643  25.940  28.379  1.00  0.00     0.049 A 
ATOM     46  H   UNL A   1      42.278  27.717  29.263  1.00  0.00     0.167 HD
ATOM     47  C   UNL A   1      43.508  31.585  30.932  1.00  0.00     0.037 A 
ATOM     48  C   UNL A   1      42.707  25.113  28.336  1.00  0.00     0.037 A 
ATOM     49  C   UNL A   1      44.671  30.739  31.020  1.00  0.00     0.049 A 
ATOM     50  C   UNL A   1      44.022  25.587  28.896  1.00  0.00     0.074 A 
ATOM     51  C   UNL A   1      45.908  31.033  31.565  1.00  0.00     0.029 A 
ATOM     52  N   UNL A   1      44.742  29.436  30.548  1.00  0.00    -0.354 N 
ATOM     53  N   UNL A   1      44.320  26.746  29.433  1.00  0.00    -0.248 NA
ATOM     54  C   UNL A   1      45.143  24.639  28.851  1.00  0.00     0.031 C 
ATOM     55  C   UNL A   1      46.743  29.927  31.376  1.00  0.00     0.029 A 
ATOM     56  C   UNL A   1      46.009  28.922  30.767  1.00  0.00     0.049 A 
ATOM     57  H   UNL A   1      44.000  28.950  30.120  1.00  0.00     0.167 HD
ATOM     58  C   UNL A   1      45.653  26.656  29.818  1.00  0.00     0.074 A 
ATOM     59  C   UNL A   1      46.100  25.326  29.461  1.00  0.00     0.031 C 
ATOM     60  C   UNL A   1      46.435  27.589  30.415  1.00  0.00     0.037 A 
BRANCH  47  61
ATOM     61  C   UNL A   1      43.614  33.001  31.431  1.00  0.00     0.058 A 
ATOM     62  C   UNL A   1      43.386  33.329  32.778  1.00  0.00     0.135 A 
ATOM     63  C   UNL A   1      43.984  34.040  30.560  1.00  0.00     0.135 A 
ATOM     64  F   UNL A   1      43.015  32.380  33.651  1.00  0.00    -0.206 F 
ATOM     65  C   UNL A   1      43.491  34.638  33.236  1.00  0.00     0.059 A 
ATOM     66  C   UNL A   1      44.126  35.351  31.004  1.00  0.00     0.059 A 
ATOM     67  F   UNL A   1      44.214  33.784  29.262  1.00  0.00    -0.206 F 
ATOM     68  C   UNL A   1      43.862  35.642  32.342  1.00  0.00     0.060 A 
BRANCH  68  69
ATOM     69  S   UNL A   1      44.000  37.334  32.956  1.00  0.00     0.124 S 
ATOM     70  O   UNL A   1      42.856  37.409  33.859  1.00  0.00    -0.237 OA
ATOM     71  O   UNL A   1      45.312  37.327  33.595  1.00  0.00    -0.237 OA
ATOM     72  O   UNL A   1      43.898  38.145  31.747  1.00  0.00    -0.744 OA
ENDBRANCH  68  69
ENDBRANCH  47  61
BRANCH  48  73
ATOM     73  C   UNL A   1      42.567  23.749  27.761  1.00  0.00     0.058 A 
ATOM     74  C   UNL A   1      42.417  22.627  28.589  1.00  0.00     0.135 A 
ATOM     75  C   UNL A   1      42.568  23.540  26.372  1.00  0.00     0.135 A 
ATOM     76  F   UNL A   1      42.415  22.773  29.923  1.00  0.00    -0.206 F 
ATOM     77  C   UNL A   1      42.293  21.344  28.064  1.00  0.00     0.059 A 
ATOM     78  C   UNL A   1      42.418  22.271  25.823  1.00  0.00     0.059 A 
ATOM     79  F   UNL A   1      42.691  24.582  25.536  1.00  0.00    -0.206 F 
ATOM     80  C   UNL A   1      42.291  21.177  26.678  1.00  0.00     0.060 A 
BRANCH  80  81
ATOM     81  S   UNL A   1      42.085  19.513  26.007  1.00  0.00     0.124 S 
ATOM     82  O   UNL A   1      40.652  19.478  25.743  1.00  0.00    -0.237 OA
ATOM     83  O   UNL A   1      42.952  19.548  24.833  1.00  0.00    -0.237 OA
ATOM     84  O   UNL A   1      42.548  18.655  27.093  1.00  0.00    -0.744 OA
ENDBRANCH  80  81
ENDBRANCH  48  73
BRANCH  60  85
ATOM     85  C   UNL A   1      47.845  27.196  30.762  1.00  0.00     0.058 A 
ATOM     86  C   UNL A   1      48.162  26.556  31.971  1.00  0.00     0.135 A 
ATOM     87  C   UNL A   1      48.886  27.412  29.843  1.00  0.00     0.135 A 
ATOM     88  F   UNL A   1      47.207  26.331  32.887  1.00  0.00    -0.206 F 
ATOM     89  C   UNL A   1      49.465  26.166  32.266  1.00  0.00     0.059 A 
ATOM     90  C   UNL A   1      50.190  27.002  30.104  1.00  0.00     0.059 A 
ATOM     91  F   UNL A   1      48.637  28.010  28.667  1.00  0.00    -0.206 F 
ATOM     92  C   UNL A   1      50.470  26.389  31.324  1.00  0.00     0.060 A 
BRANCH  92  93
ATOM     93  S   UNL A   1      52.149  25.843  31.706  1.00  0.00     0.124 S 
ATOM     94  O   UNL A   1      52.507  26.738  32.801  1.00  0.00    -0.237 OA
ATOM     95  O   UNL A   1      51.945  24.444  32.070  1.00  0.00    -0.237 OA
ATOM     96  O   UNL A   1      52.870  26.061  30.455  1.00  0.00    -0.744 OA
ENDBRANCH  92  93
ENDBRANCH  60  85
ENDBRANCH  34  35
ENDBRANCH  26  29
ENDBRANCH  24  25
ENDBRANCH  23  24
ENDBRANCH  22  23
ENDBRANCH   1  22
TORSDOF 19
ENDMDL
MODEL 2
REMARK VINA RESULT:     -10.4      1.211      2.259
REMARK SMILES C[C@H]([C@@H](C)O)[NH+]1CCC(C)(C(=O)NCCCCCCNC(=O)c2ccc(-c3c4nc(c(-c5c(F)cc(S(=O)(=O)[O-])cc5F)c5ccc([nH]5)c(-c5c(F)cc(S(=O)(=O)[O-])cc5F)c5nc(c(-c6c(F)cc(S(=O)(=O)[O-])cc6F)c6ccc3[nH]6)C=C5)C=C4)cc2)CC1
REMARK SMILES IDX 16 1 15 2 14 3 13 4 11 5 12 6 9 8 6 9 7 10 90 11 8 13 89 14
REMARK SMILES IDX 10 15 2 16 1 17 3 18 4 19 5 20 17 22 18 23 19 24 20 25 21 26
REMARK SMILES IDX 22 28 23 29 24 30 88 31 25 32 87 33 26 34 27 35 28 36 81 37
REMARK SMILES IDX 29 38 86 39 80 40 82 41 30 42 85 43 79 44 78 45 31 47 65 48
REMARK SMILES IDX 44 49 64 50 45 51 48 52 63 53 83 54 46 55 47 56 62 58 84 59
REMARK SMILES IDX 49 60 32 61 33 62 42 63 34 64 35 65 41 66 43 67 36 68 37 69
REMARK SMILES IDX 38 70 39 71 40 72 66 73 67 74 76 75 68 76 69 77 75 78 77 79
REMARK SMILES IDX 70 80 71 81 72 82 73 83 74 84 50 85 51 86 60 87 52 88 53 89
REMARK SMILES IDX 59 90 61 91 54 92 55 93 56 94 57 95 58 96
REMARK H PARENT 13 7 6 12 5 21 20 27 82 46 48 57
REMARK Flexibility Score: inf
ROOT
ATOM      1  C   UNL A   1      31.488  28.835  24.683  1.00  0.00     0.002 C 
ENDROOT
BRANCH   1   2
ATOM      2  C   UNL A   1      30.979  28.834  23.241  1.00  0.00     0.021 C 
BRANCH   2   3
ATOM      3  C   UNL A   1      30.567  27.452  22.734  1.00  0.00     0.116 C 
BRANCH   3   4
ATOM      4  N   UNL A   1      31.586  26.882  21.864  1.00  0.00    -0.356 N 
ATOM      5  C   UNL A   1      32.320  25.736  21.942  1.00  0.00     0.226 C 
ATOM      6  O   UNL A   1      33.183  25.571  21.078  1.00  0.00    -0.274 OA
ATOM      7  H   UNL A   1      31.781  27.428  21.068  1.00  0.00     0.163 HD
BRANCH   5   8
ATOM      8  C   UNL A   1      32.072  24.697  23.056  1.00  0.00     0.057 C 
ATOM      9  N   UNL A   1      34.540  23.460  24.213  1.00  0.00    -0.331 N 
ATOM     10  C   UNL A   1      34.264  24.879  24.331  1.00  0.00     0.263 C 
ATOM     11  C   UNL A   1      34.066  22.987  22.913  1.00  0.00     0.263 C 
ATOM     12  H   UNL A   1      35.555  23.367  24.245  1.00  0.00     0.348 HD
ATOM     13  C   UNL A   1      32.770  25.167  24.357  1.00  0.00     0.078 C 
ATOM     14  C   UNL A   1      32.592  23.287  22.617  1.00  0.00     0.078 C 
ATOM     15  C   UNL A   1      30.545  24.523  23.223  1.00  0.00     0.022 C 
BRANCH   9  16
ATOM     16  C   UNL A   1      34.286  22.581  25.381  1.00  0.00     0.209 C 
ATOM     17  C   UNL A   1      34.311  23.225  26.783  1.00  0.00     0.078 C 
BRANCH  16  18
ATOM     18  C   UNL A   1      35.026  21.193  25.367  1.00  0.00     0.169 C 
ATOM     19  C   UNL A   1      34.297  19.999  24.749  1.00  0.00     0.045 C 
BRANCH  18  20
ATOM     20  O   UNL A   1      36.276  21.337  24.664  1.00  0.00    -0.387 OA
ATOM     21  H   UNL A   1      36.366  20.623  24.015  1.00  0.00     0.211 HD
ENDBRANCH  18  20
ENDBRANCH  16  18
ENDBRANCH   9  16
ENDBRANCH   5   8
ENDBRANCH   3   4
ENDBRANCH   2   3
ENDBRANCH   1   2
BRANCH   1  22
ATOM     22  C   UNL A   1      32.949  29.269  24.837  1.00  0.00     0.002 C 
BRANCH  22  23
ATOM     23  C   UNL A   1      33.835  28.277  25.595  1.00  0.00     0.021 C 
BRANCH  23  24
ATOM     24  C   UNL A   1      33.764  28.407  27.112  1.00  0.00     0.116 C 
BRANCH  24  25
ATOM     25  N   UNL A   1      33.601  29.791  27.522  1.00  0.00    -0.352 N 
ATOM     26  C   UNL A   1      34.463  30.587  28.234  1.00  0.00     0.251 C 
ATOM     27  H   UNL A   1      32.755  30.217  27.253  1.00  0.00     0.163 HD
ATOM     28  O   UNL A   1      34.074  31.651  28.702  1.00  0.00    -0.269 OA
BRANCH  26  29
ATOM     29  C   UNL A   1      35.857  30.143  28.437  1.00  0.00     0.039 A 
ATOM     30  C   UNL A   1      36.766  30.258  27.383  1.00  0.00     0.014 A 
ATOM     31  C   UNL A   1      36.263  29.617  29.667  1.00  0.00     0.014 A 
ATOM     32  C   UNL A   1      38.096  29.888  27.579  1.00  0.00     0.010 A 
ATOM     33  C   UNL A   1      37.605  29.322  29.883  1.00  0.00     0.010 A 
ATOM     34  C   UNL A   1      38.533  29.444  28.839  1.00  0.00    -0.014 A 
BRANCH  34  35
ATOM     35  C   UNL A   1      39.956  29.091  29.081  1.00  0.00     0.031 A 
ATOM     36  C   UNL A   1      40.901  30.121  29.639  1.00  0.00     0.074 A 
ATOM     37  C   UNL A   1      40.404  27.867  28.744  1.00  0.00     0.049 A 
ATOM     38  N   UNL A   1      42.188  30.028  29.855  1.00  0.00    -0.248 NA
ATOM     39  C   UNL A   1      40.331  31.437  29.969  1.00  0.00     0.031 C 
ATOM     40  C   UNL A   1      39.592  26.800  28.154  1.00  0.00     0.029 A 
ATOM     41  N   UNL A   1      41.657  27.314  28.838  1.00  0.00    -0.354 N 
ATOM     42  C   UNL A   1      42.582  31.270  30.335  1.00  0.00     0.074 A 
ATOM     43  C   UNL A   1      41.411  32.119  30.323  1.00  0.00     0.031 C 
ATOM     44  C   UNL A   1      40.360  25.717  27.962  1.00  0.00     0.029 A 
ATOM     45  C   UNL A   1      41.727  26.022  28.373  1.00  0.00     0.049 A 
ATOM     46  H   UNL A   1      42.432  27.797  29.206  1.00  0.00     0.167 HD
ATOM     47  C   UNL A   1      43.803  31.661  30.770  1.00  0.00     0.037 A 
ATOM     48  C   UNL A   1      42.776  25.182  28.278  1.00  0.00     0.037 A 
ATOM     49  C   UNL A   1      44.958  30.802  30.799  1.00  0.00     0.049 A 
ATOM     50  C   UNL A   1      44.127  25.643  28.758  1.00  0.00     0.074 A 
ATOM     51  C   UNL A   1      46.228  31.084  31.271  1.00  0.00     0.029 A 
ATOM     52  N   UNL A   1      44.986  29.495  30.335  1.00  0.00    -0.354 N 
ATOM     53  N   UNL A   1      44.469  26.802  29.268  1.00  0.00    -0.248 NA
ATOM     54  C   UNL A   1      45.232  24.680  28.657  1.00  0.00     0.031 C 
ATOM     55  C   UNL A   1      47.037  29.966  31.044  1.00  0.00     0.029 A 
ATOM     56  C   UNL A   1      46.257  28.966  30.486  1.00  0.00     0.049 A 
ATOM     57  H   UNL A   1      44.216  29.014  29.954  1.00  0.00     0.167 HD
ATOM     58  C   UNL A   1      45.821  26.698  29.577  1.00  0.00     0.074 A 
ATOM     59  C   UNL A   1      46.230  25.359  29.207  1.00  0.00     0.031 C 
ATOM     60  C   UNL A   1      46.647  27.625  30.122  1.00  0.00     0.037 A 
BRANCH  47  61
ATOM     61  C   UNL A   1      43.955  33.080  31.251  1.00  0.00     0.058 A 
ATOM     62  C   UNL A   1      44.210  34.139  30.363  1.00  0.00     0.135 A 
ATOM     63  C   UNL A   1      43.807  33.392  32.613  1.00  0.00     0.135 A 
ATOM     64  F   UNL A   1      44.375  33.897  29.053  1.00  0.00    -0.206 F 
ATOM     65  C   UNL A   1      44.343  35.448  30.811  1.00  0.00     0.059 A 
ATOM     66  C   UNL A   1      43.905  34.700  33.079  1.00  0.00     0.059 A 
ATOM     67  F   UNL A   1      43.564  32.420  33.507  1.00  0.00    -0.206 F 
ATOM     68  C   UNL A   1      44.188  35.719  32.170  1.00  0.00     0.060 A 
BRANCH  68  69
ATOM     69  S   UNL A   1      44.358  37.426  32.733  1.00  0.00     0.124 S 
ATOM     70  O   UNL A   1      45.710  37.418  33.281  1.00  0.00    -0.237 OA
ATOM     71  O   UNL A   1      44.180  38.180  31.496  1.00  0.00    -0.237 OA
ATOM     72  O   UNL A   1      43.285  37.571  33.712  1.00  0.00    -0.744 OA
ENDBRANCH  68  69
ENDBRANCH  47  61
BRANCH  48  73
ATOM     73  C   UNL A   1      42.587  23.814  27.722  1.00  0.00     0.058 A 
ATOM     74  C   UNL A   1      42.495  22.698  28.566  1.00  0.00     0.135 A 
ATOM     75  C   UNL A   1      42.482  23.598  26.339  1.00  0.00     0.135 A 
ATOM     76  F   UNL A   1      42.595  22.851  29.895  1.00  0.00    -0.206 F 
ATOM     77  C   UNL A   1      42.326  21.413  28.059  1.00  0.00     0.059 A 
ATOM     78  C   UNL A   1      42.285  22.327  25.810  1.00  0.00     0.059 A 
ATOM     79  F   UNL A   1      42.546  24.635  25.489  1.00  0.00    -0.206 F 
ATOM     80  C   UNL A   1      42.219  21.239  26.678  1.00  0.00     0.060 A 
BRANCH  80  81
ATOM     81  S   UNL A   1      41.956  19.572  26.034  1.00  0.00     0.124 S 
ATOM     82  O   UNL A   1      42.368  18.751  27.166  1.00  0.00    -0.237 OA
ATOM     83  O   UNL A   1      40.527  19.582  25.737  1.00  0.00    -0.237 OA
ATOM     84  O   UNL A   1      42.830  19.522  24.866  1.00  0.00    -0.744 OA
ENDBRANCH  80  81
ENDBRANCH  48  73
BRANCH  60  85
ATOM     85  C   UNL A   1      48.069  27.217  30.391  1.00  0.00     0.058 A 
ATOM     86  C   UNL A   1      49.115  27.545  29.513  1.00  0.00     0.135 A 
ATOM     87  C   UNL A   1      48.398  26.535  31.575  1.00  0.00     0.135 A 
ATOM     88  F   UNL A   1      48.856  28.190  28.365  1.00  0.00    -0.206 F 
ATOM     89  C   UNL A   1      50.432  27.192  29.789  1.00  0.00     0.059 A 
ATOM     90  C   UNL A   1      49.712  26.200  31.886  1.00  0.00     0.059 A 
ATOM     91  F   UNL A   1      47.438  26.206  32.454  1.00  0.00    -0.206 F 
ATOM     92  C   UNL A   1      50.721  26.523  30.980  1.00  0.00     0.060 A 
BRANCH  92  93
ATOM     93  S   UNL A   1      52.440  26.106  31.342  1.00  0.00     0.124 S 
ATOM     94  O   UNL A   1      53.015  26.043  30.003  1.00  0.00    -0.237 OA
ATOM     95  O   UNL A   1      52.867  27.234  32.164  1.00  0.00    -0.237 OA
ATOM     96  O   UNL A   1      52.339  24.829  32.043  1.00  0.00    -0.744 OA
ENDBRANCH  92  93
ENDBRANCH  60  85
ENDBRANCH  34  35
ENDBRANCH  26  29
ENDBRANCH  24  25
ENDBRANCH  23  24
ENDBRANCH  22  23
ENDBRANCH   1  22
TORSDOF 19
ENDMDL
MODEL 3
REMARK VINA RESULT:     -10.4      4.608     10.504
REMARK SMILES C[C@H]([C@@H](C)O)[NH+]1CCC(C)(C(=O)NCCCCCCNC(=O)c2ccc(-c3c4nc(c(-c5c(F)cc(S(=O)(=O)[O-])cc5F)c5ccc([nH]5)c(-c5c(F)cc(S(=O)(=O)[O-])cc5F)c5nc(c(-c6c(F)cc(S(=O)(=O)[O-])cc6F)c6ccc3[nH]6)C=C5)C=C4)cc2)CC1
REMARK SMILES IDX 16 1 15 2 14 3 13 4 11 5 12 6 9 8 6 9 7 10 90 11 8 13 89 14
REMARK SMILES IDX 10 15 2 16 1 17 3 18 4 19 5 20 17 22 18 23 19 24 20 25 21 26
REMARK SMILES IDX 22 28 23 29 24 30 88 31 25 32 87 33 26 34 27 35 28 36 81 37
REMARK SMILES IDX 29 38 86 39 80 40 82 41 30 42 85 43 79 44 78 45 31 47 65 48
REMARK SMILES IDX 44 49 64 50 45 51 48 52 63 53 83 54 46 55 47 56 62 58 84 59
REMARK SMILES IDX 49 60 32 61 33 62 42 63 34 64 35 65 41 66 43 67 36 68 37 69
REMARK SMILES IDX 38 70 39 71 40 72 66 73 67 74 76 75 68 76 69 77 75 78 77 79
REMARK SMILES IDX 70 80 71 81 72 82 73 83 74 84 50 85 51 86 60 87 52 88 53 89
REMARK SMILES IDX 59 90 61 91 54 92 55 93 56 94 57 95 58 96
REMARK H PARENT 13 7 6 12 5 21 20 27 82 46 48 57
REMARK Flexibility Score: inf
ROOT
ATOM      1  C   UNL A   1      40.160  22.473  26.515  1.00  0.00     0.002 C 
ENDROOT
BRANCH   1   2
ATOM      2  C   UNL A   1      38.897  23.335  26.493  1.00  0.00     0.021 C 
BRANCH   2   3
ATOM      3  C   UNL A   1      37.670  22.613  25.937  1.00  0.00     0.116 C 
BRANCH   3   4
ATOM      4  N   UNL A   1      37.474  22.912  24.526  1.00  0.00    -0.356 N 
ATOM      5  C   UNL A   1      36.371  22.869  23.726  1.00  0.00     0.226 C 
ATOM      6  O   UNL A   1      36.547  23.100  22.527  1.00  0.00    -0.274 OA
ATOM      7  H   UNL A   1      38.294  23.200  24.061  1.00  0.00     0.163 HD
BRANCH   5   8
ATOM      8  C   UNL A   1      34.974  22.552  24.299  1.00  0.00     0.057 C 
ATOM      9  N   UNL A   1      33.053  24.847  24.307  1.00  0.00    -0.331 N 
ATOM     10  C   UNL A   1      33.585  24.295  23.076  1.00  0.00     0.263 C 
ATOM     11  C   UNL A   1      34.088  24.801  25.339  1.00  0.00     0.263 C 
ATOM     12  H   UNL A   1      32.835  25.824  24.107  1.00  0.00     0.348 HD
ATOM     13  C   UNL A   1      33.904  22.813  23.209  1.00  0.00     0.078 C 
ATOM     14  C   UNL A   1      34.697  23.414  25.577  1.00  0.00     0.078 C 
ATOM     15  C   UNL A   1      34.978  21.089  24.799  1.00  0.00     0.022 C 
BRANCH   9  16
ATOM     16  C   UNL A   1      31.675  24.483  24.720  1.00  0.00     0.209 C 
ATOM     17  C   UNL A   1      30.568  24.530  23.645  1.00  0.00     0.078 C 
BRANCH  16  18
ATOM     18  C   UNL A   1      31.186  25.091  26.085  1.00  0.00     0.169 C 
ATOM     19  C   UNL A   1      30.918  26.596  26.144  1.00  0.00     0.045 C 
BRANCH  18  20
ATOM     20  O   UNL A   1      29.970  24.427  26.483  1.00  0.00    -0.387 OA
ATOM     21  H   UNL A   1      29.793  24.610  27.418  1.00  0.00     0.211 HD
ENDBRANCH  18  20
ENDBRANCH  16  18
ENDBRANCH   9  16
ENDBRANCH   5   8
ENDBRANCH   3   4
ENDBRANCH   2   3
ENDBRANCH   1   2
BRANCH   1  22
ATOM     22  C   UNL A   1      40.836  22.377  27.886  1.00  0.00     0.002 C 
BRANCH  22  23
ATOM     23  C   UNL A   1      42.356  22.192  27.839  1.00  0.00     0.021 C 
BRANCH  23  24
ATOM     24  C   UNL A   1      43.141  23.494  27.740  1.00  0.00     0.116 C 
BRANCH  24  25
ATOM     25  N   UNL A   1      42.956  24.133  26.448  1.00  0.00    -0.352 N 
ATOM     26  C   UNL A   1      42.350  25.329  26.156  1.00  0.00     0.251 C 
ATOM     27  H   UNL A   1      43.314  23.638  25.676  1.00  0.00     0.163 HD
ATOM     28  O   UNL A   1      42.065  25.607  24.997  1.00  0.00    -0.269 OA
BRANCH  26  29
ATOM     29  C   UNL A   1      42.037  26.268  27.252  1.00  0.00     0.039 A 
ATOM     30  C   UNL A   1      40.967  25.984  28.103  1.00  0.00     0.014 A 
ATOM     31  C   UNL A   1      42.801  27.424  27.437  1.00  0.00     0.014 A 
ATOM     32  C   UNL A   1      40.693  26.839  29.171  1.00  0.00     0.010 A 
ATOM     33  C   UNL A   1      42.575  28.231  28.546  1.00  0.00     0.010 A 
ATOM     34  C   UNL A   1      41.513  27.953  29.419  1.00  0.00    -0.014 A 
BRANCH  34  35
ATOM     35  C   UNL A   1      41.267  28.848  30.579  1.00  0.00     0.031 A 
ATOM     36  C   UNL A   1      42.103  28.713  31.823  1.00  0.00     0.074 A 
ATOM     37  C   UNL A   1      40.257  29.737  30.531  1.00  0.00     0.049 A 
ATOM     38  N   UNL A   1      41.999  29.350  32.960  1.00  0.00    -0.248 NA
ATOM     39  C   UNL A   1      43.179  27.708  31.795  1.00  0.00     0.031 C 
ATOM     40  C   UNL A   1      39.350  29.930  29.397  1.00  0.00     0.029 A 
ATOM     41  N   UNL A   1      39.814  30.641  31.464  1.00  0.00    -0.354 N 
ATOM     42  C   UNL A   1      42.984  28.820  33.784  1.00  0.00     0.074 A 
ATOM     43  C   UNL A   1      43.637  27.767  33.037  1.00  0.00     0.031 C 
ATOM     44  C   UNL A   1      38.476  30.905  29.691  1.00  0.00     0.029 A 
ATOM     45  C   UNL A   1      38.730  31.379  31.048  1.00  0.00     0.049 A 
ATOM     46  H   UNL A   1      40.233  30.752  32.348  1.00  0.00     0.167 HD
ATOM     47  C   UNL A   1      43.329  29.192  35.039  1.00  0.00     0.037 A 
ATOM     48  C   UNL A   1      38.015  32.322  31.691  1.00  0.00     0.037 A 
ATOM     49  C   UNL A   1      42.687  30.256  35.766  1.00  0.00     0.049 A 
ATOM     50  C   UNL A   1      38.411  32.712  33.090  1.00  0.00     0.074 A 
ATOM     51  C   UNL A   1      42.997  30.748  37.022  1.00  0.00     0.029 A 
ATOM     52  N   UNL A   1      41.604  30.991  35.305  1.00  0.00    -0.354 N 
ATOM     53  N   UNL A   1      39.386  32.243  33.832  1.00  0.00    -0.248 NA
ATOM     54  C   UNL A   1      37.616  33.764  33.738  1.00  0.00     0.031 C 
ATOM     55  C   UNL A   1      42.068  31.744  37.342  1.00  0.00     0.029 A 
ATOM     56  C   UNL A   1      41.217  31.915  36.262  1.00  0.00     0.049 A 
ATOM     57  H   UNL A   1      41.174  30.872  34.428  1.00  0.00     0.167 HD
ATOM     58  C   UNL A   1      39.341  32.963  35.020  1.00  0.00     0.074 A 
ATOM     59  C   UNL A   1      38.249  33.906  34.894  1.00  0.00     0.031 C 
ATOM     60  C   UNL A   1      40.133  32.856  36.116  1.00  0.00     0.037 A 
BRANCH  47  61
ATOM     61  C   UNL A   1      44.452  28.445  35.707  1.00  0.00     0.058 A 
ATOM     62  C   UNL A   1      44.217  27.310  36.501  1.00  0.00     0.135 A 
ATOM     63  C   UNL A   1      45.786  28.846  35.523  1.00  0.00     0.135 A 
ATOM     64  F   UNL A   1      42.961  26.890  36.724  1.00  0.00    -0.206 F 
ATOM     65  C   UNL A   1      45.258  26.619  37.112  1.00  0.00     0.059 A 
ATOM     66  C   UNL A   1      46.846  28.151  36.099  1.00  0.00     0.059 A 
ATOM     67  F   UNL A   1      46.071  29.924  34.775  1.00  0.00    -0.206 F 
ATOM     68  C   UNL A   1      46.569  27.047  36.904  1.00  0.00     0.060 A 
BRANCH  68  69
ATOM     69  S   UNL A   1      47.908  26.135  37.699  1.00  0.00     0.124 S 
ATOM     70  O   UNL A   1      48.229  27.010  38.822  1.00  0.00    -0.237 OA
ATOM     71  O   UNL A   1      47.262  24.872  38.045  1.00  0.00    -0.237 OA
ATOM     72  O   UNL A   1      48.928  26.050  36.659  1.00  0.00    -0.744 OA
ENDBRANCH  68  69
ENDBRANCH  47  61
BRANCH  48  73
ATOM     73  C   UNL A   1      36.864  32.976  31.011  1.00  0.00     0.058 A 
ATOM     74  C   UNL A   1      35.543  32.649  31.351  1.00  0.00     0.135 A 
ATOM     75  C   UNL A   1      37.061  33.948  30.018  1.00  0.00     0.135 A 
ATOM     76  F   UNL A   1      35.302  31.722  32.291  1.00  0.00    -0.206 F 
ATOM     77  C   UNL A   1      34.458  33.246  30.718  1.00  0.00     0.059 A 
ATOM     78  C   UNL A   1      35.992  34.579  29.390  1.00  0.00     0.059 A 
ATOM     79  F   UNL A   1      38.305  34.310  29.668  1.00  0.00    -0.206 F 
ATOM     80  C   UNL A   1      34.693  34.214  29.740  1.00  0.00     0.060 A 
BRANCH  80  81
ATOM     81  S   UNL A   1      33.277  35.015  28.956  1.00  0.00     0.124 S 
ATOM     82  O   UNL A   1      32.831  33.982  28.029  1.00  0.00    -0.237 OA
ATOM     83  O   UNL A   1      32.403  35.273  30.096  1.00  0.00    -0.237 OA
ATOM     84  O   UNL A   1      33.862  36.204  28.343  1.00  0.00    -0.744 OA
ENDBRANCH  80  81
ENDBRANCH  48  73
BRANCH  60  85
ATOM     85  C   UNL A   1      39.881  33.807  37.253  1.00  0.00     0.058 A 
ATOM     86  C   UNL A   1      40.541  35.043  37.348  1.00  0.00     0.135 A 
ATOM     87  C   UNL A   1      38.920  33.501  38.232  1.00  0.00     0.135 A 
ATOM     88  F   UNL A   1      41.472  35.383  36.443  1.00  0.00    -0.206 F 
ATOM     89  C   UNL A   1      40.274  35.930  38.386  1.00  0.00     0.059 A 
ATOM     90  C   UNL A   1      38.615  34.387  39.260  1.00  0.00     0.059 A 
ATOM     91  F   UNL A   1      38.252  32.337  38.183  1.00  0.00    -0.206 F 
ATOM     92  C   UNL A   1      39.307  35.595  39.334  1.00  0.00     0.060 A 
BRANCH  92  93
ATOM     93  S   UNL A   1      38.944  36.774  40.654  1.00  0.00     0.124 S 
ATOM     94  O   UNL A   1      38.124  35.967  41.550  1.00  0.00    -0.237 OA
ATOM     95  O   UNL A   1      40.276  37.111  41.144  1.00  0.00    -0.237 OA
ATOM     96  O   UNL A   1      38.244  37.853  39.963  1.00  0.00    -0.744 OA
ENDBRANCH  92  93
ENDBRANCH  60  85
ENDBRANCH  34  35
ENDBRANCH  26  29
ENDBRANCH  24  25
ENDBRANCH  23  24
ENDBRANCH  22  23
ENDBRANCH   1  22
TORSDOF 19
ENDMDL
