MODEL 1
REMARK VINA RESULT:     -11.7      0.000      0.000
REMARK SMILES C/C(=N\Nc1nc(-c2ccc(Cl)cc2)cs1)c1nnn(-c2ccc(C(=O)NCCCCCCNC(=O)c3ccc(-c4c5nc(c(-c6c(F)cc(S(=O)(=O)[O-])cc6F)c6ccc([nH]6)c(-c6c(F)cc(S(=O)(=O)[O-])cc6F)c6nc(c(-c7c(F)cc(S(=O)(=O)[O-])cc7F)c7ccc4[nH]7)C=C6)C=C5)cc3)cc2)c1C
REMARK SMILES IDX 29 1 28 2 27 3 25 4 26 5 24 7 21 8 22 9 104 10 23 11 103 12
REMARK SMILES IDX 20 13 17 14 18 15 105 16 19 17 106 18 2 19 1 20 3 21 4 22
REMARK SMILES IDX 5 24 6 25 16 26 7 27 15 28 8 29 9 30 14 31 10 32 13 33 11 34
REMARK SMILES IDX 12 35 30 36 31 37 32 38 33 39 34 40 35 41 36 43 37 44 38 45
REMARK SMILES IDX 102 46 39 47 101 48 40 49 41 50 42 51 95 52 43 53 100 54
REMARK SMILES IDX 94 55 96 56 44 57 99 58 93 59 92 60 45 62 79 63 58 64 78 65
REMARK SMILES IDX 59 66 62 67 77 68 97 69 60 70 61 71 76 73 98 74 63 75 46 76
REMARK SMILES IDX 47 77 56 78 48 79 49 80 55 81 57 82 50 83 51 84 52 85 53 86
REMARK SMILES IDX 54 87 80 88 81 89 90 90 82 91 83 92 89 93 91 94 84 95 85 96
REMARK SMILES IDX 86 97 87 98 88 99 64 100 65 101 74 102 66 103 67 104 73 105
REMARK SMILES IDX 75 106 68 107 69 108 70 109 71 110 72 111
REMARK H PARENT 27 6 4 23 34 42 96 61 62 72
REMARK Flexibility Score: inf
ROOT
ATOM      1  C   UNL A   1      34.386  22.168  25.819  1.00  0.00     0.021 C 
ENDROOT
BRANCH   1   2
ATOM      2  C   UNL A   1      32.969  21.602  25.700  1.00  0.00     0.116 C 
BRANCH   2   3
ATOM      3  N   UNL A   1      32.706  21.176  24.336  1.00  0.00    -0.352 N 
ATOM      4  C   UNL A   1      32.320  21.849  23.203  1.00  0.00     0.251 C 
ATOM      5  O   UNL A   1      32.213  21.193  22.166  1.00  0.00    -0.269 OA
ATOM      6  H   UNL A   1      32.830  20.210  24.196  1.00  0.00     0.163 HD
BRANCH   4   7
ATOM      7  C   UNL A   1      32.115  23.325  23.155  1.00  0.00     0.039 A 
ATOM      8  C   UNL A   1      31.944  26.104  23.389  1.00  0.00     0.067 A 
ATOM      9  C   UNL A   1      33.179  25.525  23.095  1.00  0.00     0.029 A 
ATOM     10  C   UNL A   1      30.785  25.328  23.438  1.00  0.00     0.029 A 
ATOM     11  C   UNL A   1      33.261  24.131  23.010  1.00  0.00     0.016 A 
ATOM     12  C   UNL A   1      30.870  23.948  23.263  1.00  0.00     0.016 A 
BRANCH   8  13
ATOM     13  N   UNL A   1      31.876  27.457  23.764  1.00  0.00    -0.217 N 
ATOM     14  C   UNL A   1      31.880  29.311  24.904  1.00  0.00     0.132 A 
ATOM     15  N   UNL A   1      32.053  29.610  23.581  1.00  0.00    -0.128 NA
ATOM     16  C   UNL A   1      31.779  27.937  25.058  1.00  0.00     0.071 A 
ATOM     17  N   UNL A   1      32.151  28.466  22.912  1.00  0.00    -0.061 NA
ATOM     18  C   UNL A   1      31.795  27.086  26.278  1.00  0.00     0.069 C 
BRANCH  14  19
ATOM     19  C   UNL A   1      32.044  30.270  25.984  1.00  0.00     0.087 C 
ATOM     20  C   UNL A   1      30.994  31.356  26.013  1.00  0.00     0.071 C 
ATOM     21  N   UNL A   1      33.087  30.122  26.756  1.00  0.00    -0.176 NA
BRANCH  21  22
ATOM     22  N   UNL A   1      33.425  31.032  27.733  1.00  0.00    -0.252 N 
ATOM     23  H   UNL A   1      32.665  31.474  28.174  1.00  0.00     0.193 HD
BRANCH  22  24
ATOM     24  C   UNL A   1      34.650  31.411  28.179  1.00  0.00     0.203 A 
ATOM     25  N   UNL A   1      35.794  30.880  27.820  1.00  0.00    -0.219 NA
ATOM     26  S   UNL A   1      34.798  32.583  29.444  1.00  0.00    -0.103 S 
ATOM     27  C   UNL A   1      36.760  31.124  28.773  1.00  0.00     0.084 A 
ATOM     28  C   UNL A   1      36.399  32.026  29.750  1.00  0.00     0.097 A 
BRANCH  27  29
ATOM     29  C   UNL A   1      37.992  30.360  28.744  1.00  0.00     0.001 A 
ATOM     30  C   UNL A   1      38.971  30.607  29.715  1.00  0.00     0.012 A 
ATOM     31  C   UNL A   1      38.279  29.490  27.682  1.00  0.00     0.012 A 
ATOM     32  C   UNL A   1      40.211  29.968  29.648  1.00  0.00     0.021 A 
ATOM     33  C   UNL A   1      39.526  28.860  27.609  1.00  0.00     0.021 A 
ATOM     34  C   UNL A   1      40.482  29.097  28.596  1.00  0.00     0.041 A 
ATOM     35  Cl  UNL A   1      42.016  28.321  28.504  1.00  0.00    -0.084 Cl
ENDBRANCH  27  29
ENDBRANCH  22  24
ENDBRANCH  21  22
ENDBRANCH  14  19
ENDBRANCH   8  13
ENDBRANCH   4   7
ENDBRANCH   2   3
ENDBRANCH   1   2
BRANCH   1  36
ATOM     36  C   UNL A   1      35.376  21.526  24.837  1.00  0.00     0.002 C 
BRANCH  36  37
ATOM     37  C   UNL A   1      36.508  22.448  24.353  1.00  0.00     0.002 C 
BRANCH  37  38
ATOM     38  C   UNL A   1      36.708  23.736  25.165  1.00  0.00     0.021 C 
BRANCH  38  39
ATOM     39  C   UNL A   1      38.004  23.749  25.965  1.00  0.00     0.116 C 
BRANCH  39  40
ATOM     40  N   UNL A   1      38.414  22.400  26.335  1.00  0.00    -0.352 N 
ATOM     41  C   UNL A   1      39.684  21.919  26.531  1.00  0.00     0.251 C 
ATOM     42  H   UNL A   1      37.686  21.749  26.461  1.00  0.00     0.163 HD
ATOM     43  O   UNL A   1      39.897  20.704  26.441  1.00  0.00    -0.269 OA
BRANCH  41  44
ATOM     44  C   UNL A   1      40.786  22.843  26.851  1.00  0.00     0.039 A 
ATOM     45  C   UNL A   1      40.578  23.902  27.738  1.00  0.00     0.014 A 
ATOM     46  C   UNL A   1      42.027  22.674  26.230  1.00  0.00     0.014 A 
ATOM     47  C   UNL A   1      41.641  24.746  28.047  1.00  0.00     0.010 A 
ATOM     48  C   UNL A   1      43.102  23.456  26.599  1.00  0.00     0.010 A 
ATOM     49  C   UNL A   1      42.910  24.507  27.491  1.00  0.00    -0.014 A 
BRANCH  49  50
ATOM     50  C   UNL A   1      44.080  25.210  28.022  1.00  0.00     0.031 A 
ATOM     51  C   UNL A   1      44.181  25.089  29.506  1.00  0.00     0.074 A 
ATOM     52  C   UNL A   1      45.079  25.715  27.262  1.00  0.00     0.049 A 
ATOM     53  N   UNL A   1      43.991  26.016  30.385  1.00  0.00    -0.248 NA
ATOM     54  C   UNL A   1      44.291  23.740  30.093  1.00  0.00     0.031 C 
ATOM     55  C   UNL A   1      45.232  25.609  25.808  1.00  0.00     0.029 A 
ATOM     56  N   UNL A   1      46.230  26.352  27.631  1.00  0.00    -0.354 N 
ATOM     57  C   UNL A   1      44.244  25.422  31.620  1.00  0.00     0.074 A 
ATOM     58  C   UNL A   1      44.175  24.004  31.395  1.00  0.00     0.031 C 
ATOM     59  C   UNL A   1      46.493  25.948  25.455  1.00  0.00     0.029 A 
ATOM     60  C   UNL A   1      47.196  26.441  26.626  1.00  0.00     0.049 A 
ATOM     61  H   UNL A   1      46.367  26.720  28.534  1.00  0.00     0.167 HD
ATOM     62  C   UNL A   1      44.792  26.149  32.634  1.00  0.00     0.037 A 
ATOM     63  C   UNL A   1      48.483  26.871  26.749  1.00  0.00     0.037 A 
ATOM     64  C   UNL A   1      44.669  27.560  32.352  1.00  0.00     0.049 A 
ATOM     65  C   UNL A   1      48.547  27.670  27.995  1.00  0.00     0.074 A 
ATOM     66  C   UNL A   1      43.626  28.436  32.137  1.00  0.00     0.029 A 
ATOM     67  N   UNL A   1      45.797  28.169  31.861  1.00  0.00    -0.354 N 
ATOM     68  N   UNL A   1      47.942  28.813  28.157  1.00  0.00    -0.248 NA
ATOM     69  C   UNL A   1      48.934  26.990  29.219  1.00  0.00     0.031 C 
ATOM     70  C   UNL A   1      44.104  29.353  31.154  1.00  0.00     0.029 A 
ATOM     71  C   UNL A   1      45.440  29.052  30.882  1.00  0.00     0.049 A 
ATOM     72  H   UNL A   1      46.717  27.998  32.167  1.00  0.00     0.167 HD
ATOM     73  C   UNL A   1      47.469  28.776  29.458  1.00  0.00     0.074 A 
ATOM     74  C   UNL A   1      48.210  27.688  30.096  1.00  0.00     0.031 C 
ATOM     75  C   UNL A   1      46.317  29.428  29.794  1.00  0.00     0.037 A 
BRANCH  62  76
ATOM     76  C   UNL A   1      45.837  25.627  33.611  1.00  0.00     0.058 A 
ATOM     77  C   UNL A   1      47.069  25.162  33.095  1.00  0.00     0.135 A 
ATOM     78  C   UNL A   1      45.589  25.281  34.958  1.00  0.00     0.135 A 
ATOM     79  F   UNL A   1      47.429  25.434  31.830  1.00  0.00    -0.206 F 
ATOM     80  C   UNL A   1      47.929  24.336  33.821  1.00  0.00     0.059 A 
ATOM     81  C   UNL A   1      46.456  24.499  35.716  1.00  0.00     0.059 A 
ATOM     82  F   UNL A   1      44.461  25.607  35.597  1.00  0.00    -0.206 F 
ATOM     83  C   UNL A   1      47.604  23.998  35.128  1.00  0.00     0.060 A 
BRANCH  83  84
ATOM     84  S   UNL A   1      48.678  22.889  36.051  1.00  0.00     0.124 S 
ATOM     85  O   UNL A   1      49.859  22.850  35.198  1.00  0.00    -0.237 OA
ATOM     86  O   UNL A   1      48.822  23.598  37.318  1.00  0.00    -0.237 OA
ATOM     87  O   UNL A   1      47.904  21.653  36.118  1.00  0.00    -0.744 OA
ENDBRANCH  83  84
ENDBRANCH  62  76
BRANCH  63  88
ATOM     88  C   UNL A   1      49.724  26.420  26.050  1.00  0.00     0.058 A 
ATOM     89  C   UNL A   1      50.312  27.194  25.026  1.00  0.00     0.135 A 
ATOM     90  C   UNL A   1      50.529  25.393  26.577  1.00  0.00     0.135 A 
ATOM     91  F   UNL A   1      49.630  28.205  24.468  1.00  0.00    -0.206 F 
ATOM     92  C   UNL A   1      51.635  27.004  24.602  1.00  0.00     0.059 A 
ATOM     93  C   UNL A   1      51.847  25.180  26.166  1.00  0.00     0.059 A 
ATOM     94  F   UNL A   1      50.091  24.622  27.585  1.00  0.00    -0.206 F 
ATOM     95  C   UNL A   1      52.406  26.009  25.199  1.00  0.00     0.060 A 
BRANCH  95  96
ATOM     96  S   UNL A   1      54.169  25.884  24.804  1.00  0.00     0.124 S 
ATOM     97  O   UNL A   1      54.209  26.378  23.432  1.00  0.00    -0.237 OA
ATOM     98  O   UNL A   1      54.776  26.749  25.810  1.00  0.00    -0.237 OA
ATOM     99  O   UNL A   1      54.450  24.459  24.962  1.00  0.00    -0.744 OA
ENDBRANCH  95  96
ENDBRANCH  63  88
BRANCH  75 100
ATOM    100  C   UNL A   1      45.824  30.522  28.882  1.00  0.00     0.058 A 
ATOM    101  C   UNL A   1      46.155  31.885  28.981  1.00  0.00     0.135 A 
ATOM    102  C   UNL A   1      45.078  30.122  27.763  1.00  0.00     0.135 A 
ATOM    103  F   UNL A   1      46.941  32.338  29.970  1.00  0.00    -0.206 F 
ATOM    104  C   UNL A   1      45.734  32.810  28.022  1.00  0.00     0.059 A 
ATOM    105  C   UNL A   1      44.681  31.017  26.779  1.00  0.00     0.059 A 
ATOM    106  F   UNL A   1      44.772  28.825  27.586  1.00  0.00    -0.206 F 
ATOM    107  C   UNL A   1      45.000  32.364  26.920  1.00  0.00     0.060 A 
BRANCH 107 108
ATOM    108  S   UNL A   1      44.512  33.540  25.641  1.00  0.00     0.124 S 
ATOM    109  O   UNL A   1      43.803  32.686  24.693  1.00  0.00    -0.237 OA
ATOM    110  O   UNL A   1      43.686  34.490  26.381  1.00  0.00    -0.237 OA
ATOM    111  O   UNL A   1      45.785  34.076  25.165  1.00  0.00    -0.744 OA
ENDBRANCH 107 108
ENDBRANCH  75 100
ENDBRANCH  49  50
ENDBRANCH  41  44
ENDBRANCH  39  40
ENDBRANCH  38  39
ENDBRANCH  37  38
ENDBRANCH  36  37
ENDBRANCH   1  36
TORSDOF 21
ENDMDL
MODEL 2
REMARK VINA RESULT:     -11.7      4.461     10.023
REMARK SMILES C/C(=N\Nc1nc(-c2ccc(Cl)cc2)cs1)c1nnn(-c2ccc(C(=O)NCCCCCCNC(=O)c3ccc(-c4c5nc(c(-c6c(F)cc(S(=O)(=O)[O-])cc6F)c6ccc([nH]6)c(-c6c(F)cc(S(=O)(=O)[O-])cc6F)c6nc(c(-c7c(F)cc(S(=O)(=O)[O-])cc7F)c7ccc4[nH]7)C=C6)C=C5)cc3)cc2)c1C
REMARK SMILES IDX 29 1 28 2 27 3 25 4 26 5 24 7 21 8 22 9 104 10 23 11 103 12
REMARK SMILES IDX 20 13 17 14 18 15 105 16 19 17 106 18 2 19 1 20 3 21 4 22
REMARK SMILES IDX 5 24 6 25 16 26 7 27 15 28 8 29 9 30 14 31 10 32 13 33 11 34
REMARK SMILES IDX 12 35 30 36 31 37 32 38 33 39 34 40 35 41 36 43 37 44 38 45
REMARK SMILES IDX 102 46 39 47 101 48 40 49 41 50 42 51 95 52 43 53 100 54
REMARK SMILES IDX 94 55 96 56 44 57 99 58 93 59 92 60 45 62 79 63 58 64 78 65
REMARK SMILES IDX 59 66 62 67 77 68 97 69 60 70 61 71 76 73 98 74 63 75 46 76
REMARK SMILES IDX 47 77 56 78 48 79 49 80 55 81 57 82 50 83 51 84 52 85 53 86
REMARK SMILES IDX 54 87 80 88 81 89 90 90 82 91 83 92 89 93 91 94 84 95 85 96
REMARK SMILES IDX 86 97 87 98 88 99 64 100 65 101 74 102 66 103 67 104 73 105
REMARK SMILES IDX 75 106 68 107 69 108 70 109 71 110 72 111
REMARK H PARENT 27 6 4 23 34 42 96 61 62 72
REMARK Flexibility Score: inf
ROOT
ATOM      1  C   UNL A   1      31.443  26.648  26.387  1.00  0.00     0.021 C 
ENDROOT
BRANCH   1   2
ATOM      2  C   UNL A   1      31.641  25.131  26.424  1.00  0.00     0.116 C 
BRANCH   2   3
ATOM      3  N   UNL A   1      31.336  24.549  25.128  1.00  0.00    -0.352 N 
ATOM      4  C   UNL A   1      32.075  23.811  24.236  1.00  0.00     0.251 C 
ATOM      5  O   UNL A   1      31.505  23.425  23.215  1.00  0.00    -0.269 OA
ATOM      6  H   UNL A   1      30.413  24.717  24.830  1.00  0.00     0.163 HD
BRANCH   4   7
ATOM      7  C   UNL A   1      33.483  23.389  24.487  1.00  0.00     0.039 A 
ATOM      8  C   UNL A   1      36.087  22.784  25.296  1.00  0.00     0.067 A 
ATOM      9  C   UNL A   1      35.016  22.203  25.974  1.00  0.00     0.029 A 
ATOM     10  C   UNL A   1      35.875  23.553  24.151  1.00  0.00     0.029 A 
ATOM     11  C   UNL A   1      33.715  22.535  25.582  1.00  0.00     0.016 A 
ATOM     12  C   UNL A   1      34.574  23.804  23.719  1.00  0.00     0.016 A 
BRANCH   8  13
ATOM     13  N   UNL A   1      37.384  22.706  25.835  1.00  0.00    -0.217 N 
ATOM     14  C   UNL A   1      39.431  22.112  26.271  1.00  0.00     0.132 A 
ATOM     15  N   UNL A   1      39.237  23.385  26.733  1.00  0.00    -0.128 NA
ATOM     16  C   UNL A   1      38.267  21.654  25.674  1.00  0.00     0.071 A 
ATOM     17  N   UNL A   1      38.018  23.770  26.370  1.00  0.00    -0.061 NA
ATOM     18  C   UNL A   1      38.004  20.449  24.843  1.00  0.00     0.069 C 
BRANCH  14  19
ATOM     19  C   UNL A   1      40.731  21.465  26.190  1.00  0.00     0.087 C 
ATOM     20  C   UNL A   1      40.830  20.175  26.970  1.00  0.00     0.071 C 
ATOM     21  N   UNL A   1      41.661  22.084  25.516  1.00  0.00    -0.176 NA
BRANCH  21  22
ATOM     22  N   UNL A   1      42.965  21.642  25.467  1.00  0.00    -0.252 N 
ATOM     23  H   UNL A   1      43.152  20.968  24.776  1.00  0.00     0.193 HD
BRANCH  22  24
ATOM     24  C   UNL A   1      44.030  21.996  26.230  1.00  0.00     0.203 A 
ATOM     25  N   UNL A   1      43.992  22.298  27.506  1.00  0.00    -0.219 NA
ATOM     26  S   UNL A   1      45.582  22.245  25.507  1.00  0.00    -0.103 S 
ATOM     27  C   UNL A   1      45.084  23.063  27.854  1.00  0.00     0.084 A 
ATOM     28  C   UNL A   1      46.061  23.158  26.886  1.00  0.00     0.097 A 
BRANCH  27  29
ATOM     29  C   UNL A   1      45.075  23.778  29.117  1.00  0.00     0.001 A 
ATOM     30  C   UNL A   1      44.151  23.407  30.102  1.00  0.00     0.012 A 
ATOM     31  C   UNL A   1      45.867  24.918  29.309  1.00  0.00     0.012 A 
ATOM     32  C   UNL A   1      44.043  24.145  31.283  1.00  0.00     0.021 A 
ATOM     33  C   UNL A   1      45.749  25.665  30.485  1.00  0.00     0.021 A 
ATOM     34  C   UNL A   1      44.843  25.270  31.470  1.00  0.00     0.041 A 
ATOM     35  Cl  UNL A   1      44.699  26.189  32.917  1.00  0.00    -0.084 Cl
ENDBRANCH  27  29
ENDBRANCH  22  24
ENDBRANCH  21  22
ENDBRANCH  14  19
ENDBRANCH   8  13
ENDBRANCH   4   7
ENDBRANCH   2   3
ENDBRANCH   1   2
BRANCH   1  36
ATOM     36  C   UNL A   1      30.576  27.115  25.210  1.00  0.00     0.002 C 
BRANCH  36  37
ATOM     37  C   UNL A   1      31.259  28.099  24.245  1.00  0.00     0.002 C 
BRANCH  37  38
ATOM     38  C   UNL A   1      32.789  28.000  24.170  1.00  0.00     0.021 C 
BRANCH  38  39
ATOM     39  C   UNL A   1      33.501  29.168  24.842  1.00  0.00     0.116 C 
BRANCH  39  40
ATOM     40  N   UNL A   1      32.550  30.139  25.368  1.00  0.00    -0.352 N 
ATOM     41  C   UNL A   1      32.573  30.784  26.579  1.00  0.00     0.251 C 
ATOM     42  H   UNL A   1      31.794  30.362  24.779  1.00  0.00     0.163 HD
ATOM     43  O   UNL A   1      31.525  31.251  27.041  1.00  0.00    -0.269 OA
BRANCH  41  44
ATOM     44  C   UNL A   1      33.838  30.924  27.321  1.00  0.00     0.039 A 
ATOM     45  C   UNL A   1      34.447  29.801  27.886  1.00  0.00     0.014 A 
ATOM     46  C   UNL A   1      34.402  32.192  27.486  1.00  0.00     0.014 A 
ATOM     47  C   UNL A   1      35.656  29.952  28.559  1.00  0.00     0.010 A 
ATOM     48  C   UNL A   1      35.640  32.332  28.077  1.00  0.00     0.010 A 
ATOM     49  C   UNL A   1      36.262  31.219  28.634  1.00  0.00    -0.014 A 
BRANCH  49  50
ATOM     50  C   UNL A   1      37.650  31.334  29.088  1.00  0.00     0.031 A 
ATOM     51  C   UNL A   1      38.422  30.078  28.859  1.00  0.00     0.074 A 
ATOM     52  C   UNL A   1      38.240  32.494  29.458  1.00  0.00     0.049 A 
ATOM     53  N   UNL A   1      38.846  29.243  29.748  1.00  0.00    -0.248 NA
ATOM     54  C   UNL A   1      38.550  29.577  27.477  1.00  0.00     0.031 C 
ATOM     55  C   UNL A   1      37.660  33.840  29.418  1.00  0.00     0.029 A 
ATOM     56  N   UNL A   1      39.521  32.742  29.861  1.00  0.00    -0.354 N 
ATOM     57  C   UNL A   1      39.544  28.264  29.043  1.00  0.00     0.074 A 
ATOM     58  C   UNL A   1      39.119  28.386  27.676  1.00  0.00     0.031 C 
ATOM     59  C   UNL A   1      38.638  34.764  29.554  1.00  0.00     0.029 A 
ATOM     60  C   UNL A   1      39.890  34.089  29.843  1.00  0.00     0.049 A 
ATOM     61  H   UNL A   1      40.137  32.027  30.142  1.00  0.00     0.167 HD
ATOM     62  C   UNL A   1      40.631  27.658  29.598  1.00  0.00     0.037 A 
ATOM     63  C   UNL A   1      41.134  34.611  30.034  1.00  0.00     0.037 A 
ATOM     64  C   UNL A   1      40.649  27.888  31.024  1.00  0.00     0.049 A 
ATOM     65  C   UNL A   1      41.929  33.572  30.730  1.00  0.00     0.074 A 
ATOM     66  C   UNL A   1      39.809  27.602  32.080  1.00  0.00     0.029 A 
ATOM     67  N   UNL A   1      41.496  28.877  31.457  1.00  0.00    -0.354 N 
ATOM     68  N   UNL A   1      41.694  33.173  31.949  1.00  0.00    -0.248 NA
ATOM     69  C   UNL A   1      42.721  32.664  29.918  1.00  0.00     0.031 C 
ATOM     70  C   UNL A   1      39.920  28.719  32.960  1.00  0.00     0.029 A 
ATOM     71  C   UNL A   1      40.884  29.590  32.448  1.00  0.00     0.049 A 
ATOM     72  H   UNL A   1      42.401  29.045  31.110  1.00  0.00     0.167 HD
ATOM     73  C   UNL A   1      41.900  31.804  31.913  1.00  0.00     0.074 A 
ATOM     74  C   UNL A   1      42.643  31.568  30.675  1.00  0.00     0.031 C 
ATOM     75  C   UNL A   1      41.189  30.976  32.734  1.00  0.00     0.037 A 
BRANCH  62  76
ATOM     76  C   UNL A   1      41.900  27.287  28.843  1.00  0.00     0.058 A 
ATOM     77  C   UNL A   1      42.752  28.328  28.405  1.00  0.00     0.135 A 
ATOM     78  C   UNL A   1      42.165  26.023  28.272  1.00  0.00     0.135 A 
ATOM     79  F   UNL A   1      42.611  29.576  28.881  1.00  0.00    -0.206 F 
ATOM     80  C   UNL A   1      43.713  28.149  27.408  1.00  0.00     0.059 A 
ATOM     81  C   UNL A   1      43.150  25.812  27.311  1.00  0.00     0.059 A 
ATOM     82  F   UNL A   1      41.438  24.935  28.544  1.00  0.00    -0.206 F 
ATOM     83  C   UNL A   1      43.894  26.887  26.857  1.00  0.00     0.060 A 
BRANCH  83  84
ATOM     84  S   UNL A   1      45.090  26.661  25.533  1.00  0.00     0.124 S 
ATOM     85  O   UNL A   1      44.582  25.458  24.885  1.00  0.00    -0.237 OA
ATOM     86  O   UNL A   1      44.945  27.905  24.784  1.00  0.00    -0.237 OA
ATOM     87  O   UNL A   1      46.354  26.511  26.246  1.00  0.00    -0.744 OA
ENDBRANCH  83  84
ENDBRANCH  62  76
BRANCH  63  88
ATOM     88  C   UNL A   1      41.787  35.805  29.418  1.00  0.00     0.058 A 
ATOM     89  C   UNL A   1      42.797  36.521  30.097  1.00  0.00     0.135 A 
ATOM     90  C   UNL A   1      41.663  36.081  28.044  1.00  0.00     0.135 A 
ATOM     91  F   UNL A   1      43.003  36.319  31.408  1.00  0.00    -0.206 F 
ATOM     92  C   UNL A   1      43.671  37.400  29.441  1.00  0.00     0.059 A 
ATOM     93  C   UNL A   1      42.516  36.958  27.370  1.00  0.00     0.059 A 
ATOM     94  F   UNL A   1      40.766  35.428  27.288  1.00  0.00    -0.206 F 
ATOM     95  C   UNL A   1      43.539  37.592  28.067  1.00  0.00     0.060 A 
BRANCH  95  96
ATOM     96  S   UNL A   1      44.779  38.566  27.176  1.00  0.00     0.124 S 
ATOM     97  O   UNL A   1      45.504  37.535  26.442  1.00  0.00    -0.237 OA
ATOM     98  O   UNL A   1      43.954  39.459  26.371  1.00  0.00    -0.237 OA
ATOM     99  O   UNL A   1      45.531  39.215  28.247  1.00  0.00    -0.744 OA
ENDBRANCH  95  96
ENDBRANCH  63  88
BRANCH  75 100
ATOM    100  C   UNL A   1      40.530  31.570  33.951  1.00  0.00     0.058 A 
ATOM    101  C   UNL A   1      39.176  31.933  34.057  1.00  0.00     0.135 A 
ATOM    102  C   UNL A   1      41.307  31.641  35.118  1.00  0.00     0.135 A 
ATOM    103  F   UNL A   1      38.341  31.809  33.015  1.00  0.00    -0.206 F 
ATOM    104  C   UNL A   1      38.631  32.377  35.266  1.00  0.00     0.059 A 
ATOM    105  C   UNL A   1      40.778  32.044  36.337  1.00  0.00     0.059 A 
ATOM    106  F   UNL A   1      42.596  31.261  35.092  1.00  0.00    -0.206 F 
ATOM    107  C   UNL A   1      39.441  32.424  36.402  1.00  0.00     0.060 A 
BRANCH 107 108
ATOM    108  S   UNL A   1      38.729  32.928  37.982  1.00  0.00     0.124 S 
ATOM    109  O   UNL A   1      39.637  32.306  38.941  1.00  0.00    -0.237 OA
ATOM    110  O   UNL A   1      38.787  34.385  37.906  1.00  0.00    -0.237 OA
ATOM    111  O   UNL A   1      37.381  32.366  37.946  1.00  0.00    -0.744 OA
ENDBRANCH 107 108
ENDBRANCH  75 100
ENDBRANCH  49  50
ENDBRANCH  41  44
ENDBRANCH  39  40
ENDBRANCH  38  39
ENDBRANCH  37  38
ENDBRANCH  36  37
ENDBRANCH   1  36
TORSDOF 21
ENDMDL
MODEL 3
REMARK VINA RESULT:     -11.6      7.351     14.603
REMARK SMILES C/C(=N\Nc1nc(-c2ccc(Cl)cc2)cs1)c1nnn(-c2ccc(C(=O)NCCCCCCNC(=O)c3ccc(-c4c5nc(c(-c6c(F)cc(S(=O)(=O)[O-])cc6F)c6ccc([nH]6)c(-c6c(F)cc(S(=O)(=O)[O-])cc6F)c6nc(c(-c7c(F)cc(S(=O)(=O)[O-])cc7F)c7ccc4[nH]7)C=C6)C=C5)cc3)cc2)c1C
REMARK SMILES IDX 29 1 28 2 27 3 25 4 26 5 24 7 21 8 22 9 104 10 23 11 103 12
REMARK SMILES IDX 20 13 17 14 18 15 105 16 19 17 106 18 2 19 1 20 3 21 4 22
REMARK SMILES IDX 5 24 6 25 16 26 7 27 15 28 8 29 9 30 14 31 10 32 13 33 11 34
REMARK SMILES IDX 12 35 30 36 31 37 32 38 33 39 34 40 35 41 36 43 37 44 38 45
REMARK SMILES IDX 102 46 39 47 101 48 40 49 41 50 42 51 95 52 43 53 100 54
REMARK SMILES IDX 94 55 96 56 44 57 99 58 93 59 92 60 45 62 79 63 58 64 78 65
REMARK SMILES IDX 59 66 62 67 77 68 97 69 60 70 61 71 76 73 98 74 63 75 46 76
REMARK SMILES IDX 47 77 56 78 48 79 49 80 55 81 57 82 50 83 51 84 52 85 53 86
REMARK SMILES IDX 54 87 80 88 81 89 90 90 82 91 83 92 89 93 91 94 84 95 85 96
REMARK SMILES IDX 86 97 87 98 88 99 64 100 65 101 74 102 66 103 67 104 73 105
REMARK SMILES IDX 75 106 68 107 69 108 70 109 71 110 72 111
REMARK H PARENT 27 6 4 23 34 42 96 61 62 72
REMARK Flexibility Score: inf
ROOT
ATOM      1  C   UNL A   1      42.448  41.946  30.731  1.00  0.00     0.021 C 
ENDROOT
BRANCH   1   2
ATOM      2  C   UNL A   1      42.836  40.733  29.882  1.00  0.00     0.116 C 
BRANCH   2   3
ATOM      3  N   UNL A   1      42.490  40.959  28.489  1.00  0.00    -0.352 N 
ATOM      4  C   UNL A   1      42.532  40.162  27.372  1.00  0.00     0.251 C 
ATOM      5  O   UNL A   1      42.127  40.647  26.315  1.00  0.00    -0.269 OA
ATOM      6  H   UNL A   1      42.158  41.869  28.310  1.00  0.00     0.163 HD
BRANCH   4   7
ATOM      7  C   UNL A   1      42.954  38.731  27.401  1.00  0.00     0.039 A 
ATOM      8  C   UNL A   1      44.024  36.158  27.207  1.00  0.00     0.067 A 
ATOM      9  C   UNL A   1      44.768  37.154  27.838  1.00  0.00     0.029 A 
ATOM     10  C   UNL A   1      42.714  36.401  26.791  1.00  0.00     0.029 A 
ATOM     11  C   UNL A   1      44.238  38.447  27.904  1.00  0.00     0.016 A 
ATOM     12  C   UNL A   1      42.166  37.673  26.944  1.00  0.00     0.016 A 
BRANCH   8  13
ATOM     13  N   UNL A   1      44.632  34.937  26.868  1.00  0.00    -0.217 N 
ATOM     14  C   UNL A   1      45.189  32.835  26.779  1.00  0.00     0.132 A 
ATOM     15  N   UNL A   1      45.615  33.449  25.634  1.00  0.00    -0.128 NA
ATOM     16  C   UNL A   1      44.540  33.758  27.585  1.00  0.00     0.071 A 
ATOM     17  N   UNL A   1      45.179  34.704  25.657  1.00  0.00    -0.061 NA
ATOM     18  C   UNL A   1      43.719  33.577  28.812  1.00  0.00     0.069 C 
BRANCH  14  19
ATOM     19  C   UNL A   1      45.190  31.394  26.979  1.00  0.00     0.087 C 
ATOM     20  C   UNL A   1      46.112  30.923  28.079  1.00  0.00     0.071 C 
ATOM     21  N   UNL A   1      44.456  30.682  26.169  1.00  0.00    -0.176 NA
BRANCH  21  22
ATOM     22  N   UNL A   1      44.466  29.305  26.171  1.00  0.00    -0.252 N 
ATOM     23  H   UNL A   1      45.314  28.892  25.890  1.00  0.00     0.193 HD
BRANCH  22  24
ATOM     24  C   UNL A   1      43.481  28.430  26.500  1.00  0.00     0.203 A 
ATOM     25  N   UNL A   1      42.224  28.738  26.717  1.00  0.00    -0.219 NA
ATOM     26  S   UNL A   1      43.856  26.774  26.833  1.00  0.00    -0.103 S 
ATOM     27  C   UNL A   1      41.616  27.768  27.485  1.00  0.00     0.084 A 
ATOM     28  C   UNL A   1      42.356  26.620  27.666  1.00  0.00     0.097 A 
BRANCH  27  29
ATOM     29  C   UNL A   1      40.343  28.059  28.115  1.00  0.00     0.001 A 
ATOM     30  C   UNL A   1      39.486  28.994  27.519  1.00  0.00     0.012 A 
ATOM     31  C   UNL A   1      40.023  27.537  29.376  1.00  0.00     0.012 A 
ATOM     32  C   UNL A   1      38.304  29.378  28.158  1.00  0.00     0.021 A 
ATOM     33  C   UNL A   1      38.846  27.931  30.021  1.00  0.00     0.021 A 
ATOM     34  C   UNL A   1      37.990  28.844  29.405  1.00  0.00     0.041 A 
ATOM     35  Cl  UNL A   1      36.542  29.328  30.200  1.00  0.00    -0.084 Cl
ENDBRANCH  27  29
ENDBRANCH  22  24
ENDBRANCH  21  22
ENDBRANCH  14  19
ENDBRANCH   8  13
ENDBRANCH   4   7
ENDBRANCH   2   3
ENDBRANCH   1   2
BRANCH   1  36
ATOM     36  C   UNL A   1      43.621  42.900  30.993  1.00  0.00     0.002 C 
BRANCH  36  37
ATOM     37  C   UNL A   1      44.489  42.551  32.213  1.00  0.00     0.002 C 
BRANCH  37  38
ATOM     38  C   UNL A   1      43.728  42.335  33.529  1.00  0.00     0.021 C 
BRANCH  38  39
ATOM     39  C   UNL A   1      44.080  41.023  34.221  1.00  0.00     0.116 C 
BRANCH  39  40
ATOM     40  N   UNL A   1      45.187  40.351  33.552  1.00  0.00    -0.352 N 
ATOM     41  C   UNL A   1      45.437  39.004  33.464  1.00  0.00     0.251 C 
ATOM     42  H   UNL A   1      45.839  40.938  33.106  1.00  0.00     0.163 HD
ATOM     43  O   UNL A   1      46.586  38.612  33.229  1.00  0.00    -0.269 OA
BRANCH  41  44
ATOM     44  C   UNL A   1      44.344  38.034  33.643  1.00  0.00     0.039 A 
ATOM     45  C   UNL A   1      43.791  37.388  32.535  1.00  0.00     0.014 A 
ATOM     46  C   UNL A   1      43.841  37.794  34.925  1.00  0.00     0.014 A 
ATOM     47  C   UNL A   1      42.777  36.454  32.731  1.00  0.00     0.010 A 
ATOM     48  C   UNL A   1      42.897  36.809  35.130  1.00  0.00     0.010 A 
ATOM     49  C   UNL A   1      42.347  36.150  34.035  1.00  0.00    -0.014 A 
BRANCH  49  50
ATOM     50  C   UNL A   1      41.493  34.983  34.264  1.00  0.00     0.031 A 
ATOM     51  C   UNL A   1      41.995  33.771  33.553  1.00  0.00     0.074 A 
ATOM     52  C   UNL A   1      40.501  34.930  35.184  1.00  0.00     0.049 A 
ATOM     53  N   UNL A   1      41.469  33.187  32.528  1.00  0.00    -0.248 NA
ATOM     54  C   UNL A   1      43.348  33.280  33.877  1.00  0.00     0.031 C 
ATOM     55  C   UNL A   1      40.131  35.963  36.155  1.00  0.00     0.029 A 
ATOM     56  N   UNL A   1      39.666  33.902  35.520  1.00  0.00    -0.354 N 
ATOM     57  C   UNL A   1      42.280  32.084  32.267  1.00  0.00     0.074 A 
ATOM     58  C   UNL A   1      43.519  32.336  32.949  1.00  0.00     0.031 C 
ATOM     59  C   UNL A   1      39.324  35.433  37.102  1.00  0.00     0.029 A 
ATOM     60  C   UNL A   1      38.991  34.070  36.732  1.00  0.00     0.049 A 
ATOM     61  H   UNL A   1      39.549  33.106  34.952  1.00  0.00     0.167 HD
ATOM     62  C   UNL A   1      41.740  30.934  31.774  1.00  0.00     0.037 A 
ATOM     63  C   UNL A   1      38.230  33.152  37.390  1.00  0.00     0.037 A 
ATOM     64  C   UNL A   1      40.422  31.195  31.243  1.00  0.00     0.049 A 
ATOM     65  C   UNL A   1      37.844  32.126  36.393  1.00  0.00     0.074 A 
ATOM     66  C   UNL A   1      39.899  31.999  30.252  1.00  0.00     0.029 A 
ATOM     67  N   UNL A   1      39.373  30.849  32.058  1.00  0.00    -0.354 N 
ATOM     68  N   UNL A   1      37.049  32.353  35.385  1.00  0.00    -0.248 NA
ATOM     69  C   UNL A   1      38.687  30.948  36.269  1.00  0.00     0.031 C 
ATOM     70  C   UNL A   1      38.637  32.436  30.752  1.00  0.00     0.029 A 
ATOM     71  C   UNL A   1      38.407  31.812  31.980  1.00  0.00     0.049 A 
ATOM     72  H   UNL A   1      39.324  30.037  32.611  1.00  0.00     0.167 HD
ATOM     73  C   UNL A   1      37.605  31.644  34.335  1.00  0.00     0.074 A 
ATOM     74  C   UNL A   1      38.536  30.708  34.965  1.00  0.00     0.031 C 
ATOM     75  C   UNL A   1      37.477  32.094  33.052  1.00  0.00     0.037 A 
BRANCH  62  76
ATOM     76  C   UNL A   1      42.160  29.530  32.187  1.00  0.00     0.058 A 
ATOM     77  C   UNL A   1      42.099  29.184  33.557  1.00  0.00     0.135 A 
ATOM     78  C   UNL A   1      42.889  28.629  31.379  1.00  0.00     0.135 A 
ATOM     79  F   UNL A   1      41.426  29.952  34.429  1.00  0.00    -0.206 F 
ATOM     80  C   UNL A   1      42.791  28.097  34.094  1.00  0.00     0.059 A 
ATOM     81  C   UNL A   1      43.547  27.512  31.886  1.00  0.00     0.059 A 
ATOM     82  F   UNL A   1      43.078  28.816  30.069  1.00  0.00    -0.206 F 
ATOM     83  C   UNL A   1      43.525  27.275  33.249  1.00  0.00     0.060 A 
BRANCH  83  84
ATOM     84  S   UNL A   1      44.466  25.906  33.940  1.00  0.00     0.124 S 
ATOM     85  O   UNL A   1      45.140  26.552  35.060  1.00  0.00    -0.237 OA
ATOM     86  O   UNL A   1      43.409  24.960  34.283  1.00  0.00    -0.237 OA
ATOM     87  O   UNL A   1      45.326  25.499  32.833  1.00  0.00    -0.744 OA
ENDBRANCH  83  84
ENDBRANCH  62  76
BRANCH  63  88
ATOM     88  C   UNL A   1      38.043  32.922  38.854  1.00  0.00     0.058 A 
ATOM     89  C   UNL A   1      39.123  33.027  39.757  1.00  0.00     0.135 A 
ATOM     90  C   UNL A   1      36.762  32.905  39.436  1.00  0.00     0.135 A 
ATOM     91  F   UNL A   1      40.385  33.063  39.300  1.00  0.00    -0.206 F 
ATOM     92  C   UNL A   1      38.940  33.176  41.140  1.00  0.00     0.059 A 
ATOM     93  C   UNL A   1      36.554  33.044  40.810  1.00  0.00     0.059 A 
ATOM     94  F   UNL A   1      35.659  32.852  38.672  1.00  0.00    -0.206 F 
ATOM     95  C   UNL A   1      37.646  33.210  41.655  1.00  0.00     0.060 A 
BRANCH  95  96
ATOM     96  S   UNL A   1      37.390  33.599  43.406  1.00  0.00     0.124 S 
ATOM     97  O   UNL A   1      38.742  33.492  43.942  1.00  0.00    -0.237 OA
ATOM     98  O   UNL A   1      36.833  34.946  43.346  1.00  0.00    -0.237 OA
ATOM     99  O   UNL A   1      36.459  32.564  43.849  1.00  0.00    -0.744 OA
ENDBRANCH  95  96
ENDBRANCH  63  88
BRANCH  75 100
ATOM    100  C   UNL A   1      36.384  33.085  32.748  1.00  0.00     0.058 A 
ATOM    101  C   UNL A   1      36.453  34.473  32.958  1.00  0.00     0.135 A 
ATOM    102  C   UNL A   1      35.255  32.592  32.076  1.00  0.00     0.135 A 
ATOM    103  F   UNL A   1      37.537  35.038  33.511  1.00  0.00    -0.206 F 
ATOM    104  C   UNL A   1      35.427  35.327  32.543  1.00  0.00     0.059 A 
ATOM    105  C   UNL A   1      34.240  33.426  31.622  1.00  0.00     0.059 A 
ATOM    106  F   UNL A   1      35.153  31.281  31.802  1.00  0.00    -0.206 F 
ATOM    107  C   UNL A   1      34.325  34.793  31.871  1.00  0.00     0.060 A 
BRANCH 107 108
ATOM    108  S   UNL A   1      33.029  35.895  31.270  1.00  0.00     0.124 S 
ATOM    109  O   UNL A   1      33.625  37.211  31.473  1.00  0.00    -0.237 OA
ATOM    110  O   UNL A   1      32.874  35.475  29.880  1.00  0.00    -0.237 OA
ATOM    111  O   UNL A   1      31.890  35.587  32.133  1.00  0.00    -0.744 OA
ENDBRANCH 107 108
ENDBRANCH  75 100
ENDBRANCH  49  50
ENDBRANCH  41  44
ENDBRANCH  39  40
ENDBRANCH  38  39
ENDBRANCH  37  38
ENDBRANCH  36  37
ENDBRANCH   1  36
TORSDOF 21
ENDMDL
