MODEL 1
REMARK VINA RESULT:     -10.5      0.000      0.000
REMARK SMILES C[C@H](C(=O)NCCCCCCNC(=O)c1ccc(-c2c3nc(c(-c4c(F)cc(S(=O)(=O)[O-])cc4F)c4ccc([nH]4)c(-c4c(F)cc(S(=O)(=O)[O-])cc4F)c4nc(c(-c5c(F)cc(S(=O)(=O)[O-])cc5F)c5ccc2[nH]5)C=C4)C=C3)cc1)[C@@H](C)Nc1cc(F)cc(F)c1F
REMARK SMILES IDX 8 1 7 2 6 3 5 4 3 5 4 6 2 8 1 9 81 10 82 11 83 12 84 14
REMARK SMILES IDX 85 15 91 16 86 17 89 18 92 19 87 20 88 21 90 22 9 23 10 24
REMARK SMILES IDX 11 25 12 26 13 27 14 29 15 30 16 31 80 32 17 33 79 34 18 35
REMARK SMILES IDX 19 36 20 37 73 38 21 39 78 40 72 41 74 42 22 43 77 44 71 45
REMARK SMILES IDX 70 46 23 48 57 49 36 50 56 51 37 52 40 53 55 54 75 55 38 56
REMARK SMILES IDX 39 57 54 59 76 60 41 61 24 62 25 63 34 64 26 65 27 66 33 67
REMARK SMILES IDX 35 68 28 69 29 70 30 71 31 72 32 73 58 74 59 75 68 76 60 77
REMARK SMILES IDX 61 78 67 79 69 80 62 81 63 82 64 83 65 84 66 85 42 86 43 87
REMARK SMILES IDX 52 88 44 89 45 90 51 91 53 92 46 93 47 94 48 95 49 96 50 97
REMARK H PARENT 5 7 83 13 12 28 74 47 40 58
REMARK Flexibility Score: inf
ROOT
ATOM      1  C   UNL A   1      33.369  28.818  24.163  1.00  0.00     0.002 C 
ENDROOT
BRANCH   1   2
ATOM      2  C   UNL A   1      33.690  28.076  22.864  1.00  0.00     0.021 C 
BRANCH   2   3
ATOM      3  C   UNL A   1      32.589  27.116  22.404  1.00  0.00     0.116 C 
BRANCH   3   4
ATOM      4  N   UNL A   1      33.162  25.855  21.967  1.00  0.00    -0.356 N 
ATOM      5  C   UNL A   1      33.109  24.614  22.520  1.00  0.00     0.224 C 
ATOM      6  O   UNL A   1      33.799  23.732  22.004  1.00  0.00    -0.275 OA
ATOM      7  H   UNL A   1      33.674  25.909  21.128  1.00  0.00     0.163 HD
BRANCH   5   8
ATOM      8  C   UNL A   1      32.208  24.334  23.719  1.00  0.00     0.097 C 
ATOM      9  C   UNL A   1      31.419  23.046  23.408  1.00  0.00     0.020 C 
BRANCH   8  10
ATOM     10  C   UNL A   1      33.030  24.164  25.022  1.00  0.00     0.088 C 
ATOM     11  C   UNL A   1      32.205  24.317  26.297  1.00  0.00     0.031 C 
BRANCH  10  12
ATOM     12  N   UNL A   1      33.631  22.829  25.031  1.00  0.00    -0.379 N 
ATOM     13  H   UNL A   1      33.036  22.053  24.925  1.00  0.00     0.160 HD
BRANCH  12  14
ATOM     14  C   UNL A   1      34.988  22.593  25.182  1.00  0.00     0.077 A 
ATOM     15  C   UNL A   1      35.449  21.285  24.977  1.00  0.00     0.068 A 
ATOM     16  C   UNL A   1      35.958  23.580  25.433  1.00  0.00     0.182 A 
ATOM     17  C   UNL A   1      36.809  20.985  25.031  1.00  0.00     0.128 A 
ATOM     18  C   UNL A   1      37.313  23.262  25.512  1.00  0.00     0.163 A 
ATOM     19  F   UNL A   1      35.606  24.861  25.629  1.00  0.00    -0.201 F 
ATOM     20  F   UNL A   1      37.216  19.731  24.797  1.00  0.00    -0.207 F 
ATOM     21  C   UNL A   1      37.750  21.965  25.305  1.00  0.00     0.081 A 
ATOM     22  F   UNL A   1      38.211  24.221  25.780  1.00  0.00    -0.204 F 
ENDBRANCH  12  14
ENDBRANCH  10  12
ENDBRANCH   8  10
ENDBRANCH   5   8
ENDBRANCH   3   4
ENDBRANCH   2   3
ENDBRANCH   1   2
BRANCH   1  23
ATOM     23  C   UNL A   1      32.117  28.318  24.883  1.00  0.00     0.002 C 
BRANCH  23  24
ATOM     24  C   UNL A   1      32.299  28.073  26.384  1.00  0.00     0.021 C 
BRANCH  24  25
ATOM     25  C   UNL A   1      33.641  28.536  26.944  1.00  0.00     0.116 C 
BRANCH  25  26
ATOM     26  N   UNL A   1      33.584  29.909  27.421  1.00  0.00    -0.352 N 
ATOM     27  C   UNL A   1      34.501  30.604  28.166  1.00  0.00     0.251 C 
ATOM     28  H   UNL A   1      32.773  30.409  27.173  1.00  0.00     0.163 HD
ATOM     29  O   UNL A   1      34.193  31.679  28.678  1.00  0.00    -0.269 OA
BRANCH  27  30
ATOM     30  C   UNL A   1      35.853  30.043  28.370  1.00  0.00     0.039 A 
ATOM     31  C   UNL A   1      36.774  30.101  27.323  1.00  0.00     0.014 A 
ATOM     32  C   UNL A   1      36.213  29.480  29.598  1.00  0.00     0.014 A 
ATOM     33  C   UNL A   1      38.084  29.665  27.535  1.00  0.00     0.010 A 
ATOM     34  C   UNL A   1      37.535  29.108  29.828  1.00  0.00     0.010 A 
ATOM     35  C   UNL A   1      38.488  29.210  28.803  1.00  0.00    -0.014 A 
BRANCH  35  36
ATOM     36  C   UNL A   1      39.913  28.896  29.083  1.00  0.00     0.031 A 
ATOM     37  C   UNL A   1      40.832  29.945  29.649  1.00  0.00     0.074 A 
ATOM     38  C   UNL A   1      40.393  27.677  28.759  1.00  0.00     0.049 A 
ATOM     39  N   UNL A   1      42.114  29.866  29.897  1.00  0.00    -0.248 NA
ATOM     40  C   UNL A   1      40.243  31.258  29.957  1.00  0.00     0.031 C 
ATOM     41  C   UNL A   1      39.609  26.595  28.153  1.00  0.00     0.029 A 
ATOM     42  N   UNL A   1      41.651  27.144  28.875  1.00  0.00    -0.354 N 
ATOM     43  C   UNL A   1      42.488  31.116  30.376  1.00  0.00     0.074 A 
ATOM     44  C   UNL A   1      41.306  31.948  30.351  1.00  0.00     0.031 C 
ATOM     45  C   UNL A   1      40.401  25.528  27.964  1.00  0.00     0.029 A 
ATOM     46  C   UNL A   1      41.756  25.860  28.390  1.00  0.00     0.049 A 
ATOM     47  H   UNL A   1      42.409  27.634  29.268  1.00  0.00     0.167 HD
ATOM     48  C   UNL A   1      43.704  31.522  30.810  1.00  0.00     0.037 A 
ATOM     49  C   UNL A   1      42.826  25.048  28.278  1.00  0.00     0.037 A 
ATOM     50  C   UNL A   1      44.869  30.677  30.858  1.00  0.00     0.049 A 
ATOM     51  C   UNL A   1      44.167  25.536  28.760  1.00  0.00     0.074 A 
ATOM     52  C   UNL A   1      46.122  30.974  31.367  1.00  0.00     0.029 A 
ATOM     53  N   UNL A   1      44.933  29.379  30.374  1.00  0.00    -0.354 N 
ATOM     54  N   UNL A   1      44.477  26.688  29.305  1.00  0.00    -0.248 NA
ATOM     55  C   UNL A   1      45.304  24.615  28.615  1.00  0.00     0.031 C 
ATOM     56  C   UNL A   1      46.960  29.882  31.132  1.00  0.00     0.029 A 
ATOM     57  C   UNL A   1      46.216  28.879  30.533  1.00  0.00     0.049 A 
ATOM     58  H   UNL A   1      44.179  28.887  29.977  1.00  0.00     0.167 HD
ATOM     59  C   UNL A   1      45.837  26.622  29.585  1.00  0.00     0.074 A 
ATOM     60  C   UNL A   1      46.285  25.308  29.175  1.00  0.00     0.031 C 
ATOM     61  C   UNL A   1      46.647  27.566  30.124  1.00  0.00     0.037 A 
BRANCH  48  62
ATOM     62  C   UNL A   1      43.859  32.945  31.277  1.00  0.00     0.058 A 
ATOM     63  C   UNL A   1      43.701  33.299  32.625  1.00  0.00     0.135 A 
ATOM     64  C   UNL A   1      44.285  33.941  30.382  1.00  0.00     0.135 A 
ATOM     65  F   UNL A   1      43.280  32.390  33.520  1.00  0.00    -0.206 F 
ATOM     66  C   UNL A   1      43.962  34.591  33.072  1.00  0.00     0.059 A 
ATOM     67  C   UNL A   1      44.576  35.232  30.811  1.00  0.00     0.059 A 
ATOM     68  F   UNL A   1      44.448  33.655  29.081  1.00  0.00    -0.206 F 
ATOM     69  C   UNL A   1      44.411  35.547  32.158  1.00  0.00     0.060 A 
BRANCH  69  70
ATOM     70  S   UNL A   1      44.808  37.199  32.769  1.00  0.00     0.124 S 
ATOM     71  O   UNL A   1      44.540  38.018  31.590  1.00  0.00    -0.237 OA
ATOM     72  O   UNL A   1      43.869  37.355  33.875  1.00  0.00    -0.237 OA
ATOM     73  O   UNL A   1      46.213  37.094  33.152  1.00  0.00    -0.744 OA
ENDBRANCH  69  70
ENDBRANCH  48  62
BRANCH  49  74
ATOM     74  C   UNL A   1      42.689  23.698  27.662  1.00  0.00     0.058 A 
ATOM     75  C   UNL A   1      42.421  22.565  28.444  1.00  0.00     0.135 A 
ATOM     76  C   UNL A   1      42.863  23.511  26.281  1.00  0.00     0.135 A 
ATOM     77  F   UNL A   1      42.251  22.690  29.770  1.00  0.00    -0.206 F 
ATOM     78  C   UNL A   1      42.371  21.290  27.888  1.00  0.00     0.059 A 
ATOM     79  C   UNL A   1      42.784  22.251  25.698  1.00  0.00     0.059 A 
ATOM     80  F   UNL A   1      43.103  24.563  25.482  1.00  0.00    -0.206 F 
ATOM     81  C   UNL A   1      42.559  21.144  26.513  1.00  0.00     0.060 A 
BRANCH  81  82
ATOM     82  S   UNL A   1      42.493  19.487  25.800  1.00  0.00     0.124 S 
ATOM     83  O   UNL A   1      41.081  19.370  25.460  1.00  0.00    -0.237 OA
ATOM     84  O   UNL A   1      43.416  19.600  24.674  1.00  0.00    -0.237 OA
ATOM     85  O   UNL A   1      42.953  18.634  26.893  1.00  0.00    -0.744 OA
ENDBRANCH  81  82
ENDBRANCH  49  74
BRANCH  61  86
ATOM     86  C   UNL A   1      48.094  27.210  30.320  1.00  0.00     0.058 A 
ATOM     87  C   UNL A   1      49.073  27.560  29.376  1.00  0.00     0.135 A 
ATOM     88  C   UNL A   1      48.517  26.557  31.490  1.00  0.00     0.135 A 
ATOM     89  F   UNL A   1      48.722  28.178  28.237  1.00  0.00    -0.206 F 
ATOM     90  C   UNL A   1      50.415  27.255  29.574  1.00  0.00     0.059 A 
ATOM     91  C   UNL A   1      49.859  26.271  31.724  1.00  0.00     0.059 A 
ATOM     92  F   UNL A   1      47.625  26.208  32.430  1.00  0.00    -0.206 F 
ATOM     93  C   UNL A   1      50.799  26.614  30.753  1.00  0.00     0.060 A 
BRANCH  93  94
ATOM     94  S   UNL A   1      52.549  26.259  31.011  1.00  0.00     0.124 S 
ATOM     95  O   UNL A   1      52.991  27.456  31.719  1.00  0.00    -0.237 OA
ATOM     96  O   UNL A   1      52.504  25.033  31.802  1.00  0.00    -0.237 OA
ATOM     97  O   UNL A   1      53.069  26.104  29.655  1.00  0.00    -0.744 OA
ENDBRANCH  93  94
ENDBRANCH  61  86
ENDBRANCH  35  36
ENDBRANCH  27  30
ENDBRANCH  25  26
ENDBRANCH  24  25
ENDBRANCH  23  24
ENDBRANCH   1  23
TORSDOF 19
ENDMDL
MODEL 2
REMARK VINA RESULT:     -10.4      3.010      4.040
REMARK SMILES C[C@H](C(=O)NCCCCCCNC(=O)c1ccc(-c2c3nc(c(-c4c(F)cc(S(=O)(=O)[O-])cc4F)c4ccc([nH]4)c(-c4c(F)cc(S(=O)(=O)[O-])cc4F)c4nc(c(-c5c(F)cc(S(=O)(=O)[O-])cc5F)c5ccc2[nH]5)C=C4)C=C3)cc1)[C@@H](C)Nc1cc(F)cc(F)c1F
REMARK SMILES IDX 8 1 7 2 6 3 5 4 3 5 4 6 2 8 1 9 81 10 82 11 83 12 84 14
REMARK SMILES IDX 85 15 91 16 86 17 89 18 92 19 87 20 88 21 90 22 9 23 10 24
REMARK SMILES IDX 11 25 12 26 13 27 14 29 15 30 16 31 80 32 17 33 79 34 18 35
REMARK SMILES IDX 19 36 20 37 73 38 21 39 78 40 72 41 74 42 22 43 77 44 71 45
REMARK SMILES IDX 70 46 23 48 57 49 36 50 56 51 37 52 40 53 55 54 75 55 38 56
REMARK SMILES IDX 39 57 54 59 76 60 41 61 24 62 25 63 34 64 26 65 27 66 33 67
REMARK SMILES IDX 35 68 28 69 29 70 30 71 31 72 32 73 58 74 59 75 68 76 60 77
REMARK SMILES IDX 61 78 67 79 69 80 62 81 63 82 64 83 65 84 66 85 42 86 43 87
REMARK SMILES IDX 52 88 44 89 45 90 51 91 53 92 46 93 47 94 48 95 49 96 50 97
REMARK H PARENT 5 7 83 13 12 28 74 47 40 58
REMARK Flexibility Score: inf
ROOT
ATOM      1  C   UNL A   1      32.075  26.652  23.508  1.00  0.00     0.002 C 
ENDROOT
BRANCH   1   2
ATOM      2  C   UNL A   1      30.847  26.054  24.197  1.00  0.00     0.021 C 
BRANCH   2   3
ATOM      3  C   UNL A   1      30.845  24.525  24.257  1.00  0.00     0.116 C 
BRANCH   3   4
ATOM      4  N   UNL A   1      30.390  24.065  25.557  1.00  0.00    -0.356 N 
ATOM      5  C   UNL A   1      31.045  23.398  26.545  1.00  0.00     0.224 C 
ATOM      6  O   UNL A   1      30.378  23.012  27.508  1.00  0.00    -0.275 OA
ATOM      7  H   UNL A   1      29.449  24.274  25.757  1.00  0.00     0.163 HD
BRANCH   5   8
ATOM      8  C   UNL A   1      32.549  23.161  26.460  1.00  0.00     0.097 C 
ATOM      9  C   UNL A   1      33.004  22.608  27.825  1.00  0.00     0.020 C 
BRANCH   8  10
ATOM     10  C   UNL A   1      32.907  22.167  25.326  1.00  0.00     0.088 C 
ATOM     11  C   UNL A   1      34.397  21.843  25.237  1.00  0.00     0.031 C 
BRANCH  10  12
ATOM     12  N   UNL A   1      32.186  20.913  25.552  1.00  0.00    -0.379 N 
ATOM     13  H   UNL A   1      31.471  20.905  26.227  1.00  0.00     0.160 HD
BRANCH  12  14
ATOM     14  C   UNL A   1      32.452  19.736  24.871  1.00  0.00     0.077 A 
ATOM     15  C   UNL A   1      32.801  18.609  25.629  1.00  0.00     0.068 A 
ATOM     16  C   UNL A   1      32.310  19.554  23.483  1.00  0.00     0.182 A 
ATOM     17  C   UNL A   1      33.004  17.370  25.022  1.00  0.00     0.128 A 
ATOM     18  C   UNL A   1      32.543  18.316  22.887  1.00  0.00     0.163 A 
ATOM     19  F   UNL A   1      31.967  20.577  22.684  1.00  0.00    -0.201 F 
ATOM     20  F   UNL A   1      33.302  16.308  25.781  1.00  0.00    -0.207 F 
ATOM     21  C   UNL A   1      32.885  17.213  23.651  1.00  0.00     0.081 A 
ATOM     22  F   UNL A   1      32.426  18.181  21.558  1.00  0.00    -0.204 F 
ENDBRANCH  12  14
ENDBRANCH  10  12
ENDBRANCH   8  10
ENDBRANCH   5   8
ENDBRANCH   3   4
ENDBRANCH   2   3
ENDBRANCH   1   2
BRANCH   1  23
ATOM     23  C   UNL A   1      33.287  26.832  24.423  1.00  0.00     0.002 C 
BRANCH  23  24
ATOM     24  C   UNL A   1      33.658  28.290  24.710  1.00  0.00     0.021 C 
BRANCH  24  25
ATOM     25  C   UNL A   1      34.053  28.571  26.156  1.00  0.00     0.116 C 
BRANCH  25  26
ATOM     26  N   UNL A   1      33.922  29.981  26.490  1.00  0.00    -0.352 N 
ATOM     27  C   UNL A   1      34.632  30.725  27.396  1.00  0.00     0.251 C 
ATOM     28  H   UNL A   1      33.226  30.470  25.993  1.00  0.00     0.163 HD
ATOM     29  O   UNL A   1      34.239  31.845  27.719  1.00  0.00    -0.269 OA
BRANCH  27  30
ATOM     30  C   UNL A   1      35.859  30.165  28.000  1.00  0.00     0.039 A 
ATOM     31  C   UNL A   1      37.057  30.239  27.289  1.00  0.00     0.014 A 
ATOM     32  C   UNL A   1      35.826  29.587  29.273  1.00  0.00     0.014 A 
ATOM     33  C   UNL A   1      38.240  29.803  27.889  1.00  0.00     0.010 A 
ATOM     34  C   UNL A   1      37.015  29.215  29.895  1.00  0.00     0.010 A 
ATOM     35  C   UNL A   1      38.237  29.332  29.215  1.00  0.00    -0.014 A 
BRANCH  35  36
ATOM     36  C   UNL A   1      39.508  29.018  29.917  1.00  0.00     0.031 A 
ATOM     37  C   UNL A   1      39.974  29.862  31.072  1.00  0.00     0.074 A 
ATOM     38  C   UNL A   1      40.276  28.007  29.462  1.00  0.00     0.049 A 
ATOM     39  N   UNL A   1      41.083  29.772  31.759  1.00  0.00    -0.248 NA
ATOM     40  C   UNL A   1      39.094  30.962  31.499  1.00  0.00     0.031 C 
ATOM     41  C   UNL A   1      39.955  27.152  28.315  1.00  0.00     0.029 A 
ATOM     42  N   UNL A   1      41.490  27.533  29.892  1.00  0.00    -0.354 N 
ATOM     43  C   UNL A   1      41.042  30.806  32.688  1.00  0.00     0.074 A 
ATOM     44  C   UNL A   1      39.815  31.534  32.454  1.00  0.00     0.031 C 
ATOM     45  C   UNL A   1      40.937  26.254  28.143  1.00  0.00     0.029 A 
ATOM     46  C   UNL A   1      41.980  26.494  29.133  1.00  0.00     0.049 A 
ATOM     47  H   UNL A   1      41.966  27.901  30.671  1.00  0.00     0.167 HD
ATOM     48  C   UNL A   1      41.941  31.106  33.655  1.00  0.00     0.037 A 
ATOM     49  C   UNL A   1      43.148  25.825  29.210  1.00  0.00     0.037 A 
ATOM     50  C   UNL A   1      43.146  30.357  33.899  1.00  0.00     0.049 A 
ATOM     51  C   UNL A   1      44.130  26.192  30.292  1.00  0.00     0.074 A 
ATOM     52  C   UNL A   1      44.072  30.531  34.913  1.00  0.00     0.029 A 
ATOM     53  N   UNL A   1      43.601  29.303  33.121  1.00  0.00    -0.354 N 
ATOM     54  N   UNL A   1      44.024  27.108  31.225  1.00  0.00    -0.248 NA
ATOM     55  C   UNL A   1      45.389  25.435  30.334  1.00  0.00     0.031 C 
ATOM     56  C   UNL A   1      45.118  29.627  34.711  1.00  0.00     0.029 A 
ATOM     57  C   UNL A   1      44.816  28.847  33.608  1.00  0.00     0.049 A 
ATOM     58  H   UNL A   1      43.130  28.933  32.339  1.00  0.00     0.167 HD
ATOM     59  C   UNL A   1      45.192  27.024  31.973  1.00  0.00     0.074 A 
ATOM     60  C   UNL A   1      45.978  25.950  31.403  1.00  0.00     0.031 C 
ATOM     61  C   UNL A   1      45.586  27.773  33.033  1.00  0.00     0.037 A 
BRANCH  48  62
ATOM     62  C   UNL A   1      41.671  32.294  34.539  1.00  0.00     0.058 A 
ATOM     63  C   UNL A   1      42.134  33.577  34.211  1.00  0.00     0.135 A 
ATOM     64  C   UNL A   1      40.841  32.164  35.665  1.00  0.00     0.135 A 
ATOM     65  F   UNL A   1      42.943  33.756  33.155  1.00  0.00    -0.206 F 
ATOM     66  C   UNL A   1      41.783  34.691  34.967  1.00  0.00     0.059 A 
ATOM     67  C   UNL A   1      40.456  33.267  36.420  1.00  0.00     0.059 A 
ATOM     68  F   UNL A   1      40.375  30.957  36.024  1.00  0.00    -0.206 F 
ATOM     69  C   UNL A   1      40.933  34.527  36.063  1.00  0.00     0.060 A 
BRANCH  69  70
ATOM     70  S   UNL A   1      40.433  35.992  36.992  1.00  0.00     0.124 S 
ATOM     71  O   UNL A   1      41.721  36.488  37.470  1.00  0.00    -0.237 OA
ATOM     72  O   UNL A   1      39.784  36.803  35.966  1.00  0.00    -0.237 OA
ATOM     73  O   UNL A   1      39.546  35.460  38.021  1.00  0.00    -0.744 OA
ENDBRANCH  69  70
ENDBRANCH  48  62
BRANCH  49  74
ATOM     74  C   UNL A   1      43.472  24.756  28.225  1.00  0.00     0.058 A 
ATOM     75  C   UNL A   1      44.202  25.036  27.060  1.00  0.00     0.135 A 
ATOM     76  C   UNL A   1      43.024  23.438  28.411  1.00  0.00     0.135 A 
ATOM     77  F   UNL A   1      44.650  26.281  26.833  1.00  0.00    -0.206 F 
ATOM     78  C   UNL A   1      44.440  24.061  26.096  1.00  0.00     0.059 A 
ATOM     79  C   UNL A   1      43.278  22.439  27.479  1.00  0.00     0.059 A 
ATOM     80  F   UNL A   1      42.338  23.109  29.518  1.00  0.00    -0.206 F 
ATOM     81  C   UNL A   1      43.969  22.766  26.313  1.00  0.00     0.060 A 
BRANCH  81  82
ATOM     82  S   UNL A   1      44.282  21.507  25.058  1.00  0.00     0.124 S 
ATOM     83  O   UNL A   1      43.226  20.542  25.341  1.00  0.00    -0.237 OA
ATOM     84  O   UNL A   1      44.140  22.266  23.819  1.00  0.00    -0.237 OA
ATOM     85  O   UNL A   1      45.640  21.064  25.360  1.00  0.00    -0.744 OA
ENDBRANCH  81  82
ENDBRANCH  49  74
BRANCH  61  86
ATOM     86  C   UNL A   1      46.914  27.448  33.658  1.00  0.00     0.058 A 
ATOM     87  C   UNL A   1      47.029  26.501  34.688  1.00  0.00     0.135 A 
ATOM     88  C   UNL A   1      48.091  28.052  33.188  1.00  0.00     0.135 A 
ATOM     89  F   UNL A   1      45.935  25.901  35.180  1.00  0.00    -0.206 F 
ATOM     90  C   UNL A   1      48.263  26.181  35.245  1.00  0.00     0.059 A 
ATOM     91  C   UNL A   1      49.340  27.723  33.708  1.00  0.00     0.059 A 
ATOM     92  F   UNL A   1      48.040  28.958  32.198  1.00  0.00    -0.206 F 
ATOM     93  C   UNL A   1      49.413  26.794  34.745  1.00  0.00     0.060 A 
BRANCH  93  94
ATOM     94  S   UNL A   1      51.010  26.340  35.454  1.00  0.00     0.124 S 
ATOM     95  O   UNL A   1      51.606  25.571  34.367  1.00  0.00    -0.237 OA
ATOM     96  O   UNL A   1      51.615  27.642  35.716  1.00  0.00    -0.237 OA
ATOM     97  O   UNL A   1      50.649  25.572  36.642  1.00  0.00    -0.744 OA
ENDBRANCH  93  94
ENDBRANCH  61  86
ENDBRANCH  35  36
ENDBRANCH  27  30
ENDBRANCH  25  26
ENDBRANCH  24  25
ENDBRANCH  23  24
ENDBRANCH   1  23
TORSDOF 19
ENDMDL
MODEL 3
REMARK VINA RESULT:     -10.3      2.690      3.651
REMARK SMILES C[C@H](C(=O)NCCCCCCNC(=O)c1ccc(-c2c3nc(c(-c4c(F)cc(S(=O)(=O)[O-])cc4F)c4ccc([nH]4)c(-c4c(F)cc(S(=O)(=O)[O-])cc4F)c4nc(c(-c5c(F)cc(S(=O)(=O)[O-])cc5F)c5ccc2[nH]5)C=C4)C=C3)cc1)[C@@H](C)Nc1cc(F)cc(F)c1F
REMARK SMILES IDX 8 1 7 2 6 3 5 4 3 5 4 6 2 8 1 9 81 10 82 11 83 12 84 14
REMARK SMILES IDX 85 15 91 16 86 17 89 18 92 19 87 20 88 21 90 22 9 23 10 24
REMARK SMILES IDX 11 25 12 26 13 27 14 29 15 30 16 31 80 32 17 33 79 34 18 35
REMARK SMILES IDX 19 36 20 37 73 38 21 39 78 40 72 41 74 42 22 43 77 44 71 45
REMARK SMILES IDX 70 46 23 48 57 49 36 50 56 51 37 52 40 53 55 54 75 55 38 56
REMARK SMILES IDX 39 57 54 59 76 60 41 61 24 62 25 63 34 64 26 65 27 66 33 67
REMARK SMILES IDX 35 68 28 69 29 70 30 71 31 72 32 73 58 74 59 75 68 76 60 77
REMARK SMILES IDX 61 78 67 79 69 80 62 81 63 82 64 83 65 84 66 85 42 86 43 87
REMARK SMILES IDX 52 88 44 89 45 90 51 91 53 92 46 93 47 94 48 95 49 96 50 97
REMARK H PARENT 5 7 83 13 12 28 74 47 40 58
REMARK Flexibility Score: inf
ROOT
ATOM      1  C   UNL A   1      32.129  28.321  26.362  1.00  0.00     0.002 C 
ENDROOT
BRANCH   1   2
ATOM      2  C   UNL A   1      32.530  26.847  26.440  1.00  0.00     0.021 C 
BRANCH   2   3
ATOM      3  C   UNL A   1      31.612  25.906  25.657  1.00  0.00     0.116 C 
BRANCH   3   4
ATOM      4  N   UNL A   1      31.082  24.870  26.527  1.00  0.00    -0.356 N 
ATOM      5  C   UNL A   1      31.592  23.663  26.888  1.00  0.00     0.224 C 
ATOM      6  O   UNL A   1      30.868  22.913  27.547  1.00  0.00    -0.275 OA
ATOM      7  H   UNL A   1      30.204  25.079  26.921  1.00  0.00     0.163 HD
BRANCH   5   8
ATOM      8  C   UNL A   1      33.016  23.274  26.504  1.00  0.00     0.097 C 
ATOM      9  C   UNL A   1      33.540  22.319  27.594  1.00  0.00     0.020 C 
BRANCH   8  10
ATOM     10  C   UNL A   1      33.065  22.588  25.115  1.00  0.00     0.088 C 
ATOM     11  C   UNL A   1      34.448  22.069  24.730  1.00  0.00     0.031 C 
BRANCH  10  12
ATOM     12  N   UNL A   1      32.142  21.452  25.116  1.00  0.00    -0.379 N 
ATOM     13  H   UNL A   1      31.259  21.572  25.533  1.00  0.00     0.160 HD
BRANCH  12  14
ATOM     14  C   UNL A   1      32.438  20.216  24.563  1.00  0.00     0.077 A 
ATOM     15  C   UNL A   1      32.899  19.210  25.425  1.00  0.00     0.068 A 
ATOM     16  C   UNL A   1      32.226  19.858  23.220  1.00  0.00     0.182 A 
ATOM     17  C   UNL A   1      33.140  17.919  24.959  1.00  0.00     0.128 A 
ATOM     18  C   UNL A   1      32.498  18.570  22.761  1.00  0.00     0.163 A 
ATOM     19  F   UNL A   1      31.774  20.755  22.328  1.00  0.00    -0.201 F 
ATOM     20  F   UNL A   1      33.547  16.975  25.818  1.00  0.00    -0.207 F 
ATOM     21  C   UNL A   1      32.950  17.589  23.627  1.00  0.00     0.081 A 
ATOM     22  F   UNL A   1      32.310  18.267  21.468  1.00  0.00    -0.204 F 
ENDBRANCH  12  14
ENDBRANCH  10  12
ENDBRANCH   8  10
ENDBRANCH   5   8
ENDBRANCH   3   4
ENDBRANCH   2   3
ENDBRANCH   1   2
BRANCH   1  23
ATOM     23  C   UNL A   1      33.299  29.285  26.170  1.00  0.00     0.002 C 
BRANCH  23  24
ATOM     24  C   UNL A   1      33.525  30.255  27.334  1.00  0.00     0.021 C 
BRANCH  24  25
ATOM     25  C   UNL A   1      34.949  30.266  27.883  1.00  0.00     0.116 C 
BRANCH  25  26
ATOM     26  N   UNL A   1      35.033  30.969  29.154  1.00  0.00    -0.352 N 
ATOM     27  C   UNL A   1      36.028  30.934  30.097  1.00  0.00     0.251 C 
ATOM     28  H   UNL A   1      34.268  31.552  29.366  1.00  0.00     0.163 HD
ATOM     29  O   UNL A   1      35.834  31.407  31.216  1.00  0.00    -0.269 OA
BRANCH  27  30
ATOM     30  C   UNL A   1      37.323  30.304  29.770  1.00  0.00     0.039 A 
ATOM     31  C   UNL A   1      37.796  30.372  28.458  1.00  0.00     0.014 A 
ATOM     32  C   UNL A   1      38.076  29.666  30.761  1.00  0.00     0.014 A 
ATOM     33  C   UNL A   1      39.063  29.868  28.157  1.00  0.00     0.010 A 
ATOM     34  C   UNL A   1      39.366  29.226  30.473  1.00  0.00     0.010 A 
ATOM     35  C   UNL A   1      39.878  29.334  29.171  1.00  0.00    -0.014 A 
BRANCH  35  36
ATOM     36  C   UNL A   1      41.285  28.944  28.895  1.00  0.00     0.031 A 
ATOM     37  C   UNL A   1      42.382  29.974  28.904  1.00  0.00     0.074 A 
ATOM     38  C   UNL A   1      41.558  27.665  28.566  1.00  0.00     0.049 A 
ATOM     39  N   UNL A   1      43.651  29.824  28.625  1.00  0.00    -0.248 NA
ATOM     40  C   UNL A   1      42.005  31.354  29.250  1.00  0.00     0.031 C 
ATOM     41  C   UNL A   1      40.568  26.587  28.470  1.00  0.00     0.029 A 
ATOM     42  N   UNL A   1      42.740  27.052  28.235  1.00  0.00    -0.354 N 
ATOM     43  C   UNL A   1      44.221  31.086  28.749  1.00  0.00     0.074 A 
ATOM     44  C   UNL A   1      43.153  31.999  29.093  1.00  0.00     0.031 C 
ATOM     45  C   UNL A   1      41.185  25.448  28.119  1.00  0.00     0.029 A 
ATOM     46  C   UNL A   1      42.604  25.719  27.919  1.00  0.00     0.049 A 
ATOM     47  H   UNL A   1      43.605  27.522  28.224  1.00  0.00     0.167 HD
ATOM     48  C   UNL A   1      45.518  31.442  28.602  1.00  0.00     0.037 A 
ATOM     49  C   UNL A   1      43.514  24.820  27.493  1.00  0.00     0.037 A 
ATOM     50  C   UNL A   1      46.580  30.520  28.287  1.00  0.00     0.049 A 
ATOM     51  C   UNL A   1      44.947  25.253  27.330  1.00  0.00     0.074 A 
ATOM     52  C   UNL A   1      47.938  30.773  28.208  1.00  0.00     0.029 A 
ATOM     53  N   UNL A   1      46.406  29.177  27.990  1.00  0.00    -0.354 N 
ATOM     54  N   UNL A   1      45.483  26.430  27.551  1.00  0.00    -0.248 NA
ATOM     55  C   UNL A   1      45.901  24.238  26.861  1.00  0.00     0.031 C 
ATOM     56  C   UNL A   1      48.578  29.601  27.800  1.00  0.00     0.029 A 
ATOM     57  C   UNL A   1      47.628  28.600  27.684  1.00  0.00     0.049 A 
ATOM     58  H   UNL A   1      45.543  28.704  27.996  1.00  0.00     0.167 HD
ATOM     59  C   UNL A   1      46.837  26.290  27.267  1.00  0.00     0.074 A 
ATOM     60  C   UNL A   1      47.043  24.909  26.886  1.00  0.00     0.031 C 
ATOM     61  C   UNL A   1      47.821  27.222  27.310  1.00  0.00     0.037 A 
BRANCH  48  62
ATOM     62  C   UNL A   1      45.888  32.890  28.780  1.00  0.00     0.058 A 
ATOM     63  C   UNL A   1      45.712  33.828  27.752  1.00  0.00     0.135 A 
ATOM     64  C   UNL A   1      46.313  33.362  30.034  1.00  0.00     0.135 A 
ATOM     65  F   UNL A   1      45.323  33.430  26.531  1.00  0.00    -0.206 F 
ATOM     66  C   UNL A   1      45.942  35.185  27.960  1.00  0.00     0.059 A 
ATOM     67  C   UNL A   1      46.525  34.717  30.271  1.00  0.00     0.059 A 
ATOM     68  F   UNL A   1      46.501  32.505  31.050  1.00  0.00    -0.206 F 
ATOM     69  C   UNL A   1      46.337  35.620  29.227  1.00  0.00     0.060 A 
BRANCH  69  70
ATOM     70  S   UNL A   1      46.566  37.391  29.495  1.00  0.00     0.124 S 
ATOM     71  O   UNL A   1      47.161  37.804  28.228  1.00  0.00    -0.237 OA
ATOM     72  O   UNL A   1      45.199  37.847  29.731  1.00  0.00    -0.237 OA
ATOM     73  O   UNL A   1      47.453  37.450  30.653  1.00  0.00    -0.744 OA
ENDBRANCH  69  70
ENDBRANCH  48  62
BRANCH  49  74
ATOM     74  C   UNL A   1      43.102  23.427  27.163  1.00  0.00     0.058 A 
ATOM     75  C   UNL A   1      42.974  22.450  28.162  1.00  0.00     0.135 A 
ATOM     76  C   UNL A   1      42.867  23.035  25.836  1.00  0.00     0.135 A 
ATOM     77  F   UNL A   1      43.191  22.772  29.447  1.00  0.00    -0.206 F 
ATOM     78  C   UNL A   1      42.667  21.128  27.855  1.00  0.00     0.059 A 
ATOM     79  C   UNL A   1      42.527  21.728  25.507  1.00  0.00     0.059 A 
ATOM     80  F   UNL A   1      42.957  23.933  24.841  1.00  0.00    -0.206 F 
ATOM     81  C   UNL A   1      42.451  20.776  26.522  1.00  0.00     0.060 A 
BRANCH  81  82
ATOM     82  S   UNL A   1      42.055  19.059  26.131  1.00  0.00     0.124 S 
ATOM     83  O   UNL A   1      40.653  19.161  25.747  1.00  0.00    -0.237 OA
ATOM     84  O   UNL A   1      42.994  18.764  25.053  1.00  0.00    -0.237 OA
ATOM     85  O   UNL A   1      42.318  18.361  27.387  1.00  0.00    -0.744 OA
ENDBRANCH  81  82
ENDBRANCH  49  74
BRANCH  61  86
ATOM     86  C   UNL A   1      49.212  26.778  26.954  1.00  0.00     0.058 A 
ATOM     87  C   UNL A   1      50.118  26.341  27.934  1.00  0.00     0.135 A 
ATOM     88  C   UNL A   1      49.629  26.742  25.613  1.00  0.00     0.135 A 
ATOM     89  F   UNL A   1      49.773  26.363  29.231  1.00  0.00    -0.206 F 
ATOM     90  C   UNL A   1      51.395  25.903  27.598  1.00  0.00     0.059 A 
ATOM     91  C   UNL A   1      50.891  26.278  25.252  1.00  0.00     0.059 A 
ATOM     92  F   UNL A   1      48.801  27.140  24.635  1.00  0.00    -0.206 F 
ATOM     93  C   UNL A   1      51.771  25.871  26.255  1.00  0.00     0.060 A 
BRANCH  93  94
ATOM     94  S   UNL A   1      53.418  25.267  25.834  1.00  0.00     0.124 S 
ATOM     95  O   UNL A   1      53.821  26.208  24.795  1.00  0.00    -0.237 OA
ATOM     96  O   UNL A   1      54.126  25.383  27.106  1.00  0.00    -0.237 OA
ATOM     97  O   UNL A   1      53.174  23.900  25.382  1.00  0.00    -0.744 OA
ENDBRANCH  93  94
ENDBRANCH  61  86
ENDBRANCH  35  36
ENDBRANCH  27  30
ENDBRANCH  25  26
ENDBRANCH  24  25
ENDBRANCH  23  24
ENDBRANCH   1  23
TORSDOF 19
ENDMDL
