MODEL 1
REMARK VINA RESULT:     -12.4      0.000      0.000
REMARK SMILES CN1C(=O)/C(=C\c2ccc(-c3ccccc3C(=O)NCCCCCCNC(=O)c3ccc(-c4c5nc(c(-c6c(F)cc(S(=O)(=O)[O-])cc6F)c6ccc([nH]6)c(-c6c(F)cc(S(=O)(=O)[O-])cc6F)c6nc(c(-c7c(F)cc(S(=O)(=O)[O-])cc7F)c7ccc4[nH]7)C=C6)C=C5)cc3)o2)C(=O)[NH+]=C1S
REMARK SMILES IDX 22 1 21 2 20 3 19 4 17 5 18 6 16 8 11 9 12 10 13 11 15 12
REMARK SMILES IDX 14 13 10 14 7 15 8 16 95 17 9 18 6 19 1 20 2 21 3 22 99 23
REMARK SMILES IDX 4 24 5 25 98 26 96 27 97 29 100 30 23 32 24 33 25 34 26 35
REMARK SMILES IDX 27 36 28 38 29 39 30 40 94 41 31 42 93 43 32 44 33 45 34 46
REMARK SMILES IDX 87 47 35 48 92 49 86 50 88 51 36 52 91 53 85 54 84 55 37 57
REMARK SMILES IDX 71 58 50 59 70 60 51 61 54 62 69 63 89 64 52 65 53 66 68 68
REMARK SMILES IDX 90 69 55 70 38 71 39 72 48 73 40 74 41 75 47 76 49 77 42 78
REMARK SMILES IDX 43 79 44 80 45 81 46 82 72 83 73 84 82 85 74 86 75 87 81 88
REMARK SMILES IDX 83 89 76 90 77 91 78 92 79 93 80 94 56 95 57 96 66 97 58 98
REMARK SMILES IDX 59 99 65 100 67 101 60 102 61 103 62 104 63 105 64 106
REMARK H PARENT 19 7 98 28 100 31 26 37 88 56 54 67
REMARK Flexibility Score: inf
ROOT
ATOM      1  C   UNL A   1      33.021  28.353  26.922  1.00  0.00     0.002 C 
ENDROOT
BRANCH   1   2
ATOM      2  C   UNL A   1      33.081  27.033  26.147  1.00  0.00     0.021 C 
BRANCH   2   3
ATOM      3  C   UNL A   1      34.165  26.949  25.074  1.00  0.00     0.116 C 
BRANCH   3   4
ATOM      4  N   UNL A   1      33.795  26.272  23.857  1.00  0.00    -0.352 N 
ATOM      5  C   UNL A   1      32.672  26.191  23.070  1.00  0.00     0.252 C 
ATOM      6  O   UNL A   1      32.934  25.705  21.957  1.00  0.00    -0.269 OA
ATOM      7  H   UNL A   1      34.534  25.729  23.500  1.00  0.00     0.163 HD
BRANCH   5   8
ATOM      8  C   UNL A   1      31.212  26.544  23.340  1.00  0.00     0.050 A 
ATOM      9  C   UNL A   1      30.199  25.947  24.120  1.00  0.00     0.030 A 
ATOM     10  C   UNL A   1      28.883  26.486  24.126  1.00  0.00     0.013 A 
ATOM     11  C   UNL A   1      28.547  27.631  23.417  1.00  0.00     0.001 A 
ATOM     12  C   UNL A   1      30.819  27.722  22.639  1.00  0.00     0.014 A 
ATOM     13  C   UNL A   1      29.526  28.261  22.680  1.00  0.00     0.001 A 
BRANCH   9  14
ATOM     14  C   UNL A   1      30.348  24.858  25.046  1.00  0.00     0.135 A 
ATOM     15  C   UNL A   1      31.032  22.808  25.584  1.00  0.00     0.128 A 
ATOM     16  C   UNL A   1      30.467  23.406  26.711  1.00  0.00     0.051 A 
ATOM     17  O   UNL A   1      30.950  23.736  24.562  1.00  0.00    -0.457 OA
ATOM     18  C   UNL A   1      29.955  24.670  26.347  1.00  0.00     0.051 A 
BRANCH  15  19
ATOM     19  C   UNL A   1      31.703  21.564  25.407  1.00  0.00     0.071 C 
ATOM     20  C   UNL A   1      35.986  23.236  24.025  1.00  0.00     0.301 C 
ATOM     21  N   UNL A   1      35.190  22.150  24.571  1.00  0.00    -0.189 N 
ATOM     22  C   UNL A   1      34.027  22.489  25.202  1.00  0.00     0.349 C 
ATOM     23  C   UNL A   1      35.640  20.888  24.823  1.00  0.00     0.318 C 
ATOM     24  O   UNL A   1      33.873  23.568  25.760  1.00  0.00    -0.240 OA
ATOM     25  C   UNL A   1      33.022  21.407  25.201  1.00  0.00     0.157 C 
ATOM     26  N   UNL A   1      34.866  19.872  25.002  1.00  0.00    -0.200 N 
ATOM     27  C   UNL A   1      33.519  20.050  24.856  1.00  0.00     0.347 C 
ATOM     28  H   UNL A   1      35.236  18.992  25.238  1.00  0.00     0.316 HD
ATOM     29  O   UNL A   1      32.764  19.176  24.442  1.00  0.00    -0.241 OA
BRANCH  23  30
ATOM     30  S   UNL A   1      37.349  20.671  25.024  1.00  0.00    -0.055 SA
ATOM     31  H   UNL A   1      37.781  21.420  26.073  1.00  0.00     0.116 HD
ENDBRANCH  23  30
ENDBRANCH  15  19
ENDBRANCH   9  14
ENDBRANCH   5   8
ENDBRANCH   3   4
ENDBRANCH   2   3
ENDBRANCH   1   2
BRANCH   1  32
ATOM     32  C   UNL A   1      34.347  29.090  27.161  1.00  0.00     0.002 C 
BRANCH  32  33
ATOM     33  C   UNL A   1      34.266  30.556  27.603  1.00  0.00     0.021 C 
BRANCH  33  34
ATOM     34  C   UNL A   1      35.534  31.153  28.213  1.00  0.00     0.116 C 
BRANCH  34  35
ATOM     35  N   UNL A   1      35.492  31.168  29.665  1.00  0.00    -0.352 N 
ATOM     36  C   UNL A   1      36.376  30.695  30.602  1.00  0.00     0.251 C 
ATOM     37  H   UNL A   1      34.687  31.591  30.043  1.00  0.00     0.163 HD
ATOM     38  O   UNL A   1      36.016  30.632  31.776  1.00  0.00    -0.269 OA
BRANCH  36  39
ATOM     39  C   UNL A   1      37.744  30.250  30.238  1.00  0.00     0.039 A 
ATOM     40  C   UNL A   1      38.064  30.103  28.883  1.00  0.00     0.014 A 
ATOM     41  C   UNL A   1      38.684  29.884  31.202  1.00  0.00     0.014 A 
ATOM     42  C   UNL A   1      39.330  29.644  28.496  1.00  0.00     0.010 A 
ATOM     43  C   UNL A   1      39.966  29.484  30.811  1.00  0.00     0.010 A 
ATOM     44  C   UNL A   1      40.316  29.363  29.454  1.00  0.00    -0.014 A 
BRANCH  44  45
ATOM     45  C   UNL A   1      41.705  28.961  29.063  1.00  0.00     0.031 A 
ATOM     46  C   UNL A   1      42.788  30.000  28.878  1.00  0.00     0.074 A 
ATOM     47  C   UNL A   1      41.974  27.675  28.741  1.00  0.00     0.049 A 
ATOM     48  N   UNL A   1      43.995  29.861  28.387  1.00  0.00    -0.248 NA
ATOM     49  C   UNL A   1      42.459  31.381  29.264  1.00  0.00     0.031 C 
ATOM     50  C   UNL A   1      41.018  26.566  28.790  1.00  0.00     0.029 A 
ATOM     51  N   UNL A   1      43.115  27.095  28.232  1.00  0.00    -0.354 N 
ATOM     52  C   UNL A   1      44.568  31.129  28.412  1.00  0.00     0.074 A 
ATOM     53  C   UNL A   1      43.543  32.038  28.879  1.00  0.00     0.031 C 
ATOM     54  C   UNL A   1      41.592  25.460  28.292  1.00  0.00     0.029 A 
ATOM     55  C   UNL A   1      42.955  25.773  27.878  1.00  0.00     0.049 A 
ATOM     56  H   UNL A   1      43.965  27.580  28.130  1.00  0.00     0.167 HD
ATOM     57  C   UNL A   1      45.839  31.502  28.121  1.00  0.00     0.037 A 
ATOM     58  C   UNL A   1      43.796  24.907  27.279  1.00  0.00     0.037 A 
ATOM     59  C   UNL A   1      46.874  30.597  27.689  1.00  0.00     0.049 A 
ATOM     60  C   UNL A   1      45.195  25.342  26.936  1.00  0.00     0.074 A 
ATOM     61  C   UNL A   1      48.214  30.868  27.464  1.00  0.00     0.029 A 
ATOM     62  N   UNL A   1      46.690  29.251  27.413  1.00  0.00    -0.354 N 
ATOM     63  N   UNL A   1      45.745  26.524  27.065  1.00  0.00    -0.248 NA
ATOM     64  C   UNL A   1      46.098  24.316  26.394  1.00  0.00     0.031 C 
ATOM     65  C   UNL A   1      48.829  29.697  27.009  1.00  0.00     0.029 A 
ATOM     66  C   UNL A   1      47.886  28.683  27.001  1.00  0.00     0.049 A 
ATOM     67  H   UNL A   1      45.835  28.769  27.496  1.00  0.00     0.167 HD
ATOM     68  C   UNL A   1      47.071  26.371  26.672  1.00  0.00     0.074 A 
ATOM     69  C   UNL A   1      47.238  24.984  26.294  1.00  0.00     0.031 C 
ATOM     70  C   UNL A   1      48.059  27.298  26.642  1.00  0.00     0.037 A 
BRANCH  57  71
ATOM     71  C   UNL A   1      46.203  32.954  28.304  1.00  0.00     0.058 A 
ATOM     72  C   UNL A   1      46.072  33.879  27.255  1.00  0.00     0.135 A 
ATOM     73  C   UNL A   1      46.628  33.441  29.552  1.00  0.00     0.135 A 
ATOM     74  F   UNL A   1      45.673  33.472  26.040  1.00  0.00    -0.206 F 
ATOM     75  C   UNL A   1      46.386  35.224  27.423  1.00  0.00     0.059 A 
ATOM     76  C   UNL A   1      46.917  34.789  29.751  1.00  0.00     0.059 A 
ATOM     77  F   UNL A   1      46.762  32.605  30.594  1.00  0.00    -0.206 F 
ATOM     78  C   UNL A   1      46.808  35.669  28.676  1.00  0.00     0.060 A 
BRANCH  78  79
ATOM     79  S   UNL A   1      47.200  37.420  28.876  1.00  0.00     0.124 S 
ATOM     80  O   UNL A   1      47.245  37.544  30.330  1.00  0.00    -0.237 OA
ATOM     81  O   UNL A   1      48.484  37.532  28.192  1.00  0.00    -0.237 OA
ATOM     82  O   UNL A   1      46.084  38.096  28.222  1.00  0.00    -0.744 OA
ENDBRANCH  78  79
ENDBRANCH  57  71
BRANCH  58  83
ATOM     83  C   UNL A   1      43.357  23.511  27.013  1.00  0.00     0.058 A 
ATOM     84  C   UNL A   1      42.937  23.127  25.731  1.00  0.00     0.135 A 
ATOM     85  C   UNL A   1      43.353  22.535  28.022  1.00  0.00     0.135 A 
ATOM     86  F   UNL A   1      42.918  24.027  24.735  1.00  0.00    -0.206 F 
ATOM     87  C   UNL A   1      42.510  21.832  25.460  1.00  0.00     0.059 A 
ATOM     88  C   UNL A   1      42.951  21.226  27.770  1.00  0.00     0.059 A 
ATOM     89  F   UNL A   1      43.772  22.845  29.260  1.00  0.00    -0.206 F 
ATOM     90  C   UNL A   1      42.523  20.887  26.486  1.00  0.00     0.060 A 
BRANCH  90  91
ATOM     91  S   UNL A   1      42.015  19.196  26.105  1.00  0.00     0.124 S 
ATOM     92  O   UNL A   1      42.885  18.873  24.981  1.00  0.00    -0.237 OA
ATOM     93  O   UNL A   1      42.302  18.505  27.358  1.00  0.00    -0.237 OA
ATOM     94  O   UNL A   1      40.597  19.337  25.787  1.00  0.00    -0.744 OA
ENDBRANCH  90  91
ENDBRANCH  58  83
BRANCH  70  95
ATOM     95  C   UNL A   1      49.437  26.839  26.246  1.00  0.00     0.058 A 
ATOM     96  C   UNL A   1      49.926  26.990  24.939  1.00  0.00     0.135 A 
ATOM     97  C   UNL A   1      50.300  26.284  27.205  1.00  0.00     0.135 A 
ATOM     98  F   UNL A   1      49.142  27.507  23.979  1.00  0.00    -0.206 F 
ATOM     99  C   UNL A   1      51.212  26.586  24.592  1.00  0.00     0.059 A 
ATOM    100  C   UNL A   1      51.599  25.900  26.888  1.00  0.00     0.059 A 
ATOM    101  F   UNL A   1      49.887  26.123  28.473  1.00  0.00    -0.206 F 
ATOM    102  C   UNL A   1      52.043  26.045  25.576  1.00  0.00     0.060 A 
BRANCH 102 103
ATOM    103  S   UNL A   1      53.722  25.561  25.121  1.00  0.00     0.124 S 
ATOM    104  O   UNL A   1      53.720  24.141  25.458  1.00  0.00    -0.237 OA
ATOM    105  O   UNL A   1      53.762  25.874  23.696  1.00  0.00    -0.237 OA
ATOM    106  O   UNL A   1      54.561  26.405  25.966  1.00  0.00    -0.744 OA
ENDBRANCH 102 103
ENDBRANCH  70  95
ENDBRANCH  44  45
ENDBRANCH  36  39
ENDBRANCH  34  35
ENDBRANCH  33  34
ENDBRANCH  32  33
ENDBRANCH   1  32
TORSDOF 19
ENDMDL
MODEL 2
REMARK VINA RESULT:     -12.2      0.617      7.874
REMARK SMILES CN1C(=O)/C(=C\c2ccc(-c3ccccc3C(=O)NCCCCCCNC(=O)c3ccc(-c4c5nc(c(-c6c(F)cc(S(=O)(=O)[O-])cc6F)c6ccc([nH]6)c(-c6c(F)cc(S(=O)(=O)[O-])cc6F)c6nc(c(-c7c(F)cc(S(=O)(=O)[O-])cc7F)c7ccc4[nH]7)C=C6)C=C5)cc3)o2)C(=O)[NH+]=C1S
REMARK SMILES IDX 22 1 21 2 20 3 19 4 17 5 18 6 16 8 11 9 12 10 13 11 15 12
REMARK SMILES IDX 14 13 10 14 7 15 8 16 95 17 9 18 6 19 1 20 2 21 3 22 99 23
REMARK SMILES IDX 4 24 5 25 98 26 96 27 97 29 100 30 23 32 24 33 25 34 26 35
REMARK SMILES IDX 27 36 28 38 29 39 30 40 94 41 31 42 93 43 32 44 33 45 34 46
REMARK SMILES IDX 87 47 35 48 92 49 86 50 88 51 36 52 91 53 85 54 84 55 37 57
REMARK SMILES IDX 71 58 50 59 70 60 51 61 54 62 69 63 89 64 52 65 53 66 68 68
REMARK SMILES IDX 90 69 55 70 38 71 39 72 48 73 40 74 41 75 47 76 49 77 42 78
REMARK SMILES IDX 43 79 44 80 45 81 46 82 72 83 73 84 82 85 74 86 75 87 81 88
REMARK SMILES IDX 83 89 76 90 77 91 78 92 79 93 80 94 56 95 57 96 66 97 58 98
REMARK SMILES IDX 59 99 65 100 67 101 60 102 61 103 62 104 63 105 64 106
REMARK H PARENT 19 7 98 28 100 31 26 37 88 56 54 67
REMARK Flexibility Score: inf
ROOT
ATOM      1  C   UNL A   1      34.105  28.951  27.625  1.00  0.00     0.002 C 
ENDROOT
BRANCH   1   2
ATOM      2  C   UNL A   1      33.225  28.228  26.601  1.00  0.00     0.021 C 
BRANCH   2   3
ATOM      3  C   UNL A   1      33.774  26.899  26.084  1.00  0.00     0.116 C 
BRANCH   3   4
ATOM      4  N   UNL A   1      33.777  26.734  24.653  1.00  0.00    -0.352 N 
ATOM      5  C   UNL A   1      32.868  26.893  23.635  1.00  0.00     0.252 C 
ATOM      6  O   UNL A   1      33.429  26.905  22.526  1.00  0.00    -0.269 OA
ATOM      7  H   UNL A   1      34.651  26.429  24.320  1.00  0.00     0.163 HD
BRANCH   5   8
ATOM      8  C   UNL A   1      31.347  27.008  23.638  1.00  0.00     0.050 A 
ATOM      9  C   UNL A   1      30.315  26.211  24.176  1.00  0.00     0.030 A 
ATOM     10  C   UNL A   1      28.951  26.552  23.958  1.00  0.00     0.013 A 
ATOM     11  C   UNL A   1      28.574  27.690  23.258  1.00  0.00     0.001 A 
ATOM     12  C   UNL A   1      30.907  28.170  22.937  1.00  0.00     0.014 A 
ATOM     13  C   UNL A   1      29.560  28.512  22.757  1.00  0.00     0.001 A 
BRANCH   9  14
ATOM     14  C   UNL A   1      30.462  25.083  25.056  1.00  0.00     0.135 A 
ATOM     15  C   UNL A   1      31.112  23.000  25.498  1.00  0.00     0.128 A 
ATOM     16  C   UNL A   1      30.588  23.566  26.661  1.00  0.00     0.051 A 
ATOM     17  O   UNL A   1      31.025  23.968  24.515  1.00  0.00    -0.457 OA
ATOM     18  C   UNL A   1      30.097  24.854  26.359  1.00  0.00     0.051 A 
BRANCH  15  19
ATOM     19  C   UNL A   1      31.748  21.749  25.256  1.00  0.00     0.071 C 
ATOM     20  C   UNL A   1      36.143  23.363  24.192  1.00  0.00     0.301 C 
ATOM     21  N   UNL A   1      35.287  22.269  24.619  1.00  0.00    -0.189 N 
ATOM     22  C   UNL A   1      34.109  22.601  25.223  1.00  0.00     0.349 C 
ATOM     23  C   UNL A   1      35.683  20.976  24.793  1.00  0.00     0.318 C 
ATOM     24  O   UNL A   1      33.965  23.641  25.854  1.00  0.00    -0.240 OA
ATOM     25  C   UNL A   1      33.070  21.560  25.095  1.00  0.00     0.157 C 
ATOM     26  N   UNL A   1      34.869  19.978  24.861  1.00  0.00    -0.200 N 
ATOM     27  C   UNL A   1      33.537  20.216  24.670  1.00  0.00     0.347 C 
ATOM     28  H   UNL A   1      35.199  19.070  25.045  1.00  0.00     0.316 HD
ATOM     29  O   UNL A   1      32.774  19.403  24.158  1.00  0.00    -0.241 OA
BRANCH  23  30
ATOM     30  S   UNL A   1      37.373  20.683  25.051  1.00  0.00    -0.055 SA
ATOM     31  H   UNL A   1      37.788  19.677  24.235  1.00  0.00     0.116 HD
ENDBRANCH  23  30
ENDBRANCH  15  19
ENDBRANCH   9  14
ENDBRANCH   5   8
ENDBRANCH   3   4
ENDBRANCH   2   3
ENDBRANCH   1   2
BRANCH   1  32
ATOM     32  C   UNL A   1      34.838  30.217  27.155  1.00  0.00     0.002 C 
BRANCH  32  33
ATOM     33  C   UNL A   1      34.661  31.485  28.000  1.00  0.00     0.021 C 
BRANCH  33  34
ATOM     34  C   UNL A   1      35.840  31.877  28.891  1.00  0.00     0.116 C 
BRANCH  34  35
ATOM     35  N   UNL A   1      35.780  31.240  30.195  1.00  0.00    -0.352 N 
ATOM     36  C   UNL A   1      36.608  30.325  30.795  1.00  0.00     0.251 C 
ATOM     37  H   UNL A   1      35.010  31.513  30.745  1.00  0.00     0.163 HD
ATOM     38  O   UNL A   1      36.228  29.770  31.825  1.00  0.00    -0.269 OA
BRANCH  36  39
ATOM     39  C   UNL A   1      37.936  29.980  30.233  1.00  0.00     0.039 A 
ATOM     40  C   UNL A   1      38.061  29.827  28.847  1.00  0.00     0.014 A 
ATOM     41  C   UNL A   1      39.037  29.710  31.047  1.00  0.00     0.014 A 
ATOM     42  C   UNL A   1      39.287  29.459  28.278  1.00  0.00     0.010 A 
ATOM     43  C   UNL A   1      40.274  29.403  30.471  1.00  0.00     0.010 A 
ATOM     44  C   UNL A   1      40.425  29.279  29.078  1.00  0.00    -0.014 A 
BRANCH  44  45
ATOM     45  C   UNL A   1      41.767  28.977  28.485  1.00  0.00     0.031 A 
ATOM     46  C   UNL A   1      42.144  27.563  28.106  1.00  0.00     0.074 A 
ATOM     47  C   UNL A   1      42.707  29.946  28.406  1.00  0.00     0.049 A 
ATOM     48  N   UNL A   1      43.308  27.086  27.738  1.00  0.00    -0.248 NA
ATOM     49  C   UNL A   1      41.084  26.546  28.184  1.00  0.00     0.031 C 
ATOM     50  C   UNL A   1      42.526  31.344  28.805  1.00  0.00     0.029 A 
ATOM     51  N   UNL A   1      44.032  29.886  28.034  1.00  0.00    -0.354 N 
ATOM     52  C   UNL A   1      43.118  25.723  27.535  1.00  0.00     0.074 A 
ATOM     53  C   UNL A   1      41.751  25.434  27.912  1.00  0.00     0.031 C 
ATOM     54  C   UNL A   1      43.697  31.993  28.702  1.00  0.00     0.029 A 
ATOM     55  C   UNL A   1      44.720  31.063  28.236  1.00  0.00     0.049 A 
ATOM     56  H   UNL A   1      44.449  29.077  27.660  1.00  0.00     0.167 HD
ATOM     57  C   UNL A   1      43.980  24.800  27.037  1.00  0.00     0.037 A 
ATOM     58  C   UNL A   1      46.023  31.367  28.081  1.00  0.00     0.037 A 
ATOM     59  C   UNL A   1      45.332  25.087  26.627  1.00  0.00     0.049 A 
ATOM     60  C   UNL A   1      46.974  30.326  27.554  1.00  0.00     0.074 A 
ATOM     61  C   UNL A   1      46.245  24.239  26.024  1.00  0.00     0.029 A 
ATOM     62  N   UNL A   1      45.967  26.310  26.780  1.00  0.00    -0.354 N 
ATOM     63  N   UNL A   1      46.744  29.068  27.272  1.00  0.00    -0.248 NA
ATOM     64  C   UNL A   1      48.357  30.756  27.295  1.00  0.00     0.031 C 
ATOM     65  C   UNL A   1      47.446  24.935  25.853  1.00  0.00     0.029 A 
ATOM     66  C   UNL A   1      47.266  26.233  26.301  1.00  0.00     0.049 A 
ATOM     67  H   UNL A   1      45.556  27.114  27.173  1.00  0.00     0.167 HD
ATOM     68  C   UNL A   1      47.936  28.571  26.753  1.00  0.00     0.074 A 
ATOM     69  C   UNL A   1      48.885  29.662  26.767  1.00  0.00     0.031 C 
ATOM     70  C   UNL A   1      48.207  27.324  26.296  1.00  0.00     0.037 A 
BRANCH  57  71
ATOM     71  C   UNL A   1      43.473  23.391  26.861  1.00  0.00     0.058 A 
ATOM     72  C   UNL A   1      43.171  22.876  25.589  1.00  0.00     0.135 A 
ATOM     73  C   UNL A   1      43.345  22.526  27.961  1.00  0.00     0.135 A 
ATOM     74  F   UNL A   1      43.271  23.657  24.502  1.00  0.00    -0.206 F 
ATOM     75  C   UNL A   1      42.723  21.571  25.418  1.00  0.00     0.059 A 
ATOM     76  C   UNL A   1      42.930  21.205  27.808  1.00  0.00     0.059 A 
ATOM     77  F   UNL A   1      43.631  22.959  29.199  1.00  0.00    -0.206 F 
ATOM     78  C   UNL A   1      42.605  20.742  26.534  1.00  0.00     0.060 A 
BRANCH  78  79
ATOM     79  S   UNL A   1      42.032  19.048  26.288  1.00  0.00     0.124 S 
ATOM     80  O   UNL A   1      42.942  18.582  25.246  1.00  0.00    -0.237 OA
ATOM     81  O   UNL A   1      42.226  18.458  27.608  1.00  0.00    -0.237 OA
ATOM     82  O   UNL A   1      40.641  19.216  25.878  1.00  0.00    -0.744 OA
ENDBRANCH  78  79
ENDBRANCH  57  71
BRANCH  58  83
ATOM     83  C   UNL A   1      46.504  32.743  28.374  1.00  0.00     0.058 A 
ATOM     84  C   UNL A   1      47.073  33.050  29.619  1.00  0.00     0.135 A 
ATOM     85  C   UNL A   1      46.412  33.774  27.425  1.00  0.00     0.135 A 
ATOM     86  F   UNL A   1      47.178  32.099  30.560  1.00  0.00    -0.206 F 
ATOM     87  C   UNL A   1      47.518  34.332  29.922  1.00  0.00     0.059 A 
ATOM     88  C   UNL A   1      46.871  35.060  27.697  1.00  0.00     0.059 A 
ATOM     89  F   UNL A   1      45.899  33.525  26.209  1.00  0.00    -0.206 F 
ATOM     90  C   UNL A   1      47.415  35.330  28.953  1.00  0.00     0.060 A 
BRANCH  90  91
ATOM     91  S   UNL A   1      48.045  36.977  29.345  1.00  0.00     0.124 S 
ATOM     92  O   UNL A   1      47.882  37.018  30.792  1.00  0.00    -0.237 OA
ATOM     93  O   UNL A   1      49.419  36.899  28.856  1.00  0.00    -0.237 OA
ATOM     94  O   UNL A   1      47.167  37.861  28.584  1.00  0.00    -0.744 OA
ENDBRANCH  90  91
ENDBRANCH  58  83
BRANCH  70  95
ATOM     95  C   UNL A   1      49.570  27.076  25.707  1.00  0.00     0.058 A 
ATOM     96  C   UNL A   1      49.854  27.322  24.355  1.00  0.00     0.135 A 
ATOM     97  C   UNL A   1      50.624  26.635  26.525  1.00  0.00     0.135 A 
ATOM     98  F   UNL A   1      48.884  27.737  23.525  1.00  0.00    -0.206 F 
ATOM     99  C   UNL A   1      51.127  27.114  23.830  1.00  0.00     0.059 A 
ATOM    100  C   UNL A   1      51.910  26.449  26.028  1.00  0.00     0.059 A 
ATOM    101  F   UNL A   1      50.411  26.391  27.828  1.00  0.00    -0.206 F 
ATOM    102  C   UNL A   1      52.150  26.682  24.676  1.00  0.00     0.060 A 
BRANCH 102 103
ATOM    103  S   UNL A   1      53.804  26.454  23.989  1.00  0.00     0.124 S 
ATOM    104  O   UNL A   1      54.323  25.375  24.822  1.00  0.00    -0.237 OA
ATOM    105  O   UNL A   1      53.520  26.103  22.602  1.00  0.00    -0.237 OA
ATOM    106  O   UNL A   1      54.435  27.756  24.184  1.00  0.00    -0.744 OA
ENDBRANCH 102 103
ENDBRANCH  70  95
ENDBRANCH  44  45
ENDBRANCH  36  39
ENDBRANCH  34  35
ENDBRANCH  33  34
ENDBRANCH  32  33
ENDBRANCH   1  32
TORSDOF 19
ENDMDL
MODEL 3
REMARK VINA RESULT:     -12.1      6.231     11.450
REMARK SMILES CN1C(=O)/C(=C\c2ccc(-c3ccccc3C(=O)NCCCCCCNC(=O)c3ccc(-c4c5nc(c(-c6c(F)cc(S(=O)(=O)[O-])cc6F)c6ccc([nH]6)c(-c6c(F)cc(S(=O)(=O)[O-])cc6F)c6nc(c(-c7c(F)cc(S(=O)(=O)[O-])cc7F)c7ccc4[nH]7)C=C6)C=C5)cc3)o2)C(=O)[NH+]=C1S
REMARK SMILES IDX 22 1 21 2 20 3 19 4 17 5 18 6 16 8 11 9 12 10 13 11 15 12
REMARK SMILES IDX 14 13 10 14 7 15 8 16 95 17 9 18 6 19 1 20 2 21 3 22 99 23
REMARK SMILES IDX 4 24 5 25 98 26 96 27 97 29 100 30 23 32 24 33 25 34 26 35
REMARK SMILES IDX 27 36 28 38 29 39 30 40 94 41 31 42 93 43 32 44 33 45 34 46
REMARK SMILES IDX 87 47 35 48 92 49 86 50 88 51 36 52 91 53 85 54 84 55 37 57
REMARK SMILES IDX 71 58 50 59 70 60 51 61 54 62 69 63 89 64 52 65 53 66 68 68
REMARK SMILES IDX 90 69 55 70 38 71 39 72 48 73 40 74 41 75 47 76 49 77 42 78
REMARK SMILES IDX 43 79 44 80 45 81 46 82 72 83 73 84 82 85 74 86 75 87 81 88
REMARK SMILES IDX 83 89 76 90 77 91 78 92 79 93 80 94 56 95 57 96 66 97 58 98
REMARK SMILES IDX 59 99 65 100 67 101 60 102 61 103 62 104 63 105 64 106
REMARK H PARENT 19 7 98 28 100 31 26 37 88 56 54 67
REMARK Flexibility Score: inf
ROOT
ATOM      1  C   UNL A   1      35.449  23.339  26.511  1.00  0.00     0.002 C 
ENDROOT
BRANCH   1   2
ATOM      2  C   UNL A   1      34.051  23.948  26.366  1.00  0.00     0.021 C 
BRANCH   2   3
ATOM      3  C   UNL A   1      32.891  22.958  26.452  1.00  0.00     0.116 C 
BRANCH   3   4
ATOM      4  N   UNL A   1      31.620  23.512  26.847  1.00  0.00    -0.352 N 
ATOM      5  C   UNL A   1      30.641  24.269  26.251  1.00  0.00     0.252 C 
ATOM      6  O   UNL A   1      29.590  24.250  26.913  1.00  0.00    -0.269 OA
ATOM      7  H   UNL A   1      31.398  23.292  27.780  1.00  0.00     0.163 HD
BRANCH   5   8
ATOM      8  C   UNL A   1      30.643  25.127  24.990  1.00  0.00     0.050 A 
ATOM      9  C   UNL A   1      31.335  25.045  23.763  1.00  0.00     0.030 A 
ATOM     10  C   UNL A   1      31.171  26.054  22.774  1.00  0.00     0.013 A 
ATOM     11  C   UNL A   1      30.304  27.125  22.943  1.00  0.00     0.001 A 
ATOM     12  C   UNL A   1      29.759  26.239  25.110  1.00  0.00     0.014 A 
ATOM     13  C   UNL A   1      29.582  27.209  24.114  1.00  0.00     0.001 A 
BRANCH   9  14
ATOM     14  C   UNL A   1      32.159  23.959  23.304  1.00  0.00     0.135 A 
ATOM     15  C   UNL A   1      32.497  21.815  22.808  1.00  0.00     0.128 A 
ATOM     16  C   UNL A   1      33.654  22.535  22.512  1.00  0.00     0.051 A 
ATOM     17  O   UNL A   1      31.580  22.727  23.297  1.00  0.00    -0.457 OA
ATOM     18  C   UNL A   1      33.470  23.878  22.907  1.00  0.00     0.051 A 
BRANCH  15  19
ATOM     19  C   UNL A   1      32.147  20.451  22.592  1.00  0.00     0.071 C 
ATOM     20  C   UNL A   1      35.825  18.384  24.884  1.00  0.00     0.301 C 
ATOM     21  N   UNL A   1      34.477  18.287  24.348  1.00  0.00    -0.189 N 
ATOM     22  C   UNL A   1      33.774  19.450  24.219  1.00  0.00     0.349 C 
ATOM     23  C   UNL A   1      33.730  17.148  24.287  1.00  0.00     0.318 C 
ATOM     24  O   UNL A   1      33.968  20.418  24.944  1.00  0.00    -0.240 OA
ATOM     25  C   UNL A   1      32.727  19.390  23.180  1.00  0.00     0.157 C 
ATOM     26  N   UNL A   1      32.690  17.010  23.539  1.00  0.00    -0.200 N 
ATOM     27  C   UNL A   1      32.357  18.035  22.698  1.00  0.00     0.347 C 
ATOM     28  H   UNL A   1      32.149  16.189  23.572  1.00  0.00     0.316 HD
ATOM     29  O   UNL A   1      31.821  17.866  21.608  1.00  0.00    -0.241 OA
BRANCH  23  30
ATOM     30  S   UNL A   1      34.148  15.857  25.368  1.00  0.00    -0.055 SA
ATOM     31  H   UNL A   1      33.205  15.759  26.343  1.00  0.00     0.116 HD
ENDBRANCH  23  30
ENDBRANCH  15  19
ENDBRANCH   9  14
ENDBRANCH   5   8
ENDBRANCH   3   4
ENDBRANCH   2   3
ENDBRANCH   1   2
BRANCH   1  32
ATOM     32  C   UNL A   1      36.514  23.766  25.490  1.00  0.00     0.002 C 
BRANCH  32  33
ATOM     33  C   UNL A   1      37.918  23.170  25.648  1.00  0.00     0.021 C 
BRANCH  33  34
ATOM     34  C   UNL A   1      38.834  23.850  26.666  1.00  0.00     0.116 C 
BRANCH  34  35
ATOM     35  N   UNL A   1      40.223  23.848  26.243  1.00  0.00    -0.352 N 
ATOM     36  C   UNL A   1      41.252  24.717  26.507  1.00  0.00     0.251 C 
ATOM     37  H   UNL A   1      40.470  23.090  25.665  1.00  0.00     0.163 HD
ATOM     38  O   UNL A   1      42.291  24.620  25.857  1.00  0.00    -0.269 OA
BRANCH  36  39
ATOM     39  C   UNL A   1      41.142  25.773  27.543  1.00  0.00     0.039 A 
ATOM     40  C   UNL A   1      40.108  25.688  28.483  1.00  0.00     0.014 A 
ATOM     41  C   UNL A   1      41.976  26.892  27.550  1.00  0.00     0.014 A 
ATOM     42  C   UNL A   1      39.942  26.687  29.452  1.00  0.00     0.010 A 
ATOM     43  C   UNL A   1      41.845  27.855  28.556  1.00  0.00     0.010 A 
ATOM     44  C   UNL A   1      40.831  27.768  29.529  1.00  0.00    -0.014 A 
BRANCH  44  45
ATOM     45  C   UNL A   1      40.731  28.798  30.612  1.00  0.00     0.031 A 
ATOM     46  C   UNL A   1      41.517  28.649  31.895  1.00  0.00     0.074 A 
ATOM     47  C   UNL A   1      39.835  29.806  30.510  1.00  0.00     0.049 A 
ATOM     48  N   UNL A   1      41.434  29.345  33.003  1.00  0.00    -0.248 NA
ATOM     49  C   UNL A   1      42.498  27.555  31.952  1.00  0.00     0.031 C 
ATOM     50  C   UNL A   1      38.945  30.042  29.371  1.00  0.00     0.029 A 
ATOM     51  N   UNL A   1      39.466  30.777  31.414  1.00  0.00    -0.354 N 
ATOM     52  C   UNL A   1      42.354  28.779  33.881  1.00  0.00     0.074 A 
ATOM     53  C   UNL A   1      42.913  27.626  33.209  1.00  0.00     0.031 C 
ATOM     54  C   UNL A   1      38.110  31.053  29.658  1.00  0.00     0.029 A 
ATOM     55  C   UNL A   1      38.393  31.538  31.005  1.00  0.00     0.049 A 
ATOM     56  H   UNL A   1      39.927  30.915  32.272  1.00  0.00     0.167 HD
ATOM     57  C   UNL A   1      42.736  29.201  35.113  1.00  0.00     0.037 A 
ATOM     58  C   UNL A   1      37.700  32.507  31.636  1.00  0.00     0.037 A 
ATOM     59  C   UNL A   1      42.208  30.368  35.773  1.00  0.00     0.049 A 
ATOM     60  C   UNL A   1      38.118  32.946  33.013  1.00  0.00     0.074 A 
ATOM     61  C   UNL A   1      42.603  30.926  36.978  1.00  0.00     0.029 A 
ATOM     62  N   UNL A   1      41.173  31.154  35.293  1.00  0.00    -0.354 N 
ATOM     63  N   UNL A   1      39.060  32.460  33.782  1.00  0.00    -0.248 NA
ATOM     64  C   UNL A   1      37.397  34.088  33.596  1.00  0.00     0.031 C 
ATOM     65  C   UNL A   1      41.777  32.022  37.247  1.00  0.00     0.029 A 
ATOM     66  C   UNL A   1      40.902  32.180  36.186  1.00  0.00     0.049 A 
ATOM     67  H   UNL A   1      40.698  31.005  34.443  1.00  0.00     0.167 HD
ATOM     68  C   UNL A   1      39.081  33.268  34.914  1.00  0.00     0.074 A 
ATOM     69  C   UNL A   1      38.053  34.270  34.732  1.00  0.00     0.031 C 
ATOM     70  C   UNL A   1      39.892  33.190  35.998  1.00  0.00     0.037 A 
BRANCH  57  71
ATOM     71  C   UNL A   1      43.817  28.420  35.816  1.00  0.00     0.058 A 
ATOM     72  C   UNL A   1      45.175  28.745  35.658  1.00  0.00     0.135 A 
ATOM     73  C   UNL A   1      43.496  27.378  36.703  1.00  0.00     0.135 A 
ATOM     74  F   UNL A   1      45.542  29.728  34.823  1.00  0.00    -0.206 F 
ATOM     75  C   UNL A   1      46.176  28.041  36.320  1.00  0.00     0.059 A 
ATOM     76  C   UNL A   1      44.480  26.682  37.401  1.00  0.00     0.059 A 
ATOM     77  F   UNL A   1      42.215  27.030  36.902  1.00  0.00    -0.206 F 
ATOM     78  C   UNL A   1      45.818  27.011  37.190  1.00  0.00     0.060 A 
BRANCH  78  79
ATOM     79  S   UNL A   1      47.132  26.118  38.048  1.00  0.00     0.124 S 
ATOM     80  O   UNL A   1      48.078  27.193  38.330  1.00  0.00    -0.237 OA
ATOM     81  O   UNL A   1      46.433  25.570  39.206  1.00  0.00    -0.237 OA
ATOM     82  O   UNL A   1      47.574  25.136  37.063  1.00  0.00    -0.744 OA
ENDBRANCH  78  79
ENDBRANCH  57  71
BRANCH  58  83
ATOM     83  C   UNL A   1      36.565  33.176  30.945  1.00  0.00     0.058 A 
ATOM     84  C   UNL A   1      35.245  32.956  31.364  1.00  0.00     0.135 A 
ATOM     85  C   UNL A   1      36.772  34.050  29.865  1.00  0.00     0.135 A 
ATOM     86  F   UNL A   1      34.998  32.126  32.390  1.00  0.00    -0.206 F 
ATOM     87  C   UNL A   1      34.167  33.560  30.728  1.00  0.00     0.059 A 
ATOM     88  C   UNL A   1      35.710  34.683  29.226  1.00  0.00     0.059 A 
ATOM     89  F   UNL A   1      38.019  34.315  29.443  1.00  0.00    -0.206 F 
ATOM     90  C   UNL A   1      34.409  34.425  29.660  1.00  0.00     0.060 A 
BRANCH  90  91
ATOM     91  S   UNL A   1      33.001  35.241  28.878  1.00  0.00     0.124 S 
ATOM     92  O   UNL A   1      32.126  35.477  30.019  1.00  0.00    -0.237 OA
ATOM     93  O   UNL A   1      33.625  36.425  28.293  1.00  0.00    -0.237 OA
ATOM     94  O   UNL A   1      32.532  34.249  27.915  1.00  0.00    -0.744 OA
ENDBRANCH  90  91
ENDBRANCH  58  83
BRANCH  70  95
ATOM     95  C   UNL A   1      39.751  34.253  37.055  1.00  0.00     0.058 A 
ATOM     96  C   UNL A   1      39.025  34.038  38.237  1.00  0.00     0.135 A 
ATOM     97  C   UNL A   1      40.398  35.491  36.902  1.00  0.00     0.135 A 
ATOM     98  F   UNL A   1      38.380  32.877  38.431  1.00  0.00    -0.206 F 
ATOM     99  C   UNL A   1      38.926  35.020  39.218  1.00  0.00     0.059 A 
ATOM    100  C   UNL A   1      40.337  36.475  37.883  1.00  0.00     0.059 A 
ATOM    101  F   UNL A   1      41.112  35.748  35.795  1.00  0.00    -0.206 F 
ATOM    102  C   UNL A   1      39.589  36.235  39.034  1.00  0.00     0.060 A 
BRANCH 102 103
ATOM    103  S   UNL A   1      39.483  37.485  40.332  1.00  0.00     0.124 S 
ATOM    104  O   UNL A   1      40.805  38.099  40.259  1.00  0.00    -0.237 OA
ATOM    105  O   UNL A   1      38.373  38.315  39.876  1.00  0.00    -0.237 OA
ATOM    106  O   UNL A   1      39.221  36.703  41.537  1.00  0.00    -0.744 OA
ENDBRANCH 102 103
ENDBRANCH  70  95
ENDBRANCH  44  45
ENDBRANCH  36  39
ENDBRANCH  34  35
ENDBRANCH  33  34
ENDBRANCH  32  33
ENDBRANCH   1  32
TORSDOF 19
ENDMDL
