MODEL 1
REMARK VINA RESULT:     -10.9      0.000      0.000
REMARK SMILES O=C(NCCCCCCNC(=O)c1ccc(-c2c3nc(c(-c4c(F)cc(S(=O)(=O)[O-])cc4F)c4ccc([nH]4)c(-c4c(F)cc(S(=O)(=O)[O-])cc4F)c4nc(c(-c5c(F)cc(S(=O)(=O)[O-])cc5F)c5ccc2[nH]5)C=C4)C=C3)cc1)c1ccc(NC(=O)[C@H]2CCS(=O)(=O)C2)cc1
REMARK SMILES IDX 7 1 6 2 5 3 4 4 3 5 1 6 2 7 79 9 80 10 94 11 81 12 93 13
REMARK SMILES IDX 82 14 83 15 84 16 85 18 86 19 87 20 92 21 88 22 89 23 90 24
REMARK SMILES IDX 91 25 8 26 9 27 10 28 11 29 12 31 13 32 14 33 78 34 15 35
REMARK SMILES IDX 77 36 16 37 17 38 18 39 71 40 19 41 76 42 70 43 72 44 20 45
REMARK SMILES IDX 75 46 69 47 68 48 21 50 55 51 34 52 54 53 35 54 38 55 53 56
REMARK SMILES IDX 73 57 36 58 37 59 52 61 74 62 39 63 22 64 23 65 32 66 24 67
REMARK SMILES IDX 25 68 31 69 33 70 26 71 27 72 28 73 29 74 30 75 56 76 57 77
REMARK SMILES IDX 66 78 58 79 59 80 65 81 67 82 60 83 61 84 62 85 63 86 64 87
REMARK SMILES IDX 40 88 41 89 50 90 42 91 43 92 49 93 51 94 44 95 45 96 46 97
REMARK SMILES IDX 47 98 48 99
REMARK H PARENT 3 8 83 17 10 30 72 49 38 60
REMARK Flexibility Score: inf
ROOT
ATOM      1  C   UNL A   1      33.556  29.020  24.743  1.00  0.00     0.002 C 
ENDROOT
BRANCH   1   2
ATOM      2  C   UNL A   1      33.377  28.518  23.308  1.00  0.00     0.002 C 
BRANCH   2   3
ATOM      3  C   UNL A   1      31.953  28.626  22.760  1.00  0.00     0.021 C 
BRANCH   3   4
ATOM      4  C   UNL A   1      30.911  29.033  23.799  1.00  0.00     0.116 C 
BRANCH   4   5
ATOM      5  N   UNL A   1      29.659  28.301  23.623  1.00  0.00    -0.352 N 
ATOM      6  O   UNL A   1      28.380  26.427  23.480  1.00  0.00    -0.269 OA
ATOM      7  C   UNL A   1      29.406  26.971  23.865  1.00  0.00     0.251 C 
ATOM      8  H   UNL A   1      28.898  28.828  23.288  1.00  0.00     0.163 HD
BRANCH   7   9
ATOM      9  C   UNL A   1      30.416  26.209  24.619  1.00  0.00     0.039 A 
ATOM     10  C   UNL A   1      31.163  25.253  23.943  1.00  0.00     0.016 A 
ATOM     11  C   UNL A   1      30.558  26.368  25.994  1.00  0.00     0.016 A 
ATOM     12  C   UNL A   1      31.932  24.353  24.670  1.00  0.00     0.027 A 
ATOM     13  C   UNL A   1      31.350  25.456  26.708  1.00  0.00     0.027 A 
ATOM     14  C   UNL A   1      31.984  24.386  26.055  1.00  0.00     0.041 A 
BRANCH  14  15
ATOM     15  N   UNL A   1      32.605  23.415  26.859  1.00  0.00    -0.326 N 
ATOM     16  C   UNL A   1      33.755  22.690  26.831  1.00  0.00     0.228 C 
ATOM     17  H   UNL A   1      32.062  23.203  27.652  1.00  0.00     0.169 HD
ATOM     18  O   UNL A   1      33.922  21.925  27.792  1.00  0.00    -0.274 OA
BRANCH  16  19
ATOM     19  C   UNL A   1      34.834  22.722  25.756  1.00  0.00     0.095 C 
ATOM     20  C   UNL A   1      35.590  24.049  25.625  1.00  0.00     0.030 C 
ATOM     21  C   UNL A   1      35.764  21.524  25.844  1.00  0.00     0.150 C 
ATOM     22  C   UNL A   1      37.024  23.805  25.170  1.00  0.00     0.138 C 
ATOM     23  S   UNL A   1      37.346  22.056  25.233  1.00  0.00     0.151 S 
ATOM     24  O   UNL A   1      37.503  21.559  23.883  1.00  0.00    -0.229 OA
ATOM     25  O   UNL A   1      38.333  21.809  26.264  1.00  0.00    -0.229 OA
ENDBRANCH  16  19
ENDBRANCH  14  15
ENDBRANCH   7   9
ENDBRANCH   4   5
ENDBRANCH   3   4
ENDBRANCH   2   3
ENDBRANCH   1   2
BRANCH   1  26
ATOM     26  C   UNL A   1      33.937  27.948  25.766  1.00  0.00     0.021 C 
BRANCH  26  27
ATOM     27  C   UNL A   1      33.535  28.264  27.205  1.00  0.00     0.116 C 
BRANCH  27  28
ATOM     28  N   UNL A   1      33.450  29.694  27.454  1.00  0.00    -0.352 N 
ATOM     29  C   UNL A   1      34.382  30.541  28.001  1.00  0.00     0.251 C 
ATOM     30  H   UNL A   1      32.601  30.117  27.193  1.00  0.00     0.163 HD
ATOM     31  O   UNL A   1      34.065  31.688  28.301  1.00  0.00    -0.269 OA
BRANCH  29  32
ATOM     32  C   UNL A   1      35.759  30.061  28.248  1.00  0.00     0.039 A 
ATOM     33  C   UNL A   1      36.695  30.127  27.212  1.00  0.00     0.014 A 
ATOM     34  C   UNL A   1      36.129  29.547  29.495  1.00  0.00     0.014 A 
ATOM     35  C   UNL A   1      38.015  29.736  27.447  1.00  0.00     0.010 A 
ATOM     36  C   UNL A   1      37.460  29.231  29.748  1.00  0.00     0.010 A 
ATOM     37  C   UNL A   1      38.418  29.319  28.727  1.00  0.00    -0.014 A 
BRANCH  37  38
ATOM     38  C   UNL A   1      39.837  28.981  29.016  1.00  0.00     0.031 A 
ATOM     39  C   UNL A   1      40.753  30.010  29.624  1.00  0.00     0.074 A 
ATOM     40  C   UNL A   1      40.316  27.769  28.673  1.00  0.00     0.049 A 
ATOM     41  N   UNL A   1      42.031  29.920  29.895  1.00  0.00    -0.248 NA
ATOM     42  C   UNL A   1      40.164  31.319  29.946  1.00  0.00     0.031 C 
ATOM     43  C   UNL A   1      39.539  26.702  28.039  1.00  0.00     0.029 A 
ATOM     44  N   UNL A   1      41.572  27.230  28.802  1.00  0.00    -0.354 N 
ATOM     45  C   UNL A   1      42.399  31.160  30.403  1.00  0.00     0.074 A 
ATOM     46  C   UNL A   1      41.223  32.002  30.352  1.00  0.00     0.031 C 
ATOM     47  C   UNL A   1      40.326  25.628  27.862  1.00  0.00     0.029 A 
ATOM     48  C   UNL A   1      41.674  25.943  28.327  1.00  0.00     0.049 A 
ATOM     49  H   UNL A   1      42.329  27.718  29.198  1.00  0.00     0.167 HD
ATOM     50  C   UNL A   1      43.601  31.555  30.888  1.00  0.00     0.037 A 
ATOM     51  C   UNL A   1      42.733  25.112  28.267  1.00  0.00     0.037 A 
ATOM     52  C   UNL A   1      44.761  30.703  30.955  1.00  0.00     0.049 A 
ATOM     53  C   UNL A   1      44.062  25.580  28.796  1.00  0.00     0.074 A 
ATOM     54  C   UNL A   1      46.006  30.987  31.487  1.00  0.00     0.029 A 
ATOM     55  N   UNL A   1      44.823  29.405  30.468  1.00  0.00    -0.354 N 
ATOM     56  N   UNL A   1      44.374  26.732  29.339  1.00  0.00    -0.248 NA
ATOM     57  C   UNL A   1      45.182  24.633  28.708  1.00  0.00     0.031 C 
ATOM     58  C   UNL A   1      46.838  29.884  31.268  1.00  0.00     0.029 A 
ATOM     59  C   UNL A   1      46.094  28.888  30.659  1.00  0.00     0.049 A 
ATOM     60  H   UNL A   1      44.074  28.924  30.048  1.00  0.00     0.167 HD
ATOM     61  C   UNL A   1      45.718  26.636  29.688  1.00  0.00     0.074 A 
ATOM     62  C   UNL A   1      46.154  25.310  29.304  1.00  0.00     0.031 C 
ATOM     63  C   UNL A   1      46.515  27.562  30.277  1.00  0.00     0.037 A 
BRANCH  50  64
ATOM     64  C   UNL A   1      43.729  32.973  31.376  1.00  0.00     0.058 A 
ATOM     65  C   UNL A   1      44.099  34.023  30.519  1.00  0.00     0.135 A 
ATOM     66  C   UNL A   1      43.443  33.295  32.714  1.00  0.00     0.135 A 
ATOM     67  F   UNL A   1      44.397  33.774  29.234  1.00  0.00    -0.206 F 
ATOM     68  C   UNL A   1      44.214  35.332  30.977  1.00  0.00     0.059 A 
ATOM     69  C   UNL A   1      43.520  34.603  33.185  1.00  0.00     0.059 A 
ATOM     70  F   UNL A   1      43.084  32.334  33.579  1.00  0.00    -0.206 F 
ATOM     71  C   UNL A   1      43.922  35.612  32.313  1.00  0.00     0.060 A 
BRANCH  71  72
ATOM     72  S   UNL A   1      44.078  37.315  32.889  1.00  0.00     0.124 S 
ATOM     73  O   UNL A   1      42.925  37.428  33.777  1.00  0.00    -0.237 OA
ATOM     74  O   UNL A   1      45.383  37.305  33.543  1.00  0.00    -0.237 OA
ATOM     75  O   UNL A   1      44.001  38.099  31.661  1.00  0.00    -0.744 OA
ENDBRANCH  71  72
ENDBRANCH  50  64
BRANCH  51  76
ATOM     76  C   UNL A   1      42.574  23.742  27.705  1.00  0.00     0.058 A 
ATOM     77  C   UNL A   1      42.369  22.639  28.546  1.00  0.00     0.135 A 
ATOM     78  C   UNL A   1      42.619  23.508  26.322  1.00  0.00     0.135 A 
ATOM     79  F   UNL A   1      42.325  22.809  29.877  1.00  0.00    -0.206 F 
ATOM     80  C   UNL A   1      42.231  21.351  28.040  1.00  0.00     0.059 A 
ATOM     81  C   UNL A   1      42.455  22.233  25.790  1.00  0.00     0.059 A 
ATOM     82  F   UNL A   1      42.797  24.532  25.471  1.00  0.00    -0.206 F 
ATOM     83  C   UNL A   1      42.273  21.159  26.659  1.00  0.00     0.060 A 
BRANCH  83  84
ATOM     84  S   UNL A   1      42.049  19.488  26.011  1.00  0.00     0.124 S 
ATOM     85  O   UNL A   1      42.592  18.678  27.094  1.00  0.00    -0.237 OA
ATOM     86  O   UNL A   1      40.602  19.425  25.827  1.00  0.00    -0.237 OA
ATOM     87  O   UNL A   1      42.829  19.500  24.777  1.00  0.00    -0.744 OA
ENDBRANCH  83  84
ENDBRANCH  51  76
BRANCH  63  88
ATOM     88  C   UNL A   1      47.935  27.163  30.582  1.00  0.00     0.058 A 
ATOM     89  C   UNL A   1      49.008  27.558  29.768  1.00  0.00     0.135 A 
ATOM     90  C   UNL A   1      48.228  26.420  31.737  1.00  0.00     0.135 A 
ATOM     91  F   UNL A   1      48.782  28.264  28.648  1.00  0.00    -0.206 F 
ATOM     92  C   UNL A   1      50.319  27.208  30.074  1.00  0.00     0.059 A 
ATOM     93  C   UNL A   1      49.534  26.086  32.080  1.00  0.00     0.059 A 
ATOM     94  F   UNL A   1      47.241  26.025  32.557  1.00  0.00    -0.206 F 
ATOM     95  C   UNL A   1      50.573  26.475  31.235  1.00  0.00     0.060 A 
BRANCH  95  96
ATOM     96  S   UNL A   1      52.282  26.059  31.639  1.00  0.00     0.124 S 
ATOM     97  O   UNL A   1      52.896  26.018  30.316  1.00  0.00    -0.237 OA
ATOM     98  O   UNL A   1      52.682  27.177  32.488  1.00  0.00    -0.237 OA
ATOM     99  O   UNL A   1      52.169  24.773  32.319  1.00  0.00    -0.744 OA
ENDBRANCH  95  96
ENDBRANCH  63  88
ENDBRANCH  37  38
ENDBRANCH  29  32
ENDBRANCH  27  28
ENDBRANCH  26  27
ENDBRANCH   1  26
TORSDOF 18
ENDMDL
MODEL 2
REMARK VINA RESULT:     -10.8      3.093      6.395
REMARK SMILES O=C(NCCCCCCNC(=O)c1ccc(-c2c3nc(c(-c4c(F)cc(S(=O)(=O)[O-])cc4F)c4ccc([nH]4)c(-c4c(F)cc(S(=O)(=O)[O-])cc4F)c4nc(c(-c5c(F)cc(S(=O)(=O)[O-])cc5F)c5ccc2[nH]5)C=C4)C=C3)cc1)c1ccc(NC(=O)[C@H]2CCS(=O)(=O)C2)cc1
REMARK SMILES IDX 7 1 6 2 5 3 4 4 3 5 1 6 2 7 79 9 80 10 94 11 81 12 93 13
REMARK SMILES IDX 82 14 83 15 84 16 85 18 86 19 87 20 92 21 88 22 89 23 90 24
REMARK SMILES IDX 91 25 8 26 9 27 10 28 11 29 12 31 13 32 14 33 78 34 15 35
REMARK SMILES IDX 77 36 16 37 17 38 18 39 71 40 19 41 76 42 70 43 72 44 20 45
REMARK SMILES IDX 75 46 69 47 68 48 21 50 55 51 34 52 54 53 35 54 38 55 53 56
REMARK SMILES IDX 73 57 36 58 37 59 52 61 74 62 39 63 22 64 23 65 32 66 24 67
REMARK SMILES IDX 25 68 31 69 33 70 26 71 27 72 28 73 29 74 30 75 56 76 57 77
REMARK SMILES IDX 66 78 58 79 59 80 65 81 67 82 60 83 61 84 62 85 63 86 64 87
REMARK SMILES IDX 40 88 41 89 50 90 42 91 43 92 49 93 51 94 44 95 45 96 46 97
REMARK SMILES IDX 47 98 48 99
REMARK H PARENT 3 8 83 17 10 30 72 49 38 60
REMARK Flexibility Score: inf
ROOT
ATOM      1  C   UNL A   1      35.876  33.735  30.199  1.00  0.00     0.002 C 
ENDROOT
BRANCH   1   2
ATOM      2  C   UNL A   1      37.151  33.118  30.781  1.00  0.00     0.002 C 
BRANCH   2   3
ATOM      3  C   UNL A   1      38.146  34.123  31.364  1.00  0.00     0.021 C 
BRANCH   3   4
ATOM      4  C   UNL A   1      38.942  33.597  32.556  1.00  0.00     0.116 C 
BRANCH   4   5
ATOM      5  N   UNL A   1      38.092  33.400  33.728  1.00  0.00    -0.352 N 
ATOM      6  O   UNL A   1      37.023  32.157  35.302  1.00  0.00    -0.269 OA
ATOM      7  C   UNL A   1      37.920  32.259  34.476  1.00  0.00     0.251 C 
ATOM      8  H   UNL A   1      37.576  34.186  34.020  1.00  0.00     0.163 HD
BRANCH   7   9
ATOM      9  C   UNL A   1      38.862  31.150  34.258  1.00  0.00     0.039 A 
ATOM     10  C   UNL A   1      40.087  31.184  34.913  1.00  0.00     0.016 A 
ATOM     11  C   UNL A   1      38.583  30.137  33.345  1.00  0.00     0.016 A 
ATOM     12  C   UNL A   1      41.086  30.296  34.535  1.00  0.00     0.027 A 
ATOM     13  C   UNL A   1      39.601  29.241  32.986  1.00  0.00     0.027 A 
ATOM     14  C   UNL A   1      40.893  29.365  33.525  1.00  0.00     0.041 A 
BRANCH  14  15
ATOM     15  N   UNL A   1      41.901  28.551  32.981  1.00  0.00    -0.326 N 
ATOM     16  C   UNL A   1      42.670  27.510  33.398  1.00  0.00     0.228 C 
ATOM     17  H   UNL A   1      42.104  28.801  32.050  1.00  0.00     0.169 HD
ATOM     18  O   UNL A   1      43.456  27.060  32.552  1.00  0.00    -0.274 OA
BRANCH  16  19
ATOM     19  C   UNL A   1      42.663  26.859  34.776  1.00  0.00     0.095 C 
ATOM     20  C   UNL A   1      41.392  26.078  35.126  1.00  0.00     0.030 C 
ATOM     21  C   UNL A   1      43.930  26.061  35.037  1.00  0.00     0.150 C 
ATOM     22  C   UNL A   1      41.718  24.909  36.048  1.00  0.00     0.138 C 
ATOM     23  S   UNL A   1      43.487  24.739  36.138  1.00  0.00     0.151 S 
ATOM     24  O   UNL A   1      43.924  25.091  37.471  1.00  0.00    -0.229 OA
ATOM     25  O   UNL A   1      43.858  23.487  35.510  1.00  0.00    -0.229 OA
ENDBRANCH  16  19
ENDBRANCH  14  15
ENDBRANCH   7   9
ENDBRANCH   4   5
ENDBRANCH   3   4
ENDBRANCH   2   3
ENDBRANCH   1   2
BRANCH   1  26
ATOM     26  C   UNL A   1      34.776  32.736  29.834  1.00  0.00     0.021 C 
BRANCH  26  27
ATOM     27  C   UNL A   1      34.602  32.494  28.337  1.00  0.00     0.116 C 
BRANCH  27  28
ATOM     28  N   UNL A   1      33.961  31.219  28.054  1.00  0.00    -0.352 N 
ATOM     29  C   UNL A   1      34.521  29.974  27.912  1.00  0.00     0.251 C 
ATOM     30  H   UNL A   1      32.983  31.254  27.950  1.00  0.00     0.163 HD
ATOM     31  O   UNL A   1      33.841  29.041  27.494  1.00  0.00    -0.269 OA
BRANCH  29  32
ATOM     32  C   UNL A   1      35.948  29.765  28.241  1.00  0.00     0.039 A 
ATOM     33  C   UNL A   1      36.290  29.329  29.525  1.00  0.00     0.014 A 
ATOM     34  C   UNL A   1      36.946  29.998  27.291  1.00  0.00     0.014 A 
ATOM     35  C   UNL A   1      37.627  29.067  29.832  1.00  0.00     0.010 A 
ATOM     36  C   UNL A   1      38.267  29.664  27.576  1.00  0.00     0.010 A 
ATOM     37  C   UNL A   1      38.623  29.197  28.850  1.00  0.00    -0.014 A 
BRANCH  37  38
ATOM     38  C   UNL A   1      40.038  28.841  29.136  1.00  0.00     0.031 A 
ATOM     39  C   UNL A   1      40.961  29.849  29.768  1.00  0.00     0.074 A 
ATOM     40  C   UNL A   1      40.508  27.633  28.769  1.00  0.00     0.049 A 
ATOM     41  N   UNL A   1      42.236  29.744  30.041  1.00  0.00    -0.248 NA
ATOM     42  C   UNL A   1      40.381  31.156  30.116  1.00  0.00     0.031 C 
ATOM     43  C   UNL A   1      39.724  26.585  28.110  1.00  0.00     0.029 A 
ATOM     44  N   UNL A   1      41.759  27.081  28.890  1.00  0.00    -0.354 N 
ATOM     45  C   UNL A   1      42.614  30.970  30.576  1.00  0.00     0.074 A 
ATOM     46  C   UNL A   1      41.444  31.822  30.539  1.00  0.00     0.031 C 
ATOM     47  C   UNL A   1      40.504  25.509  27.913  1.00  0.00     0.029 A 
ATOM     48  C   UNL A   1      41.852  25.803  28.388  1.00  0.00     0.049 A 
ATOM     49  H   UNL A   1      42.519  27.555  29.298  1.00  0.00     0.167 HD
ATOM     50  C   UNL A   1      43.817  31.345  31.072  1.00  0.00     0.037 A 
ATOM     51  C   UNL A   1      42.905  24.965  28.313  1.00  0.00     0.037 A 
ATOM     52  C   UNL A   1      44.970  30.482  31.124  1.00  0.00     0.049 A 
ATOM     53  C   UNL A   1      44.236  25.411  28.856  1.00  0.00     0.074 A 
ATOM     54  C   UNL A   1      46.215  30.745  31.665  1.00  0.00     0.029 A 
ATOM     55  N   UNL A   1      45.023  29.195  30.610  1.00  0.00    -0.354 N 
ATOM     56  N   UNL A   1      44.556  26.549  29.424  1.00  0.00    -0.248 NA
ATOM     57  C   UNL A   1      45.349  24.457  28.751  1.00  0.00     0.031 C 
ATOM     58  C   UNL A   1      47.040  29.641  31.426  1.00  0.00     0.029 A 
ATOM     59  C   UNL A   1      46.289  28.663  30.793  1.00  0.00     0.049 A 
ATOM     60  H   UNL A   1      44.271  28.728  30.178  1.00  0.00     0.167 HD
ATOM     61  C   UNL A   1      45.898  26.435  29.774  1.00  0.00     0.074 A 
ATOM     62  C   UNL A   1      46.325  25.114  29.364  1.00  0.00     0.031 C 
ATOM     63  C   UNL A   1      46.701  27.342  30.385  1.00  0.00     0.037 A 
BRANCH  50  64
ATOM     64  C   UNL A   1      43.955  32.751  31.590  1.00  0.00     0.058 A 
ATOM     65  C   UNL A   1      44.323  33.819  30.753  1.00  0.00     0.135 A 
ATOM     66  C   UNL A   1      43.681  33.045  32.937  1.00  0.00     0.135 A 
ATOM     67  F   UNL A   1      44.609  33.596  29.461  1.00  0.00    -0.206 F 
ATOM     68  C   UNL A   1      44.446  35.116  31.239  1.00  0.00     0.059 A 
ATOM     69  C   UNL A   1      43.768  34.342  33.436  1.00  0.00     0.059 A 
ATOM     70  F   UNL A   1      43.325  32.066  33.783  1.00  0.00    -0.206 F 
ATOM     71  C   UNL A   1      44.167  35.368  32.583  1.00  0.00     0.060 A 
BRANCH  71  72
ATOM     72  S   UNL A   1      44.334  37.057  33.196  1.00  0.00     0.124 S 
ATOM     73  O   UNL A   1      42.982  37.327  33.676  1.00  0.00    -0.237 OA
ATOM     74  O   UNL A   1      45.357  36.915  34.227  1.00  0.00    -0.237 OA
ATOM     75  O   UNL A   1      44.741  37.809  32.013  1.00  0.00    -0.744 OA
ENDBRANCH  71  72
ENDBRANCH  50  64
BRANCH  51  76
ATOM     76  C   UNL A   1      42.737  23.609  27.722  1.00  0.00     0.058 A 
ATOM     77  C   UNL A   1      42.472  22.498  28.536  1.00  0.00     0.135 A 
ATOM     78  C   UNL A   1      42.833  23.396  26.338  1.00  0.00     0.135 A 
ATOM     79  F   UNL A   1      42.378  22.648  29.866  1.00  0.00    -0.206 F 
ATOM     80  C   UNL A   1      42.325  21.222  28.003  1.00  0.00     0.059 A 
ATOM     81  C   UNL A   1      42.661  22.135  25.778  1.00  0.00     0.059 A 
ATOM     82  F   UNL A   1      43.069  24.429  25.513  1.00  0.00    -0.206 F 
ATOM     83  C   UNL A   1      42.418  21.051  26.621  1.00  0.00     0.060 A 
BRANCH  83  84
ATOM     84  S   UNL A   1      42.181  19.397  25.936  1.00  0.00     0.124 S 
ATOM     85  O   UNL A   1      42.653  18.556  27.030  1.00  0.00    -0.237 OA
ATOM     86  O   UNL A   1      40.742  19.374  25.686  1.00  0.00    -0.237 OA
ATOM     87  O   UNL A   1      43.017  19.407  24.740  1.00  0.00    -0.744 OA
ENDBRANCH  83  84
ENDBRANCH  51  76
BRANCH  63  88
ATOM     88  C   UNL A   1      48.116  26.926  30.685  1.00  0.00     0.058 A 
ATOM     89  C   UNL A   1      49.172  27.189  29.799  1.00  0.00     0.135 A 
ATOM     90  C   UNL A   1      48.426  26.302  31.905  1.00  0.00     0.135 A 
ATOM     91  F   UNL A   1      48.930  27.778  28.616  1.00  0.00    -0.206 F 
ATOM     92  C   UNL A   1      50.481  26.826  30.098  1.00  0.00     0.059 A 
ATOM     93  C   UNL A   1      49.732  25.958  32.239  1.00  0.00     0.059 A 
ATOM     94  F   UNL A   1      47.457  26.034  32.794  1.00  0.00    -0.206 F 
ATOM     95  C   UNL A   1      50.752  26.214  31.324  1.00  0.00     0.060 A 
BRANCH  95  96
ATOM     96  S   UNL A   1      52.460  25.780  31.715  1.00  0.00     0.124 S 
ATOM     97  O   UNL A   1      52.323  24.387  32.124  1.00  0.00    -0.237 OA
ATOM     98  O   UNL A   1      53.137  26.003  30.441  1.00  0.00    -0.237 OA
ATOM     99  O   UNL A   1      52.814  26.715  32.779  1.00  0.00    -0.744 OA
ENDBRANCH  95  96
ENDBRANCH  63  88
ENDBRANCH  37  38
ENDBRANCH  29  32
ENDBRANCH  27  28
ENDBRANCH  26  27
ENDBRANCH   1  26
TORSDOF 18
ENDMDL
MODEL 3
REMARK VINA RESULT:     -10.7      3.064      4.203
REMARK SMILES O=C(NCCCCCCNC(=O)c1ccc(-c2c3nc(c(-c4c(F)cc(S(=O)(=O)[O-])cc4F)c4ccc([nH]4)c(-c4c(F)cc(S(=O)(=O)[O-])cc4F)c4nc(c(-c5c(F)cc(S(=O)(=O)[O-])cc5F)c5ccc2[nH]5)C=C4)C=C3)cc1)c1ccc(NC(=O)[C@H]2CCS(=O)(=O)C2)cc1
REMARK SMILES IDX 7 1 6 2 5 3 4 4 3 5 1 6 2 7 79 9 80 10 94 11 81 12 93 13
REMARK SMILES IDX 82 14 83 15 84 16 85 18 86 19 87 20 92 21 88 22 89 23 90 24
REMARK SMILES IDX 91 25 8 26 9 27 10 28 11 29 12 31 13 32 14 33 78 34 15 35
REMARK SMILES IDX 77 36 16 37 17 38 18 39 71 40 19 41 76 42 70 43 72 44 20 45
REMARK SMILES IDX 75 46 69 47 68 48 21 50 55 51 34 52 54 53 35 54 38 55 53 56
REMARK SMILES IDX 73 57 36 58 37 59 52 61 74 62 39 63 22 64 23 65 32 66 24 67
REMARK SMILES IDX 25 68 31 69 33 70 26 71 27 72 28 73 29 74 30 75 56 76 57 77
REMARK SMILES IDX 66 78 58 79 59 80 65 81 67 82 60 83 61 84 62 85 63 86 64 87
REMARK SMILES IDX 40 88 41 89 50 90 42 91 43 92 49 93 51 94 44 95 45 96 46 97
REMARK SMILES IDX 47 98 48 99
REMARK H PARENT 3 8 83 17 10 30 72 49 38 60
REMARK Flexibility Score: inf
ROOT
ATOM      1  C   UNL A   1      32.840  29.301  27.200  1.00  0.00     0.002 C 
ENDROOT
BRANCH   1   2
ATOM      2  C   UNL A   1      31.881  28.703  26.167  1.00  0.00     0.002 C 
BRANCH   2   3
ATOM      3  C   UNL A   1      31.355  29.693  25.126  1.00  0.00     0.021 C 
BRANCH   3   4
ATOM      4  C   UNL A   1      31.245  29.120  23.715  1.00  0.00     0.116 C 
BRANCH   4   5
ATOM      5  N   UNL A   1      32.486  29.293  22.964  1.00  0.00    -0.352 N 
ATOM      6  O   UNL A   1      34.532  28.655  22.205  1.00  0.00    -0.269 OA
ATOM      7  C   UNL A   1      33.435  28.348  22.653  1.00  0.00     0.251 C 
ATOM      8  H   UNL A   1      32.667  30.204  22.639  1.00  0.00     0.163 HD
BRANCH   7   9
ATOM      9  C   UNL A   1      33.089  26.934  22.870  1.00  0.00     0.039 A 
ATOM     10  C   UNL A   1      33.706  26.254  23.913  1.00  0.00     0.016 A 
ATOM     11  C   UNL A   1      32.239  26.260  21.999  1.00  0.00     0.016 A 
ATOM     12  C   UNL A   1      33.594  24.871  23.983  1.00  0.00     0.027 A 
ATOM     13  C   UNL A   1      32.129  24.864  22.095  1.00  0.00     0.027 A 
ATOM     14  C   UNL A   1      32.874  24.146  23.046  1.00  0.00     0.041 A 
BRANCH  14  15
ATOM     15  N   UNL A   1      32.852  22.744  22.959  1.00  0.00    -0.326 N 
ATOM     16  C   UNL A   1      32.482  21.705  23.755  1.00  0.00     0.228 C 
ATOM     17  H   UNL A   1      33.198  22.431  22.092  1.00  0.00     0.169 HD
ATOM     18  O   UNL A   1      32.622  20.580  23.256  1.00  0.00    -0.274 OA
BRANCH  16  19
ATOM     19  C   UNL A   1      31.926  21.788  25.171  1.00  0.00     0.095 C 
ATOM     20  C   UNL A   1      32.974  21.911  26.282  1.00  0.00     0.030 C 
ATOM     21  C   UNL A   1      30.821  22.825  25.291  1.00  0.00     0.150 C 
ATOM     22  C   UNL A   1      32.424  22.718  27.452  1.00  0.00     0.138 C 
ATOM     23  S   UNL A   1      30.873  23.440  26.958  1.00  0.00     0.151 S 
ATOM     24  O   UNL A   1      29.805  22.815  27.708  1.00  0.00    -0.229 OA
ATOM     25  O   UNL A   1      31.036  24.878  26.901  1.00  0.00    -0.229 OA
ENDBRANCH  16  19
ENDBRANCH  14  15
ENDBRANCH   7   9
ENDBRANCH   4   5
ENDBRANCH   3   4
ENDBRANCH   2   3
ENDBRANCH   1   2
BRANCH   1  26
ATOM     26  C   UNL A   1      34.280  29.494  26.718  1.00  0.00     0.021 C 
BRANCH  26  27
ATOM     27  C   UNL A   1      35.352  29.136  27.743  1.00  0.00     0.116 C 
BRANCH  27  28
ATOM     28  N   UNL A   1      35.262  29.950  28.945  1.00  0.00    -0.352 N 
ATOM     29  C   UNL A   1      36.251  30.326  29.820  1.00  0.00     0.251 C 
ATOM     30  H   UNL A   1      34.361  30.279  29.163  1.00  0.00     0.163 HD
ATOM     31  O   UNL A   1      35.955  30.867  30.882  1.00  0.00    -0.269 OA
BRANCH  29  32
ATOM     32  C   UNL A   1      37.668  30.059  29.491  1.00  0.00     0.039 A 
ATOM     33  C   UNL A   1      38.553  29.735  30.523  1.00  0.00     0.014 A 
ATOM     34  C   UNL A   1      38.125  30.127  28.172  1.00  0.00     0.014 A 
ATOM     35  C   UNL A   1      39.880  29.418  30.223  1.00  0.00     0.010 A 
ATOM     36  C   UNL A   1      39.426  29.738  27.867  1.00  0.00     0.010 A 
ATOM     37  C   UNL A   1      40.319  29.381  28.889  1.00  0.00    -0.014 A 
BRANCH  37  38
ATOM     38  C   UNL A   1      41.704  28.964  28.545  1.00  0.00     0.031 A 
ATOM     39  C   UNL A   1      42.819  29.976  28.532  1.00  0.00     0.074 A 
ATOM     40  C   UNL A   1      41.946  27.689  28.185  1.00  0.00     0.049 A 
ATOM     41  N   UNL A   1      44.076  29.815  28.204  1.00  0.00    -0.248 NA
ATOM     42  C   UNL A   1      42.472  31.355  28.911  1.00  0.00     0.031 C 
ATOM     43  C   UNL A   1      40.941  26.625  28.117  1.00  0.00     0.029 A 
ATOM     44  N   UNL A   1      43.108  27.069  27.800  1.00  0.00    -0.354 N 
ATOM     45  C   UNL A   1      44.664  31.069  28.322  1.00  0.00     0.074 A 
ATOM     46  C   UNL A   1      43.615  31.991  28.700  1.00  0.00     0.031 C 
ATOM     47  C   UNL A   1      41.536  25.479  27.745  1.00  0.00     0.029 A 
ATOM     48  C   UNL A   1      42.953  25.734  27.503  1.00  0.00     0.049 A 
ATOM     49  H   UNL A   1      43.973  27.535  27.742  1.00  0.00     0.167 HD
ATOM     50  C   UNL A   1      45.962  31.417  28.153  1.00  0.00     0.037 A 
ATOM     51  C   UNL A   1      43.847  24.820  27.079  1.00  0.00     0.037 A 
ATOM     52  C   UNL A   1      47.004  30.488  27.798  1.00  0.00     0.049 A 
ATOM     53  C   UNL A   1      45.281  25.235  26.882  1.00  0.00     0.074 A 
ATOM     54  C   UNL A   1      48.360  30.727  27.666  1.00  0.00     0.029 A 
ATOM     55  N   UNL A   1      46.808  29.145  27.510  1.00  0.00    -0.354 N 
ATOM     56  N   UNL A   1      45.832  26.410  27.068  1.00  0.00    -0.248 NA
ATOM     57  C   UNL A   1      46.215  24.198  26.421  1.00  0.00     0.031 C 
ATOM     58  C   UNL A   1      48.975  29.545  27.240  1.00  0.00     0.029 A 
ATOM     59  C   UNL A   1      48.012  28.551  27.170  1.00  0.00     0.049 A 
ATOM     60  H   UNL A   1      45.939  28.682  27.542  1.00  0.00     0.167 HD
ATOM     61  C   UNL A   1      47.184  26.246  26.780  1.00  0.00     0.074 A 
ATOM     62  C   UNL A   1      47.366  24.856  26.417  1.00  0.00     0.031 C 
ATOM     63  C   UNL A   1      48.183  27.163  26.816  1.00  0.00     0.037 A 
BRANCH  50  64
ATOM     64  C   UNL A   1      46.331  32.864  28.340  1.00  0.00     0.058 A 
ATOM     65  C   UNL A   1      46.746  33.370  29.583  1.00  0.00     0.135 A 
ATOM     66  C   UNL A   1      46.305  33.753  27.252  1.00  0.00     0.135 A 
ATOM     67  F   UNL A   1      46.778  32.571  30.661  1.00  0.00    -0.206 F 
ATOM     68  C   UNL A   1      47.088  34.708  29.748  1.00  0.00     0.059 A 
ATOM     69  C   UNL A   1      46.673  35.089  27.387  1.00  0.00     0.059 A 
ATOM     70  F   UNL A   1      45.917  33.326  26.039  1.00  0.00    -0.206 F 
ATOM     71  C   UNL A   1      47.048  35.561  28.643  1.00  0.00     0.060 A 
BRANCH  71  72
ATOM     72  S   UNL A   1      47.493  37.294  28.877  1.00  0.00     0.124 S 
ATOM     73  O   UNL A   1      46.920  37.905  27.681  1.00  0.00    -0.237 OA
ATOM     74  O   UNL A   1      46.830  37.619  30.135  1.00  0.00    -0.237 OA
ATOM     75  O   UNL A   1      48.951  37.267  28.928  1.00  0.00    -0.744 OA
ENDBRANCH  71  72
ENDBRANCH  50  64
BRANCH  51  76
ATOM     76  C   UNL A   1      43.419  23.415  26.834  1.00  0.00     0.058 A 
ATOM     77  C   UNL A   1      43.253  22.931  25.529  1.00  0.00     0.135 A 
ATOM     78  C   UNL A   1      43.172  22.530  27.895  1.00  0.00     0.135 A 
ATOM     79  F   UNL A   1      43.470  23.740  24.480  1.00  0.00    -0.206 F 
ATOM     80  C   UNL A   1      42.841  21.625  25.282  1.00  0.00     0.059 A 
ATOM     81  C   UNL A   1      42.788  21.212  27.674  1.00  0.00     0.059 A 
ATOM     82  F   UNL A   1      43.332  22.939  29.164  1.00  0.00    -0.206 F 
ATOM     83  C   UNL A   1      42.614  20.772  26.363  1.00  0.00     0.060 A 
BRANCH  83  84
ATOM     84  S   UNL A   1      42.123  19.066  26.029  1.00  0.00     0.124 S 
ATOM     85  O   UNL A   1      42.977  18.732  24.896  1.00  0.00    -0.237 OA
ATOM     86  O   UNL A   1      42.444  18.405  27.290  1.00  0.00    -0.237 OA
ATOM     87  O   UNL A   1      40.697  19.180  25.734  1.00  0.00    -0.744 OA
ENDBRANCH  83  84
ENDBRANCH  51  76
BRANCH  63  88
ATOM     88  C   UNL A   1      49.574  26.688  26.494  1.00  0.00     0.058 A 
ATOM     89  C   UNL A   1      50.364  26.010  27.434  1.00  0.00     0.135 A 
ATOM     90  C   UNL A   1      50.101  26.868  25.204  1.00  0.00     0.135 A 
ATOM     91  F   UNL A   1      49.912  25.817  28.684  1.00  0.00    -0.206 F 
ATOM     92  C   UNL A   1      51.639  25.551  27.116  1.00  0.00     0.059 A 
ATOM     93  C   UNL A   1      51.359  26.389  24.855  1.00  0.00     0.059 A 
ATOM     94  F   UNL A   1      49.384  27.501  24.261  1.00  0.00    -0.206 F 
ATOM     95  C   UNL A   1      52.126  25.741  25.822  1.00  0.00     0.060 A 
BRANCH  95  96
ATOM     96  S   UNL A   1      53.766  25.107  25.414  1.00  0.00     0.124 S 
ATOM     97  O   UNL A   1      54.566  25.627  26.518  1.00  0.00    -0.237 OA
ATOM     98  O   UNL A   1      53.550  23.664  25.411  1.00  0.00    -0.237 OA
ATOM     99  O   UNL A   1      54.044  25.696  24.107  1.00  0.00    -0.744 OA
ENDBRANCH  95  96
ENDBRANCH  63  88
ENDBRANCH  37  38
ENDBRANCH  29  32
ENDBRANCH  27  28
ENDBRANCH  26  27
ENDBRANCH   1  26
TORSDOF 18
ENDMDL
