MODEL 1
REMARK VINA RESULT:     -10.7      0.000      0.000
REMARK SMILES C[C@@H](CCC(=O)Nc1ccccn1)C(=O)NCCCCCCNC(=O)c1ccc(-c2c3nc(c(-c4c(F)cc(S(=O)(=O)[O-])cc4F)c4ccc([nH]4)c(-c4c(F)cc(S(=O)(=O)[O-])cc4F)c4nc(c(-c5c(F)cc(S(=O)(=O)[O-])cc5F)c5ccc2[nH]5)C=C4)C=C3)cc1
REMARK SMILES IDX 19 1 18 2 17 3 16 4 14 5 15 6 2 8 1 9 3 10 4 11 5 12 6 13
REMARK SMILES IDX 7 14 8 16 9 17 13 18 10 19 12 20 11 21 20 22 21 23 22 24
REMARK SMILES IDX 23 25 24 26 25 28 26 29 27 30 91 31 28 32 90 33 29 34 30 35
REMARK SMILES IDX 31 36 84 37 32 38 89 39 83 40 85 41 33 42 88 43 82 44 81 45
REMARK SMILES IDX 34 47 68 48 47 49 67 50 48 51 51 52 66 53 86 54 49 55 50 56
REMARK SMILES IDX 65 58 87 59 52 60 35 61 36 62 45 63 37 64 38 65 44 66 46 67
REMARK SMILES IDX 39 68 40 69 41 70 42 71 43 72 69 73 70 74 79 75 71 76 72 77
REMARK SMILES IDX 78 78 80 79 73 80 74 81 75 82 76 83 77 84 53 85 54 86 63 87
REMARK SMILES IDX 55 88 56 89 62 90 64 91 57 92 58 93 59 94 60 95 61 96
REMARK H PARENT 16 7 7 15 23 27 85 46 51 57
REMARK Flexibility Score: inf
ROOT
ATOM      1  C   UNL A   1      34.676  31.954  27.854  1.00  0.00     0.002 C 
ENDROOT
BRANCH   1   2
ATOM      2  C   UNL A   1      34.888  30.432  27.753  1.00  0.00     0.021 C 
BRANCH   2   3
ATOM      3  C   UNL A   1      33.740  29.596  27.136  1.00  0.00     0.116 C 
BRANCH   3   4
ATOM      4  N   UNL A   1      33.876  29.477  25.676  1.00  0.00    -0.356 N 
ATOM      5  C   UNL A   1      33.331  28.793  24.646  1.00  0.00     0.222 C 
ATOM      6  O   UNL A   1      33.533  29.325  23.540  1.00  0.00    -0.275 OA
ATOM      7  H   UNL A   1      34.580  30.083  25.349  1.00  0.00     0.163 HD
BRANCH   5   8
ATOM      8  C   UNL A   1      32.583  27.444  24.644  1.00  0.00     0.076 C 
ATOM      9  C   UNL A   1      33.252  26.394  25.571  1.00  0.00     0.018 C 
BRANCH   8  10
ATOM     10  C   UNL A   1      31.065  27.372  24.716  1.00  0.00     0.023 C 
BRANCH  10  11
ATOM     11  C   UNL A   1      30.308  27.306  23.389  1.00  0.00     0.101 C 
BRANCH  11  12
ATOM     12  C   UNL A   1      28.819  27.519  23.455  1.00  0.00     0.225 C 
ATOM     13  O   UNL A   1      28.119  26.561  23.814  1.00  0.00    -0.275 OA
ATOM     14  N   UNL A   1      28.163  28.677  23.251  1.00  0.00    -0.311 N 
ATOM     15  H   UNL A   1      27.301  28.629  23.723  1.00  0.00     0.171 HD
BRANCH  14  16
ATOM     16  C   UNL A   1      28.248  29.916  22.626  1.00  0.00     0.132 A 
ATOM     17  C   UNL A   1      28.225  30.200  21.276  1.00  0.00     0.047 A 
ATOM     18  N   UNL A   1      28.181  30.913  23.530  1.00  0.00    -0.239 NA
ATOM     19  C   UNL A   1      28.163  31.528  20.834  1.00  0.00     0.005 A 
ATOM     20  C   UNL A   1      28.131  32.192  23.094  1.00  0.00     0.113 A 
ATOM     21  C   UNL A   1      28.123  32.552  21.764  1.00  0.00     0.020 A 
ENDBRANCH  14  16
ENDBRANCH  11  12
ENDBRANCH  10  11
ENDBRANCH   8  10
ENDBRANCH   5   8
ENDBRANCH   3   4
ENDBRANCH   2   3
ENDBRANCH   1   2
BRANCH   1  22
ATOM     22  C   UNL A   1      35.921  32.840  27.906  1.00  0.00     0.002 C 
BRANCH  22  23
ATOM     23  C   UNL A   1      36.018  33.823  29.075  1.00  0.00     0.021 C 
BRANCH  23  24
ATOM     24  C   UNL A   1      36.866  33.387  30.274  1.00  0.00     0.116 C 
BRANCH  24  25
ATOM     25  N   UNL A   1      36.295  32.264  31.005  1.00  0.00    -0.352 N 
ATOM     26  C   UNL A   1      36.720  30.967  31.144  1.00  0.00     0.251 C 
ATOM     27  H   UNL A   1      35.457  32.472  31.481  1.00  0.00     0.163 HD
ATOM     28  O   UNL A   1      35.973  30.148  31.685  1.00  0.00    -0.269 OA
BRANCH  26  29
ATOM     29  C   UNL A   1      38.048  30.525  30.660  1.00  0.00     0.039 A 
ATOM     30  C   UNL A   1      38.252  30.391  29.281  1.00  0.00     0.014 A 
ATOM     31  C   UNL A   1      39.070  30.171  31.545  1.00  0.00     0.014 A 
ATOM     32  C   UNL A   1      39.489  29.958  28.792  1.00  0.00     0.010 A 
ATOM     33  C   UNL A   1      40.322  29.795  31.055  1.00  0.00     0.010 A 
ATOM     34  C   UNL A   1      40.544  29.680  29.674  1.00  0.00    -0.014 A 
BRANCH  34  35
ATOM     35  C   UNL A   1      41.880  29.264  29.169  1.00  0.00     0.031 A 
ATOM     36  C   UNL A   1      42.998  30.268  29.063  1.00  0.00     0.074 A 
ATOM     37  C   UNL A   1      42.070  27.995  28.757  1.00  0.00     0.049 A 
ATOM     38  N   UNL A   1      44.206  30.112  28.583  1.00  0.00    -0.248 NA
ATOM     39  C   UNL A   1      42.714  31.631  29.539  1.00  0.00     0.031 C 
ATOM     40  C   UNL A   1      41.052  26.942  28.771  1.00  0.00     0.029 A 
ATOM     41  N   UNL A   1      43.178  27.375  28.235  1.00  0.00    -0.354 N 
ATOM     42  C   UNL A   1      44.820  31.356  28.688  1.00  0.00     0.074 A 
ATOM     43  C   UNL A   1      43.837  32.266  29.235  1.00  0.00     0.031 C 
ATOM     44  C   UNL A   1      41.586  25.806  28.292  1.00  0.00     0.029 A 
ATOM     45  C   UNL A   1      42.971  26.055  27.907  1.00  0.00     0.049 A 
ATOM     46  H   UNL A   1      44.040  27.833  28.106  1.00  0.00     0.167 HD
ATOM     47  C   UNL A   1      46.093  31.701  28.377  1.00  0.00     0.037 A 
ATOM     48  C   UNL A   1      43.801  25.151  27.349  1.00  0.00     0.037 A 
ATOM     49  C   UNL A   1      47.073  30.783  27.858  1.00  0.00     0.049 A 
ATOM     50  C   UNL A   1      45.212  25.559  27.017  1.00  0.00     0.074 A 
ATOM     51  C   UNL A   1      48.403  31.024  27.554  1.00  0.00     0.029 A 
ATOM     52  N   UNL A   1      46.834  29.448  27.567  1.00  0.00    -0.354 N 
ATOM     53  N   UNL A   1      45.790  26.727  27.173  1.00  0.00    -0.248 NA
ATOM     54  C   UNL A   1      46.085  24.527  26.442  1.00  0.00     0.031 C 
ATOM     55  C   UNL A   1      48.958  29.843  27.050  1.00  0.00     0.029 A 
ATOM     56  C   UNL A   1      47.985  28.855  27.078  1.00  0.00     0.049 A 
ATOM     57  H   UNL A   1      45.971  28.989  27.691  1.00  0.00     0.167 HD
ATOM     58  C   UNL A   1      47.101  26.562  26.740  1.00  0.00     0.074 A 
ATOM     59  C   UNL A   1      47.234  25.180  26.328  1.00  0.00     0.031 C 
ATOM     60  C   UNL A   1      48.103  27.473  26.685  1.00  0.00     0.037 A 
BRANCH  47  61
ATOM     61  C   UNL A   1      46.507  33.130  28.603  1.00  0.00     0.058 A 
ATOM     62  C   UNL A   1      47.109  33.539  29.803  1.00  0.00     0.135 A 
ATOM     63  C   UNL A   1      46.351  34.091  27.590  1.00  0.00     0.135 A 
ATOM     64  F   UNL A   1      47.270  32.665  30.810  1.00  0.00    -0.206 F 
ATOM     65  C   UNL A   1      47.522  34.852  30.001  1.00  0.00     0.059 A 
ATOM     66  C   UNL A   1      46.779  35.405  27.756  1.00  0.00     0.059 A 
ATOM     67  F   UNL A   1      45.782  33.756  26.421  1.00  0.00    -0.206 F 
ATOM     68  C   UNL A   1      47.354  35.779  28.971  1.00  0.00     0.060 A 
BRANCH  68  69
ATOM     69  S   UNL A   1      47.913  37.475  29.237  1.00  0.00     0.124 S 
ATOM     70  O   UNL A   1      47.915  37.556  30.694  1.00  0.00    -0.237 OA
ATOM     71  O   UNL A   1      49.226  37.476  28.602  1.00  0.00    -0.237 OA
ATOM     72  O   UNL A   1      46.895  38.279  28.567  1.00  0.00    -0.744 OA
ENDBRANCH  68  69
ENDBRANCH  47  61
BRANCH  48  73
ATOM     73  C   UNL A   1      43.327  23.768  27.081  1.00  0.00     0.058 A 
ATOM     74  C   UNL A   1      43.201  22.833  28.119  1.00  0.00     0.135 A 
ATOM     75  C   UNL A   1      42.996  23.349  25.782  1.00  0.00     0.135 A 
ATOM     76  F   UNL A   1      43.512  23.183  29.377  1.00  0.00    -0.206 F 
ATOM     77  C   UNL A   1      42.789  21.525  27.879  1.00  0.00     0.059 A 
ATOM     78  C   UNL A   1      42.556  22.054  25.521  1.00  0.00     0.059 A 
ATOM     79  F   UNL A   1      43.082  24.209  24.756  1.00  0.00    -0.206 F 
ATOM     80  C   UNL A   1      42.470  21.145  26.575  1.00  0.00     0.060 A 
BRANCH  80  81
ATOM     81  S   UNL A   1      41.910  19.454  26.275  1.00  0.00     0.124 S 
ATOM     82  O   UNL A   1      42.347  18.781  27.491  1.00  0.00    -0.237 OA
ATOM     83  O   UNL A   1      40.468  19.630  26.124  1.00  0.00    -0.237 OA
ATOM     84  O   UNL A   1      42.617  19.079  25.054  1.00  0.00    -0.744 OA
ENDBRANCH  80  81
ENDBRANCH  48  73
BRANCH  60  85
ATOM     85  C   UNL A   1      49.442  26.998  26.196  1.00  0.00     0.058 A 
ATOM     86  C   UNL A   1      50.357  26.365  27.051  1.00  0.00     0.135 A 
ATOM     87  C   UNL A   1      49.792  27.133  24.843  1.00  0.00     0.135 A 
ATOM     88  F   UNL A   1      50.073  26.218  28.354  1.00  0.00    -0.206 F 
ATOM     89  C   UNL A   1      51.583  25.902  26.586  1.00  0.00     0.059 A 
ATOM     90  C   UNL A   1      51.002  26.653  24.351  1.00  0.00     0.059 A 
ATOM     91  F   UNL A   1      48.947  27.722  23.981  1.00  0.00    -0.206 F 
ATOM     92  C   UNL A   1      51.896  26.049  25.233  1.00  0.00     0.060 A 
BRANCH  92  93
ATOM     93  S   UNL A   1      53.476  25.412  24.634  1.00  0.00     0.124 S 
ATOM     94  O   UNL A   1      53.431  24.031  25.100  1.00  0.00    -0.237 OA
ATOM     95  O   UNL A   1      53.361  25.598  23.190  1.00  0.00    -0.237 OA
ATOM     96  O   UNL A   1      54.458  26.267  25.292  1.00  0.00    -0.744 OA
ENDBRANCH  92  93
ENDBRANCH  60  85
ENDBRANCH  34  35
ENDBRANCH  26  29
ENDBRANCH  24  25
ENDBRANCH  23  24
ENDBRANCH  22  23
ENDBRANCH   1  22
TORSDOF 20
ENDMDL
MODEL 2
REMARK VINA RESULT:     -10.7      7.004     14.047
REMARK SMILES C[C@@H](CCC(=O)Nc1ccccn1)C(=O)NCCCCCCNC(=O)c1ccc(-c2c3nc(c(-c4c(F)cc(S(=O)(=O)[O-])cc4F)c4ccc([nH]4)c(-c4c(F)cc(S(=O)(=O)[O-])cc4F)c4nc(c(-c5c(F)cc(S(=O)(=O)[O-])cc5F)c5ccc2[nH]5)C=C4)C=C3)cc1
REMARK SMILES IDX 19 1 18 2 17 3 16 4 14 5 15 6 2 8 1 9 3 10 4 11 5 12 6 13
REMARK SMILES IDX 7 14 8 16 9 17 13 18 10 19 12 20 11 21 20 22 21 23 22 24
REMARK SMILES IDX 23 25 24 26 25 28 26 29 27 30 91 31 28 32 90 33 29 34 30 35
REMARK SMILES IDX 31 36 84 37 32 38 89 39 83 40 85 41 33 42 88 43 82 44 81 45
REMARK SMILES IDX 34 47 68 48 47 49 67 50 48 51 51 52 66 53 86 54 49 55 50 56
REMARK SMILES IDX 65 58 87 59 52 60 35 61 36 62 45 63 37 64 38 65 44 66 46 67
REMARK SMILES IDX 39 68 40 69 41 70 42 71 43 72 69 73 70 74 79 75 71 76 72 77
REMARK SMILES IDX 78 78 80 79 73 80 74 81 75 82 76 83 77 84 53 85 54 86 63 87
REMARK SMILES IDX 55 88 56 89 62 90 64 91 57 92 58 93 59 94 60 95 61 96
REMARK H PARENT 16 7 7 15 23 27 85 46 51 57
REMARK Flexibility Score: inf
ROOT
ATOM      1  C   UNL A   1      41.465  20.296  26.172  1.00  0.00     0.002 C 
ENDROOT
BRANCH   1   2
ATOM      2  C   UNL A   1      42.280  19.033  25.837  1.00  0.00     0.021 C 
BRANCH   2   3
ATOM      3  C   UNL A   1      43.330  18.570  26.876  1.00  0.00     0.116 C 
BRANCH   3   4
ATOM      4  N   UNL A   1      44.542  18.044  26.230  1.00  0.00    -0.356 N 
ATOM      5  C   UNL A   1      45.597  18.485  25.510  1.00  0.00     0.222 C 
ATOM      6  O   UNL A   1      46.560  17.699  25.515  1.00  0.00    -0.275 OA
ATOM      7  H   UNL A   1      44.605  17.070  26.365  1.00  0.00     0.163 HD
BRANCH   5   8
ATOM      8  C   UNL A   1      45.737  19.754  24.644  1.00  0.00     0.076 C 
ATOM      9  C   UNL A   1      44.943  19.655  23.314  1.00  0.00     0.018 C 
BRANCH   8  10
ATOM     10  C   UNL A   1      45.650  21.147  25.249  1.00  0.00     0.023 C 
BRANCH  10  11
ATOM     11  C   UNL A   1      45.493  22.318  24.277  1.00  0.00     0.101 C 
BRANCH  11  12
ATOM     12  C   UNL A   1      44.335  23.247  24.528  1.00  0.00     0.225 C 
ATOM     13  O   UNL A   1      43.192  22.789  24.382  1.00  0.00    -0.275 OA
ATOM     14  N   UNL A   1      44.404  24.511  24.987  1.00  0.00    -0.311 N 
ATOM     15  H   UNL A   1      43.544  24.730  25.414  1.00  0.00     0.171 HD
BRANCH  14  16
ATOM     16  C   UNL A   1      45.233  25.623  25.084  1.00  0.00     0.132 A 
ATOM     17  C   UNL A   1      45.010  26.803  25.762  1.00  0.00     0.047 A 
ATOM     18  N   UNL A   1      46.445  25.363  24.554  1.00  0.00    -0.239 NA
ATOM     19  C   UNL A   1      46.033  27.755  25.879  1.00  0.00     0.005 A 
ATOM     20  C   UNL A   1      47.421  26.291  24.664  1.00  0.00     0.113 A 
ATOM     21  C   UNL A   1      47.267  27.499  25.309  1.00  0.00     0.020 A 
ENDBRANCH  14  16
ENDBRANCH  11  12
ENDBRANCH  10  11
ENDBRANCH   8  10
ENDBRANCH   5   8
ENDBRANCH   3   4
ENDBRANCH   2   3
ENDBRANCH   1   2
BRANCH   1  22
ATOM     22  C   UNL A   1      41.258  20.633  27.650  1.00  0.00     0.002 C 
BRANCH  22  23
ATOM     23  C   UNL A   1      41.335  22.112  28.035  1.00  0.00     0.021 C 
BRANCH  23  24
ATOM     24  C   UNL A   1      40.335  23.054  27.357  1.00  0.00     0.116 C 
BRANCH  24  25
ATOM     25  N   UNL A   1      40.916  23.815  26.258  1.00  0.00    -0.352 N 
ATOM     26  C   UNL A   1      41.178  25.156  26.128  1.00  0.00     0.251 C 
ATOM     27  H   UNL A   1      41.163  23.274  25.473  1.00  0.00     0.163 HD
ATOM     28  O   UNL A   1      41.526  25.593  25.029  1.00  0.00    -0.269 OA
BRANCH  26  29
ATOM     29  C   UNL A   1      41.051  26.090  27.271  1.00  0.00     0.039 A 
ATOM     30  C   UNL A   1      41.971  27.138  27.390  1.00  0.00     0.014 A 
ATOM     31  C   UNL A   1      40.086  25.905  28.265  1.00  0.00     0.014 A 
ATOM     32  C   UNL A   1      41.890  28.027  28.467  1.00  0.00     0.010 A 
ATOM     33  C   UNL A   1      39.969  26.826  29.308  1.00  0.00     0.010 A 
ATOM     34  C   UNL A   1      40.872  27.894  29.423  1.00  0.00    -0.014 A 
BRANCH  34  35
ATOM     35  C   UNL A   1      40.743  28.857  30.549  1.00  0.00     0.031 A 
ATOM     36  C   UNL A   1      41.616  28.720  31.768  1.00  0.00     0.074 A 
ATOM     37  C   UNL A   1      39.803  29.822  30.496  1.00  0.00     0.049 A 
ATOM     38  N   UNL A   1      41.603  29.417  32.877  1.00  0.00    -0.248 NA
ATOM     39  C   UNL A   1      42.622  27.646  31.748  1.00  0.00     0.031 C 
ATOM     40  C   UNL A   1      38.868  30.029  29.387  1.00  0.00     0.029 A 
ATOM     41  N   UNL A   1      39.467  30.800  31.397  1.00  0.00    -0.354 N 
ATOM     42  C   UNL A   1      42.586  28.860  33.688  1.00  0.00     0.074 A 
ATOM     43  C   UNL A   1      43.145  27.740  32.962  1.00  0.00     0.031 C 
ATOM     44  C   UNL A   1      38.075  31.075  29.669  1.00  0.00     0.029 A 
ATOM     45  C   UNL A   1      38.419  31.593  30.988  1.00  0.00     0.049 A 
ATOM     46  H   UNL A   1      39.931  30.923  32.257  1.00  0.00     0.167 HD
ATOM     47  C   UNL A   1      42.999  29.259  34.915  1.00  0.00     0.037 A 
ATOM     48  C   UNL A   1      37.800  32.615  31.612  1.00  0.00     0.037 A 
ATOM     49  C   UNL A   1      42.455  30.391  35.620  1.00  0.00     0.049 A 
ATOM     50  C   UNL A   1      38.281  33.042  32.973  1.00  0.00     0.074 A 
ATOM     51  C   UNL A   1      42.836  30.905  36.848  1.00  0.00     0.029 A 
ATOM     52  N   UNL A   1      41.416  31.186  35.160  1.00  0.00    -0.354 N 
ATOM     53  N   UNL A   1      39.248  32.536  33.702  1.00  0.00    -0.248 NA
ATOM     54  C   UNL A   1      37.594  34.183  33.594  1.00  0.00     0.031 C 
ATOM     55  C   UNL A   1      42.006  31.992  37.145  1.00  0.00     0.029 A 
ATOM     56  C   UNL A   1      41.135  32.180  36.083  1.00  0.00     0.049 A 
ATOM     57  H   UNL A   1      40.947  31.063  34.303  1.00  0.00     0.167 HD
ATOM     58  C   UNL A   1      39.302  33.313  34.853  1.00  0.00     0.074 A 
ATOM     59  C   UNL A   1      38.280  34.330  34.719  1.00  0.00     0.031 C 
ATOM     60  C   UNL A   1      40.122  33.193  35.926  1.00  0.00     0.037 A 
BRANCH  47  61
ATOM     61  C   UNL A   1      44.103  28.476  35.573  1.00  0.00     0.058 A 
ATOM     62  C   UNL A   1      45.454  28.785  35.351  1.00  0.00     0.135 A 
ATOM     63  C   UNL A   1      43.810  27.442  36.476  1.00  0.00     0.135 A 
ATOM     64  F   UNL A   1      45.792  29.756  34.486  1.00  0.00    -0.206 F 
ATOM     65  C   UNL A   1      46.476  28.084  35.983  1.00  0.00     0.059 A 
ATOM     66  C   UNL A   1      44.815  26.743  37.140  1.00  0.00     0.059 A 
ATOM     67  F   UNL A   1      42.535  27.103  36.727  1.00  0.00    -0.206 F 
ATOM     68  C   UNL A   1      46.147  27.064  36.877  1.00  0.00     0.060 A 
BRANCH  68  69
ATOM     69  S   UNL A   1      47.485  26.177  37.704  1.00  0.00     0.124 S 
ATOM     70  O   UNL A   1      48.524  27.200  37.755  1.00  0.00    -0.237 OA
ATOM     71  O   UNL A   1      46.882  25.823  38.984  1.00  0.00    -0.237 OA
ATOM     72  O   UNL A   1      47.753  25.055  36.809  1.00  0.00    -0.744 OA
ENDBRANCH  68  69
ENDBRANCH  47  61
BRANCH  48  73
ATOM     73  C   UNL A   1      36.667  33.317  30.952  1.00  0.00     0.058 A 
ATOM     74  C   UNL A   1      35.346  33.122  31.384  1.00  0.00     0.135 A 
ATOM     75  C   UNL A   1      36.878  34.190  29.873  1.00  0.00     0.135 A 
ATOM     76  F   UNL A   1      35.091  32.291  32.406  1.00  0.00    -0.206 F 
ATOM     77  C   UNL A   1      34.273  33.747  30.756  1.00  0.00     0.059 A 
ATOM     78  C   UNL A   1      35.823  34.847  29.246  1.00  0.00     0.059 A 
ATOM     79  F   UNL A   1      38.124  34.424  29.432  1.00  0.00    -0.206 F 
ATOM     80  C   UNL A   1      34.522  34.607  29.686  1.00  0.00     0.060 A 
BRANCH  80  81
ATOM     81  S   UNL A   1      33.126  35.436  28.893  1.00  0.00     0.124 S 
ATOM     82  O   UNL A   1      33.803  36.444  28.087  1.00  0.00    -0.237 OA
ATOM     83  O   UNL A   1      32.498  34.343  28.156  1.00  0.00    -0.237 OA
ATOM     84  O   UNL A   1      32.353  35.943  30.023  1.00  0.00    -0.744 OA
ENDBRANCH  80  81
ENDBRANCH  48  73
BRANCH  60  85
ATOM     85  C   UNL A   1      39.973  34.207  37.025  1.00  0.00     0.058 A 
ATOM     86  C   UNL A   1      39.083  34.012  38.092  1.00  0.00     0.135 A 
ATOM     87  C   UNL A   1      40.769  35.364  37.035  1.00  0.00     0.135 A 
ATOM     88  F   UNL A   1      38.295  32.926  38.125  1.00  0.00    -0.206 F 
ATOM     89  C   UNL A   1      38.970  34.941  39.121  1.00  0.00     0.059 A 
ATOM     90  C   UNL A   1      40.691  36.294  38.068  1.00  0.00     0.059 A 
ATOM     91  F   UNL A   1      41.644  35.593  36.043  1.00  0.00    -0.206 F 
ATOM     92  C   UNL A   1      39.781  36.079  39.101  1.00  0.00     0.060 A 
BRANCH  92  93
ATOM     93  S   UNL A   1      39.650  37.260  40.461  1.00  0.00     0.124 S 
ATOM     94  O   UNL A   1      38.247  37.649  40.378  1.00  0.00    -0.237 OA
ATOM     95  O   UNL A   1      40.016  36.446  41.617  1.00  0.00    -0.237 OA
ATOM     96  O   UNL A   1      40.614  38.296  40.103  1.00  0.00    -0.744 OA
ENDBRANCH  92  93
ENDBRANCH  60  85
ENDBRANCH  34  35
ENDBRANCH  26  29
ENDBRANCH  24  25
ENDBRANCH  23  24
ENDBRANCH  22  23
ENDBRANCH   1  22
TORSDOF 20
ENDMDL
MODEL 3
REMARK VINA RESULT:     -10.7      0.996      8.438
REMARK SMILES C[C@@H](CCC(=O)Nc1ccccn1)C(=O)NCCCCCCNC(=O)c1ccc(-c2c3nc(c(-c4c(F)cc(S(=O)(=O)[O-])cc4F)c4ccc([nH]4)c(-c4c(F)cc(S(=O)(=O)[O-])cc4F)c4nc(c(-c5c(F)cc(S(=O)(=O)[O-])cc5F)c5ccc2[nH]5)C=C4)C=C3)cc1
REMARK SMILES IDX 19 1 18 2 17 3 16 4 14 5 15 6 2 8 1 9 3 10 4 11 5 12 6 13
REMARK SMILES IDX 7 14 8 16 9 17 13 18 10 19 12 20 11 21 20 22 21 23 22 24
REMARK SMILES IDX 23 25 24 26 25 28 26 29 27 30 91 31 28 32 90 33 29 34 30 35
REMARK SMILES IDX 31 36 84 37 32 38 89 39 83 40 85 41 33 42 88 43 82 44 81 45
REMARK SMILES IDX 34 47 68 48 47 49 67 50 48 51 51 52 66 53 86 54 49 55 50 56
REMARK SMILES IDX 65 58 87 59 52 60 35 61 36 62 45 63 37 64 38 65 44 66 46 67
REMARK SMILES IDX 39 68 40 69 41 70 42 71 43 72 69 73 70 74 79 75 71 76 72 77
REMARK SMILES IDX 78 78 80 79 73 80 74 81 75 82 76 83 77 84 53 85 54 86 63 87
REMARK SMILES IDX 55 88 56 89 62 90 64 91 57 92 58 93 59 94 60 95 61 96
REMARK H PARENT 16 7 7 15 23 27 85 46 51 57
REMARK Flexibility Score: inf
ROOT
ATOM      1  C   UNL A   1      34.793  31.967  28.087  1.00  0.00     0.002 C 
ENDROOT
BRANCH   1   2
ATOM      2  C   UNL A   1      35.006  30.692  27.251  1.00  0.00     0.021 C 
BRANCH   2   3
ATOM      3  C   UNL A   1      34.805  29.334  27.967  1.00  0.00     0.116 C 
BRANCH   3   4
ATOM      4  N   UNL A   1      33.391  28.930  27.984  1.00  0.00    -0.356 N 
ATOM      5  C   UNL A   1      32.548  28.110  27.320  1.00  0.00     0.222 C 
ATOM      6  O   UNL A   1      31.518  27.837  27.961  1.00  0.00    -0.275 OA
ATOM      7  H   UNL A   1      32.911  29.403  28.703  1.00  0.00     0.163 HD
BRANCH   5   8
ATOM      8  C   UNL A   1      32.648  27.545  25.888  1.00  0.00     0.076 C 
ATOM      9  C   UNL A   1      33.219  26.101  25.858  1.00  0.00     0.018 C 
BRANCH   8  10
ATOM     10  C   UNL A   1      31.525  27.726  24.877  1.00  0.00     0.023 C 
BRANCH  10  11
ATOM     11  C   UNL A   1      31.929  28.066  23.442  1.00  0.00     0.101 C 
BRANCH  11  12
ATOM     12  C   UNL A   1      30.895  27.818  22.377  1.00  0.00     0.225 C 
ATOM     13  O   UNL A   1      31.035  26.812  21.666  1.00  0.00    -0.275 OA
ATOM     14  N   UNL A   1      29.770  28.528  22.168  1.00  0.00    -0.311 N 
ATOM     15  H   UNL A   1      29.122  27.948  21.708  1.00  0.00     0.171 HD
BRANCH  14  16
ATOM     16  C   UNL A   1      29.181  29.773  22.359  1.00  0.00     0.132 A 
ATOM     17  C   UNL A   1      29.217  30.577  23.479  1.00  0.00     0.047 A 
ATOM     18  N   UNL A   1      28.669  30.241  21.203  1.00  0.00    -0.239 NA
ATOM     19  C   UNL A   1      28.694  31.876  23.434  1.00  0.00     0.005 A 
ATOM     20  C   UNL A   1      28.158  31.493  21.172  1.00  0.00     0.113 A 
ATOM     21  C   UNL A   1      28.142  32.345  22.255  1.00  0.00     0.020 A 
ENDBRANCH  14  16
ENDBRANCH  11  12
ENDBRANCH  10  11
ENDBRANCH   8  10
ENDBRANCH   5   8
ENDBRANCH   3   4
ENDBRANCH   2   3
ENDBRANCH   1   2
BRANCH   1  22
ATOM     22  C   UNL A   1      35.925  32.995  28.113  1.00  0.00     0.002 C 
BRANCH  22  23
ATOM     23  C   UNL A   1      36.087  33.808  29.399  1.00  0.00     0.021 C 
BRANCH  23  24
ATOM     24  C   UNL A   1      36.979  33.203  30.489  1.00  0.00     0.116 C 
BRANCH  24  25
ATOM     25  N   UNL A   1      36.440  31.974  31.057  1.00  0.00    -0.352 N 
ATOM     26  C   UNL A   1      36.886  30.679  30.992  1.00  0.00     0.251 C 
ATOM     27  H   UNL A   1      35.612  32.095  31.577  1.00  0.00     0.163 HD
ATOM     28  O   UNL A   1      36.164  29.776  31.421  1.00  0.00    -0.269 OA
BRANCH  26  29
ATOM     29  C   UNL A   1      38.209  30.336  30.419  1.00  0.00     0.039 A 
ATOM     30  C   UNL A   1      39.286  30.129  31.288  1.00  0.00     0.014 A 
ATOM     31  C   UNL A   1      38.419  30.289  29.038  1.00  0.00     0.014 A 
ATOM     32  C   UNL A   1      40.553  29.822  30.779  1.00  0.00     0.010 A 
ATOM     33  C   UNL A   1      39.669  29.927  28.532  1.00  0.00     0.010 A 
ATOM     34  C   UNL A   1      40.750  29.693  29.395  1.00  0.00    -0.014 A 
BRANCH  34  35
ATOM     35  C   UNL A   1      42.078  29.323  28.838  1.00  0.00     0.031 A 
ATOM     36  C   UNL A   1      42.339  27.915  28.372  1.00  0.00     0.074 A 
ATOM     37  C   UNL A   1      43.065  30.240  28.802  1.00  0.00     0.049 A 
ATOM     38  N   UNL A   1      43.449  27.384  27.924  1.00  0.00    -0.248 NA
ATOM     39  C   UNL A   1      41.209  26.973  28.437  1.00  0.00     0.031 C 
ATOM     40  C   UNL A   1      42.947  31.625  29.265  1.00  0.00     0.029 A 
ATOM     41  N   UNL A   1      44.364  30.147  28.370  1.00  0.00    -0.354 N 
ATOM     42  C   UNL A   1      43.156  26.050  27.666  1.00  0.00     0.074 A 
ATOM     43  C   UNL A   1      41.777  25.839  28.050  1.00  0.00     0.031 C 
ATOM     44  C   UNL A   1      44.120  32.253  29.081  1.00  0.00     0.029 A 
ATOM     45  C   UNL A   1      45.082  31.311  28.519  1.00  0.00     0.049 A 
ATOM     46  H   UNL A   1      44.747  29.324  27.990  1.00  0.00     0.167 HD
ATOM     47  C   UNL A   1      43.957  25.093  27.137  1.00  0.00     0.037 A 
ATOM     48  C   UNL A   1      46.372  31.585  28.243  1.00  0.00     0.037 A 
ATOM     49  C   UNL A   1      45.321  25.317  26.734  1.00  0.00     0.049 A 
ATOM     50  C   UNL A   1      47.240  30.506  27.652  1.00  0.00     0.074 A 
ATOM     51  C   UNL A   1      46.202  24.425  26.145  1.00  0.00     0.029 A 
ATOM     52  N   UNL A   1      46.002  26.516  26.872  1.00  0.00    -0.354 N 
ATOM     53  N   UNL A   1      46.930  29.263  27.366  1.00  0.00    -0.248 NA
ATOM     54  C   UNL A   1      48.630  30.866  27.338  1.00  0.00     0.031 C 
ATOM     55  C   UNL A   1      47.426  25.077  25.958  1.00  0.00     0.029 A 
ATOM     56  C   UNL A   1      47.295  26.387  26.392  1.00  0.00     0.049 A 
ATOM     57  H   UNL A   1      45.623  27.340  27.256  1.00  0.00     0.167 HD
ATOM     58  C   UNL A   1      48.076  28.703  26.815  1.00  0.00     0.074 A 
ATOM     59  C   UNL A   1      49.082  29.744  26.796  1.00  0.00     0.031 C 
ATOM     60  C   UNL A   1      48.279  27.439  26.368  1.00  0.00     0.037 A 
BRANCH  47  61
ATOM     61  C   UNL A   1      43.377  23.717  26.951  1.00  0.00     0.058 A 
ATOM     62  C   UNL A   1      42.977  23.254  25.688  1.00  0.00     0.135 A 
ATOM     63  C   UNL A   1      43.269  22.831  28.035  1.00  0.00     0.135 A 
ATOM     64  F   UNL A   1      43.045  24.064  24.619  1.00  0.00    -0.206 F 
ATOM     65  C   UNL A   1      42.472  21.970  25.508  1.00  0.00     0.059 A 
ATOM     66  C   UNL A   1      42.789  21.533  27.875  1.00  0.00     0.059 A 
ATOM     67  F   UNL A   1      43.637  23.220  29.267  1.00  0.00    -0.206 F 
ATOM     68  C   UNL A   1      42.382  21.116  26.608  1.00  0.00     0.060 A 
BRANCH  68  69
ATOM     69  S   UNL A   1      41.741  19.447  26.354  1.00  0.00     0.124 S 
ATOM     70  O   UNL A   1      42.473  19.033  25.161  1.00  0.00    -0.237 OA
ATOM     71  O   UNL A   1      42.117  18.775  27.593  1.00  0.00    -0.237 OA
ATOM     72  O   UNL A   1      40.308  19.658  26.168  1.00  0.00    -0.744 OA
ENDBRANCH  68  69
ENDBRANCH  47  61
BRANCH  48  73
ATOM     73  C   UNL A   1      46.921  32.942  28.507  1.00  0.00     0.058 A 
ATOM     74  C   UNL A   1      46.919  33.930  27.511  1.00  0.00     0.135 A 
ATOM     75  C   UNL A   1      47.465  33.277  29.757  1.00  0.00     0.135 A 
ATOM     76  F   UNL A   1      46.416  33.656  26.297  1.00  0.00    -0.206 F 
ATOM     77  C   UNL A   1      47.457  35.193  27.734  1.00  0.00     0.059 A 
ATOM     78  C   UNL A   1      47.985  34.543  30.013  1.00  0.00     0.059 A 
ATOM     79  F   UNL A   1      47.476  32.375  30.750  1.00  0.00    -0.206 F 
ATOM     80  C   UNL A   1      47.990  35.490  28.990  1.00  0.00     0.060 A 
BRANCH  80  81
ATOM     81  S   UNL A   1      48.663  37.141  29.280  1.00  0.00     0.124 S 
ATOM     82  O   UNL A   1      50.022  36.833  29.705  1.00  0.00    -0.237 OA
ATOM     83  O   UNL A   1      48.528  37.763  27.966  1.00  0.00    -0.237 OA
ATOM     84  O   UNL A   1      47.785  37.683  30.312  1.00  0.00    -0.744 OA
ENDBRANCH  80  81
ENDBRANCH  48  73
BRANCH  60  85
ATOM     85  C   UNL A   1      49.628  27.120  25.787  1.00  0.00     0.058 A 
ATOM     86  C   UNL A   1      49.907  27.309  24.426  1.00  0.00     0.135 A 
ATOM     87  C   UNL A   1      50.668  26.668  26.616  1.00  0.00     0.135 A 
ATOM     88  F   UNL A   1      48.945  27.732  23.591  1.00  0.00    -0.206 F 
ATOM     89  C   UNL A   1      51.166  27.039  23.899  1.00  0.00     0.059 A 
ATOM     90  C   UNL A   1      51.942  26.417  26.115  1.00  0.00     0.059 A 
ATOM     91  F   UNL A   1      50.456  26.481  27.928  1.00  0.00    -0.206 F 
ATOM     92  C   UNL A   1      52.178  26.595  24.753  1.00  0.00     0.060 A 
BRANCH  92  93
ATOM     93  S   UNL A   1      53.818  26.282  24.065  1.00  0.00     0.124 S 
ATOM     94  O   UNL A   1      54.226  25.095  24.807  1.00  0.00    -0.237 OA
ATOM     95  O   UNL A   1      53.528  26.076  22.648  1.00  0.00    -0.237 OA
ATOM     96  O   UNL A   1      54.555  27.503  24.375  1.00  0.00    -0.744 OA
ENDBRANCH  92  93
ENDBRANCH  60  85
ENDBRANCH  34  35
ENDBRANCH  26  29
ENDBRANCH  24  25
ENDBRANCH  23  24
ENDBRANCH  22  23
ENDBRANCH   1  22
TORSDOF 20
ENDMDL
