MODEL 1
REMARK VINA RESULT:     -11.7      0.000      0.000
REMARK SMILES O=C(NCCCCCCNC(=O)c1cccc(COc2ccccc2C=C2C(=O)c3ccccc3C2=O)c1)c1ccc(-c2c3nc(c(-c4c(F)cc(S(=O)(=O)[O-])cc4F)c4ccc([nH]4)c(-c4c(F)cc(S(=O)(=O)[O-])cc4F)c4nc(c(-c5c(F)cc(S(=O)(=O)[O-])cc5F)c5ccc2[nH]5)C=C4)C=C3)cc1
REMARK SMILES IDX 7 1 6 2 5 3 4 4 3 5 1 6 2 7 39 9 40 10 104 11 41 12 103 13
REMARK SMILES IDX 42 14 43 15 44 16 97 17 45 18 102 19 96 20 98 21 46 22
REMARK SMILES IDX 101 23 95 24 94 25 47 27 81 28 60 29 80 30 61 31 64 32 79 33
REMARK SMILES IDX 99 34 62 35 63 36 78 38 100 39 65 40 48 41 49 42 58 43 50 44
REMARK SMILES IDX 51 45 57 46 59 47 52 48 53 49 54 50 55 51 56 52 82 53 83 54
REMARK SMILES IDX 92 55 84 56 85 57 91 58 93 59 86 60 87 61 88 62 89 63 90 64
REMARK SMILES IDX 66 65 67 66 76 67 68 68 69 69 75 70 77 71 70 72 71 73 72 74
REMARK SMILES IDX 73 75 74 76 8 77 9 78 10 79 11 80 12 82 13 83 14 84 38 85
REMARK SMILES IDX 15 86 17 87 16 88 18 89 19 90 20 91 21 92 25 93 22 94 24 95
REMARK SMILES IDX 23 96 26 97 27 98 28 99 36 100 29 101 30 102 35 103 37 104
REMARK SMILES IDX 31 105 34 106 32 107 33 108
REMARK H PARENT 3 8 98 26 64 37 10 81
REMARK Flexibility Score: inf
ROOT
ATOM      1  C   UNL A   1      40.067  34.578  30.263  1.00  0.00     0.002 C 
ENDROOT
BRANCH   1   2
ATOM      2  C   UNL A   1      39.133  33.381  30.062  1.00  0.00     0.002 C 
BRANCH   2   3
ATOM      3  C   UNL A   1      37.649  33.666  30.299  1.00  0.00     0.021 C 
BRANCH   3   4
ATOM      4  C   UNL A   1      36.696  32.775  29.511  1.00  0.00     0.116 C 
BRANCH   4   5
ATOM      5  N   UNL A   1      36.077  31.766  30.349  1.00  0.00    -0.352 N 
ATOM      6  O   UNL A   1      35.793  29.704  31.213  1.00  0.00    -0.269 OA
ATOM      7  C   UNL A   1      36.528  30.505  30.643  1.00  0.00     0.251 C 
ATOM      8  H   UNL A   1      35.220  32.020  30.762  1.00  0.00     0.163 HD
BRANCH   7   9
ATOM      9  C   UNL A   1      37.897  30.116  30.249  1.00  0.00     0.039 A 
ATOM     10  C   UNL A   1      38.896  29.941  31.214  1.00  0.00     0.014 A 
ATOM     11  C   UNL A   1      38.177  29.918  28.896  1.00  0.00     0.014 A 
ATOM     12  C   UNL A   1      40.200  29.663  30.818  1.00  0.00     0.010 A 
ATOM     13  C   UNL A   1      39.471  29.571  28.507  1.00  0.00     0.010 A 
ATOM     14  C   UNL A   1      40.494  29.455  29.462  1.00  0.00    -0.014 A 
BRANCH  14  15
ATOM     15  C   UNL A   1      41.855  29.040  29.044  1.00  0.00     0.031 A 
ATOM     16  C   UNL A   1      42.966  30.043  28.942  1.00  0.00     0.074 A 
ATOM     17  C   UNL A   1      42.061  27.756  28.698  1.00  0.00     0.049 A 
ATOM     18  N   UNL A   1      44.180  29.884  28.481  1.00  0.00    -0.248 NA
ATOM     19  C   UNL A   1      42.671  31.407  29.406  1.00  0.00     0.031 C 
ATOM     20  C   UNL A   1      41.048  26.699  28.750  1.00  0.00     0.029 A 
ATOM     21  N   UNL A   1      43.176  27.125  28.213  1.00  0.00    -0.354 N 
ATOM     22  C   UNL A   1      44.787  31.130  28.572  1.00  0.00     0.074 A 
ATOM     23  C   UNL A   1      43.800  32.040  29.117  1.00  0.00     0.031 C 
ATOM     24  C   UNL A   1      41.585  25.553  28.309  1.00  0.00     0.029 A 
ATOM     25  C   UNL A   1      42.958  25.807  27.886  1.00  0.00     0.049 A 
ATOM     26  H   UNL A   1      44.047  27.571  28.107  1.00  0.00     0.167 HD
ATOM     27  C   UNL A   1      46.052  31.478  28.230  1.00  0.00     0.037 A 
ATOM     28  C   UNL A   1      43.757  24.912  27.275  1.00  0.00     0.037 A 
ATOM     29  C   UNL A   1      47.019  30.558  27.689  1.00  0.00     0.049 A 
ATOM     30  C   UNL A   1      45.143  25.322  26.880  1.00  0.00     0.074 A 
ATOM     31  C   UNL A   1      48.339  30.798  27.350  1.00  0.00     0.029 A 
ATOM     32  N   UNL A   1      46.766  29.225  27.393  1.00  0.00    -0.354 N 
ATOM     33  N   UNL A   1      45.720  26.492  27.012  1.00  0.00    -0.248 NA
ATOM     34  C   UNL A   1      45.990  24.297  26.256  1.00  0.00     0.031 C 
ATOM     35  C   UNL A   1      48.869  29.624  26.804  1.00  0.00     0.029 A 
ATOM     36  C   UNL A   1      47.898  28.636  26.852  1.00  0.00     0.049 A 
ATOM     37  H   UNL A   1      45.909  28.765  27.544  1.00  0.00     0.167 HD
ATOM     38  C   UNL A   1      47.007  26.340  26.509  1.00  0.00     0.074 A 
ATOM     39  C   UNL A   1      47.122  24.964  26.070  1.00  0.00     0.031 C 
ATOM     40  C   UNL A   1      48.000  27.260  26.428  1.00  0.00     0.037 A 
BRANCH  27  41
ATOM     41  C   UNL A   1      46.441  32.922  28.395  1.00  0.00     0.058 A 
ATOM     42  C   UNL A   1      46.286  33.857  27.359  1.00  0.00     0.135 A 
ATOM     43  C   UNL A   1      46.982  33.377  29.609  1.00  0.00     0.135 A 
ATOM     44  F   UNL A   1      45.783  33.476  26.173  1.00  0.00    -0.206 F 
ATOM     45  C   UNL A   1      46.700  35.177  27.502  1.00  0.00     0.059 A 
ATOM     46  C   UNL A   1      47.378  34.700  29.784  1.00  0.00     0.059 A 
ATOM     47  F   UNL A   1      47.147  32.529  30.636  1.00  0.00    -0.206 F 
ATOM     48  C   UNL A   1      47.257  35.587  28.715  1.00  0.00     0.060 A 
BRANCH  48  49
ATOM     49  S   UNL A   1      47.839  37.288  28.869  1.00  0.00     0.124 S 
ATOM     50  O   UNL A   1      46.865  37.844  29.804  1.00  0.00    -0.237 OA
ATOM     51  O   UNL A   1      49.189  37.113  29.394  1.00  0.00    -0.237 OA
ATOM     52  O   UNL A   1      47.761  37.799  27.504  1.00  0.00    -0.744 OA
ENDBRANCH  48  49
ENDBRANCH  27  41
BRANCH  28  53
ATOM     53  C   UNL A   1      43.229  23.551  27.004  1.00  0.00     0.058 A 
ATOM     54  C   UNL A   1      42.883  23.157  25.704  1.00  0.00     0.135 A 
ATOM     55  C   UNL A   1      43.163  22.586  28.023  1.00  0.00     0.135 A 
ATOM     56  F   UNL A   1      42.928  24.045  24.700  1.00  0.00    -0.206 F 
ATOM     57  C   UNL A   1      42.502  21.849  25.420  1.00  0.00     0.059 A 
ATOM     58  C   UNL A   1      42.808  21.268  27.759  1.00  0.00     0.059 A 
ATOM     59  F   UNL A   1      43.505  22.911  29.279  1.00  0.00    -0.206 F 
ATOM     60  C   UNL A   1      42.481  20.909  26.452  1.00  0.00     0.060 A 
BRANCH  60  61
ATOM     61  S   UNL A   1      42.092  19.191  26.050  1.00  0.00     0.124 S 
ATOM     62  O   UNL A   1      42.613  18.491  27.219  1.00  0.00    -0.237 OA
ATOM     63  O   UNL A   1      40.638  19.229  25.925  1.00  0.00    -0.237 OA
ATOM     64  O   UNL A   1      42.816  18.966  24.804  1.00  0.00    -0.744 OA
ENDBRANCH  60  61
ENDBRANCH  28  53
BRANCH  40  65
ATOM     65  C   UNL A   1      49.324  26.808  25.878  1.00  0.00     0.058 A 
ATOM     66  C   UNL A   1      49.702  27.072  24.554  1.00  0.00     0.135 A 
ATOM     67  C   UNL A   1      50.264  26.196  26.722  1.00  0.00     0.135 A 
ATOM     68  F   UNL A   1      48.834  27.645  23.704  1.00  0.00    -0.206 F 
ATOM     69  C   UNL A   1      50.971  26.750  24.085  1.00  0.00     0.059 A 
ATOM     70  C   UNL A   1      51.546  25.884  26.281  1.00  0.00     0.059 A 
ATOM     71  F   UNL A   1      49.950  25.926  27.999  1.00  0.00    -0.206 F 
ATOM     72  C   UNL A   1      51.891  26.166  24.961  1.00  0.00     0.060 A 
BRANCH  72  73
ATOM     73  S   UNL A   1      53.563  25.832  24.366  1.00  0.00     0.124 S 
ATOM     74  O   UNL A   1      53.798  24.490  24.884  1.00  0.00    -0.237 OA
ATOM     75  O   UNL A   1      53.405  25.935  22.918  1.00  0.00    -0.237 OA
ATOM     76  O   UNL A   1      54.359  26.891  24.979  1.00  0.00    -0.744 OA
ENDBRANCH  72  73
ENDBRANCH  40  65
ENDBRANCH  14  15
ENDBRANCH   7   9
ENDBRANCH   4   5
ENDBRANCH   3   4
ENDBRANCH   2   3
ENDBRANCH   1   2
BRANCH   1  77
ATOM     77  C   UNL A   1      40.636  35.186  28.977  1.00  0.00     0.021 C 
BRANCH  77  78
ATOM     78  C   UNL A   1      42.112  35.556  29.063  1.00  0.00     0.116 C 
BRANCH  78  79
ATOM     79  N   UNL A   1      42.823  35.078  27.892  1.00  0.00    -0.352 N 
ATOM     80  C   UNL A   1      43.133  35.787  26.765  1.00  0.00     0.251 C 
ATOM     81  H   UNL A   1      43.115  34.138  27.912  1.00  0.00     0.163 HD
ATOM     82  O   UNL A   1      43.510  35.228  25.741  1.00  0.00    -0.269 OA
BRANCH  80  83
ATOM     83  C   UNL A   1      43.070  37.255  26.827  1.00  0.00     0.040 A 
ATOM     84  C   UNL A   1      41.839  37.908  26.883  1.00  0.00     0.014 A 
ATOM     85  C   UNL A   1      44.263  37.974  26.716  1.00  0.00     0.021 A 
ATOM     86  C   UNL A   1      41.806  39.301  26.868  1.00  0.00     0.001 A 
ATOM     87  C   UNL A   1      44.229  39.366  26.651  1.00  0.00    -0.010 A 
ATOM     88  C   UNL A   1      42.994  40.027  26.757  1.00  0.00     0.007 A 
BRANCH  87  89
ATOM     89  C   UNL A   1      45.470  40.125  26.268  1.00  0.00     0.265 C 
BRANCH  89  90
ATOM     90  O   UNL A   1      45.138  40.880  25.096  1.00  0.00    -0.488 OA
BRANCH  90  91
ATOM     91  C   UNL A   1      45.493  42.203  25.188  1.00  0.00     0.127 A 
ATOM     92  C   UNL A   1      46.624  42.501  25.958  1.00  0.00     0.047 A 
ATOM     93  C   UNL A   1      44.665  43.225  24.685  1.00  0.00     0.017 A 
ATOM     94  C   UNL A   1      46.935  43.825  26.261  1.00  0.00     0.004 A 
ATOM     95  C   UNL A   1      44.966  44.543  25.066  1.00  0.00     0.012 A 
ATOM     96  C   UNL A   1      46.095  44.844  25.830  1.00  0.00     0.001 A 
BRANCH  93  97
ATOM     97  C   UNL A   1      43.452  42.960  23.881  1.00  0.00     0.028 C 
ATOM     98  C   UNL A   1      43.315  43.081  22.548  1.00  0.00     0.071 C 
ATOM     99  C   UNL A   1      44.319  43.455  21.509  1.00  0.00     0.197 C 
ATOM    100  C   UNL A   1      41.986  42.957  21.872  1.00  0.00     0.197 C 
ATOM    101  O   UNL A   1      45.526  43.556  21.593  1.00  0.00    -0.288 OA
ATOM    102  C   UNL A   1      43.547  43.724  20.294  1.00  0.00     0.034 A 
ATOM    103  C   UNL A   1      42.208  43.408  20.489  1.00  0.00     0.034 A 
ATOM    104  O   UNL A   1      40.915  42.657  22.361  1.00  0.00    -0.288 OA
ATOM    105  C   UNL A   1      44.005  44.280  19.111  1.00  0.00     0.013 A 
ATOM    106  C   UNL A   1      41.271  43.610  19.489  1.00  0.00     0.013 A 
ATOM    107  C   UNL A   1      43.069  44.513  18.101  1.00  0.00     0.001 A 
ATOM    108  C   UNL A   1      41.715  44.171  18.285  1.00  0.00     0.001 A 
ENDBRANCH  93  97
ENDBRANCH  90  91
ENDBRANCH  89  90
ENDBRANCH  87  89
ENDBRANCH  80  83
ENDBRANCH  78  79
ENDBRANCH  77  78
ENDBRANCH   1  77
TORSDOF 20
ENDMDL
MODEL 2
REMARK VINA RESULT:     -11.5      4.954     11.366
REMARK SMILES O=C(NCCCCCCNC(=O)c1cccc(COc2ccccc2C=C2C(=O)c3ccccc3C2=O)c1)c1ccc(-c2c3nc(c(-c4c(F)cc(S(=O)(=O)[O-])cc4F)c4ccc([nH]4)c(-c4c(F)cc(S(=O)(=O)[O-])cc4F)c4nc(c(-c5c(F)cc(S(=O)(=O)[O-])cc5F)c5ccc2[nH]5)C=C4)C=C3)cc1
REMARK SMILES IDX 7 1 6 2 5 3 4 4 3 5 1 6 2 7 39 9 40 10 104 11 41 12 103 13
REMARK SMILES IDX 42 14 43 15 44 16 97 17 45 18 102 19 96 20 98 21 46 22
REMARK SMILES IDX 101 23 95 24 94 25 47 27 81 28 60 29 80 30 61 31 64 32 79 33
REMARK SMILES IDX 99 34 62 35 63 36 78 38 100 39 65 40 48 41 49 42 58 43 50 44
REMARK SMILES IDX 51 45 57 46 59 47 52 48 53 49 54 50 55 51 56 52 82 53 83 54
REMARK SMILES IDX 92 55 84 56 85 57 91 58 93 59 86 60 87 61 88 62 89 63 90 64
REMARK SMILES IDX 66 65 67 66 76 67 68 68 69 69 75 70 77 71 70 72 71 73 72 74
REMARK SMILES IDX 73 75 74 76 8 77 9 78 10 79 11 80 12 82 13 83 14 84 38 85
REMARK SMILES IDX 15 86 17 87 16 88 18 89 19 90 20 91 21 92 25 93 22 94 24 95
REMARK SMILES IDX 23 96 26 97 27 98 28 99 36 100 29 101 30 102 35 103 37 104
REMARK SMILES IDX 31 105 34 106 32 107 33 108
REMARK H PARENT 3 8 98 26 64 37 10 81
REMARK Flexibility Score: inf
ROOT
ATOM      1  C   UNL A   1      33.677  31.519  27.996  1.00  0.00     0.002 C 
ENDROOT
BRANCH   1   2
ATOM      2  C   UNL A   1      34.750  32.542  27.611  1.00  0.00     0.002 C 
BRANCH   2   3
ATOM      3  C   UNL A   1      36.178  32.172  28.013  1.00  0.00     0.021 C 
BRANCH   3   4
ATOM      4  C   UNL A   1      36.560  32.563  29.436  1.00  0.00     0.116 C 
BRANCH   4   5
ATOM      5  N   UNL A   1      36.070  31.608  30.412  1.00  0.00    -0.352 N 
ATOM      6  O   UNL A   1      36.011  29.644  31.514  1.00  0.00    -0.269 OA
ATOM      7  C   UNL A   1      36.646  30.434  30.824  1.00  0.00     0.251 C 
ATOM      8  H   UNL A   1      35.208  31.832  30.834  1.00  0.00     0.163 HD
BRANCH   7   9
ATOM      9  C   UNL A   1      38.029  30.124  30.410  1.00  0.00     0.039 A 
ATOM     10  C   UNL A   1      39.094  30.281  31.305  1.00  0.00     0.014 A 
ATOM     11  C   UNL A   1      38.256  29.663  29.113  1.00  0.00     0.014 A 
ATOM     12  C   UNL A   1      40.400  30.069  30.871  1.00  0.00     0.010 A 
ATOM     13  C   UNL A   1      39.560  29.386  28.701  1.00  0.00     0.010 A 
ATOM     14  C   UNL A   1      40.641  29.600  29.571  1.00  0.00    -0.014 A 
BRANCH  14  15
ATOM     15  C   UNL A   1      42.018  29.258  29.141  1.00  0.00     0.031 A 
ATOM     16  C   UNL A   1      43.073  30.318  29.028  1.00  0.00     0.074 A 
ATOM     17  C   UNL A   1      42.289  27.986  28.794  1.00  0.00     0.049 A 
ATOM     18  N   UNL A   1      44.290  30.224  28.557  1.00  0.00    -0.248 NA
ATOM     19  C   UNL A   1      42.710  31.665  29.495  1.00  0.00     0.031 C 
ATOM     20  C   UNL A   1      41.335  26.876  28.856  1.00  0.00     0.029 A 
ATOM     21  N   UNL A   1      43.432  27.415  28.299  1.00  0.00    -0.354 N 
ATOM     22  C   UNL A   1      44.830  31.501  28.642  1.00  0.00     0.074 A 
ATOM     23  C   UNL A   1      43.801  32.357  29.195  1.00  0.00     0.031 C 
ATOM     24  C   UNL A   1      41.928  25.761  28.410  1.00  0.00     0.029 A 
ATOM     25  C   UNL A   1      43.282  26.088  27.975  1.00  0.00     0.049 A 
ATOM     26  H   UNL A   1      44.278  27.907  28.185  1.00  0.00     0.167 HD
ATOM     27  C   UNL A   1      46.072  31.915  28.288  1.00  0.00     0.037 A 
ATOM     28  C   UNL A   1      44.122  25.235  27.357  1.00  0.00     0.037 A 
ATOM     29  C   UNL A   1      47.082  31.048  27.738  1.00  0.00     0.049 A 
ATOM     30  C   UNL A   1      45.481  25.718  26.949  1.00  0.00     0.074 A 
ATOM     31  C   UNL A   1      48.384  31.357  27.388  1.00  0.00     0.029 A 
ATOM     32  N   UNL A   1      46.898  29.703  27.445  1.00  0.00    -0.354 N 
ATOM     33  N   UNL A   1      45.996  26.918  27.075  1.00  0.00    -0.248 NA
ATOM     34  C   UNL A   1      46.375  24.740  26.317  1.00  0.00     0.031 C 
ATOM     35  C   UNL A   1      48.971  30.213  26.837  1.00  0.00     0.029 A 
ATOM     36  C   UNL A   1      48.055  29.175  26.894  1.00  0.00     0.049 A 
ATOM     37  H   UNL A   1      46.067  29.198  27.605  1.00  0.00     0.167 HD
ATOM     38  C   UNL A   1      47.284  26.835  26.561  1.00  0.00     0.074 A 
ATOM     39  C   UNL A   1      47.469  25.466  26.121  1.00  0.00     0.031 C 
ATOM     40  C   UNL A   1      48.226  27.805  26.470  1.00  0.00     0.037 A 
BRANCH  27  41
ATOM     41  C   UNL A   1      46.385  33.378  28.448  1.00  0.00     0.058 A 
ATOM     42  C   UNL A   1      46.922  33.898  29.637  1.00  0.00     0.135 A 
ATOM     43  C   UNL A   1      46.139  34.276  27.396  1.00  0.00     0.135 A 
ATOM     44  F   UNL A   1      47.169  33.088  30.679  1.00  0.00    -0.206 F 
ATOM     45  C   UNL A   1      47.157  35.260  29.795  1.00  0.00     0.059 A 
ATOM     46  C   UNL A   1      46.392  35.640  27.522  1.00  0.00     0.059 A 
ATOM     47  F   UNL A   1      45.632  33.835  26.235  1.00  0.00    -0.206 F 
ATOM     48  C   UNL A   1      46.877  36.125  28.736  1.00  0.00     0.060 A 
BRANCH  48  49
ATOM     49  S   UNL A   1      47.134  37.896  28.974  1.00  0.00     0.124 S 
ATOM     50  O   UNL A   1      45.768  38.358  29.203  1.00  0.00    -0.237 OA
ATOM     51  O   UNL A   1      48.016  37.932  30.135  1.00  0.00    -0.237 OA
ATOM     52  O   UNL A   1      47.738  38.324  27.717  1.00  0.00    -0.744 OA
ENDBRANCH  48  49
ENDBRANCH  27  41
BRANCH  28  53
ATOM     53  C   UNL A   1      43.665  23.848  27.091  1.00  0.00     0.058 A 
ATOM     54  C   UNL A   1      43.545  22.915  28.129  1.00  0.00     0.135 A 
ATOM     55  C   UNL A   1      43.236  23.464  25.809  1.00  0.00     0.135 A 
ATOM     56  F   UNL A   1      43.944  23.238  29.369  1.00  0.00    -0.206 F 
ATOM     57  C   UNL A   1      43.005  21.652  27.912  1.00  0.00     0.059 A 
ATOM     58  C   UNL A   1      42.670  22.215  25.572  1.00  0.00     0.059 A 
ATOM     59  F   UNL A   1      43.311  24.330  24.788  1.00  0.00    -0.206 F 
ATOM     60  C   UNL A   1      42.558  21.317  26.631  1.00  0.00     0.060 A 
BRANCH  60  61
ATOM     61  S   UNL A   1      41.757  19.716  26.386  1.00  0.00     0.124 S 
ATOM     62  O   UNL A   1      42.380  19.264  25.147  1.00  0.00    -0.237 OA
ATOM     63  O   UNL A   1      42.144  18.993  27.594  1.00  0.00    -0.237 OA
ATOM     64  O   UNL A   1      40.342  20.058  26.295  1.00  0.00    -0.744 OA
ENDBRANCH  60  61
ENDBRANCH  28  53
BRANCH  40  65
ATOM     65  C   UNL A   1      49.567  27.425  25.908  1.00  0.00     0.058 A 
ATOM     66  C   UNL A   1      50.612  26.979  26.731  1.00  0.00     0.135 A 
ATOM     67  C   UNL A   1      49.769  27.409  24.519  1.00  0.00     0.135 A 
ATOM     68  F   UNL A   1      50.472  26.987  28.066  1.00  0.00    -0.206 F 
ATOM     69  C   UNL A   1      51.812  26.524  26.194  1.00  0.00     0.059 A 
ATOM     70  C   UNL A   1      50.952  26.938  23.959  1.00  0.00     0.059 A 
ATOM     71  F   UNL A   1      48.797  27.823  23.690  1.00  0.00    -0.206 F 
ATOM     72  C   UNL A   1      51.968  26.496  24.805  1.00  0.00     0.060 A 
BRANCH  72  73
ATOM     73  S   UNL A   1      53.496  25.822  24.119  1.00  0.00     0.124 S 
ATOM     74  O   UNL A   1      53.504  24.477  24.683  1.00  0.00    -0.237 OA
ATOM     75  O   UNL A   1      53.255  25.905  22.681  1.00  0.00    -0.237 OA
ATOM     76  O   UNL A   1      54.524  26.724  24.629  1.00  0.00    -0.744 OA
ENDBRANCH  72  73
ENDBRANCH  40  65
ENDBRANCH  14  15
ENDBRANCH   7   9
ENDBRANCH   4   5
ENDBRANCH   3   4
ENDBRANCH   2   3
ENDBRANCH   1   2
BRANCH   1  77
ATOM     77  C   UNL A   1      33.992  30.069  27.611  1.00  0.00     0.021 C 
BRANCH  77  78
ATOM     78  C   UNL A   1      33.118  29.520  26.489  1.00  0.00     0.116 C 
BRANCH  78  79
ATOM     79  N   UNL A   1      32.021  28.744  27.036  1.00  0.00    -0.352 N 
ATOM     80  C   UNL A   1      31.765  27.416  26.835  1.00  0.00     0.251 C 
ATOM     81  H   UNL A   1      31.390  29.229  27.616  1.00  0.00     0.163 HD
ATOM     82  O   UNL A   1      30.684  26.920  27.134  1.00  0.00    -0.269 OA
BRANCH  80  83
ATOM     83  C   UNL A   1      32.848  26.571  26.310  1.00  0.00     0.040 A 
ATOM     84  C   UNL A   1      33.791  27.097  25.428  1.00  0.00     0.014 A 
ATOM     85  C   UNL A   1      32.838  25.210  26.629  1.00  0.00     0.021 A 
ATOM     86  C   UNL A   1      34.763  26.256  24.890  1.00  0.00     0.001 A 
ATOM     87  C   UNL A   1      33.780  24.358  26.053  1.00  0.00    -0.010 A 
ATOM     88  C   UNL A   1      34.761  24.895  25.203  1.00  0.00     0.007 A 
BRANCH  87  89
ATOM     89  C   UNL A   1      33.613  22.868  26.181  1.00  0.00     0.265 C 
BRANCH  89  90
ATOM     90  O   UNL A   1      34.223  22.291  25.019  1.00  0.00    -0.488 OA
BRANCH  90  91
ATOM     91  C   UNL A   1      33.358  21.523  24.281  1.00  0.00     0.127 A 
ATOM     92  C   UNL A   1      33.182  20.195  24.691  1.00  0.00     0.047 A 
ATOM     93  C   UNL A   1      32.812  21.988  23.069  1.00  0.00     0.017 A 
ATOM     94  C   UNL A   1      32.479  19.301  23.888  1.00  0.00     0.004 A 
ATOM     95  C   UNL A   1      32.168  21.045  22.250  1.00  0.00     0.012 A 
ATOM     96  C   UNL A   1      31.988  19.722  22.658  1.00  0.00     0.001 A 
BRANCH  93  97
ATOM     97  C   UNL A   1      32.983  23.375  22.585  1.00  0.00     0.028 C 
ATOM     98  C   UNL A   1      32.219  24.442  22.882  1.00  0.00     0.071 C 
ATOM     99  C   UNL A   1      31.044  24.559  23.796  1.00  0.00     0.197 C 
ATOM    100  C   UNL A   1      32.386  25.757  22.188  1.00  0.00     0.197 C 
ATOM    101  O   UNL A   1      30.618  23.775  24.620  1.00  0.00    -0.288 OA
ATOM    102  C   UNL A   1      30.436  25.855  23.492  1.00  0.00     0.034 A 
ATOM    103  C   UNL A   1      31.222  26.562  22.589  1.00  0.00     0.034 A 
ATOM    104  O   UNL A   1      33.230  26.079  21.376  1.00  0.00    -0.288 OA
ATOM    105  C   UNL A   1      29.220  26.342  23.943  1.00  0.00     0.013 A 
ATOM    106  C   UNL A   1      30.834  27.806  22.123  1.00  0.00     0.013 A 
ATOM    107  C   UNL A   1      28.803  27.585  23.463  1.00  0.00     0.001 A 
ATOM    108  C   UNL A   1      29.608  28.316  22.568  1.00  0.00     0.001 A 
ENDBRANCH  93  97
ENDBRANCH  90  91
ENDBRANCH  89  90
ENDBRANCH  87  89
ENDBRANCH  80  83
ENDBRANCH  78  79
ENDBRANCH  77  78
ENDBRANCH   1  77
TORSDOF 20
ENDMDL
MODEL 3
REMARK VINA RESULT:     -10.7      9.404     15.402
REMARK SMILES O=C(NCCCCCCNC(=O)c1cccc(COc2ccccc2C=C2C(=O)c3ccccc3C2=O)c1)c1ccc(-c2c3nc(c(-c4c(F)cc(S(=O)(=O)[O-])cc4F)c4ccc([nH]4)c(-c4c(F)cc(S(=O)(=O)[O-])cc4F)c4nc(c(-c5c(F)cc(S(=O)(=O)[O-])cc5F)c5ccc2[nH]5)C=C4)C=C3)cc1
REMARK SMILES IDX 7 1 6 2 5 3 4 4 3 5 1 6 2 7 39 9 40 10 104 11 41 12 103 13
REMARK SMILES IDX 42 14 43 15 44 16 97 17 45 18 102 19 96 20 98 21 46 22
REMARK SMILES IDX 101 23 95 24 94 25 47 27 81 28 60 29 80 30 61 31 64 32 79 33
REMARK SMILES IDX 99 34 62 35 63 36 78 38 100 39 65 40 48 41 49 42 58 43 50 44
REMARK SMILES IDX 51 45 57 46 59 47 52 48 53 49 54 50 55 51 56 52 82 53 83 54
REMARK SMILES IDX 92 55 84 56 85 57 91 58 93 59 86 60 87 61 88 62 89 63 90 64
REMARK SMILES IDX 66 65 67 66 76 67 68 68 69 69 75 70 77 71 70 72 71 73 72 74
REMARK SMILES IDX 73 75 74 76 8 77 9 78 10 79 11 80 12 82 13 83 14 84 38 85
REMARK SMILES IDX 15 86 17 87 16 88 18 89 19 90 20 91 21 92 25 93 22 94 24 95
REMARK SMILES IDX 23 96 26 97 27 98 28 99 36 100 29 101 30 102 35 103 37 104
REMARK SMILES IDX 31 105 34 106 32 107 33 108
REMARK H PARENT 3 8 98 26 64 37 10 81
REMARK Flexibility Score: inf
ROOT
ATOM      1  C   UNL A   1      33.295  31.939  28.068  1.00  0.00     0.002 C 
ENDROOT
BRANCH   1   2
ATOM      2  C   UNL A   1      33.645  33.422  27.911  1.00  0.00     0.002 C 
BRANCH   2   3
ATOM      3  C   UNL A   1      34.116  34.119  29.188  1.00  0.00     0.021 C 
BRANCH   3   4
ATOM      4  C   UNL A   1      33.625  35.553  29.348  1.00  0.00     0.116 C 
BRANCH   4   5
ATOM      5  N   UNL A   1      32.721  35.695  30.475  1.00  0.00    -0.352 N 
ATOM      6  O   UNL A   1      31.917  35.252  32.532  1.00  0.00    -0.269 OA
ATOM      7  C   UNL A   1      32.860  35.210  31.749  1.00  0.00     0.251 C 
ATOM      8  H   UNL A   1      31.899  36.208  30.300  1.00  0.00     0.163 HD
BRANCH   7   9
ATOM      9  C   UNL A   1      34.149  34.618  32.160  1.00  0.00     0.039 A 
ATOM     10  C   UNL A   1      35.320  35.385  32.158  1.00  0.00     0.014 A 
ATOM     11  C   UNL A   1      34.179  33.281  32.561  1.00  0.00     0.014 A 
ATOM     12  C   UNL A   1      36.540  34.788  32.462  1.00  0.00     0.010 A 
ATOM     13  C   UNL A   1      35.394  32.703  32.932  1.00  0.00     0.010 A 
ATOM     14  C   UNL A   1      36.583  33.447  32.871  1.00  0.00    -0.014 A 
BRANCH  14  15
ATOM     15  C   UNL A   1      37.861  32.838  33.313  1.00  0.00     0.031 A 
ATOM     16  C   UNL A   1      38.500  31.736  32.521  1.00  0.00     0.074 A 
ATOM     17  C   UNL A   1      38.407  33.251  34.471  1.00  0.00     0.049 A 
ATOM     18  N   UNL A   1      39.546  31.009  32.817  1.00  0.00    -0.248 NA
ATOM     19  C   UNL A   1      37.874  31.397  31.234  1.00  0.00     0.031 C 
ATOM     20  C   UNL A   1      37.865  34.309  35.327  1.00  0.00     0.029 A 
ATOM     21  N   UNL A   1      39.520  32.819  35.144  1.00  0.00    -0.354 N 
ATOM     22  C   UNL A   1      39.690  30.107  31.769  1.00  0.00     0.074 A 
ATOM     23  C   UNL A   1      38.612  30.369  30.838  1.00  0.00     0.031 C 
ATOM     24  C   UNL A   1      38.641  34.440  36.411  1.00  0.00     0.029 A 
ATOM     25  C   UNL A   1      39.698  33.436  36.359  1.00  0.00     0.049 A 
ATOM     26  H   UNL A   1      40.133  32.132  34.791  1.00  0.00     0.167 HD
ATOM     27  C   UNL A   1      40.636  29.150  31.606  1.00  0.00     0.037 A 
ATOM     28  C   UNL A   1      40.585  33.196  37.343  1.00  0.00     0.037 A 
ATOM     29  C   UNL A   1      41.701  28.905  32.543  1.00  0.00     0.049 A 
ATOM     30  C   UNL A   1      41.608  32.116  37.156  1.00  0.00     0.074 A 
ATOM     31  C   UNL A   1      42.736  27.991  32.452  1.00  0.00     0.029 A 
ATOM     32  N   UNL A   1      41.860  29.567  33.754  1.00  0.00    -0.354 N 
ATOM     33  N   UNL A   1      41.760  31.300  36.141  1.00  0.00    -0.248 NA
ATOM     34  C   UNL A   1      42.579  31.921  38.239  1.00  0.00     0.031 C 
ATOM     35  C   UNL A   1      43.490  28.066  33.628  1.00  0.00     0.029 A 
ATOM     36  C   UNL A   1      42.961  29.064  34.429  1.00  0.00     0.049 A 
ATOM     37  H   UNL A   1      41.276  30.288  34.084  1.00  0.00     0.167 HD
ATOM     38  C   UNL A   1      42.860  30.509  36.451  1.00  0.00     0.074 A 
ATOM     39  C   UNL A   1      43.333  30.945  37.749  1.00  0.00     0.031 C 
ATOM     40  C   UNL A   1      43.425  29.517  35.719  1.00  0.00     0.037 A 
BRANCH  27  41
ATOM     41  C   UNL A   1      40.532  28.275  30.386  1.00  0.00     0.058 A 
ATOM     42  C   UNL A   1      39.543  27.287  30.262  1.00  0.00     0.135 A 
ATOM     43  C   UNL A   1      41.440  28.426  29.325  1.00  0.00     0.135 A 
ATOM     44  F   UNL A   1      38.653  27.092  31.249  1.00  0.00    -0.206 F 
ATOM     45  C   UNL A   1      39.488  26.446  29.155  1.00  0.00     0.059 A 
ATOM     46  C   UNL A   1      41.388  27.614  28.195  1.00  0.00     0.059 A 
ATOM     47  F   UNL A   1      42.403  29.358  29.386  1.00  0.00    -0.206 F 
ATOM     48  C   UNL A   1      40.424  26.609  28.131  1.00  0.00     0.060 A 
BRANCH  48  49
ATOM     49  S   UNL A   1      40.375  25.476  26.727  1.00  0.00     0.124 S 
ATOM     50  O   UNL A   1      41.355  24.471  27.133  1.00  0.00    -0.237 OA
ATOM     51  O   UNL A   1      38.984  25.037  26.724  1.00  0.00    -0.237 OA
ATOM     52  O   UNL A   1      40.768  26.315  25.600  1.00  0.00    -0.744 OA
ENDBRANCH  48  49
ENDBRANCH  27  41
BRANCH  28  53
ATOM     53  C   UNL A   1      40.509  34.004  38.587  1.00  0.00     0.058 A 
ATOM     54  C   UNL A   1      41.259  35.178  38.732  1.00  0.00     0.135 A 
ATOM     55  C   UNL A   1      39.603  33.671  39.607  1.00  0.00     0.135 A 
ATOM     56  F   UNL A   1      42.139  35.534  37.783  1.00  0.00    -0.206 F 
ATOM     57  C   UNL A   1      41.105  36.005  39.840  1.00  0.00     0.059 A 
ATOM     58  C   UNL A   1      39.415  34.494  40.713  1.00  0.00     0.059 A 
ATOM     59  F   UNL A   1      38.848  32.568  39.503  1.00  0.00    -0.206 F 
ATOM     60  C   UNL A   1      40.170  35.660  40.819  1.00  0.00     0.060 A 
BRANCH  60  61
ATOM     61  S   UNL A   1      39.902  36.797  42.197  1.00  0.00     0.124 S 
ATOM     62  O   UNL A   1      39.389  37.977  41.508  1.00  0.00    -0.237 OA
ATOM     63  O   UNL A   1      38.937  36.066  43.013  1.00  0.00    -0.237 OA
ATOM     64  O   UNL A   1      41.231  36.934  42.783  1.00  0.00    -0.744 OA
ENDBRANCH  60  61
ENDBRANCH  28  53
BRANCH  40  65
ATOM     65  C   UNL A   1      44.651  28.851  36.279  1.00  0.00     0.058 A 
ATOM     66  C   UNL A   1      45.934  29.377  36.076  1.00  0.00     0.135 A 
ATOM     67  C   UNL A   1      44.522  27.730  37.114  1.00  0.00     0.135 A 
ATOM     68  F   UNL A   1      46.110  30.441  35.276  1.00  0.00    -0.206 F 
ATOM     69  C   UNL A   1      47.051  28.818  36.689  1.00  0.00     0.059 A 
ATOM     70  C   UNL A   1      45.622  27.167  37.754  1.00  0.00     0.059 A 
ATOM     71  F   UNL A   1      43.313  27.191  37.341  1.00  0.00    -0.206 F 
ATOM     72  C   UNL A   1      46.883  27.719  37.536  1.00  0.00     0.060 A 
BRANCH  72  73
ATOM     73  S   UNL A   1      48.327  27.056  38.394  1.00  0.00     0.124 S 
ATOM     74  O   UNL A   1      48.743  28.200  39.198  1.00  0.00    -0.237 OA
ATOM     75  O   UNL A   1      47.762  25.932  39.133  1.00  0.00    -0.237 OA
ATOM     76  O   UNL A   1      49.230  26.692  37.305  1.00  0.00    -0.744 OA
ENDBRANCH  72  73
ENDBRANCH  40  65
ENDBRANCH  14  15
ENDBRANCH   7   9
ENDBRANCH   4   5
ENDBRANCH   3   4
ENDBRANCH   2   3
ENDBRANCH   1   2
BRANCH   1  77
ATOM     77  C   UNL A   1      33.884  31.013  26.998  1.00  0.00     0.021 C 
BRANCH  77  78
ATOM     78  C   UNL A   1      32.839  30.238  26.203  1.00  0.00     0.116 C 
BRANCH  78  79
ATOM     79  N   UNL A   1      32.069  29.380  27.084  1.00  0.00    -0.352 N 
ATOM     80  C   UNL A   1      31.898  28.027  26.980  1.00  0.00     0.251 C 
ATOM     81  H   UNL A   1      31.618  29.821  27.840  1.00  0.00     0.163 HD
ATOM     82  O   UNL A   1      31.033  27.440  27.621  1.00  0.00    -0.269 OA
BRANCH  80  83
ATOM     83  C   UNL A   1      32.828  27.272  26.127  1.00  0.00     0.040 A 
ATOM     84  C   UNL A   1      33.157  27.737  24.855  1.00  0.00     0.014 A 
ATOM     85  C   UNL A   1      33.280  26.029  26.579  1.00  0.00     0.021 A 
ATOM     86  C   UNL A   1      33.982  26.966  24.040  1.00  0.00     0.001 A 
ATOM     87  C   UNL A   1      34.066  25.234  25.746  1.00  0.00    -0.010 A 
ATOM     88  C   UNL A   1      34.439  25.723  24.483  1.00  0.00     0.007 A 
BRANCH  87  89
ATOM     89  C   UNL A   1      34.331  23.800  26.118  1.00  0.00     0.265 C 
BRANCH  89  90
ATOM     90  O   UNL A   1      34.373  23.064  24.889  1.00  0.00    -0.488 OA
BRANCH  90  91
ATOM     91  C   UNL A   1      33.928  21.773  25.018  1.00  0.00     0.127 A 
ATOM     92  C   UNL A   1      34.840  20.755  24.709  1.00  0.00     0.047 A 
ATOM     93  C   UNL A   1      32.574  21.482  25.273  1.00  0.00     0.017 A 
ATOM     94  C   UNL A   1      34.412  19.432  24.626  1.00  0.00     0.004 A 
ATOM     95  C   UNL A   1      32.160  20.149  25.113  1.00  0.00     0.012 A 
ATOM     96  C   UNL A   1      33.068  19.132  24.810  1.00  0.00     0.001 A 
BRANCH  93  97
ATOM     97  C   UNL A   1      31.570  22.521  25.588  1.00  0.00     0.028 C 
ATOM     98  C   UNL A   1      31.151  23.519  24.788  1.00  0.00     0.071 C 
ATOM     99  C   UNL A   1      31.517  23.837  23.376  1.00  0.00     0.197 C 
ATOM    100  C   UNL A   1      30.263  24.616  25.284  1.00  0.00     0.197 C 
ATOM    101  O   UNL A   1      32.129  23.175  22.562  1.00  0.00    -0.288 OA
ATOM    102  C   UNL A   1      31.002  25.184  23.129  1.00  0.00     0.034 A 
ATOM    103  C   UNL A   1      30.252  25.625  24.214  1.00  0.00     0.034 A 
ATOM    104  O   UNL A   1      29.739  24.728  26.375  1.00  0.00    -0.288 OA
ATOM    105  C   UNL A   1      31.245  25.992  22.030  1.00  0.00     0.013 A 
ATOM    106  C   UNL A   1      29.687  26.889  24.228  1.00  0.00     0.013 A 
ATOM    107  C   UNL A   1      30.703  27.279  22.040  1.00  0.00     0.001 A 
ATOM    108  C   UNL A   1      29.922  27.720  23.126  1.00  0.00     0.001 A 
ENDBRANCH  93  97
ENDBRANCH  90  91
ENDBRANCH  89  90
ENDBRANCH  87  89
ENDBRANCH  80  83
ENDBRANCH  78  79
ENDBRANCH  77  78
ENDBRANCH   1  77
TORSDOF 20
ENDMDL
