MODEL 1
REMARK VINA RESULT:     -12.1      0.000      0.000
REMARK SMILES Cc1c(C(=O)Nc2ccc(C(=O)Nc3ccccc3C(=O)NCCCCCCNC(=O)c3ccc(-c4c5nc(c(-c6c(F)cc(S(=O)(=O)[O-])cc6F)c6ccc([nH]6)c(-c6c(F)cc(S(=O)(=O)[O-])cc6F)c6nc(c(-c7c(F)cc(S(=O)(=O)[O-])cc7F)c7ccc4[nH]7)C=C6)C=C5)cc3)cc2)cccc1[N+](=O)[O-]
REMARK SMILES IDX 24 1 23 2 22 3 20 4 21 5 19 7 14 8 15 9 16 10 18 11 17 12
REMARK SMILES IDX 13 13 11 14 12 15 10 17 7 18 8 19 99 20 9 21 98 22 6 23 4 24
REMARK SMILES IDX 5 25 3 27 1 28 2 29 103 30 100 31 102 32 101 33 104 34
REMARK SMILES IDX 105 35 106 36 25 37 26 38 27 39 28 40 29 41 30 42 31 44
REMARK SMILES IDX 32 45 33 46 97 47 34 48 96 49 35 50 36 51 37 52 90 53 38 54
REMARK SMILES IDX 95 55 89 56 91 57 39 58 94 59 88 60 87 61 40 63 74 64 53 65
REMARK SMILES IDX 73 66 54 67 57 68 72 69 92 70 55 71 56 72 71 74 93 75 58 76
REMARK SMILES IDX 41 77 42 78 51 79 43 80 44 81 50 82 52 83 45 84 46 85 47 86
REMARK SMILES IDX 48 87 49 88 75 89 76 90 85 91 77 92 78 93 84 94 86 95 79 96
REMARK SMILES IDX 80 97 81 98 82 99 83 100 59 101 60 102 69 103 61 104 62 105
REMARK SMILES IDX 68 106 70 107 63 108 64 109 65 110 66 111 67 112
REMARK H PARENT 22 6 13 16 6 26 29 43 91 62 57 73
REMARK Flexibility Score: inf
ROOT
ATOM      1  C   UNL A   1      35.867  23.599  25.759  1.00  0.00     0.021 C 
ENDROOT
BRANCH   1   2
ATOM      2  C   UNL A   1      35.036  24.709  25.111  1.00  0.00     0.116 C 
BRANCH   2   3
ATOM      3  N   UNL A   1      33.709  24.329  24.660  1.00  0.00    -0.352 N 
ATOM      4  C   UNL A   1      32.792  25.001  23.879  1.00  0.00     0.253 C 
ATOM      5  O   UNL A   1      31.783  24.405  23.508  1.00  0.00    -0.269 OA
ATOM      6  H   UNL A   1      33.413  23.441  24.964  1.00  0.00     0.163 HD
BRANCH   4   7
ATOM      7  C   UNL A   1      32.971  26.431  23.497  1.00  0.00     0.063 A 
ATOM      8  C   UNL A   1      32.225  27.463  24.114  1.00  0.00     0.054 A 
ATOM      9  C   UNL A   1      32.376  28.788  23.667  1.00  0.00     0.027 A 
ATOM     10  C   UNL A   1      33.311  29.108  22.684  1.00  0.00     0.002 A 
ATOM     11  C   UNL A   1      33.840  26.764  22.444  1.00  0.00     0.016 A 
ATOM     12  C   UNL A   1      34.041  28.096  22.070  1.00  0.00     0.001 A 
BRANCH   8  13
ATOM     13  N   UNL A   1      31.372  27.323  25.229  1.00  0.00    -0.321 N 
ATOM     14  C   UNL A   1      31.535  27.660  26.557  1.00  0.00     0.255 C 
ATOM     15  O   UNL A   1      30.704  27.255  27.373  1.00  0.00    -0.269 OA
ATOM     16  H   UNL A   1      30.502  26.910  25.021  1.00  0.00     0.170 HD
BRANCH  14  17
ATOM     17  C   UNL A   1      32.550  28.660  27.006  1.00  0.00     0.040 A 
ATOM     18  C   UNL A   1      34.500  30.641  27.457  1.00  0.00     0.041 A 
ATOM     19  C   UNL A   1      34.833  29.297  27.512  1.00  0.00     0.027 A 
ATOM     20  C   UNL A   1      33.152  30.995  27.351  1.00  0.00     0.027 A 
ATOM     21  C   UNL A   1      33.893  28.332  27.183  1.00  0.00     0.016 A 
ATOM     22  C   UNL A   1      32.179  30.006  27.129  1.00  0.00     0.016 A 
BRANCH  18  23
ATOM     23  N   UNL A   1      35.475  31.649  27.383  1.00  0.00    -0.322 N 
ATOM     24  C   UNL A   1      35.847  32.623  28.296  1.00  0.00     0.256 C 
ATOM     25  O   UNL A   1      36.689  33.459  27.973  1.00  0.00    -0.269 OA
ATOM     26  H   UNL A   1      35.980  31.666  26.539  1.00  0.00     0.170 HD
BRANCH  24  27
ATOM     27  C   UNL A   1      35.276  32.706  29.675  1.00  0.00     0.049 A 
ATOM     28  C   UNL A   1      33.600  34.538  29.111  1.00  0.00     0.053 C 
ATOM     29  C   UNL A   1      34.352  33.691  30.103  1.00  0.00     0.039 A 
ATOM     30  C   UNL A   1      34.168  33.832  31.498  1.00  0.00     0.273 A 
ATOM     31  C   UNL A   1      35.752  31.744  30.583  1.00  0.00     0.014 A 
ATOM     32  C   UNL A   1      34.672  32.884  32.405  1.00  0.00     0.086 A 
ATOM     33  C   UNL A   1      35.418  31.809  31.935  1.00  0.00     0.008 A 
BRANCH  30  34
ATOM     34  N   UNL A   1      33.552  35.037  32.073  1.00  0.00     0.063 N 
ATOM     35  O   UNL A   1      34.237  36.068  32.116  1.00  0.00    -0.258 OA
ATOM     36  O   UNL A   1      32.362  34.973  32.411  1.00  0.00    -0.258 OA
ENDBRANCH  30  34
ENDBRANCH  24  27
ENDBRANCH  18  23
ENDBRANCH  14  17
ENDBRANCH   8  13
ENDBRANCH   4   7
ENDBRANCH   2   3
ENDBRANCH   1   2
BRANCH   1  37
ATOM     37  C   UNL A   1      37.258  23.290  25.202  1.00  0.00     0.002 C 
BRANCH  37  38
ATOM     38  C   UNL A   1      38.411  23.054  26.187  1.00  0.00     0.002 C 
BRANCH  38  39
ATOM     39  C   UNL A   1      39.330  21.859  25.938  1.00  0.00     0.021 C 
BRANCH  39  40
ATOM     40  C   UNL A   1      40.057  21.330  27.160  1.00  0.00     0.116 C 
BRANCH  40  41
ATOM     41  N   UNL A   1      41.503  21.455  27.149  1.00  0.00    -0.352 N 
ATOM     42  C   UNL A   1      42.053  22.450  26.340  1.00  0.00     0.251 C 
ATOM     43  H   UNL A   1      42.072  20.863  27.692  1.00  0.00     0.163 HD
ATOM     44  O   UNL A   1      42.379  22.310  25.174  1.00  0.00    -0.269 OA
BRANCH  42  45
ATOM     45  C   UNL A   1      41.898  23.802  26.921  1.00  0.00     0.039 A 
ATOM     46  C   UNL A   1      41.715  24.935  26.130  1.00  0.00     0.014 A 
ATOM     47  C   UNL A   1      42.171  23.906  28.287  1.00  0.00     0.014 A 
ATOM     48  C   UNL A   1      41.936  26.193  26.696  1.00  0.00     0.010 A 
ATOM     49  C   UNL A   1      42.488  25.133  28.814  1.00  0.00     0.010 A 
ATOM     50  C   UNL A   1      42.392  26.274  28.014  1.00  0.00    -0.014 A 
BRANCH  50  51
ATOM     51  C   UNL A   1      42.826  27.493  28.677  1.00  0.00     0.031 A 
ATOM     52  C   UNL A   1      41.819  28.476  29.128  1.00  0.00     0.074 A 
ATOM     53  C   UNL A   1      44.116  27.604  29.054  1.00  0.00     0.049 A 
ATOM     54  N   UNL A   1      42.089  29.690  29.458  1.00  0.00    -0.248 NA
ATOM     55  C   UNL A   1      40.398  28.161  29.222  1.00  0.00     0.031 C 
ATOM     56  C   UNL A   1      44.680  28.522  30.039  1.00  0.00     0.029 A 
ATOM     57  N   UNL A   1      45.229  27.009  28.457  1.00  0.00    -0.354 N 
ATOM     58  C   UNL A   1      40.969  30.229  30.053  1.00  0.00     0.074 A 
ATOM     59  C   UNL A   1      39.926  29.254  29.830  1.00  0.00     0.031 C 
ATOM     60  C   UNL A   1      45.997  28.645  29.812  1.00  0.00     0.029 A 
ATOM     61  C   UNL A   1      46.287  27.931  28.581  1.00  0.00     0.049 A 
ATOM     62  H   UNL A   1      45.267  26.121  28.034  1.00  0.00     0.167 HD
ATOM     63  C   UNL A   1      41.094  31.379  30.778  1.00  0.00     0.037 A 
ATOM     64  C   UNL A   1      46.839  28.501  27.467  1.00  0.00     0.037 A 
ATOM     65  C   UNL A   1      42.467  31.879  30.710  1.00  0.00     0.049 A 
ATOM     66  C   UNL A   1      46.680  30.004  27.412  1.00  0.00     0.074 A 
ATOM     67  C   UNL A   1      43.552  31.756  31.564  1.00  0.00     0.029 A 
ATOM     68  N   UNL A   1      42.971  32.337  29.498  1.00  0.00    -0.354 N 
ATOM     69  N   UNL A   1      45.800  30.679  28.102  1.00  0.00    -0.248 NA
ATOM     70  C   UNL A   1      47.518  30.870  26.590  1.00  0.00     0.031 C 
ATOM     71  C   UNL A   1      44.722  32.102  30.842  1.00  0.00     0.029 A 
ATOM     72  C   UNL A   1      44.347  32.454  29.557  1.00  0.00     0.049 A 
ATOM     73  H   UNL A   1      42.423  32.549  28.708  1.00  0.00     0.167 HD
ATOM     74  C   UNL A   1      45.925  32.022  27.836  1.00  0.00     0.074 A 
ATOM     75  C   UNL A   1      47.035  32.086  26.902  1.00  0.00     0.031 C 
ATOM     76  C   UNL A   1      45.103  32.953  28.414  1.00  0.00     0.037 A 
BRANCH  63  77
ATOM     77  C   UNL A   1      40.063  31.896  31.766  1.00  0.00     0.058 A 
ATOM     78  C   UNL A   1      39.341  33.082  31.501  1.00  0.00     0.135 A 
ATOM     79  C   UNL A   1      39.770  31.302  33.010  1.00  0.00     0.135 A 
ATOM     80  F   UNL A   1      39.433  33.714  30.324  1.00  0.00    -0.206 F 
ATOM     81  C   UNL A   1      38.494  33.687  32.433  1.00  0.00     0.059 A 
ATOM     82  C   UNL A   1      38.967  31.914  33.980  1.00  0.00     0.059 A 
ATOM     83  F   UNL A   1      40.205  30.073  33.317  1.00  0.00    -0.206 F 
ATOM     84  C   UNL A   1      38.342  33.117  33.688  1.00  0.00     0.060 A 
BRANCH  84  85
ATOM     85  S   UNL A   1      37.315  33.958  34.907  1.00  0.00     0.124 S 
ATOM     86  O   UNL A   1      38.305  34.431  35.869  1.00  0.00    -0.237 OA
ATOM     87  O   UNL A   1      36.667  34.989  34.103  1.00  0.00    -0.237 OA
ATOM     88  O   UNL A   1      36.434  32.902  35.397  1.00  0.00    -0.744 OA
ENDBRANCH  84  85
ENDBRANCH  63  77
BRANCH  64  89
ATOM     89  C   UNL A   1      46.867  27.568  26.303  1.00  0.00     0.058 A 
ATOM     90  C   UNL A   1      47.893  26.599  26.282  1.00  0.00     0.135 A 
ATOM     91  C   UNL A   1      45.709  27.294  25.561  1.00  0.00     0.135 A 
ATOM     92  F   UNL A   1      49.036  26.820  26.953  1.00  0.00    -0.206 F 
ATOM     93  C   UNL A   1      47.699  25.338  25.725  1.00  0.00     0.059 A 
ATOM     94  C   UNL A   1      45.503  26.039  24.980  1.00  0.00     0.059 A 
ATOM     95  F   UNL A   1      44.702  28.179  25.531  1.00  0.00    -0.206 F 
ATOM     96  C   UNL A   1      46.466  25.043  25.151  1.00  0.00     0.060 A 
BRANCH  96  97
ATOM     97  S   UNL A   1      46.082  23.308  24.801  1.00  0.00     0.124 S 
ATOM     98  O   UNL A   1      47.157  22.933  23.890  1.00  0.00    -0.237 OA
ATOM     99  O   UNL A   1      46.142  22.705  26.137  1.00  0.00    -0.237 OA
ATOM    100  O   UNL A   1      44.749  23.369  24.213  1.00  0.00    -0.744 OA
ENDBRANCH  96  97
ENDBRANCH  64  89
BRANCH  76 101
ATOM    101  C   UNL A   1      44.963  34.428  28.060  1.00  0.00     0.058 A 
ATOM    102  C   UNL A   1      44.294  34.927  26.929  1.00  0.00     0.135 A 
ATOM    103  C   UNL A   1      45.412  35.428  28.969  1.00  0.00     0.135 A 
ATOM    104  F   UNL A   1      43.715  34.115  26.037  1.00  0.00    -0.206 F 
ATOM    105  C   UNL A   1      44.134  36.296  26.688  1.00  0.00     0.059 A 
ATOM    106  C   UNL A   1      45.204  36.793  28.780  1.00  0.00     0.059 A 
ATOM    107  F   UNL A   1      46.059  35.117  30.101  1.00  0.00    -0.206 F 
ATOM    108  C   UNL A   1      44.585  37.223  27.621  1.00  0.00     0.060 A 
BRANCH 108 109
ATOM    109  S   UNL A   1      44.297  38.979  27.351  1.00  0.00     0.124 S 
ATOM    110  O   UNL A   1      44.640  39.536  28.655  1.00  0.00    -0.237 OA
ATOM    111  O   UNL A   1      45.225  39.292  26.269  1.00  0.00    -0.237 OA
ATOM    112  O   UNL A   1      42.884  39.038  26.989  1.00  0.00    -0.744 OA
ENDBRANCH 108 109
ENDBRANCH  76 101
ENDBRANCH  50  51
ENDBRANCH  42  45
ENDBRANCH  40  41
ENDBRANCH  39  40
ENDBRANCH  38  39
ENDBRANCH  37  38
ENDBRANCH   1  37
TORSDOF 21
ENDMDL
MODEL 2
REMARK VINA RESULT:     -11.6      3.877     13.277
REMARK SMILES Cc1c(C(=O)Nc2ccc(C(=O)Nc3ccccc3C(=O)NCCCCCCNC(=O)c3ccc(-c4c5nc(c(-c6c(F)cc(S(=O)(=O)[O-])cc6F)c6ccc([nH]6)c(-c6c(F)cc(S(=O)(=O)[O-])cc6F)c6nc(c(-c7c(F)cc(S(=O)(=O)[O-])cc7F)c7ccc4[nH]7)C=C6)C=C5)cc3)cc2)cccc1[N+](=O)[O-]
REMARK SMILES IDX 24 1 23 2 22 3 20 4 21 5 19 7 14 8 15 9 16 10 18 11 17 12
REMARK SMILES IDX 13 13 11 14 12 15 10 17 7 18 8 19 99 20 9 21 98 22 6 23 4 24
REMARK SMILES IDX 5 25 3 27 1 28 2 29 103 30 100 31 102 32 101 33 104 34
REMARK SMILES IDX 105 35 106 36 25 37 26 38 27 39 28 40 29 41 30 42 31 44
REMARK SMILES IDX 32 45 33 46 97 47 34 48 96 49 35 50 36 51 37 52 90 53 38 54
REMARK SMILES IDX 95 55 89 56 91 57 39 58 94 59 88 60 87 61 40 63 74 64 53 65
REMARK SMILES IDX 73 66 54 67 57 68 72 69 92 70 55 71 56 72 71 74 93 75 58 76
REMARK SMILES IDX 41 77 42 78 51 79 43 80 44 81 50 82 52 83 45 84 46 85 47 86
REMARK SMILES IDX 48 87 49 88 75 89 76 90 85 91 77 92 78 93 84 94 86 95 79 96
REMARK SMILES IDX 80 97 81 98 82 99 83 100 59 101 60 102 69 103 61 104 62 105
REMARK SMILES IDX 68 106 70 107 63 108 64 109 65 110 66 111 67 112
REMARK H PARENT 22 6 13 16 6 26 29 43 91 62 57 73
REMARK Flexibility Score: inf
ROOT
ATOM      1  C   UNL A   1      40.283  34.503  30.219  1.00  0.00     0.021 C 
ENDROOT
BRANCH   1   2
ATOM      2  C   UNL A   1      41.647  33.817  30.120  1.00  0.00     0.116 C 
BRANCH   2   3
ATOM      3  N   UNL A   1      42.466  34.189  28.980  1.00  0.00    -0.352 N 
ATOM      4  C   UNL A   1      43.801  33.967  28.714  1.00  0.00     0.253 C 
ATOM      5  O   UNL A   1      44.237  34.254  27.601  1.00  0.00    -0.269 OA
ATOM      6  H   UNL A   1      41.986  34.684  28.277  1.00  0.00     0.163 HD
BRANCH   4   7
ATOM      7  C   UNL A   1      44.735  33.420  29.740  1.00  0.00     0.063 A 
ATOM      8  C   UNL A   1      46.015  32.927  29.390  1.00  0.00     0.054 A 
ATOM      9  C   UNL A   1      46.829  32.352  30.382  1.00  0.00     0.027 A 
ATOM     10  C   UNL A   1      46.427  32.339  31.717  1.00  0.00     0.002 A 
ATOM     11  C   UNL A   1      44.313  33.312  31.076  1.00  0.00     0.016 A 
ATOM     12  C   UNL A   1      45.168  32.817  32.064  1.00  0.00     0.001 A 
BRANCH   8  13
ATOM     13  N   UNL A   1      46.628  33.023  28.123  1.00  0.00    -0.321 N 
ATOM     14  C   UNL A   1      47.379  32.121  27.397  1.00  0.00     0.255 C 
ATOM     15  O   UNL A   1      47.966  32.522  26.389  1.00  0.00    -0.269 OA
ATOM     16  H   UNL A   1      46.496  33.891  27.678  1.00  0.00     0.170 HD
BRANCH  14  17
ATOM     17  C   UNL A   1      47.338  30.652  27.664  1.00  0.00     0.040 A 
ATOM     18  C   UNL A   1      47.438  27.841  27.800  1.00  0.00     0.041 A 
ATOM     19  C   UNL A   1      46.246  28.493  27.530  1.00  0.00     0.027 A 
ATOM     20  C   UNL A   1      48.548  28.602  28.178  1.00  0.00     0.027 A 
ATOM     21  C   UNL A   1      46.227  29.869  27.357  1.00  0.00     0.016 A 
ATOM     22  C   UNL A   1      48.497  30.004  28.113  1.00  0.00     0.016 A 
BRANCH  18  23
ATOM     23  N   UNL A   1      47.599  26.462  27.591  1.00  0.00    -0.322 N 
ATOM     24  C   UNL A   1      48.169  25.762  26.539  1.00  0.00     0.256 C 
ATOM     25  O   UNL A   1      48.125  24.534  26.541  1.00  0.00    -0.269 OA
ATOM     26  H   UNL A   1      47.247  25.896  28.315  1.00  0.00     0.170 HD
BRANCH  24  27
ATOM     27  C   UNL A   1      48.851  26.433  25.391  1.00  0.00     0.049 A 
ATOM     28  C   UNL A   1      46.704  27.300  24.333  1.00  0.00     0.053 C 
ATOM     29  C   UNL A   1      48.181  27.010  24.284  1.00  0.00     0.039 A 
ATOM     30  C   UNL A   1      48.963  27.302  23.143  1.00  0.00     0.273 A 
ATOM     31  C   UNL A   1      50.257  26.429  25.439  1.00  0.00     0.014 A 
ATOM     32  C   UNL A   1      50.368  27.267  23.187  1.00  0.00     0.086 A 
ATOM     33  C   UNL A   1      51.011  26.883  24.358  1.00  0.00     0.008 A 
BRANCH  30  34
ATOM     34  N   UNL A   1      48.347  27.534  21.828  1.00  0.00     0.063 N 
ATOM     35  O   UNL A   1      47.816  28.634  21.628  1.00  0.00    -0.258 OA
ATOM     36  O   UNL A   1      48.461  26.645  20.972  1.00  0.00    -0.258 OA
ENDBRANCH  30  34
ENDBRANCH  24  27
ENDBRANCH  18  23
ENDBRANCH  14  17
ENDBRANCH   8  13
ENDBRANCH   4   7
ENDBRANCH   2   3
ENDBRANCH   1   2
BRANCH   1  37
ATOM     37  C   UNL A   1      39.017  33.644  30.222  1.00  0.00     0.002 C 
BRANCH  37  38
ATOM     38  C   UNL A   1      38.069  33.726  29.019  1.00  0.00     0.002 C 
BRANCH  38  39
ATOM     39  C   UNL A   1      36.572  33.854  29.297  1.00  0.00     0.021 C 
BRANCH  39  40
ATOM     40  C   UNL A   1      36.007  32.866  30.300  1.00  0.00     0.116 C 
BRANCH  40  41
ATOM     41  N   UNL A   1      35.033  31.919  29.789  1.00  0.00    -0.352 N 
ATOM     42  C   UNL A   1      35.321  31.298  28.573  1.00  0.00     0.251 C 
ATOM     43  H   UNL A   1      34.203  31.722  30.281  1.00  0.00     0.163 HD
ATOM     44  O   UNL A   1      35.007  31.722  27.474  1.00  0.00    -0.269 OA
BRANCH  42  45
ATOM     45  C   UNL A   1      36.344  30.238  28.707  1.00  0.00     0.039 A 
ATOM     46  C   UNL A   1      36.455  29.450  29.851  1.00  0.00     0.014 A 
ATOM     47  C   UNL A   1      37.330  30.223  27.717  1.00  0.00     0.014 A 
ATOM     48  C   UNL A   1      37.636  28.735  30.064  1.00  0.00     0.010 A 
ATOM     49  C   UNL A   1      38.527  29.604  27.975  1.00  0.00     0.010 A 
ATOM     50  C   UNL A   1      38.689  28.879  29.158  1.00  0.00    -0.014 A 
BRANCH  50  51
ATOM     51  C   UNL A   1      40.027  28.337  29.336  1.00  0.00     0.031 A 
ATOM     52  C   UNL A   1      40.313  26.949  28.920  1.00  0.00     0.074 A 
ATOM     53  C   UNL A   1      41.027  29.175  29.679  1.00  0.00     0.049 A 
ATOM     54  N   UNL A   1      41.354  26.283  29.282  1.00  0.00    -0.248 NA
ATOM     55  C   UNL A   1      39.416  26.182  28.063  1.00  0.00     0.031 C 
ATOM     56  C   UNL A   1      42.462  28.952  29.540  1.00  0.00     0.029 A 
ATOM     57  N   UNL A   1      40.929  30.357  30.417  1.00  0.00    -0.354 N 
ATOM     58  C   UNL A   1      41.414  25.138  28.519  1.00  0.00     0.074 A 
ATOM     59  C   UNL A   1      40.153  25.095  27.816  1.00  0.00     0.031 C 
ATOM     60  C   UNL A   1      43.112  29.778  30.375  1.00  0.00     0.029 A 
ATOM     61  C   UNL A   1      42.107  30.444  31.185  1.00  0.00     0.049 A 
ATOM     62  H   UNL A   1      40.185  31.001  30.403  1.00  0.00     0.167 HD
ATOM     63  C   UNL A   1      42.582  24.432  28.478  1.00  0.00     0.037 A 
ATOM     64  C   UNL A   1      42.047  30.381  32.550  1.00  0.00     0.037 A 
ATOM     65  C   UNL A   1      43.574  25.034  29.369  1.00  0.00     0.049 A 
ATOM     66  C   UNL A   1      42.780  29.195  33.136  1.00  0.00     0.074 A 
ATOM     67  C   UNL A   1      44.623  25.913  29.146  1.00  0.00     0.029 A 
ATOM     68  N   UNL A   1      43.363  25.014  30.743  1.00  0.00    -0.354 N 
ATOM     69  N   UNL A   1      43.108  28.124  32.465  1.00  0.00    -0.248 NA
ATOM     70  C   UNL A   1      43.223  29.133  34.524  1.00  0.00     0.031 C 
ATOM     71  C   UNL A   1      45.014  26.458  30.395  1.00  0.00     0.029 A 
ATOM     72  C   UNL A   1      44.218  25.896  31.378  1.00  0.00     0.049 A 
ATOM     73  H   UNL A   1      42.699  24.450  31.200  1.00  0.00     0.167 HD
ATOM     74  C   UNL A   1      43.775  27.244  33.283  1.00  0.00     0.074 A 
ATOM     75  C   UNL A   1      43.842  27.940  34.555  1.00  0.00     0.031 C 
ATOM     76  C   UNL A   1      44.210  26.026  32.831  1.00  0.00     0.037 A 
BRANCH  63  77
ATOM     77  C   UNL A   1      42.921  23.379  27.438  1.00  0.00     0.058 A 
ATOM     78  C   UNL A   1      42.356  22.086  27.510  1.00  0.00     0.135 A 
ATOM     79  C   UNL A   1      43.826  23.560  26.373  1.00  0.00     0.135 A 
ATOM     80  F   UNL A   1      41.406  21.781  28.404  1.00  0.00    -0.206 F 
ATOM     81  C   UNL A   1      42.743  21.034  26.675  1.00  0.00     0.059 A 
ATOM     82  C   UNL A   1      44.268  22.511  25.557  1.00  0.00     0.059 A 
ATOM     83  F   UNL A   1      44.281  24.776  26.042  1.00  0.00    -0.206 F 
ATOM     84  C   UNL A   1      43.730  21.245  25.724  1.00  0.00     0.060 A 
BRANCH  84  85
ATOM     85  S   UNL A   1      44.277  19.854  24.717  1.00  0.00     0.124 S 
ATOM     86  O   UNL A   1      44.584  20.500  23.444  1.00  0.00    -0.237 OA
ATOM     87  O   UNL A   1      45.424  19.361  25.472  1.00  0.00    -0.237 OA
ATOM     88  O   UNL A   1      43.116  18.970  24.696  1.00  0.00    -0.744 OA
ENDBRANCH  84  85
ENDBRANCH  63  77
BRANCH  64  89
ATOM     89  C   UNL A   1      40.815  31.023  33.096  1.00  0.00     0.058 A 
ATOM     90  C   UNL A   1      39.746  30.168  33.442  1.00  0.00     0.135 A 
ATOM     91  C   UNL A   1      40.864  32.277  33.721  1.00  0.00     0.135 A 
ATOM     92  F   UNL A   1      39.636  28.965  32.856  1.00  0.00    -0.206 F 
ATOM     93  C   UNL A   1      38.890  30.458  34.500  1.00  0.00     0.059 A 
ATOM     94  C   UNL A   1      40.000  32.594  34.774  1.00  0.00     0.059 A 
ATOM     95  F   UNL A   1      41.847  33.140  33.428  1.00  0.00    -0.206 F 
ATOM     96  C   UNL A   1      39.082  31.638  35.213  1.00  0.00     0.060 A 
BRANCH  96  97
ATOM     97  S   UNL A   1      38.246  31.814  36.810  1.00  0.00     0.124 S 
ATOM     98  O   UNL A   1      37.238  32.826  36.519  1.00  0.00    -0.237 OA
ATOM     99  O   UNL A   1      37.738  30.459  37.041  1.00  0.00    -0.237 OA
ATOM    100  O   UNL A   1      39.317  32.231  37.708  1.00  0.00    -0.744 OA
ENDBRANCH  96  97
ENDBRANCH  64  89
BRANCH  76 101
ATOM    101  C   UNL A   1      44.754  24.862  33.650  1.00  0.00     0.058 A 
ATOM    102  C   UNL A   1      43.970  23.945  34.370  1.00  0.00     0.135 A 
ATOM    103  C   UNL A   1      46.144  24.553  33.619  1.00  0.00     0.135 A 
ATOM    104  F   UNL A   1      42.634  24.033  34.402  1.00  0.00    -0.206 F 
ATOM    105  C   UNL A   1      44.517  22.851  35.050  1.00  0.00     0.059 A 
ATOM    106  C   UNL A   1      46.700  23.432  34.233  1.00  0.00     0.059 A 
ATOM    107  F   UNL A   1      47.027  25.323  32.966  1.00  0.00    -0.206 F 
ATOM    108  C   UNL A   1      45.881  22.597  34.971  1.00  0.00     0.060 A 
BRANCH 108 109
ATOM    109  S   UNL A   1      46.568  21.138  35.772  1.00  0.00     0.124 S 
ATOM    110  O   UNL A   1      46.263  20.098  34.795  1.00  0.00    -0.237 OA
ATOM    111  O   UNL A   1      47.980  21.482  35.906  1.00  0.00    -0.237 OA
ATOM    112  O   UNL A   1      45.829  21.063  37.028  1.00  0.00    -0.744 OA
ENDBRANCH 108 109
ENDBRANCH  76 101
ENDBRANCH  50  51
ENDBRANCH  42  45
ENDBRANCH  40  41
ENDBRANCH  39  40
ENDBRANCH  38  39
ENDBRANCH  37  38
ENDBRANCH   1  37
TORSDOF 21
ENDMDL
MODEL 3
REMARK VINA RESULT:     -11.5      5.222     10.124
REMARK SMILES Cc1c(C(=O)Nc2ccc(C(=O)Nc3ccccc3C(=O)NCCCCCCNC(=O)c3ccc(-c4c5nc(c(-c6c(F)cc(S(=O)(=O)[O-])cc6F)c6ccc([nH]6)c(-c6c(F)cc(S(=O)(=O)[O-])cc6F)c6nc(c(-c7c(F)cc(S(=O)(=O)[O-])cc7F)c7ccc4[nH]7)C=C6)C=C5)cc3)cc2)cccc1[N+](=O)[O-]
REMARK SMILES IDX 24 1 23 2 22 3 20 4 21 5 19 7 14 8 15 9 16 10 18 11 17 12
REMARK SMILES IDX 13 13 11 14 12 15 10 17 7 18 8 19 99 20 9 21 98 22 6 23 4 24
REMARK SMILES IDX 5 25 3 27 1 28 2 29 103 30 100 31 102 32 101 33 104 34
REMARK SMILES IDX 105 35 106 36 25 37 26 38 27 39 28 40 29 41 30 42 31 44
REMARK SMILES IDX 32 45 33 46 97 47 34 48 96 49 35 50 36 51 37 52 90 53 38 54
REMARK SMILES IDX 95 55 89 56 91 57 39 58 94 59 88 60 87 61 40 63 74 64 53 65
REMARK SMILES IDX 73 66 54 67 57 68 72 69 92 70 55 71 56 72 71 74 93 75 58 76
REMARK SMILES IDX 41 77 42 78 51 79 43 80 44 81 50 82 52 83 45 84 46 85 47 86
REMARK SMILES IDX 48 87 49 88 75 89 76 90 85 91 77 92 78 93 84 94 86 95 79 96
REMARK SMILES IDX 80 97 81 98 82 99 83 100 59 101 60 102 69 103 61 104 62 105
REMARK SMILES IDX 68 106 70 107 63 108 64 109 65 110 66 111 67 112
REMARK H PARENT 22 6 13 16 6 26 29 43 91 62 57 73
REMARK Flexibility Score: inf
ROOT
ATOM      1  C   UNL A   1      44.875  25.196  31.104  1.00  0.00     0.021 C 
ENDROOT
BRANCH   1   2
ATOM      2  C   UNL A   1      44.787  25.726  32.537  1.00  0.00     0.116 C 
BRANCH   2   3
ATOM      3  N   UNL A   1      43.589  26.479  32.865  1.00  0.00    -0.352 N 
ATOM      4  C   UNL A   1      43.341  27.391  33.870  1.00  0.00     0.253 C 
ATOM      5  O   UNL A   1      42.281  28.014  33.854  1.00  0.00    -0.269 OA
ATOM      6  H   UNL A   1      42.825  26.310  32.270  1.00  0.00     0.163 HD
BRANCH   4   7
ATOM      7  C   UNL A   1      44.302  27.623  34.986  1.00  0.00     0.063 A 
ATOM      8  C   UNL A   1      43.945  27.380  36.335  1.00  0.00     0.054 A 
ATOM      9  C   UNL A   1      44.860  27.685  37.358  1.00  0.00     0.027 A 
ATOM     10  C   UNL A   1      46.142  28.144  37.057  1.00  0.00     0.002 A 
ATOM     11  C   UNL A   1      45.565  28.174  34.712  1.00  0.00     0.016 A 
ATOM     12  C   UNL A   1      46.494  28.390  35.734  1.00  0.00     0.001 A 
BRANCH   8  13
ATOM     13  N   UNL A   1      42.759  26.763  36.786  1.00  0.00    -0.321 N 
ATOM     14  C   UNL A   1      42.238  25.505  36.563  1.00  0.00     0.255 C 
ATOM     15  O   UNL A   1      41.079  25.277  36.921  1.00  0.00    -0.269 OA
ATOM     16  H   UNL A   1      42.203  27.335  37.363  1.00  0.00     0.170 HD
BRANCH  14  17
ATOM     17  C   UNL A   1      43.082  24.362  36.103  1.00  0.00     0.040 A 
ATOM     18  C   UNL A   1      44.912  22.492  35.061  1.00  0.00     0.041 A 
ATOM     19  C   UNL A   1      43.671  22.670  34.470  1.00  0.00     0.027 A 
ATOM     20  C   UNL A   1      45.172  23.123  36.280  1.00  0.00     0.027 A 
ATOM     21  C   UNL A   1      42.821  23.668  34.923  1.00  0.00     0.016 A 
ATOM     22  C   UNL A   1      44.257  24.053  36.802  1.00  0.00     0.016 A 
BRANCH  18  23
ATOM     23  N   UNL A   1      45.952  21.801  34.417  1.00  0.00    -0.322 N 
ATOM     24  C   UNL A   1      46.812  20.818  34.880  1.00  0.00     0.256 C 
ATOM     25  O   UNL A   1      47.709  20.411  34.144  1.00  0.00    -0.269 OA
ATOM     26  H   UNL A   1      46.092  22.059  33.478  1.00  0.00     0.170 HD
BRANCH  24  27
ATOM     27  C   UNL A   1      46.700  20.214  36.242  1.00  0.00     0.049 A 
ATOM     28  C   UNL A   1      48.414  21.763  37.313  1.00  0.00     0.053 C 
ATOM     29  C   UNL A   1      47.545  20.533  37.334  1.00  0.00     0.039 A 
ATOM     30  C   UNL A   1      47.525  19.650  38.438  1.00  0.00     0.273 A 
ATOM     31  C   UNL A   1      45.700  19.237  36.388  1.00  0.00     0.014 A 
ATOM     32  C   UNL A   1      46.542  18.654  38.564  1.00  0.00     0.086 A 
ATOM     33  C   UNL A   1      45.595  18.489  37.559  1.00  0.00     0.008 A 
BRANCH  30  34
ATOM     34  N   UNL A   1      48.602  19.649  39.439  1.00  0.00     0.063 N 
ATOM     35  O   UNL A   1      49.634  19.017  39.173  1.00  0.00    -0.258 OA
ATOM     36  O   UNL A   1      48.448  20.340  40.455  1.00  0.00    -0.258 OA
ENDBRANCH  30  34
ENDBRANCH  24  27
ENDBRANCH  18  23
ENDBRANCH  14  17
ENDBRANCH   8  13
ENDBRANCH   4   7
ENDBRANCH   2   3
ENDBRANCH   1   2
BRANCH   1  37
ATOM     37  C   UNL A   1      44.168  23.887  30.750  1.00  0.00     0.002 C 
BRANCH  37  38
ATOM     38  C   UNL A   1      44.265  23.363  29.311  1.00  0.00     0.002 C 
BRANCH  38  39
ATOM     39  C   UNL A   1      43.176  23.782  28.324  1.00  0.00     0.021 C 
BRANCH  39  40
ATOM     40  C   UNL A   1      42.163  22.708  27.975  1.00  0.00     0.116 C 
BRANCH  40  41
ATOM     41  N   UNL A   1      41.501  22.844  26.692  1.00  0.00    -0.352 N 
ATOM     42  C   UNL A   1      40.159  23.226  26.702  1.00  0.00     0.251 C 
ATOM     43  H   UNL A   1      41.978  22.674  25.847  1.00  0.00     0.163 HD
ATOM     44  O   UNL A   1      39.210  22.463  26.748  1.00  0.00    -0.269 OA
BRANCH  42  45
ATOM     45  C   UNL A   1      39.982  24.666  26.992  1.00  0.00     0.039 A 
ATOM     46  C   UNL A   1      40.551  25.660  26.199  1.00  0.00     0.014 A 
ATOM     47  C   UNL A   1      39.404  24.965  28.228  1.00  0.00     0.014 A 
ATOM     48  C   UNL A   1      40.655  26.954  26.715  1.00  0.00     0.010 A 
ATOM     49  C   UNL A   1      39.598  26.209  28.774  1.00  0.00     0.010 A 
ATOM     50  C   UNL A   1      40.243  27.197  28.027  1.00  0.00    -0.014 A 
BRANCH  50  51
ATOM     51  C   UNL A   1      40.445  28.442  28.752  1.00  0.00     0.031 A 
ATOM     52  C   UNL A   1      39.389  29.474  28.737  1.00  0.00     0.074 A 
ATOM     53  C   UNL A   1      41.497  28.541  29.591  1.00  0.00     0.049 A 
ATOM     54  N   UNL A   1      39.567  30.699  29.093  1.00  0.00    -0.248 NA
ATOM     55  C   UNL A   1      38.027  29.202  28.291  1.00  0.00     0.031 C 
ATOM     56  C   UNL A   1      41.683  29.500  30.675  1.00  0.00     0.029 A 
ATOM     57  N   UNL A   1      42.725  27.884  29.494  1.00  0.00    -0.354 N 
ATOM     58  C   UNL A   1      38.331  31.299  29.187  1.00  0.00     0.074 A 
ATOM     59  C   UNL A   1      37.410  30.341  28.623  1.00  0.00     0.031 C 
ATOM     60  C   UNL A   1      42.991  29.576  30.968  1.00  0.00     0.029 A 
ATOM     61  C   UNL A   1      43.697  28.784  29.975  1.00  0.00     0.049 A 
ATOM     62  H   UNL A   1      42.881  26.972  29.158  1.00  0.00     0.167 HD
ATOM     63  C   UNL A   1      38.223  32.486  29.853  1.00  0.00     0.037 A 
ATOM     64  C   UNL A   1      44.658  29.275  29.136  1.00  0.00     0.037 A 
ATOM     65  C   UNL A   1      39.539  32.946  30.296  1.00  0.00     0.049 A 
ATOM     66  C   UNL A   1      44.602  30.776  28.957  1.00  0.00     0.074 A 
ATOM     67  C   UNL A   1      40.208  32.846  31.506  1.00  0.00     0.029 A 
ATOM     68  N   UNL A   1      40.488  33.319  29.352  1.00  0.00    -0.354 N 
ATOM     69  N   UNL A   1      43.557  31.511  29.226  1.00  0.00    -0.248 NA
ATOM     70  C   UNL A   1      45.729  31.570  28.484  1.00  0.00     0.031 C 
ATOM     71  C   UNL A   1      41.579  33.118  31.276  1.00  0.00     0.029 A 
ATOM     72  C   UNL A   1      41.741  33.404  29.931  1.00  0.00     0.049 A 
ATOM     73  H   UNL A   1      40.295  33.500  28.404  1.00  0.00     0.167 HD
ATOM     74  C   UNL A   1      43.836  32.833  28.969  1.00  0.00     0.074 A 
ATOM     75  C   UNL A   1      45.220  32.814  28.532  1.00  0.00     0.031 C 
ATOM     76  C   UNL A   1      42.899  33.817  29.145  1.00  0.00     0.037 A 
BRANCH  63  77
ATOM     77  C   UNL A   1      36.917  33.086  30.345  1.00  0.00     0.058 A 
ATOM     78  C   UNL A   1      35.966  33.594  29.431  1.00  0.00     0.135 A 
ATOM     79  C   UNL A   1      36.558  33.234  31.700  1.00  0.00     0.135 A 
ATOM     80  F   UNL A   1      36.113  33.445  28.108  1.00  0.00    -0.206 F 
ATOM     81  C   UNL A   1      34.821  34.291  29.826  1.00  0.00     0.059 A 
ATOM     82  C   UNL A   1      35.445  33.972  32.121  1.00  0.00     0.059 A 
ATOM     83  F   UNL A   1      37.242  32.620  32.674  1.00  0.00    -0.206 F 
ATOM     84  C   UNL A   1      34.586  34.510  31.174  1.00  0.00     0.060 A 
BRANCH  84  85
ATOM     85  S   UNL A   1      33.151  35.486  31.660  1.00  0.00     0.124 S 
ATOM     86  O   UNL A   1      33.764  36.735  32.102  1.00  0.00    -0.237 OA
ATOM     87  O   UNL A   1      32.393  35.555  30.416  1.00  0.00    -0.237 OA
ATOM     88  O   UNL A   1      32.541  34.690  32.720  1.00  0.00    -0.744 OA
ENDBRANCH  84  85
ENDBRANCH  63  77
BRANCH  64  89
ATOM     89  C   UNL A   1      45.087  28.274  28.113  1.00  0.00     0.058 A 
ATOM     90  C   UNL A   1      44.509  28.381  26.830  1.00  0.00     0.135 A 
ATOM     91  C   UNL A   1      46.322  27.619  28.210  1.00  0.00     0.135 A 
ATOM     92  F   UNL A   1      43.314  28.977  26.682  1.00  0.00    -0.206 F 
ATOM     93  C   UNL A   1      45.212  28.040  25.679  1.00  0.00     0.059 A 
ATOM     94  C   UNL A   1      47.037  27.252  27.065  1.00  0.00     0.059 A 
ATOM     95  F   UNL A   1      46.919  27.474  29.401  1.00  0.00    -0.206 F 
ATOM     96  C   UNL A   1      46.511  27.555  25.807  1.00  0.00     0.060 A 
BRANCH  96  97
ATOM     97  S   UNL A   1      47.550  27.498  24.325  1.00  0.00     0.124 S 
ATOM     98  O   UNL A   1      46.879  28.446  23.443  1.00  0.00    -0.237 OA
ATOM     99  O   UNL A   1      48.851  27.926  24.847  1.00  0.00    -0.237 OA
ATOM    100  O   UNL A   1      47.481  26.100  23.917  1.00  0.00    -0.744 OA
ENDBRANCH  96  97
ENDBRANCH  64  89
BRANCH  76 101
ATOM    101  C   UNL A   1      42.973  35.272  28.700  1.00  0.00     0.058 A 
ATOM    102  C   UNL A   1      42.814  35.721  27.378  1.00  0.00     0.135 A 
ATOM    103  C   UNL A   1      43.082  36.311  29.667  1.00  0.00     0.135 A 
ATOM    104  F   UNL A   1      42.587  34.873  26.368  1.00  0.00    -0.206 F 
ATOM    105  C   UNL A   1      42.821  37.078  27.034  1.00  0.00     0.059 A 
ATOM    106  C   UNL A   1      43.025  37.668  29.354  1.00  0.00     0.059 A 
ATOM    107  F   UNL A   1      43.229  36.050  30.975  1.00  0.00    -0.206 F 
ATOM    108  C   UNL A   1      42.920  38.045  28.028  1.00  0.00     0.060 A 
BRANCH 108 109
ATOM    109  S   UNL A   1      42.839  39.790  27.590  1.00  0.00     0.124 S 
ATOM    110  O   UNL A   1      41.457  40.112  27.933  1.00  0.00    -0.237 OA
ATOM    111  O   UNL A   1      43.856  40.383  28.451  1.00  0.00    -0.237 OA
ATOM    112  O   UNL A   1      43.155  39.795  26.165  1.00  0.00    -0.744 OA
ENDBRANCH 108 109
ENDBRANCH  76 101
ENDBRANCH  50  51
ENDBRANCH  42  45
ENDBRANCH  40  41
ENDBRANCH  39  40
ENDBRANCH  38  39
ENDBRANCH  37  38
ENDBRANCH   1  37
TORSDOF 21
ENDMDL
