MODEL 1
REMARK VINA RESULT:     -11.9      0.000      0.000
REMARK SMILES Cc1cc(C)c2c(=O)n(CCCC(=O)NCCCCCCNC(=O)c3ccc(-c4c5nc(c(-c6c(F)cc(S(=O)(=O)[O-])cc6F)c6ccc([nH]6)c(-c6c(F)cc(S(=O)(=O)[O-])cc6F)c6nc(c(-c7c(F)cc(S(=O)(=O)[O-])cc7F)c7ccc4[nH]7)C=C6)C=C5)cc3)sc2n1
REMARK SMILES IDX 18 1 17 2 16 3 15 4 13 5 14 6 12 8 11 9 10 10 9 11 1 12 2 13
REMARK SMILES IDX 3 14 93 15 4 16 92 17 5 18 6 19 91 20 7 21 8 22 19 23 20 24
REMARK SMILES IDX 21 25 22 26 23 27 24 29 25 30 26 31 90 32 27 33 89 34 28 35
REMARK SMILES IDX 29 36 30 37 83 38 31 39 88 40 82 41 84 42 32 43 87 44 81 45
REMARK SMILES IDX 80 46 33 48 67 49 46 50 66 51 47 52 50 53 65 54 85 55 48 56
REMARK SMILES IDX 49 57 64 59 86 60 51 61 34 62 35 63 44 64 36 65 37 66 43 67
REMARK SMILES IDX 45 68 38 69 39 70 40 71 41 72 42 73 68 74 69 75 78 76 70 77
REMARK SMILES IDX 71 78 77 79 79 80 72 81 73 82 74 83 75 84 76 85 52 86 53 87
REMARK SMILES IDX 62 88 54 89 55 90 61 91 63 92 56 93 57 94 58 95 59 96 60 97
REMARK H PARENT 15 7 22 28 84 47 50 58
REMARK Flexibility Score: inf
ROOT
ATOM      1  C   UNL A   1      36.552  22.981  25.657  1.00  0.00     0.002 C 
ENDROOT
BRANCH   1   2
ATOM      2  C   UNL A   1      35.837  21.696  26.083  1.00  0.00     0.021 C 
BRANCH   2   3
ATOM      3  C   UNL A   1      35.624  20.718  24.928  1.00  0.00     0.116 C 
BRANCH   3   4
ATOM      4  N   UNL A   1      34.535  19.818  25.219  1.00  0.00    -0.356 N 
ATOM      5  C   UNL A   1      33.192  20.010  25.202  1.00  0.00     0.220 C 
ATOM      6  O   UNL A   1      32.484  19.063  25.558  1.00  0.00    -0.275 OA
ATOM      7  H   UNL A   1      34.813  18.909  25.474  1.00  0.00     0.163 HD
BRANCH   5   8
ATOM      8  C   UNL A   1      32.559  21.266  24.631  1.00  0.00     0.102 C 
BRANCH   8   9
ATOM      9  C   UNL A   1      31.981  22.354  25.546  1.00  0.00     0.033 C 
BRANCH   9  10
ATOM     10  C   UNL A   1      31.035  23.452  25.028  1.00  0.00     0.139 C 
BRANCH  10  11
ATOM     11  N   UNL A   1      31.454  24.849  24.974  1.00  0.00    -0.262 N 
ATOM     12  C   UNL A   1      32.496  30.629  26.684  1.00  0.00     0.067 C 
ATOM     13  C   UNL A   1      32.042  29.430  25.909  1.00  0.00     0.039 A 
ATOM     14  C   UNL A   1      31.149  29.552  24.835  1.00  0.00     0.027 A 
ATOM     15  N   UNL A   1      32.528  28.237  26.321  1.00  0.00    -0.241 NA
ATOM     16  C   UNL A   1      30.688  28.404  24.167  1.00  0.00    -0.033 A 
ATOM     17  C   UNL A   1      32.064  27.159  25.664  1.00  0.00     0.146 A 
ATOM     18  C   UNL A   1      29.813  28.515  22.957  1.00  0.00     0.045 C 
ATOM     19  C   UNL A   1      31.120  27.179  24.657  1.00  0.00     0.081 A 
ATOM     20  S   UNL A   1      32.676  25.529  25.955  1.00  0.00    -0.035 S 
ATOM     21  C   UNL A   1      30.685  25.807  24.298  1.00  0.00     0.270 A 
ATOM     22  O   UNL A   1      29.718  25.591  23.596  1.00  0.00    -0.268 OA
ENDBRANCH  10  11
ENDBRANCH   9  10
ENDBRANCH   8   9
ENDBRANCH   5   8
ENDBRANCH   3   4
ENDBRANCH   2   3
ENDBRANCH   1   2
BRANCH   1  23
ATOM     23  C   UNL A   1      38.011  23.102  26.128  1.00  0.00     0.002 C 
BRANCH  23  24
ATOM     24  C   UNL A   1      38.881  21.844  25.977  1.00  0.00     0.021 C 
BRANCH  24  25
ATOM     25  C   UNL A   1      40.125  21.875  26.844  1.00  0.00     0.116 C 
BRANCH  25  26
ATOM     26  N   UNL A   1      41.359  21.941  26.052  1.00  0.00    -0.352 N 
ATOM     27  C   UNL A   1      42.139  23.042  25.752  1.00  0.00     0.251 C 
ATOM     28  H   UNL A   1      41.675  21.084  25.685  1.00  0.00     0.163 HD
ATOM     29  O   UNL A   1      42.931  23.008  24.817  1.00  0.00    -0.269 OA
BRANCH  27  30
ATOM     30  C   UNL A   1      42.007  24.247  26.587  1.00  0.00     0.039 A 
ATOM     31  C   UNL A   1      42.697  24.417  27.791  1.00  0.00     0.014 A 
ATOM     32  C   UNL A   1      41.158  25.243  26.119  1.00  0.00     0.014 A 
ATOM     33  C   UNL A   1      42.527  25.612  28.485  1.00  0.00     0.010 A 
ATOM     34  C   UNL A   1      41.225  26.498  26.638  1.00  0.00     0.010 A 
ATOM     35  C   UNL A   1      41.779  26.644  27.893  1.00  0.00    -0.014 A 
BRANCH  35  36
ATOM     36  C   UNL A   1      41.582  27.937  28.523  1.00  0.00     0.031 A 
ATOM     37  C   UNL A   1      42.648  28.906  28.190  1.00  0.00     0.074 A 
ATOM     38  C   UNL A   1      40.428  28.268  29.149  1.00  0.00     0.049 A 
ATOM     39  N   UNL A   1      43.622  29.286  28.946  1.00  0.00    -0.248 NA
ATOM     40  C   UNL A   1      42.784  29.337  26.788  1.00  0.00     0.031 C 
ATOM     41  C   UNL A   1      39.174  27.502  29.246  1.00  0.00     0.029 A 
ATOM     42  N   UNL A   1      40.107  29.426  29.786  1.00  0.00    -0.354 N 
ATOM     43  C   UNL A   1      44.339  30.213  28.197  1.00  0.00     0.074 A 
ATOM     44  C   UNL A   1      43.928  30.024  26.832  1.00  0.00     0.031 C 
ATOM     45  C   UNL A   1      38.180  28.296  29.704  1.00  0.00     0.029 A 
ATOM     46  C   UNL A   1      38.758  29.562  30.110  1.00  0.00     0.049 A 
ATOM     47  H   UNL A   1      40.777  30.115  30.002  1.00  0.00     0.167 HD
ATOM     48  C   UNL A   1      44.995  31.238  28.808  1.00  0.00     0.037 A 
ATOM     49  C   UNL A   1      38.176  30.644  30.688  1.00  0.00     0.037 A 
ATOM     50  C   UNL A   1      45.050  31.016  30.235  1.00  0.00     0.049 A 
ATOM     51  C   UNL A   1      39.273  31.380  31.365  1.00  0.00     0.074 A 
ATOM     52  C   UNL A   1      45.709  30.145  31.076  1.00  0.00     0.029 A 
ATOM     53  N   UNL A   1      43.968  31.503  30.926  1.00  0.00    -0.354 N 
ATOM     54  N   UNL A   1      39.964  30.895  32.361  1.00  0.00    -0.248 NA
ATOM     55  C   UNL A   1      39.895  32.491  30.661  1.00  0.00     0.031 C 
ATOM     56  C   UNL A   1      44.809  29.902  32.159  1.00  0.00     0.029 A 
ATOM     57  C   UNL A   1      43.664  30.679  31.980  1.00  0.00     0.049 A 
ATOM     58  H   UNL A   1      43.479  32.327  30.697  1.00  0.00     0.167 HD
ATOM     59  C   UNL A   1      41.258  31.344  32.152  1.00  0.00     0.074 A 
ATOM     60  C   UNL A   1      41.124  32.430  31.183  1.00  0.00     0.031 C 
ATOM     61  C   UNL A   1      42.332  30.602  32.558  1.00  0.00     0.037 A 
BRANCH  48  62
ATOM     62  C   UNL A   1      45.191  32.617  28.214  1.00  0.00     0.058 A 
ATOM     63  C   UNL A   1      46.498  33.058  27.918  1.00  0.00     0.135 A 
ATOM     64  C   UNL A   1      44.194  33.618  28.171  1.00  0.00     0.135 A 
ATOM     65  F   UNL A   1      47.532  32.202  27.944  1.00  0.00    -0.206 F 
ATOM     66  C   UNL A   1      46.796  34.397  27.649  1.00  0.00     0.059 A 
ATOM     67  C   UNL A   1      44.460  34.946  27.853  1.00  0.00     0.059 A 
ATOM     68  F   UNL A   1      42.925  33.382  28.525  1.00  0.00    -0.206 F 
ATOM     69  C   UNL A   1      45.768  35.335  27.625  1.00  0.00     0.060 A 
BRANCH  69  70
ATOM     70  S   UNL A   1      46.157  37.070  27.340  1.00  0.00     0.124 S 
ATOM     71  O   UNL A   1      46.622  37.489  28.657  1.00  0.00    -0.237 OA
ATOM     72  O   UNL A   1      47.176  36.981  26.299  1.00  0.00    -0.237 OA
ATOM     73  O   UNL A   1      44.880  37.635  26.912  1.00  0.00    -0.744 OA
ENDBRANCH  69  70
ENDBRANCH  48  62
BRANCH  49  74
ATOM     74  C   UNL A   1      36.876  31.292  30.349  1.00  0.00     0.058 A 
ATOM     75  C   UNL A   1      36.017  31.770  31.358  1.00  0.00     0.135 A 
ATOM     76  C   UNL A   1      36.608  31.747  29.042  1.00  0.00     0.135 A 
ATOM     77  F   UNL A   1      36.206  31.398  32.633  1.00  0.00    -0.206 F 
ATOM     78  C   UNL A   1      35.001  32.698  31.099  1.00  0.00     0.059 A 
ATOM     79  C   UNL A   1      35.600  32.672  28.761  1.00  0.00     0.059 A 
ATOM     80  F   UNL A   1      37.386  31.379  28.013  1.00  0.00    -0.206 F 
ATOM     81  C   UNL A   1      34.818  33.167  29.799  1.00  0.00     0.060 A 
BRANCH  81  82
ATOM     82  S   UNL A   1      33.635  34.503  29.492  1.00  0.00     0.124 S 
ATOM     83  O   UNL A   1      33.252  34.886  30.846  1.00  0.00    -0.237 OA
ATOM     84  O   UNL A   1      34.447  35.471  28.761  1.00  0.00    -0.237 OA
ATOM     85  O   UNL A   1      32.586  33.855  28.709  1.00  0.00    -0.744 OA
ENDBRANCH  81  82
ENDBRANCH  49  74
BRANCH  61  86
ATOM     86  C   UNL A   1      42.088  29.524  33.591  1.00  0.00     0.058 A 
ATOM     87  C   UNL A   1      41.781  28.180  33.310  1.00  0.00     0.135 A 
ATOM     88  C   UNL A   1      42.278  29.862  34.939  1.00  0.00     0.135 A 
ATOM     89  F   UNL A   1      41.664  27.748  32.048  1.00  0.00    -0.206 F 
ATOM     90  C   UNL A   1      41.633  27.229  34.325  1.00  0.00     0.059 A 
ATOM     91  C   UNL A   1      42.168  28.926  35.963  1.00  0.00     0.059 A 
ATOM     92  F   UNL A   1      42.622  31.117  35.273  1.00  0.00    -0.206 F 
ATOM     93  C   UNL A   1      41.830  27.612  35.652  1.00  0.00     0.060 A 
BRANCH  93  94
ATOM     94  S   UNL A   1      41.680  26.379  36.964  1.00  0.00     0.124 S 
ATOM     95  O   UNL A   1      42.870  26.636  37.768  1.00  0.00    -0.237 OA
ATOM     96  O   UNL A   1      40.406  26.731  37.585  1.00  0.00    -0.237 OA
ATOM     97  O   UNL A   1      41.682  25.109  36.240  1.00  0.00    -0.744 OA
ENDBRANCH  93  94
ENDBRANCH  61  86
ENDBRANCH  35  36
ENDBRANCH  27  30
ENDBRANCH  25  26
ENDBRANCH  24  25
ENDBRANCH  23  24
ENDBRANCH   1  23
TORSDOF 19
ENDMDL
MODEL 2
REMARK VINA RESULT:     -11.5      1.515      3.631
REMARK SMILES Cc1cc(C)c2c(=O)n(CCCC(=O)NCCCCCCNC(=O)c3ccc(-c4c5nc(c(-c6c(F)cc(S(=O)(=O)[O-])cc6F)c6ccc([nH]6)c(-c6c(F)cc(S(=O)(=O)[O-])cc6F)c6nc(c(-c7c(F)cc(S(=O)(=O)[O-])cc7F)c7ccc4[nH]7)C=C6)C=C5)cc3)sc2n1
REMARK SMILES IDX 18 1 17 2 16 3 15 4 13 5 14 6 12 8 11 9 10 10 9 11 1 12 2 13
REMARK SMILES IDX 3 14 93 15 4 16 92 17 5 18 6 19 91 20 7 21 8 22 19 23 20 24
REMARK SMILES IDX 21 25 22 26 23 27 24 29 25 30 26 31 90 32 27 33 89 34 28 35
REMARK SMILES IDX 29 36 30 37 83 38 31 39 88 40 82 41 84 42 32 43 87 44 81 45
REMARK SMILES IDX 80 46 33 48 67 49 46 50 66 51 47 52 50 53 65 54 85 55 48 56
REMARK SMILES IDX 49 57 64 59 86 60 51 61 34 62 35 63 44 64 36 65 37 66 43 67
REMARK SMILES IDX 45 68 38 69 39 70 40 71 41 72 42 73 68 74 69 75 78 76 70 77
REMARK SMILES IDX 71 78 77 79 79 80 72 81 73 82 74 83 75 84 76 85 52 86 53 87
REMARK SMILES IDX 62 88 54 89 55 90 61 91 63 92 56 93 57 94 58 95 59 96 60 97
REMARK H PARENT 15 7 22 28 84 47 50 58
REMARK Flexibility Score: inf
ROOT
ATOM      1  C   UNL A   1      36.804  22.446  24.155  1.00  0.00     0.002 C 
ENDROOT
BRANCH   1   2
ATOM      2  C   UNL A   1      35.435  23.133  24.134  1.00  0.00     0.021 C 
BRANCH   2   3
ATOM      3  C   UNL A   1      35.120  23.881  25.429  1.00  0.00     0.116 C 
BRANCH   3   4
ATOM      4  N   UNL A   1      34.615  25.202  25.142  1.00  0.00    -0.356 N 
ATOM      5  C   UNL A   1      33.376  25.734  25.295  1.00  0.00     0.220 C 
ATOM      6  O   UNL A   1      33.211  26.894  24.905  1.00  0.00    -0.275 OA
ATOM      7  H   UNL A   1      35.282  25.823  24.771  1.00  0.00     0.163 HD
BRANCH   5   8
ATOM      8  C   UNL A   1      32.270  25.014  26.045  1.00  0.00     0.102 C 
BRANCH   8   9
ATOM      9  C   UNL A   1      31.342  24.020  25.337  1.00  0.00     0.033 C 
BRANCH   9  10
ATOM     10  C   UNL A   1      31.799  23.174  24.136  1.00  0.00     0.139 C 
BRANCH  10  11
ATOM     11  N   UNL A   1      31.978  21.730  24.250  1.00  0.00    -0.262 N 
ATOM     12  C   UNL A   1      34.664  16.299  25.090  1.00  0.00     0.067 C 
ATOM     13  C   UNL A   1      33.855  17.416  24.505  1.00  0.00     0.039 A 
ATOM     14  C   UNL A   1      33.369  17.351  23.191  1.00  0.00     0.027 A 
ATOM     15  N   UNL A   1      33.643  18.481  25.310  1.00  0.00    -0.241 NA
ATOM     16  C   UNL A   1      32.669  18.440  22.644  1.00  0.00    -0.033 A 
ATOM     17  C   UNL A   1      32.972  19.507  24.755  1.00  0.00     0.146 A 
ATOM     18  C   UNL A   1      32.057  18.358  21.280  1.00  0.00     0.045 C 
ATOM     19  C   UNL A   1      32.537  19.567  23.446  1.00  0.00     0.081 A 
ATOM     20  S   UNL A   1      32.474  20.929  25.676  1.00  0.00    -0.035 S 
ATOM     21  C   UNL A   1      32.021  20.917  23.110  1.00  0.00     0.270 A 
ATOM     22  O   UNL A   1      31.785  21.259  21.969  1.00  0.00    -0.268 OA
ENDBRANCH  10  11
ENDBRANCH   9  10
ENDBRANCH   8   9
ENDBRANCH   5   8
ENDBRANCH   3   4
ENDBRANCH   2   3
ENDBRANCH   1   2
BRANCH   1  23
ATOM     23  C   UNL A   1      37.545  22.511  25.501  1.00  0.00     0.002 C 
BRANCH  23  24
ATOM     24  C   UNL A   1      38.720  21.537  25.678  1.00  0.00     0.021 C 
BRANCH  24  25
ATOM     25  C   UNL A   1      39.809  22.078  26.585  1.00  0.00     0.116 C 
BRANCH  25  26
ATOM     26  N   UNL A   1      41.135  22.035  25.959  1.00  0.00    -0.352 N 
ATOM     27  C   UNL A   1      42.042  23.061  25.777  1.00  0.00     0.251 C 
ATOM     28  H   UNL A   1      41.417  21.153  25.622  1.00  0.00     0.163 HD
ATOM     29  O   UNL A   1      42.942  22.959  24.950  1.00  0.00    -0.269 OA
BRANCH  27  30
ATOM     30  C   UNL A   1      41.913  24.271  26.607  1.00  0.00     0.039 A 
ATOM     31  C   UNL A   1      42.564  24.424  27.834  1.00  0.00     0.014 A 
ATOM     32  C   UNL A   1      41.108  25.288  26.108  1.00  0.00     0.014 A 
ATOM     33  C   UNL A   1      42.401  25.624  28.521  1.00  0.00     0.010 A 
ATOM     34  C   UNL A   1      41.190  26.541  26.628  1.00  0.00     0.010 A 
ATOM     35  C   UNL A   1      41.703  26.674  27.902  1.00  0.00    -0.014 A 
BRANCH  35  36
ATOM     36  C   UNL A   1      41.518  27.973  28.525  1.00  0.00     0.031 A 
ATOM     37  C   UNL A   1      42.578  28.939  28.164  1.00  0.00     0.074 A 
ATOM     38  C   UNL A   1      40.376  28.310  29.169  1.00  0.00     0.049 A 
ATOM     39  N   UNL A   1      43.565  29.324  28.899  1.00  0.00    -0.248 NA
ATOM     40  C   UNL A   1      42.688  29.357  26.756  1.00  0.00     0.031 C 
ATOM     41  C   UNL A   1      39.124  27.546  29.296  1.00  0.00     0.029 A 
ATOM     42  N   UNL A   1      40.067  29.473  29.802  1.00  0.00    -0.354 N 
ATOM     43  C   UNL A   1      44.269  30.244  28.128  1.00  0.00     0.074 A 
ATOM     44  C   UNL A   1      43.832  30.044  26.773  1.00  0.00     0.031 C 
ATOM     45  C   UNL A   1      38.138  28.344  29.766  1.00  0.00     0.029 A 
ATOM     46  C   UNL A   1      38.724  29.613  30.150  1.00  0.00     0.049 A 
ATOM     47  H   UNL A   1      40.741  30.164  29.999  1.00  0.00     0.167 HD
ATOM     48  C   UNL A   1      44.937  31.274  28.718  1.00  0.00     0.037 A 
ATOM     49  C   UNL A   1      38.154  30.701  30.729  1.00  0.00     0.037 A 
ATOM     50  C   UNL A   1      45.018  31.065  30.145  1.00  0.00     0.049 A 
ATOM     51  C   UNL A   1      39.264  31.442  31.379  1.00  0.00     0.074 A 
ATOM     52  C   UNL A   1      45.693  30.201  30.981  1.00  0.00     0.029 A 
ATOM     53  N   UNL A   1      43.950  31.558  30.851  1.00  0.00    -0.354 N 
ATOM     54  N   UNL A   1      39.972  30.965  32.366  1.00  0.00    -0.248 NA
ATOM     55  C   UNL A   1      39.873  32.547  30.654  1.00  0.00     0.031 C 
ATOM     56  C   UNL A   1      44.813  29.968  32.083  1.00  0.00     0.029 A 
ATOM     57  C   UNL A   1      43.664  30.744  31.918  1.00  0.00     0.049 A 
ATOM     58  H   UNL A   1      43.457  32.380  30.625  1.00  0.00     0.167 HD
ATOM     59  C   UNL A   1      41.262  31.412  32.129  1.00  0.00     0.074 A 
ATOM     60  C   UNL A   1      41.111  32.489  31.153  1.00  0.00     0.031 C 
ATOM     61  C   UNL A   1      42.344  30.673  32.522  1.00  0.00     0.037 A 
BRANCH  48  62
ATOM     62  C   UNL A   1      45.122  32.648  28.108  1.00  0.00     0.058 A 
ATOM     63  C   UNL A   1      46.409  33.045  27.688  1.00  0.00     0.135 A 
ATOM     64  C   UNL A   1      44.161  33.682  28.161  1.00  0.00     0.135 A 
ATOM     65  F   UNL A   1      47.411  32.154  27.615  1.00  0.00    -0.206 F 
ATOM     66  C   UNL A   1      46.726  34.374  27.392  1.00  0.00     0.059 A 
ATOM     67  C   UNL A   1      44.441  35.001  27.819  1.00  0.00     0.059 A 
ATOM     68  F   UNL A   1      42.924  33.489  28.634  1.00  0.00    -0.206 F 
ATOM     69  C   UNL A   1      45.734  35.346  27.467  1.00  0.00     0.060 A 
BRANCH  69  70
ATOM     70  S   UNL A   1      46.153  37.068  27.146  1.00  0.00     0.124 S 
ATOM     71  O   UNL A   1      46.930  36.959  25.917  1.00  0.00    -0.237 OA
ATOM     72  O   UNL A   1      44.833  37.678  27.018  1.00  0.00    -0.237 OA
ATOM     73  O   UNL A   1      46.904  37.459  28.336  1.00  0.00    -0.744 OA
ENDBRANCH  69  70
ENDBRANCH  48  62
BRANCH  49  74
ATOM     74  C   UNL A   1      36.848  31.347  30.408  1.00  0.00     0.058 A 
ATOM     75  C   UNL A   1      36.035  31.885  31.424  1.00  0.00     0.135 A 
ATOM     76  C   UNL A   1      36.533  31.738  29.092  1.00  0.00     0.135 A 
ATOM     77  F   UNL A   1      36.270  31.575  32.709  1.00  0.00    -0.206 F 
ATOM     78  C   UNL A   1      35.018  32.811  31.159  1.00  0.00     0.059 A 
ATOM     79  C   UNL A   1      35.524  32.660  28.804  1.00  0.00     0.059 A 
ATOM     80  F   UNL A   1      37.266  31.309  28.053  1.00  0.00    -0.206 F 
ATOM     81  C   UNL A   1      34.789  33.216  29.845  1.00  0.00     0.060 A 
BRANCH  81  82
ATOM     82  S   UNL A   1      33.608  34.549  29.517  1.00  0.00     0.124 S 
ATOM     83  O   UNL A   1      33.205  34.935  30.864  1.00  0.00    -0.237 OA
ATOM     84  O   UNL A   1      34.429  35.516  28.795  1.00  0.00    -0.237 OA
ATOM     85  O   UNL A   1      32.572  33.897  28.720  1.00  0.00    -0.744 OA
ENDBRANCH  81  82
ENDBRANCH  49  74
BRANCH  61  86
ATOM     86  C   UNL A   1      42.118  29.604  33.568  1.00  0.00     0.058 A 
ATOM     87  C   UNL A   1      41.693  28.288  33.311  1.00  0.00     0.135 A 
ATOM     88  C   UNL A   1      42.453  29.914  34.894  1.00  0.00     0.135 A 
ATOM     89  F   UNL A   1      41.432  27.878  32.063  1.00  0.00    -0.206 F 
ATOM     90  C   UNL A   1      41.570  27.339  34.332  1.00  0.00     0.059 A 
ATOM     91  C   UNL A   1      42.370  28.978  35.921  1.00  0.00     0.059 A 
ATOM     92  F   UNL A   1      42.914  31.138  35.201  1.00  0.00    -0.206 F 
ATOM     93  C   UNL A   1      41.913  27.694  35.637  1.00  0.00     0.060 A 
BRANCH  93  94
ATOM     94  S   UNL A   1      41.796  26.461  36.952  1.00  0.00     0.124 S 
ATOM     95  O   UNL A   1      42.942  26.794  37.792  1.00  0.00    -0.237 OA
ATOM     96  O   UNL A   1      40.484  26.738  37.530  1.00  0.00    -0.237 OA
ATOM     97  O   UNL A   1      41.898  25.189  36.239  1.00  0.00    -0.744 OA
ENDBRANCH  93  94
ENDBRANCH  61  86
ENDBRANCH  35  36
ENDBRANCH  27  30
ENDBRANCH  25  26
ENDBRANCH  24  25
ENDBRANCH  23  24
ENDBRANCH   1  23
TORSDOF 19
ENDMDL
MODEL 3
REMARK VINA RESULT:     -11.3      2.684      9.569
REMARK SMILES Cc1cc(C)c2c(=O)n(CCCC(=O)NCCCCCCNC(=O)c3ccc(-c4c5nc(c(-c6c(F)cc(S(=O)(=O)[O-])cc6F)c6ccc([nH]6)c(-c6c(F)cc(S(=O)(=O)[O-])cc6F)c6nc(c(-c7c(F)cc(S(=O)(=O)[O-])cc7F)c7ccc4[nH]7)C=C6)C=C5)cc3)sc2n1
REMARK SMILES IDX 18 1 17 2 16 3 15 4 13 5 14 6 12 8 11 9 10 10 9 11 1 12 2 13
REMARK SMILES IDX 3 14 93 15 4 16 92 17 5 18 6 19 91 20 7 21 8 22 19 23 20 24
REMARK SMILES IDX 21 25 22 26 23 27 24 29 25 30 26 31 90 32 27 33 89 34 28 35
REMARK SMILES IDX 29 36 30 37 83 38 31 39 88 40 82 41 84 42 32 43 87 44 81 45
REMARK SMILES IDX 80 46 33 48 67 49 46 50 66 51 47 52 50 53 65 54 85 55 48 56
REMARK SMILES IDX 49 57 64 59 86 60 51 61 34 62 35 63 44 64 36 65 37 66 43 67
REMARK SMILES IDX 45 68 38 69 39 70 40 71 41 72 42 73 68 74 69 75 78 76 70 77
REMARK SMILES IDX 71 78 77 79 79 80 72 81 73 82 74 83 75 84 76 85 52 86 53 87
REMARK SMILES IDX 62 88 54 89 55 90 61 91 63 92 56 93 57 94 58 95 59 96 60 97
REMARK H PARENT 15 7 22 28 84 47 50 58
REMARK Flexibility Score: inf
ROOT
ATOM      1  C   UNL A   1      32.198  29.861  25.188  1.00  0.00     0.002 C 
ENDROOT
BRANCH   1   2
ATOM      2  C   UNL A   1      33.304  28.961  24.631  1.00  0.00     0.021 C 
BRANCH   2   3
ATOM      3  C   UNL A   1      33.140  28.662  23.141  1.00  0.00     0.116 C 
BRANCH   3   4
ATOM      4  N   UNL A   1      31.968  29.321  22.617  1.00  0.00    -0.356 N 
ATOM      5  C   UNL A   1      30.728  28.845  22.342  1.00  0.00     0.220 C 
ATOM      6  O   UNL A   1      29.923  29.634  21.837  1.00  0.00    -0.275 OA
ATOM      7  H   UNL A   1      32.089  30.279  22.426  1.00  0.00     0.163 HD
BRANCH   5   8
ATOM      8  C   UNL A   1      30.277  27.458  22.766  1.00  0.00     0.102 C 
BRANCH   8   9
ATOM      9  C   UNL A   1      29.922  27.146  24.225  1.00  0.00     0.033 C 
BRANCH   9  10
ATOM     10  C   UNL A   1      29.867  25.710  24.772  1.00  0.00     0.139 C 
BRANCH  10  11
ATOM     11  N   UNL A   1      31.084  24.991  25.138  1.00  0.00    -0.262 N 
ATOM     12  C   UNL A   1      37.004  23.503  25.541  1.00  0.00     0.067 C 
ATOM     13  C   UNL A   1      35.524  23.424  25.320  1.00  0.00     0.039 A 
ATOM     14  C   UNL A   1      34.941  22.316  24.687  1.00  0.00     0.027 A 
ATOM     15  N   UNL A   1      34.802  24.484  25.748  1.00  0.00    -0.241 NA
ATOM     16  C   UNL A   1      33.559  22.297  24.433  1.00  0.00    -0.033 A 
ATOM     17  C   UNL A   1      33.483  24.434  25.486  1.00  0.00     0.146 A 
ATOM     18  C   UNL A   1      32.899  21.087  23.848  1.00  0.00     0.045 C 
ATOM     19  C   UNL A   1      32.840  23.430  24.792  1.00  0.00     0.081 A 
ATOM     20  S   UNL A   1      32.347  25.649  26.081  1.00  0.00    -0.035 S 
ATOM     21  C   UNL A   1      31.430  23.790  24.503  1.00  0.00     0.270 A 
ATOM     22  O   UNL A   1      30.741  23.159  23.728  1.00  0.00    -0.268 OA
ENDBRANCH  10  11
ENDBRANCH   9  10
ENDBRANCH   8   9
ENDBRANCH   5   8
ENDBRANCH   3   4
ENDBRANCH   2   3
ENDBRANCH   1   2
BRANCH   1  23
ATOM     23  C   UNL A   1      32.272  30.123  26.702  1.00  0.00     0.002 C 
BRANCH  23  24
ATOM     24  C   UNL A   1      33.630  29.861  27.371  1.00  0.00     0.021 C 
BRANCH  24  25
ATOM     25  C   UNL A   1      34.587  31.033  27.252  1.00  0.00     0.116 C 
BRANCH  25  26
ATOM     26  N   UNL A   1      34.472  31.969  28.377  1.00  0.00    -0.352 N 
ATOM     27  C   UNL A   1      35.096  31.926  29.609  1.00  0.00     0.251 C 
ATOM     28  H   UNL A   1      33.866  32.732  28.233  1.00  0.00     0.163 HD
ATOM     29  O   UNL A   1      34.654  32.567  30.555  1.00  0.00    -0.269 OA
BRANCH  27  30
ATOM     30  C   UNL A   1      36.311  31.106  29.754  1.00  0.00     0.039 A 
ATOM     31  C   UNL A   1      36.278  29.715  29.880  1.00  0.00     0.014 A 
ATOM     32  C   UNL A   1      37.525  31.781  29.751  1.00  0.00     0.014 A 
ATOM     33  C   UNL A   1      37.488  29.033  29.976  1.00  0.00     0.010 A 
ATOM     34  C   UNL A   1      38.685  31.101  29.551  1.00  0.00     0.010 A 
ATOM     35  C   UNL A   1      38.687  29.747  29.814  1.00  0.00    -0.014 A 
BRANCH  35  36
ATOM     36  C   UNL A   1      39.994  29.115  29.858  1.00  0.00     0.031 A 
ATOM     37  C   UNL A   1      40.450  28.834  31.236  1.00  0.00     0.074 A 
ATOM     38  C   UNL A   1      40.603  28.634  28.748  1.00  0.00     0.049 A 
ATOM     39  N   UNL A   1      41.335  29.483  31.913  1.00  0.00    -0.248 NA
ATOM     40  C   UNL A   1      39.683  27.866  32.039  1.00  0.00     0.031 C 
ATOM     41  C   UNL A   1      40.088  28.555  27.370  1.00  0.00     0.029 A 
ATOM     42  N   UNL A   1      41.817  28.033  28.636  1.00  0.00    -0.354 N 
ATOM     43  C   UNL A   1      41.425  28.829  33.137  1.00  0.00     0.074 A 
ATOM     44  C   UNL A   1      40.244  28.016  33.241  1.00  0.00     0.031 C 
ATOM     45  C   UNL A   1      40.884  27.757  26.623  1.00  0.00     0.029 A 
ATOM     46  C   UNL A   1      42.057  27.421  27.406  1.00  0.00     0.049 A 
ATOM     47  H   UNL A   1      42.476  28.029  29.368  1.00  0.00     0.167 HD
ATOM     48  C   UNL A   1      42.601  28.806  33.825  1.00  0.00     0.037 A 
ATOM     49  C   UNL A   1      43.160  26.705  27.067  1.00  0.00     0.037 A 
ATOM     50  C   UNL A   1      43.535  29.745  33.249  1.00  0.00     0.049 A 
ATOM     51  C   UNL A   1      44.227  27.136  28.005  1.00  0.00     0.074 A 
ATOM     52  C   UNL A   1      43.646  31.117  33.186  1.00  0.00     0.029 A 
ATOM     53  N   UNL A   1      44.299  29.231  32.231  1.00  0.00    -0.354 N 
ATOM     54  N   UNL A   1      44.708  28.349  28.045  1.00  0.00    -0.248 NA
ATOM     55  C   UNL A   1      44.465  26.334  29.196  1.00  0.00     0.031 C 
ATOM     56  C   UNL A   1      44.241  31.397  31.918  1.00  0.00     0.029 A 
ATOM     57  C   UNL A   1      44.535  30.191  31.279  1.00  0.00     0.049 A 
ATOM     58  H   UNL A   1      44.631  28.306  32.189  1.00  0.00     0.167 HD
ATOM     59  C   UNL A   1      44.933  28.601  29.389  1.00  0.00     0.074 A 
ATOM     60  C   UNL A   1      44.903  27.285  30.025  1.00  0.00     0.031 C 
ATOM     61  C   UNL A   1      44.829  29.868  29.892  1.00  0.00     0.037 A 
BRANCH  48  62
ATOM     62  C   UNL A   1      43.067  27.663  34.702  1.00  0.00     0.058 A 
ATOM     63  C   UNL A   1      43.256  27.889  36.082  1.00  0.00     0.135 A 
ATOM     64  C   UNL A   1      43.589  26.443  34.216  1.00  0.00     0.135 A 
ATOM     65  F   UNL A   1      42.819  29.022  36.656  1.00  0.00    -0.206 F 
ATOM     66  C   UNL A   1      43.950  26.996  36.902  1.00  0.00     0.059 A 
ATOM     67  C   UNL A   1      44.237  25.515  35.025  1.00  0.00     0.059 A 
ATOM     68  F   UNL A   1      43.581  26.126  32.916  1.00  0.00    -0.206 F 
ATOM     69  C   UNL A   1      44.443  25.813  36.361  1.00  0.00     0.060 A 
BRANCH  69  70
ATOM     70  S   UNL A   1      45.392  24.689  37.399  1.00  0.00     0.124 S 
ATOM     71  O   UNL A   1      44.868  24.998  38.725  1.00  0.00    -0.237 OA
ATOM     72  O   UNL A   1      45.022  23.389  36.851  1.00  0.00    -0.237 OA
ATOM     73  O   UNL A   1      46.775  25.093  37.158  1.00  0.00    -0.744 OA
ENDBRANCH  69  70
ENDBRANCH  48  62
BRANCH  49  74
ATOM     74  C   UNL A   1      43.238  25.421  26.313  1.00  0.00     0.058 A 
ATOM     75  C   UNL A   1      44.226  25.214  25.330  1.00  0.00     0.135 A 
ATOM     76  C   UNL A   1      42.566  24.268  26.765  1.00  0.00     0.135 A 
ATOM     77  F   UNL A   1      44.924  26.255  24.849  1.00  0.00    -0.206 F 
ATOM     78  C   UNL A   1      44.576  23.936  24.876  1.00  0.00     0.059 A 
ATOM     79  C   UNL A   1      42.898  22.984  26.327  1.00  0.00     0.059 A 
ATOM     80  F   UNL A   1      41.630  24.350  27.723  1.00  0.00    -0.206 F 
ATOM     81  C   UNL A   1      43.925  22.822  25.404  1.00  0.00     0.060 A 
BRANCH  81  82
ATOM     82  S   UNL A   1      44.502  21.162  24.963  1.00  0.00     0.124 S 
ATOM     83  O   UNL A   1      45.809  21.115  25.608  1.00  0.00    -0.237 OA
ATOM     84  O   UNL A   1      43.471  20.313  25.550  1.00  0.00    -0.237 OA
ATOM     85  O   UNL A   1      44.528  21.189  23.503  1.00  0.00    -0.744 OA
ENDBRANCH  81  82
ENDBRANCH  49  74
BRANCH  61  86
ATOM     86  C   UNL A   1      44.886  31.018  28.912  1.00  0.00     0.058 A 
ATOM     87  C   UNL A   1      46.050  31.493  28.279  1.00  0.00     0.135 A 
ATOM     88  C   UNL A   1      43.671  31.599  28.521  1.00  0.00     0.135 A 
ATOM     89  F   UNL A   1      47.245  30.942  28.528  1.00  0.00    -0.206 F 
ATOM     90  C   UNL A   1      46.008  32.524  27.333  1.00  0.00     0.059 A 
ATOM     91  C   UNL A   1      43.601  32.602  27.558  1.00  0.00     0.059 A 
ATOM     92  F   UNL A   1      42.517  31.158  29.048  1.00  0.00    -0.206 F 
ATOM     93  C   UNL A   1      44.776  33.072  26.978  1.00  0.00     0.060 A 
BRANCH  93  94
ATOM     94  S   UNL A   1      44.711  34.374  25.727  1.00  0.00     0.124 S 
ATOM     95  O   UNL A   1      45.985  34.203  25.036  1.00  0.00    -0.237 OA
ATOM     96  O   UNL A   1      43.521  34.018  24.961  1.00  0.00    -0.237 OA
ATOM     97  O   UNL A   1      44.592  35.599  26.515  1.00  0.00    -0.744 OA
ENDBRANCH  93  94
ENDBRANCH  61  86
ENDBRANCH  35  36
ENDBRANCH  27  30
ENDBRANCH  25  26
ENDBRANCH  24  25
ENDBRANCH  23  24
ENDBRANCH   1  23
TORSDOF 19
ENDMDL
