MODEL 1
REMARK VINA RESULT:     -11.5      0.000      0.000
REMARK SMILES Nc1ccc(C(=O)NCCCCCCNC(=O)c2ccc(-c3c4nc(c(-c5c(F)cc(S(=O)(=O)[O-])cc5F)c5ccc([nH]5)c(-c5c(F)cc(S(=O)(=O)[O-])cc5F)c5nc(c(-c6c(F)cc(S(=O)(=O)[O-])cc6F)c6ccc3[nH]6)C=C5)C=C4)cc2)cc1O[C@@H]1CCOC2(CCC2)C1
REMARK SMILES IDX 12 1 11 2 10 3 9 4 8 5 6 6 7 7 5 9 2 10 3 11 85 12 4 13
REMARK SMILES IDX 84 14 1 15 86 18 87 19 88 20 95 21 89 22 91 23 90 24 92 25
REMARK SMILES IDX 94 26 93 27 13 28 14 29 15 30 16 31 17 33 18 34 19 35 83 36
REMARK SMILES IDX 20 37 82 38 21 39 22 40 23 41 76 42 24 43 81 44 75 45 77 46
REMARK SMILES IDX 25 47 80 48 74 49 73 50 26 52 60 53 39 54 59 55 40 56 43 57
REMARK SMILES IDX 58 58 78 59 41 60 42 61 57 63 79 64 44 65 27 66 28 67 37 68
REMARK SMILES IDX 29 69 30 70 36 71 38 72 31 73 32 74 33 75 34 76 35 77 61 78
REMARK SMILES IDX 62 79 71 80 63 81 64 82 70 83 72 84 65 85 66 86 67 87 68 88
REMARK SMILES IDX 69 89 45 90 46 91 55 92 47 93 48 94 54 95 56 96 49 97 50 98
REMARK SMILES IDX 51 99 52 100 53 101
REMARK H PARENT 8 8 1 16 1 17 15 32 77 51 43 62
REMARK Flexibility Score: inf
ROOT
ATOM      1  C   UNL A   1      31.589  28.645  25.538  1.00  0.00     0.002 C 
ENDROOT
BRANCH   1   2
ATOM      2  C   UNL A   1      31.459  28.387  24.031  1.00  0.00     0.002 C 
BRANCH   2   3
ATOM      3  C   UNL A   1      32.668  28.844  23.204  1.00  0.00     0.021 C 
BRANCH   3   4
ATOM      4  C   UNL A   1      33.670  27.719  22.968  1.00  0.00     0.116 C 
BRANCH   4   5
ATOM      5  N   UNL A   1      33.382  27.020  21.735  1.00  0.00    -0.352 N 
ATOM      6  C   UNL A   1      32.925  25.774  21.416  1.00  0.00     0.251 C 
ATOM      7  O   UNL A   1      32.983  25.469  20.221  1.00  0.00    -0.269 OA
ATOM      8  H   UNL A   1      33.557  27.573  20.938  1.00  0.00     0.163 HD
BRANCH   6   9
ATOM      9  C   UNL A   1      32.342  24.794  22.374  1.00  0.00     0.043 A 
ATOM     10  C   UNL A   1      31.274  23.192  24.456  1.00  0.00     0.074 A 
ATOM     11  C   UNL A   1      30.661  24.398  24.055  1.00  0.00     0.030 A 
ATOM     12  C   UNL A   1      32.405  22.739  23.766  1.00  0.00     0.143 A 
ATOM     13  C   UNL A   1      31.193  25.194  23.048  1.00  0.00     0.016 A 
ATOM     14  C   UNL A   1      32.890  23.561  22.727  1.00  0.00     0.062 A 
BRANCH  10  15
ATOM     15  N   UNL A   1      30.657  22.559  25.523  1.00  0.00    -0.396 N 
ATOM     16  H   UNL A   1      30.997  21.692  25.845  1.00  0.00     0.156 HD
ATOM     17  H   UNL A   1      29.878  22.975  25.959  1.00  0.00     0.156 HD
ENDBRANCH  10  15
BRANCH  12  18
ATOM     18  O   UNL A   1      33.232  21.671  23.854  1.00  0.00    -0.488 OA
BRANCH  18  19
ATOM     19  C   UNL A   1      33.863  20.829  24.806  1.00  0.00     0.178 C 
ATOM     20  C   UNL A   1      33.295  20.811  26.201  1.00  0.00     0.074 C 
ATOM     21  C   UNL A   1      35.390  20.838  24.855  1.00  0.00     0.080 C 
ATOM     22  C   UNL A   1      34.028  21.758  27.132  1.00  0.00     0.165 C 
ATOM     23  C   UNL A   1      35.858  22.162  25.421  1.00  0.00     0.072 C 
ATOM     24  O   UNL A   1      34.980  22.628  26.491  1.00  0.00    -0.375 OA
ATOM     25  C   UNL A   1      37.371  22.391  25.764  1.00  0.00     0.036 C 
ATOM     26  C   UNL A   1      36.140  23.145  24.225  1.00  0.00     0.036 C 
ATOM     27  C   UNL A   1      37.243  23.769  25.071  1.00  0.00     0.006 C 
ENDBRANCH  18  19
ENDBRANCH  12  18
ENDBRANCH   6   9
ENDBRANCH   4   5
ENDBRANCH   3   4
ENDBRANCH   2   3
ENDBRANCH   1   2
BRANCH   1  28
ATOM     28  C   UNL A   1      32.450  27.622  26.287  1.00  0.00     0.021 C 
BRANCH  28  29
ATOM     29  C   UNL A   1      33.729  28.207  26.869  1.00  0.00     0.116 C 
BRANCH  29  30
ATOM     30  N   UNL A   1      33.570  29.624  27.156  1.00  0.00    -0.352 N 
ATOM     31  C   UNL A   1      34.395  30.446  27.869  1.00  0.00     0.251 C 
ATOM     32  H   UNL A   1      32.761  30.047  26.787  1.00  0.00     0.163 HD
ATOM     33  O   UNL A   1      33.983  31.540  28.270  1.00  0.00    -0.269 OA
BRANCH  31  34
ATOM     34  C   UNL A   1      35.776  30.018  28.160  1.00  0.00     0.039 A 
ATOM     35  C   UNL A   1      36.741  30.097  27.156  1.00  0.00     0.014 A 
ATOM     36  C   UNL A   1      36.110  29.532  29.430  1.00  0.00     0.014 A 
ATOM     37  C   UNL A   1      38.055  29.726  27.437  1.00  0.00     0.010 A 
ATOM     38  C   UNL A   1      37.435  29.238  29.729  1.00  0.00     0.010 A 
ATOM     39  C   UNL A   1      38.418  29.319  28.732  1.00  0.00    -0.014 A 
BRANCH  39  40
ATOM     40  C   UNL A   1      39.819  28.958  29.059  1.00  0.00     0.031 A 
ATOM     41  C   UNL A   1      40.728  29.974  29.696  1.00  0.00     0.074 A 
ATOM     42  C   UNL A   1      40.283  27.735  28.734  1.00  0.00     0.049 A 
ATOM     43  N   UNL A   1      41.996  29.871  29.998  1.00  0.00    -0.248 NA
ATOM     44  C   UNL A   1      40.144  31.289  30.009  1.00  0.00     0.031 C 
ATOM     45  C   UNL A   1      39.505  26.684  28.071  1.00  0.00     0.029 A 
ATOM     46  N   UNL A   1      41.520  27.170  28.908  1.00  0.00    -0.354 N 
ATOM     47  C   UNL A   1      42.361  31.102  30.529  1.00  0.00     0.074 A 
ATOM     48  C   UNL A   1      41.199  31.958  30.453  1.00  0.00     0.031 C 
ATOM     49  C   UNL A   1      40.278  25.597  27.916  1.00  0.00     0.029 A 
ATOM     50  C   UNL A   1      41.614  25.884  28.428  1.00  0.00     0.049 A 
ATOM     51  H   UNL A   1      42.272  27.641  29.337  1.00  0.00     0.167 HD
ATOM     52  C   UNL A   1      43.550  31.477  31.057  1.00  0.00     0.037 A 
ATOM     53  C   UNL A   1      42.661  25.037  28.396  1.00  0.00     0.037 A 
ATOM     54  C   UNL A   1      44.696  30.609  31.150  1.00  0.00     0.049 A 
ATOM     55  C   UNL A   1      43.976  25.483  28.979  1.00  0.00     0.074 A 
ATOM     56  C   UNL A   1      45.932  30.875  31.713  1.00  0.00     0.029 A 
ATOM     57  N   UNL A   1      44.747  29.308  30.670  1.00  0.00    -0.354 N 
ATOM     58  N   UNL A   1      44.286  26.632  29.532  1.00  0.00    -0.248 NA
ATOM     59  C   UNL A   1      45.082  24.518  28.939  1.00  0.00     0.031 C 
ATOM     60  C   UNL A   1      46.746  29.752  31.528  1.00  0.00     0.029 A 
ATOM     61  C   UNL A   1      45.999  28.767  30.903  1.00  0.00     0.049 A 
ATOM     62  H   UNL A   1      44.002  28.840  30.227  1.00  0.00     0.167 HD
ATOM     63  C   UNL A   1      45.612  26.515  29.934  1.00  0.00     0.074 A 
ATOM     64  C   UNL A   1      46.040  25.180  29.573  1.00  0.00     0.031 C 
ATOM     65  C   UNL A   1      46.404  27.430  30.545  1.00  0.00     0.037 A 
BRANCH  52  66
ATOM     66  C   UNL A   1      43.674  32.879  31.586  1.00  0.00     0.058 A 
ATOM     67  C   UNL A   1      44.081  33.943  30.764  1.00  0.00     0.135 A 
ATOM     68  C   UNL A   1      43.327  33.177  32.914  1.00  0.00     0.135 A 
ATOM     69  F   UNL A   1      44.442  33.714  29.491  1.00  0.00    -0.206 F 
ATOM     70  C   UNL A   1      44.159  35.246  31.245  1.00  0.00     0.059 A 
ATOM     71  C   UNL A   1      43.370  34.477  33.408  1.00  0.00     0.059 A 
ATOM     72  F   UNL A   1      42.934  32.198  33.745  1.00  0.00    -0.206 F 
ATOM     73  C   UNL A   1      43.796  35.505  32.567  1.00  0.00     0.060 A 
BRANCH  73  74
ATOM     74  S   UNL A   1      43.877  37.206  33.165  1.00  0.00     0.124 S 
ATOM     75  O   UNL A   1      43.823  37.956  31.914  1.00  0.00    -0.237 OA
ATOM     76  O   UNL A   1      42.688  37.294  34.007  1.00  0.00    -0.237 OA
ATOM     77  O   UNL A   1      45.150  37.259  33.874  1.00  0.00    -0.744 OA
ENDBRANCH  73  74
ENDBRANCH  52  66
BRANCH  53  78
ATOM     78  C   UNL A   1      42.510  23.683  27.799  1.00  0.00     0.058 A 
ATOM     79  C   UNL A   1      42.333  22.551  28.609  1.00  0.00     0.135 A 
ATOM     80  C   UNL A   1      42.548  23.491  26.409  1.00  0.00     0.135 A 
ATOM     81  F   UNL A   1      42.294  22.681  29.943  1.00  0.00    -0.206 F 
ATOM     82  C   UNL A   1      42.228  21.275  28.065  1.00  0.00     0.059 A 
ATOM     83  C   UNL A   1      42.415  22.229  25.840  1.00  0.00     0.059 A 
ATOM     84  F   UNL A   1      42.695  24.543  25.588  1.00  0.00    -0.206 F 
ATOM     85  C   UNL A   1      42.272  21.125  26.678  1.00  0.00     0.060 A 
BRANCH  85  86
ATOM     86  S   UNL A   1      42.112  19.467  25.980  1.00  0.00     0.124 S 
ATOM     87  O   UNL A   1      42.631  18.641  27.064  1.00  0.00    -0.237 OA
ATOM     88  O   UNL A   1      40.676  19.374  25.736  1.00  0.00    -0.237 OA
ATOM     89  O   UNL A   1      42.941  19.527  24.779  1.00  0.00    -0.744 OA
ENDBRANCH  85  86
ENDBRANCH  53  78
BRANCH  65  90
ATOM     90  C   UNL A   1      47.804  27.007  30.899  1.00  0.00     0.058 A 
ATOM     91  C   UNL A   1      48.097  26.355  32.107  1.00  0.00     0.135 A 
ATOM     92  C   UNL A   1      48.857  27.214  29.993  1.00  0.00     0.135 A 
ATOM     93  F   UNL A   1      47.128  26.139  33.010  1.00  0.00    -0.206 F 
ATOM     94  C   UNL A   1      49.389  25.943  32.414  1.00  0.00     0.059 A 
ATOM     95  C   UNL A   1      50.151  26.783  30.265  1.00  0.00     0.059 A 
ATOM     96  F   UNL A   1      48.629  27.824  28.819  1.00  0.00    -0.206 F 
ATOM     97  C   UNL A   1      50.409  26.159  31.485  1.00  0.00     0.060 A 
BRANCH  97  98
ATOM     98  S   UNL A   1      52.075  25.588  31.883  1.00  0.00     0.124 S 
ATOM     99  O   UNL A   1      52.368  26.356  33.088  1.00  0.00    -0.237 OA
ATOM    100  O   UNL A   1      51.875  24.155  32.077  1.00  0.00    -0.237 OA
ATOM    101  O   UNL A   1      52.851  25.953  30.702  1.00  0.00    -0.744 OA
ENDBRANCH  97  98
ENDBRANCH  65  90
ENDBRANCH  39  40
ENDBRANCH  31  34
ENDBRANCH  29  30
ENDBRANCH  28  29
ENDBRANCH   1  28
TORSDOF 19
ENDMDL
MODEL 2
REMARK VINA RESULT:     -11.3      2.785      9.172
REMARK SMILES Nc1ccc(C(=O)NCCCCCCNC(=O)c2ccc(-c3c4nc(c(-c5c(F)cc(S(=O)(=O)[O-])cc5F)c5ccc([nH]5)c(-c5c(F)cc(S(=O)(=O)[O-])cc5F)c5nc(c(-c6c(F)cc(S(=O)(=O)[O-])cc6F)c6ccc3[nH]6)C=C5)C=C4)cc2)cc1O[C@@H]1CCOC2(CCC2)C1
REMARK SMILES IDX 12 1 11 2 10 3 9 4 8 5 6 6 7 7 5 9 2 10 3 11 85 12 4 13
REMARK SMILES IDX 84 14 1 15 86 18 87 19 88 20 95 21 89 22 91 23 90 24 92 25
REMARK SMILES IDX 94 26 93 27 13 28 14 29 15 30 16 31 17 33 18 34 19 35 83 36
REMARK SMILES IDX 20 37 82 38 21 39 22 40 23 41 76 42 24 43 81 44 75 45 77 46
REMARK SMILES IDX 25 47 80 48 74 49 73 50 26 52 60 53 39 54 59 55 40 56 43 57
REMARK SMILES IDX 58 58 78 59 41 60 42 61 57 63 79 64 44 65 27 66 28 67 37 68
REMARK SMILES IDX 29 69 30 70 36 71 38 72 31 73 32 74 33 75 34 76 35 77 61 78
REMARK SMILES IDX 62 79 71 80 63 81 64 82 70 83 72 84 65 85 66 86 67 87 68 88
REMARK SMILES IDX 69 89 45 90 46 91 55 92 47 93 48 94 54 95 56 96 49 97 50 98
REMARK SMILES IDX 51 99 52 100 53 101
REMARK H PARENT 8 8 1 16 1 17 15 32 77 51 43 62
REMARK Flexibility Score: inf
ROOT
ATOM      1  C   UNL A   1      34.544  23.401  24.592  1.00  0.00     0.002 C 
ENDROOT
BRANCH   1   2
ATOM      2  C   UNL A   1      34.396  24.146  25.925  1.00  0.00     0.002 C 
BRANCH   2   3
ATOM      3  C   UNL A   1      34.019  23.250  27.112  1.00  0.00     0.021 C 
BRANCH   3   4
ATOM      4  C   UNL A   1      33.082  22.115  26.711  1.00  0.00     0.116 C 
BRANCH   4   5
ATOM      5  N   UNL A   1      31.727  22.389  27.135  1.00  0.00    -0.352 N 
ATOM      6  C   UNL A   1      30.737  23.232  26.717  1.00  0.00     0.251 C 
ATOM      7  O   UNL A   1      29.754  23.317  27.460  1.00  0.00    -0.269 OA
ATOM      8  H   UNL A   1      31.454  21.839  27.905  1.00  0.00     0.163 HD
BRANCH   6   9
ATOM      9  C   UNL A   1      30.740  24.008  25.446  1.00  0.00     0.043 A 
ATOM     10  C   UNL A   1      31.092  25.364  22.980  1.00  0.00     0.074 A 
ATOM     11  C   UNL A   1      31.152  23.957  23.073  1.00  0.00     0.030 A 
ATOM     12  C   UNL A   1      30.786  26.109  24.125  1.00  0.00     0.143 A 
ATOM     13  C   UNL A   1      30.999  23.291  24.283  1.00  0.00     0.016 A 
ATOM     14  C   UNL A   1      30.603  25.391  25.325  1.00  0.00     0.062 A 
BRANCH  10  15
ATOM     15  N   UNL A   1      31.339  25.870  21.715  1.00  0.00    -0.396 N 
ATOM     16  H   UNL A   1      31.387  26.843  21.574  1.00  0.00     0.156 HD
ATOM     17  H   UNL A   1      31.467  25.256  20.955  1.00  0.00     0.156 HD
ENDBRANCH  10  15
BRANCH  12  18
ATOM     18  O   UNL A   1      30.642  27.423  24.417  1.00  0.00    -0.488 OA
BRANCH  18  19
ATOM     19  C   UNL A   1      31.104  28.707  24.024  1.00  0.00     0.178 C 
ATOM     20  C   UNL A   1      31.997  28.783  22.814  1.00  0.00     0.074 C 
ATOM     21  C   UNL A   1      31.615  29.640  25.122  1.00  0.00     0.080 C 
ATOM     22  C   UNL A   1      33.468  28.797  23.187  1.00  0.00     0.165 C 
ATOM     23  C   UNL A   1      32.932  29.107  25.647  1.00  0.00     0.072 C 
ATOM     24  O   UNL A   1      33.748  28.543  24.576  1.00  0.00    -0.375 OA
ATOM     25  C   UNL A   1      33.789  29.954  26.651  1.00  0.00     0.036 C 
ATOM     26  C   UNL A   1      32.640  28.201  26.900  1.00  0.00     0.036 C 
ATOM     27  C   UNL A   1      33.979  28.654  27.469  1.00  0.00     0.006 C 
ENDBRANCH  18  19
ENDBRANCH  12  18
ENDBRANCH   6   9
ENDBRANCH   4   5
ENDBRANCH   3   4
ENDBRANCH   2   3
ENDBRANCH   1   2
BRANCH   1  28
ATOM     28  C   UNL A   1      35.967  23.387  24.025  1.00  0.00     0.021 C 
BRANCH  28  29
ATOM     29  C   UNL A   1      37.021  23.889  25.001  1.00  0.00     0.116 C 
BRANCH  29  30
ATOM     30  N   UNL A   1      37.921  22.816  25.394  1.00  0.00    -0.352 N 
ATOM     31  C   UNL A   1      39.108  22.902  26.063  1.00  0.00     0.251 C 
ATOM     32  H   UNL A   1      37.637  21.907  25.144  1.00  0.00     0.163 HD
ATOM     33  O   UNL A   1      39.890  21.944  26.064  1.00  0.00    -0.269 OA
BRANCH  31  34
ATOM     34  C   UNL A   1      39.451  24.144  26.781  1.00  0.00     0.039 A 
ATOM     35  C   UNL A   1      38.960  24.343  28.072  1.00  0.00     0.014 A 
ATOM     36  C   UNL A   1      40.255  25.112  26.170  1.00  0.00     0.014 A 
ATOM     37  C   UNL A   1      39.311  25.501  28.767  1.00  0.00     0.010 A 
ATOM     38  C   UNL A   1      40.666  26.226  26.892  1.00  0.00     0.010 A 
ATOM     39  C   UNL A   1      40.187  26.438  28.193  1.00  0.00    -0.014 A 
BRANCH  39  40
ATOM     40  C   UNL A   1      40.601  27.655  28.934  1.00  0.00     0.031 A 
ATOM     41  C   UNL A   1      41.940  27.698  29.619  1.00  0.00     0.074 A 
ATOM     42  C   UNL A   1      39.750  28.695  29.029  1.00  0.00     0.049 A 
ATOM     43  N   UNL A   1      42.454  28.642  30.365  1.00  0.00    -0.248 NA
ATOM     44  C   UNL A   1      42.804  26.515  29.472  1.00  0.00     0.031 C 
ATOM     45  C   UNL A   1      38.407  28.747  28.445  1.00  0.00     0.029 A 
ATOM     46  N   UNL A   1      39.881  29.906  29.660  1.00  0.00    -0.354 N 
ATOM     47  C   UNL A   1      43.692  28.166  30.778  1.00  0.00     0.074 A 
ATOM     48  C   UNL A   1      43.829  26.827  30.252  1.00  0.00     0.031 C 
ATOM     49  C   UNL A   1      37.850  29.935  28.725  1.00  0.00     0.029 A 
ATOM     50  C   UNL A   1      38.774  30.714  29.543  1.00  0.00     0.049 A 
ATOM     51  H   UNL A   1      40.693  30.172  30.151  1.00  0.00     0.167 HD
ATOM     52  C   UNL A   1      44.641  28.800  31.508  1.00  0.00     0.037 A 
ATOM     53  C   UNL A   1      38.530  31.939  30.047  1.00  0.00     0.037 A 
ATOM     54  C   UNL A   1      44.505  30.144  32.007  1.00  0.00     0.049 A 
ATOM     55  C   UNL A   1      39.597  32.617  30.865  1.00  0.00     0.074 A 
ATOM     56  C   UNL A   1      45.427  30.895  32.714  1.00  0.00     0.029 A 
ATOM     57  N   UNL A   1      43.376  30.937  31.853  1.00  0.00    -0.354 N 
ATOM     58  N   UNL A   1      40.788  32.175  31.194  1.00  0.00    -0.248 NA
ATOM     59  C   UNL A   1      39.292  33.960  31.374  1.00  0.00     0.031 C 
ATOM     60  C   UNL A   1      44.838  32.124  33.030  1.00  0.00     0.029 A 
ATOM     61  C   UNL A   1      43.571  32.160  32.470  1.00  0.00     0.049 A 
ATOM     62  H   UNL A   1      42.558  30.668  31.375  1.00  0.00     0.167 HD
ATOM     63  C   UNL A   1      41.384  33.198  31.923  1.00  0.00     0.074 A 
ATOM     64  C   UNL A   1      40.429  34.286  31.972  1.00  0.00     0.031 C 
ATOM     65  C   UNL A   1      42.611  33.236  32.499  1.00  0.00     0.037 A 
BRANCH  52  66
ATOM     66  C   UNL A   1      45.915  28.056  31.802  1.00  0.00     0.058 A 
ATOM     67  C   UNL A   1      47.024  28.128  30.944  1.00  0.00     0.135 A 
ATOM     68  C   UNL A   1      46.051  27.309  32.984  1.00  0.00     0.135 A 
ATOM     69  F   UNL A   1      46.945  28.812  29.791  1.00  0.00    -0.206 F 
ATOM     70  C   UNL A   1      48.214  27.469  31.237  1.00  0.00     0.059 A 
ATOM     71  C   UNL A   1      47.241  26.667  33.311  1.00  0.00     0.059 A 
ATOM     72  F   UNL A   1      45.021  27.205  33.839  1.00  0.00    -0.206 F 
ATOM     73  C   UNL A   1      48.316  26.746  32.425  1.00  0.00     0.060 A 
BRANCH  73  74
ATOM     74  S   UNL A   1      49.877  25.922  32.802  1.00  0.00     0.124 S 
ATOM     75  O   UNL A   1      50.693  26.308  31.655  1.00  0.00    -0.237 OA
ATOM     76  O   UNL A   1      50.248  26.530  34.076  1.00  0.00    -0.237 OA
ATOM     77  O   UNL A   1      49.512  24.511  32.865  1.00  0.00    -0.744 OA
ENDBRANCH  73  74
ENDBRANCH  52  66
BRANCH  53  78
ATOM     78  C   UNL A   1      37.227  32.608  29.787  1.00  0.00     0.058 A 
ATOM     79  C   UNL A   1      37.114  33.627  28.829  1.00  0.00     0.135 A 
ATOM     80  C   UNL A   1      36.070  32.249  30.496  1.00  0.00     0.135 A 
ATOM     81  F   UNL A   1      38.192  34.009  28.127  1.00  0.00    -0.206 F 
ATOM     82  C   UNL A   1      35.910  34.286  28.603  1.00  0.00     0.059 A 
ATOM     83  C   UNL A   1      34.847  32.872  30.267  1.00  0.00     0.059 A 
ATOM     84  F   UNL A   1      36.117  31.267  31.409  1.00  0.00    -0.206 F 
ATOM     85  C   UNL A   1      34.782  33.901  29.329  1.00  0.00     0.060 A 
BRANCH  85  86
ATOM     86  S   UNL A   1      33.218  34.748  29.013  1.00  0.00     0.124 S 
ATOM     87  O   UNL A   1      32.602  33.868  28.028  1.00  0.00    -0.237 OA
ATOM     88  O   UNL A   1      32.602  34.757  30.337  1.00  0.00    -0.237 OA
ATOM     89  O   UNL A   1      33.639  36.055  28.517  1.00  0.00    -0.744 OA
ENDBRANCH  85  86
ENDBRANCH  53  78
BRANCH  65  90
ATOM     90  C   UNL A   1      43.008  34.505  33.202  1.00  0.00     0.058 A 
ATOM     91  C   UNL A   1      42.807  34.683  34.579  1.00  0.00     0.135 A 
ATOM     92  C   UNL A   1      43.645  35.537  32.493  1.00  0.00     0.135 A 
ATOM     93  F   UNL A   1      42.196  33.731  35.301  1.00  0.00    -0.206 F 
ATOM     94  C   UNL A   1      43.203  35.850  35.226  1.00  0.00     0.059 A 
ATOM     95  C   UNL A   1      44.077  36.699  33.124  1.00  0.00     0.059 A 
ATOM     96  F   UNL A   1      43.872  35.414  31.176  1.00  0.00    -0.206 F 
ATOM     97  C   UNL A   1      43.840  36.851  34.489  1.00  0.00     0.060 A 
BRANCH  97  98
ATOM     98  S   UNL A   1      44.378  38.345  35.349  1.00  0.00     0.124 S 
ATOM     99  O   UNL A   1      45.816  38.324  35.102  1.00  0.00    -0.237 OA
ATOM    100  O   UNL A   1      43.631  39.389  34.656  1.00  0.00    -0.237 OA
ATOM    101  O   UNL A   1      43.974  38.105  36.732  1.00  0.00    -0.744 OA
ENDBRANCH  97  98
ENDBRANCH  65  90
ENDBRANCH  39  40
ENDBRANCH  31  34
ENDBRANCH  29  30
ENDBRANCH  28  29
ENDBRANCH   1  28
TORSDOF 19
ENDMDL
MODEL 3
REMARK VINA RESULT:     -11.2      2.982      4.100
REMARK SMILES Nc1ccc(C(=O)NCCCCCCNC(=O)c2ccc(-c3c4nc(c(-c5c(F)cc(S(=O)(=O)[O-])cc5F)c5ccc([nH]5)c(-c5c(F)cc(S(=O)(=O)[O-])cc5F)c5nc(c(-c6c(F)cc(S(=O)(=O)[O-])cc6F)c6ccc3[nH]6)C=C5)C=C4)cc2)cc1O[C@@H]1CCOC2(CCC2)C1
REMARK SMILES IDX 12 1 11 2 10 3 9 4 8 5 6 6 7 7 5 9 2 10 3 11 85 12 4 13
REMARK SMILES IDX 84 14 1 15 86 18 87 19 88 20 95 21 89 22 91 23 90 24 92 25
REMARK SMILES IDX 94 26 93 27 13 28 14 29 15 30 16 31 17 33 18 34 19 35 83 36
REMARK SMILES IDX 20 37 82 38 21 39 22 40 23 41 76 42 24 43 81 44 75 45 77 46
REMARK SMILES IDX 25 47 80 48 74 49 73 50 26 52 60 53 39 54 59 55 40 56 43 57
REMARK SMILES IDX 58 58 78 59 41 60 42 61 57 63 79 64 44 65 27 66 28 67 37 68
REMARK SMILES IDX 29 69 30 70 36 71 38 72 31 73 32 74 33 75 34 76 35 77 61 78
REMARK SMILES IDX 62 79 71 80 63 81 64 82 70 83 72 84 65 85 66 86 67 87 68 88
REMARK SMILES IDX 69 89 45 90 46 91 55 92 47 93 48 94 54 95 56 96 49 97 50 98
REMARK SMILES IDX 51 99 52 100 53 101
REMARK H PARENT 8 8 1 16 1 17 15 32 77 51 43 62
REMARK Flexibility Score: inf
ROOT
ATOM      1  C   UNL A   1      34.157  31.411  27.929  1.00  0.00     0.002 C 
ENDROOT
BRANCH   1   2
ATOM      2  C   UNL A   1      34.841  30.135  27.423  1.00  0.00     0.002 C 
BRANCH   2   3
ATOM      3  C   UNL A   1      33.980  29.288  26.476  1.00  0.00     0.021 C 
BRANCH   3   4
ATOM      4  C   UNL A   1      32.489  29.549  26.654  1.00  0.00     0.116 C 
BRANCH   4   5
ATOM      5  N   UNL A   1      31.787  28.330  26.989  1.00  0.00    -0.352 N 
ATOM      6  C   UNL A   1      31.310  27.266  26.280  1.00  0.00     0.251 C 
ATOM      7  O   UNL A   1      30.585  26.484  26.904  1.00  0.00    -0.269 OA
ATOM      8  H   UNL A   1      31.611  28.249  27.955  1.00  0.00     0.163 HD
BRANCH   6   9
ATOM      9  C   UNL A   1      31.621  26.965  24.855  1.00  0.00     0.043 A 
ATOM     10  C   UNL A   1      31.867  26.256  22.120  1.00  0.00     0.074 A 
ATOM     11  C   UNL A   1      30.916  27.198  22.563  1.00  0.00     0.030 A 
ATOM     12  C   UNL A   1      32.760  25.702  23.046  1.00  0.00     0.143 A 
ATOM     13  C   UNL A   1      30.779  27.534  23.904  1.00  0.00     0.016 A 
ATOM     14  C   UNL A   1      32.610  26.098  24.392  1.00  0.00     0.062 A 
BRANCH  10  15
ATOM     15  N   UNL A   1      31.820  25.982  20.763  1.00  0.00    -0.396 N 
ATOM     16  H   UNL A   1      32.656  25.869  20.254  1.00  0.00     0.156 HD
ATOM     17  H   UNL A   1      30.951  25.900  20.307  1.00  0.00     0.156 HD
ENDBRANCH  10  15
BRANCH  12  18
ATOM     18  O   UNL A   1      33.773  24.806  23.001  1.00  0.00    -0.488 OA
BRANCH  18  19
ATOM     19  C   UNL A   1      34.026  23.424  22.798  1.00  0.00     0.178 C 
ATOM     20  C   UNL A   1      32.857  22.551  22.424  1.00  0.00     0.074 C 
ATOM     21  C   UNL A   1      34.916  22.712  23.817  1.00  0.00     0.080 C 
ATOM     22  C   UNL A   1      32.246  21.863  23.630  1.00  0.00     0.165 C 
ATOM     23  C   UNL A   1      34.164  22.586  25.125  1.00  0.00     0.072 C 
ATOM     24  O   UNL A   1      32.748  22.305  24.905  1.00  0.00    -0.375 OA
ATOM     25  C   UNL A   1      34.753  21.733  26.303  1.00  0.00     0.036 C 
ATOM     26  C   UNL A   1      34.534  23.815  26.035  1.00  0.00     0.036 C 
ATOM     27  C   UNL A   1      34.367  22.901  27.243  1.00  0.00     0.006 C 
ENDBRANCH  18  19
ENDBRANCH  12  18
ENDBRANCH   6   9
ENDBRANCH   4   5
ENDBRANCH   3   4
ENDBRANCH   2   3
ENDBRANCH   1   2
BRANCH   1  28
ATOM     28  C   UNL A   1      35.063  32.646  27.971  1.00  0.00     0.021 C 
BRANCH  28  29
ATOM     29  C   UNL A   1      36.315  32.459  28.815  1.00  0.00     0.116 C 
BRANCH  29  30
ATOM     30  N   UNL A   1      35.987  31.894  30.115  1.00  0.00    -0.352 N 
ATOM     31  C   UNL A   1      36.572  30.840  30.756  1.00  0.00     0.251 C 
ATOM     32  H   UNL A   1      35.245  32.327  30.595  1.00  0.00     0.163 HD
ATOM     33  O   UNL A   1      35.999  30.300  31.709  1.00  0.00    -0.269 OA
BRANCH  31  34
ATOM     34  C   UNL A   1      37.888  30.351  30.304  1.00  0.00     0.039 A 
ATOM     35  C   UNL A   1      38.121  30.182  28.939  1.00  0.00     0.014 A 
ATOM     36  C   UNL A   1      38.888  30.054  31.237  1.00  0.00     0.014 A 
ATOM     37  C   UNL A   1      39.375  29.753  28.506  1.00  0.00     0.010 A 
ATOM     38  C   UNL A   1      40.159  29.702  30.799  1.00  0.00     0.010 A 
ATOM     39  C   UNL A   1      40.411  29.535  29.429  1.00  0.00    -0.014 A 
BRANCH  39  40
ATOM     40  C   UNL A   1      41.762  29.116  28.982  1.00  0.00     0.031 A 
ATOM     41  C   UNL A   1      42.879  30.122  28.919  1.00  0.00     0.074 A 
ATOM     42  C   UNL A   1      41.966  27.844  28.587  1.00  0.00     0.049 A 
ATOM     43  N   UNL A   1      44.107  29.966  28.497  1.00  0.00    -0.248 NA
ATOM     44  C   UNL A   1      42.568  31.492  29.360  1.00  0.00     0.031 C 
ATOM     45  C   UNL A   1      40.945  26.792  28.561  1.00  0.00     0.029 A 
ATOM     46  N   UNL A   1      43.094  27.219  28.121  1.00  0.00    -0.354 N 
ATOM     47  C   UNL A   1      44.710  31.212  28.616  1.00  0.00     0.074 A 
ATOM     48  C   UNL A   1      43.700  32.129  29.092  1.00  0.00     0.031 C 
ATOM     49  C   UNL A   1      41.500  25.650  28.126  1.00  0.00     0.029 A 
ATOM     50  C   UNL A   1      42.902  25.894  27.803  1.00  0.00     0.049 A 
ATOM     51  H   UNL A   1      43.961  27.676  28.025  1.00  0.00     0.167 HD
ATOM     52  C   UNL A   1      45.998  31.553  28.376  1.00  0.00     0.037 A 
ATOM     53  C   UNL A   1      43.757  24.985  27.297  1.00  0.00     0.037 A 
ATOM     54  C   UNL A   1      47.004  30.627  27.924  1.00  0.00     0.049 A 
ATOM     55  C   UNL A   1      45.181  25.395  27.027  1.00  0.00     0.074 A 
ATOM     56  C   UNL A   1      48.349  30.861  27.699  1.00  0.00     0.029 A 
ATOM     57  N   UNL A   1      46.776  29.290  27.630  1.00  0.00    -0.354 N 
ATOM     58  N   UNL A   1      45.750  26.563  27.204  1.00  0.00    -0.248 NA
ATOM     59  C   UNL A   1      46.080  24.362  26.497  1.00  0.00     0.031 C 
ATOM     60  C   UNL A   1      48.924  29.678  27.221  1.00  0.00     0.029 A 
ATOM     61  C   UNL A   1      47.950  28.693  27.203  1.00  0.00     0.049 A 
ATOM     62  H   UNL A   1      45.906  28.835  27.711  1.00  0.00     0.167 HD
ATOM     63  C   UNL A   1      47.081  26.398  26.835  1.00  0.00     0.074 A 
ATOM     64  C   UNL A   1      47.234  25.013  26.440  1.00  0.00     0.031 C 
ATOM     65  C   UNL A   1      48.085  27.309  26.824  1.00  0.00     0.037 A 
BRANCH  52  66
ATOM     66  C   UNL A   1      46.400  32.985  28.606  1.00  0.00     0.058 A 
ATOM     67  C   UNL A   1      46.952  33.407  29.827  1.00  0.00     0.135 A 
ATOM     68  C   UNL A   1      46.288  33.934  27.577  1.00  0.00     0.135 A 
ATOM     69  F   UNL A   1      47.067  32.547  30.852  1.00  0.00    -0.206 F 
ATOM     70  C   UNL A   1      47.358  34.723  30.026  1.00  0.00     0.059 A 
ATOM     71  C   UNL A   1      46.715  35.248  27.744  1.00  0.00     0.059 A 
ATOM     72  F   UNL A   1      45.765  33.586  26.391  1.00  0.00    -0.206 F 
ATOM     73  C   UNL A   1      47.241  35.635  28.977  1.00  0.00     0.060 A 
BRANCH  73  74
ATOM     74  S   UNL A   1      47.799  37.331  29.244  1.00  0.00     0.124 S 
ATOM     75  O   UNL A   1      49.165  37.117  29.711  1.00  0.00    -0.237 OA
ATOM     76  O   UNL A   1      47.670  37.913  27.911  1.00  0.00    -0.237 OA
ATOM     77  O   UNL A   1      46.868  37.844  30.243  1.00  0.00    -0.744 OA
ENDBRANCH  73  74
ENDBRANCH  52  66
BRANCH  53  78
ATOM     78  C   UNL A   1      43.296  23.598  27.020  1.00  0.00     0.058 A 
ATOM     79  C   UNL A   1      43.124  22.671  28.058  1.00  0.00     0.135 A 
ATOM     80  C   UNL A   1      43.026  23.168  25.711  1.00  0.00     0.135 A 
ATOM     81  F   UNL A   1      43.372  23.031  29.326  1.00  0.00    -0.206 F 
ATOM     82  C   UNL A   1      42.729  21.361  27.809  1.00  0.00     0.059 A 
ATOM     83  C   UNL A   1      42.601  21.872  25.438  1.00  0.00     0.059 A 
ATOM     84  F   UNL A   1      43.156  24.020  24.682  1.00  0.00    -0.206 F 
ATOM     85  C   UNL A   1      42.472  20.971  26.493  1.00  0.00     0.060 A 
BRANCH  85  86
ATOM     86  S   UNL A   1      41.939  19.274  26.181  1.00  0.00     0.124 S 
ATOM     87  O   UNL A   1      42.730  18.928  25.008  1.00  0.00    -0.237 OA
ATOM     88  O   UNL A   1      42.309  18.603  27.424  1.00  0.00    -0.237 OA
ATOM     89  O   UNL A   1      40.502  19.410  25.957  1.00  0.00    -0.744 OA
ENDBRANCH  85  86
ENDBRANCH  53  78
BRANCH  65  90
ATOM     90  C   UNL A   1      49.449  26.831  26.407  1.00  0.00     0.058 A 
ATOM     91  C   UNL A   1      50.297  26.150  27.294  1.00  0.00     0.135 A 
ATOM     92  C   UNL A   1      49.890  27.013  25.086  1.00  0.00     0.135 A 
ATOM     93  F   UNL A   1      49.927  25.957  28.569  1.00  0.00    -0.206 F 
ATOM     94  C   UNL A   1      51.546  25.687  26.892  1.00  0.00     0.059 A 
ATOM     95  C   UNL A   1      51.121  26.531  24.653  1.00  0.00     0.059 A 
ATOM     96  F   UNL A   1      49.113  27.647  24.194  1.00  0.00    -0.206 F 
ATOM     97  C   UNL A   1      51.948  25.879  25.568  1.00  0.00     0.060 A 
BRANCH  97  98
ATOM     98  S   UNL A   1      53.557  25.243  25.053  1.00  0.00     0.124 S 
ATOM     99  O   UNL A   1      53.571  25.592  23.637  1.00  0.00    -0.237 OA
ATOM    100  O   UNL A   1      54.475  25.996  25.901  1.00  0.00    -0.237 OA
ATOM    101  O   UNL A   1      53.468  23.816  25.348  1.00  0.00    -0.744 OA
ENDBRANCH  97  98
ENDBRANCH  65  90
ENDBRANCH  39  40
ENDBRANCH  31  34
ENDBRANCH  29  30
ENDBRANCH  28  29
ENDBRANCH   1  28
TORSDOF 19
ENDMDL
