MODEL 1
REMARK VINA RESULT:     -11.4      0.000      0.000
REMARK SMILES CC(C)CCc1cc2c(cc1Cl)C=C(C(=O)NCCCCCCNC(=O)c1ccc(-c3c4nc(c(-c5c(F)cc(S(=O)(=O)[O-])cc5F)c5ccc([nH]5)c(-c5c(F)cc(S(=O)(=O)[O-])cc5F)c5nc(c(-c6c(F)cc(S(=O)(=O)[O-])cc6F)c6ccc3[nH]6)C=C5)C=C4)cc1)[C@H](C(F)(F)F)O2
REMARK SMILES IDX 20 1 19 2 18 3 17 4 15 5 16 6 14 8 6 9 7 10 11 11 8 12 10 13
REMARK SMILES IDX 12 14 9 15 98 16 13 17 93 18 5 19 4 20 2 21 1 22 3 23 94 24
REMARK SMILES IDX 95 25 96 26 97 27 21 28 22 29 23 30 24 31 25 32 26 34 27 35
REMARK SMILES IDX 28 36 92 37 29 38 91 39 30 40 31 41 32 42 85 43 33 44 90 45
REMARK SMILES IDX 84 46 86 47 34 48 89 49 83 50 82 51 35 53 69 54 48 55 68 56
REMARK SMILES IDX 49 57 52 58 67 59 87 60 50 61 51 62 66 64 88 65 53 66 36 67
REMARK SMILES IDX 37 68 46 69 38 70 39 71 45 72 47 73 40 74 41 75 42 76 43 77
REMARK SMILES IDX 44 78 70 79 71 80 80 81 72 82 73 83 79 84 81 85 74 86 75 87
REMARK SMILES IDX 76 88 77 89 78 90 54 91 55 92 64 93 56 94 57 95 63 96 65 97
REMARK SMILES IDX 58 98 59 99 60 100 61 101 62 102
REMARK H PARENT 17 7 24 33 86 52 52 63
REMARK Flexibility Score: inf
ROOT
ATOM      1  C   UNL A   1      34.930  29.723  27.311  1.00  0.00     0.002 C 
ENDROOT
BRANCH   1   2
ATOM      2  C   UNL A   1      33.602  28.980  27.142  1.00  0.00     0.021 C 
BRANCH   2   3
ATOM      3  C   UNL A   1      32.693  29.561  26.060  1.00  0.00     0.116 C 
BRANCH   3   4
ATOM      4  N   UNL A   1      33.287  29.451  24.736  1.00  0.00    -0.352 N 
ATOM      5  C   UNL A   1      33.416  28.506  23.775  1.00  0.00     0.251 C 
ATOM      6  O   UNL A   1      33.953  28.885  22.729  1.00  0.00    -0.270 OA
ATOM      7  H   UNL A   1      33.713  30.297  24.466  1.00  0.00     0.163 HD
BRANCH   5   8
ATOM      8  C   UNL A   1      32.971  27.084  23.895  1.00  0.00     0.067 C 
ATOM      9  C   UNL A   1      32.624  22.152  24.987  1.00  0.00    -0.026 A 
ATOM     10  C   UNL A   1      31.868  23.078  24.265  1.00  0.00     0.052 A 
ATOM     11  C   UNL A   1      33.745  22.644  25.682  1.00  0.00     0.045 A 
ATOM     12  C   UNL A   1      32.272  24.401  24.135  1.00  0.00     0.128 A 
ATOM     13  C   UNL A   1      34.121  23.997  25.596  1.00  0.00     0.032 A 
ATOM     14  Cl  UNL A   1      34.719  21.610  26.670  1.00  0.00    -0.084 Cl
ATOM     15  C   UNL A   1      33.393  24.880  24.796  1.00  0.00     0.019 A 
ATOM     16  O   UNL A   1      31.530  25.137  23.268  1.00  0.00    -0.475 OA
ATOM     17  C   UNL A   1      33.781  26.272  24.604  1.00  0.00     0.025 C 
ATOM     18  C   UNL A   1      31.674  26.573  23.331  1.00  0.00     0.314 C 
BRANCH   9  19
ATOM     19  C   UNL A   1      32.257  20.680  24.991  1.00  0.00     0.037 C 
BRANCH  19  20
ATOM     20  C   UNL A   1      32.785  19.796  23.839  1.00  0.00     0.008 C 
BRANCH  20  21
ATOM     21  C   UNL A   1      33.215  18.356  24.214  1.00  0.00    -0.017 C 
ATOM     22  C   UNL A   1      32.930  17.348  23.105  1.00  0.00     0.007 C 
ATOM     23  C   UNL A   1      34.703  18.343  24.578  1.00  0.00     0.007 C 
ENDBRANCH  20  21
ENDBRANCH  19  20
ENDBRANCH   9  19
BRANCH  18  24
ATOM     24  C   UNL A   1      30.425  27.147  24.015  1.00  0.00     0.429 C 
ATOM     25  F   UNL A   1      29.312  26.418  23.777  1.00  0.00    -0.167 F 
ATOM     26  F   UNL A   1      30.596  27.178  25.359  1.00  0.00    -0.167 F 
ATOM     27  F   UNL A   1      30.153  28.411  23.612  1.00  0.00    -0.167 F 
ENDBRANCH  18  24
ENDBRANCH   5   8
ENDBRANCH   3   4
ENDBRANCH   2   3
ENDBRANCH   1   2
BRANCH   1  28
ATOM     28  C   UNL A   1      34.882  30.957  28.219  1.00  0.00     0.002 C 
BRANCH  28  29
ATOM     29  C   UNL A   1      34.389  32.244  27.555  1.00  0.00     0.021 C 
BRANCH  29  30
ATOM     30  C   UNL A   1      32.966  32.651  27.921  1.00  0.00     0.116 C 
BRANCH  30  31
ATOM     31  N   UNL A   1      32.802  34.094  27.999  1.00  0.00    -0.352 N 
ATOM     32  C   UNL A   1      33.458  34.997  28.804  1.00  0.00     0.251 C 
ATOM     33  H   UNL A   1      32.129  34.478  27.392  1.00  0.00     0.163 HD
ATOM     34  O   UNL A   1      33.087  36.162  28.856  1.00  0.00    -0.269 OA
BRANCH  32  35
ATOM     35  C   UNL A   1      34.594  34.533  29.631  1.00  0.00     0.039 A 
ATOM     36  C   UNL A   1      35.906  34.704  29.185  1.00  0.00     0.014 A 
ATOM     37  C   UNL A   1      34.338  33.889  30.844  1.00  0.00     0.014 A 
ATOM     38  C   UNL A   1      36.949  34.090  29.870  1.00  0.00     0.010 A 
ATOM     39  C   UNL A   1      35.398  33.341  31.572  1.00  0.00     0.010 A 
ATOM     40  C   UNL A   1      36.707  33.397  31.068  1.00  0.00    -0.014 A 
BRANCH  40  41
ATOM     41  C   UNL A   1      37.837  32.733  31.767  1.00  0.00     0.031 A 
ATOM     42  C   UNL A   1      38.272  33.189  33.135  1.00  0.00     0.074 A 
ATOM     43  C   UNL A   1      38.431  31.670  31.191  1.00  0.00     0.049 A 
ATOM     44  N   UNL A   1      39.222  32.713  33.899  1.00  0.00    -0.248 NA
ATOM     45  C   UNL A   1      37.552  34.331  33.722  1.00  0.00     0.031 C 
ATOM     46  C   UNL A   1      38.087  31.126  29.875  1.00  0.00     0.029 A 
ATOM     47  N   UNL A   1      39.425  30.839  31.643  1.00  0.00    -0.354 N 
ATOM     48  C   UNL A   1      39.225  33.500  35.045  1.00  0.00     0.074 A 
ATOM     49  C   UNL A   1      38.200  34.506  34.866  1.00  0.00     0.031 C 
ATOM     50  C   UNL A   1      38.813  30.021  29.651  1.00  0.00     0.029 A 
ATOM     51  C   UNL A   1      39.720  29.814  30.776  1.00  0.00     0.049 A 
ATOM     52  H   UNL A   1      39.883  30.966  32.505  1.00  0.00     0.167 HD
ATOM     53  C   UNL A   1      40.000  33.385  36.151  1.00  0.00     0.037 A 
ATOM     54  C   UNL A   1      40.625  28.821  30.869  1.00  0.00     0.037 A 
ATOM     55  C   UNL A   1      41.004  32.368  36.331  1.00  0.00     0.049 A 
ATOM     56  C   UNL A   1      41.501  28.741  32.085  1.00  0.00     0.074 A 
ATOM     57  C   UNL A   1      41.832  32.161  37.422  1.00  0.00     0.029 A 
ATOM     58  N   UNL A   1      41.316  31.385  35.404  1.00  0.00    -0.354 N 
ATOM     59  N   UNL A   1      41.493  29.501  33.155  1.00  0.00    -0.248 NA
ATOM     60  C   UNL A   1      42.518  27.682  32.103  1.00  0.00     0.031 C 
ATOM     61  C   UNL A   1      42.669  31.076  37.138  1.00  0.00     0.029 A 
ATOM     62  C   UNL A   1      42.335  30.581  35.888  1.00  0.00     0.049 A 
ATOM     63  H   UNL A   1      40.877  31.275  34.529  1.00  0.00     0.167 HD
ATOM     64  C   UNL A   1      42.500  29.007  33.976  1.00  0.00     0.074 A 
ATOM     65  C   UNL A   1      43.082  27.872  33.288  1.00  0.00     0.031 C 
ATOM     66  C   UNL A   1      42.909  29.459  35.187  1.00  0.00     0.037 A 
BRANCH  53  67
ATOM     67  C   UNL A   1      39.801  34.388  37.253  1.00  0.00     0.058 A 
ATOM     68  C   UNL A   1      39.079  34.072  38.415  1.00  0.00     0.135 A 
ATOM     69  C   UNL A   1      40.384  35.664  37.172  1.00  0.00     0.135 A 
ATOM     70  F   UNL A   1      38.488  32.872  38.537  1.00  0.00    -0.206 F 
ATOM     71  C   UNL A   1      38.924  34.990  39.447  1.00  0.00     0.059 A 
ATOM     72  C   UNL A   1      40.260  36.591  38.203  1.00  0.00     0.059 A 
ATOM     73  F   UNL A   1      41.085  36.019  36.084  1.00  0.00    -0.206 F 
ATOM     74  C   UNL A   1      39.518  36.249  39.332  1.00  0.00     0.060 A 
BRANCH  74  75
ATOM     75  S   UNL A   1      39.309  37.425  40.686  1.00  0.00     0.124 S 
ATOM     76  O   UNL A   1      38.431  38.418  40.075  1.00  0.00    -0.237 OA
ATOM     77  O   UNL A   1      38.704  36.600  41.726  1.00  0.00    -0.237 OA
ATOM     78  O   UNL A   1      40.670  37.876  40.960  1.00  0.00    -0.744 OA
ENDBRANCH  74  75
ENDBRANCH  53  67
BRANCH  54  79
ATOM     79  C   UNL A   1      40.739  27.828  29.769  1.00  0.00     0.058 A 
ATOM     80  C   UNL A   1      39.798  26.799  29.628  1.00  0.00     0.135 A 
ATOM     81  C   UNL A   1      41.760  27.919  28.810  1.00  0.00     0.135 A 
ATOM     82  F   UNL A   1      38.808  26.668  30.525  1.00  0.00    -0.206 F 
ATOM     83  C   UNL A   1      39.862  25.894  28.574  1.00  0.00     0.059 A 
ATOM     84  C   UNL A   1      41.831  27.042  27.734  1.00  0.00     0.059 A 
ATOM     85  F   UNL A   1      42.677  28.896  28.895  1.00  0.00    -0.206 F 
ATOM     86  C   UNL A   1      40.879  26.030  27.626  1.00  0.00     0.060 A 
BRANCH  86  87
ATOM     87  S   UNL A   1      40.907  24.899  26.220  1.00  0.00     0.124 S 
ATOM     88  O   UNL A   1      41.355  25.777  25.145  1.00  0.00    -0.237 OA
ATOM     89  O   UNL A   1      41.863  23.887  26.659  1.00  0.00    -0.237 OA
ATOM     90  O   UNL A   1      39.523  24.443  26.128  1.00  0.00    -0.744 OA
ENDBRANCH  86  87
ENDBRANCH  54  79
BRANCH  66  91
ATOM     91  C   UNL A   1      44.038  28.727  35.851  1.00  0.00     0.058 A 
ATOM     92  C   UNL A   1      45.372  29.128  35.675  1.00  0.00     0.135 A 
ATOM     93  C   UNL A   1      43.783  27.653  36.719  1.00  0.00     0.135 A 
ATOM     94  F   UNL A   1      45.668  30.143  34.848  1.00  0.00    -0.206 F 
ATOM     95  C   UNL A   1      46.415  28.481  36.328  1.00  0.00     0.059 A 
ATOM     96  C   UNL A   1      44.809  27.007  37.401  1.00  0.00     0.059 A 
ATOM     97  F   UNL A   1      42.524  27.237  36.927  1.00  0.00    -0.206 F 
ATOM     98  C   UNL A   1      46.124  27.424  37.193  1.00  0.00     0.060 A 
BRANCH  98  99
ATOM     99  S   UNL A   1      47.485  26.624  38.068  1.00  0.00     0.124 S 
ATOM    100  O   UNL A   1      47.662  25.406  37.284  1.00  0.00    -0.237 OA
ATOM    101  O   UNL A   1      48.553  27.612  37.954  1.00  0.00    -0.237 OA
ATOM    102  O   UNL A   1      46.957  26.433  39.415  1.00  0.00    -0.744 OA
ENDBRANCH  98  99
ENDBRANCH  66  91
ENDBRANCH  40  41
ENDBRANCH  32  35
ENDBRANCH  30  31
ENDBRANCH  29  30
ENDBRANCH  28  29
ENDBRANCH   1  28
TORSDOF 20
ENDMDL
MODEL 2
REMARK VINA RESULT:     -11.4      6.025      8.275
REMARK SMILES CC(C)CCc1cc2c(cc1Cl)C=C(C(=O)NCCCCCCNC(=O)c1ccc(-c3c4nc(c(-c5c(F)cc(S(=O)(=O)[O-])cc5F)c5ccc([nH]5)c(-c5c(F)cc(S(=O)(=O)[O-])cc5F)c5nc(c(-c6c(F)cc(S(=O)(=O)[O-])cc6F)c6ccc3[nH]6)C=C5)C=C4)cc1)[C@H](C(F)(F)F)O2
REMARK SMILES IDX 20 1 19 2 18 3 17 4 15 5 16 6 14 8 6 9 7 10 11 11 8 12 10 13
REMARK SMILES IDX 12 14 9 15 98 16 13 17 93 18 5 19 4 20 2 21 1 22 3 23 94 24
REMARK SMILES IDX 95 25 96 26 97 27 21 28 22 29 23 30 24 31 25 32 26 34 27 35
REMARK SMILES IDX 28 36 92 37 29 38 91 39 30 40 31 41 32 42 85 43 33 44 90 45
REMARK SMILES IDX 84 46 86 47 34 48 89 49 83 50 82 51 35 53 69 54 48 55 68 56
REMARK SMILES IDX 49 57 52 58 67 59 87 60 50 61 51 62 66 64 88 65 53 66 36 67
REMARK SMILES IDX 37 68 46 69 38 70 39 71 45 72 47 73 40 74 41 75 42 76 43 77
REMARK SMILES IDX 44 78 70 79 71 80 80 81 72 82 73 83 79 84 81 85 74 86 75 87
REMARK SMILES IDX 76 88 77 89 78 90 54 91 55 92 64 93 56 94 57 95 63 96 65 97
REMARK SMILES IDX 58 98 59 99 60 100 61 101 62 102
REMARK H PARENT 17 7 24 33 86 52 52 63
REMARK Flexibility Score: inf
ROOT
ATOM      1  C   UNL A   1      33.102  30.947  27.156  1.00  0.00     0.002 C 
ENDROOT
BRANCH   1   2
ATOM      2  C   UNL A   1      32.928  29.427  27.221  1.00  0.00     0.021 C 
BRANCH   2   3
ATOM      3  C   UNL A   1      33.978  28.643  26.436  1.00  0.00     0.116 C 
BRANCH   3   4
ATOM      4  N   UNL A   1      33.933  28.948  25.014  1.00  0.00    -0.352 N 
ATOM      5  C   UNL A   1      33.565  28.323  23.870  1.00  0.00     0.251 C 
ATOM      6  O   UNL A   1      33.625  29.014  22.847  1.00  0.00    -0.270 OA
ATOM      7  H   UNL A   1      34.262  29.858  24.834  1.00  0.00     0.163 HD
BRANCH   5   8
ATOM      8  C   UNL A   1      33.111  26.903  23.768  1.00  0.00     0.067 C 
ATOM      9  C   UNL A   1      32.870  21.846  23.721  1.00  0.00    -0.026 A 
ATOM     10  C   UNL A   1      31.986  22.897  23.469  1.00  0.00     0.052 A 
ATOM     11  C   UNL A   1      34.155  22.187  24.183  1.00  0.00     0.045 A 
ATOM     12  C   UNL A   1      32.394  24.223  23.550  1.00  0.00     0.128 A 
ATOM     13  C   UNL A   1      34.549  23.530  24.320  1.00  0.00     0.032 A 
ATOM     14  Cl  UNL A   1      35.315  20.972  24.600  1.00  0.00    -0.084 Cl
ATOM     15  C   UNL A   1      33.669  24.559  23.977  1.00  0.00     0.019 A 
ATOM     16  O   UNL A   1      31.477  25.124  23.113  1.00  0.00    -0.475 OA
ATOM     17  C   UNL A   1      34.047  25.966  24.020  1.00  0.00     0.025 C 
ATOM     18  C   UNL A   1      31.691  26.507  23.471  1.00  0.00     0.314 C 
BRANCH   9  19
ATOM     19  C   UNL A   1      32.458  20.406  23.478  1.00  0.00     0.037 C 
BRANCH  19  20
ATOM     20  C   UNL A   1      32.432  19.444  24.687  1.00  0.00     0.008 C 
BRANCH  20  21
ATOM     21  C   UNL A   1      32.452  17.929  24.365  1.00  0.00    -0.017 C 
ATOM     22  C   UNL A   1      33.491  17.564  23.309  1.00  0.00     0.007 C 
ATOM     23  C   UNL A   1      32.695  17.133  25.652  1.00  0.00     0.007 C 
ENDBRANCH  20  21
ENDBRANCH  19  20
ENDBRANCH   9  19
BRANCH  18  24
ATOM     24  C   UNL A   1      30.695  26.871  24.581  1.00  0.00     0.429 C 
ATOM     25  F   UNL A   1      31.004  26.311  25.771  1.00  0.00    -0.167 F 
ATOM     26  F   UNL A   1      30.671  28.213  24.772  1.00  0.00    -0.167 F 
ATOM     27  F   UNL A   1      29.431  26.483  24.288  1.00  0.00    -0.167 F 
ENDBRANCH  18  24
ENDBRANCH   5   8
ENDBRANCH   3   4
ENDBRANCH   2   3
ENDBRANCH   1   2
BRANCH   1  28
ATOM     28  C   UNL A   1      33.860  31.572  28.332  1.00  0.00     0.002 C 
BRANCH  28  29
ATOM     29  C   UNL A   1      35.231  32.162  27.993  1.00  0.00     0.021 C 
BRANCH  29  30
ATOM     30  C   UNL A   1      36.118  32.461  29.196  1.00  0.00     0.116 C 
BRANCH  30  31
ATOM     31  N   UNL A   1      35.871  31.557  30.309  1.00  0.00    -0.352 N 
ATOM     32  C   UNL A   1      36.657  30.529  30.778  1.00  0.00     0.251 C 
ATOM     33  H   UNL A   1      35.025  31.699  30.792  1.00  0.00     0.163 HD
ATOM     34  O   UNL A   1      36.227  29.761  31.629  1.00  0.00    -0.269 OA
BRANCH  32  35
ATOM     35  C   UNL A   1      38.014  30.345  30.217  1.00  0.00     0.039 A 
ATOM     36  C   UNL A   1      38.184  30.069  28.859  1.00  0.00     0.014 A 
ATOM     37  C   UNL A   1      39.119  30.413  31.069  1.00  0.00     0.014 A 
ATOM     38  C   UNL A   1      39.438  29.703  28.385  1.00  0.00     0.010 A 
ATOM     39  C   UNL A   1      40.392  30.121  30.571  1.00  0.00     0.010 A 
ATOM     40  C   UNL A   1      40.556  29.719  29.236  1.00  0.00    -0.014 A 
BRANCH  40  41
ATOM     41  C   UNL A   1      41.881  29.302  28.708  1.00  0.00     0.031 A 
ATOM     42  C   UNL A   1      43.036  30.267  28.675  1.00  0.00     0.074 A 
ATOM     43  C   UNL A   1      42.058  28.024  28.316  1.00  0.00     0.049 A 
ATOM     44  N   UNL A   1      44.265  30.069  28.269  1.00  0.00    -0.248 NA
ATOM     45  C   UNL A   1      42.782  31.635  29.156  1.00  0.00     0.031 C 
ATOM     46  C   UNL A   1      41.018  26.994  28.316  1.00  0.00     0.029 A 
ATOM     47  N   UNL A   1      43.177  27.367  27.871  1.00  0.00    -0.354 N 
ATOM     48  C   UNL A   1      44.924  31.282  28.430  1.00  0.00     0.074 A 
ATOM     49  C   UNL A   1      43.952  32.223  28.945  1.00  0.00     0.031 C 
ATOM     50  C   UNL A   1      41.558  25.822  27.948  1.00  0.00     0.029 A 
ATOM     51  C   UNL A   1      42.965  26.030  27.625  1.00  0.00     0.049 A 
ATOM     52  H   UNL A   1      44.046  27.809  27.740  1.00  0.00     0.167 HD
ATOM     53  C   UNL A   1      46.223  31.580  28.185  1.00  0.00     0.037 A 
ATOM     54  C   UNL A   1      43.807  25.078  27.179  1.00  0.00     0.037 A 
ATOM     55  C   UNL A   1      47.190  30.633  27.692  1.00  0.00     0.049 A 
ATOM     56  C   UNL A   1      45.231  25.444  26.875  1.00  0.00     0.074 A 
ATOM     57  C   UNL A   1      48.534  30.837  27.426  1.00  0.00     0.029 A 
ATOM     58  N   UNL A   1      46.923  29.305  27.396  1.00  0.00    -0.354 N 
ATOM     59  N   UNL A   1      45.833  26.601  27.027  1.00  0.00    -0.248 NA
ATOM     60  C   UNL A   1      46.086  24.385  26.326  1.00  0.00     0.031 C 
ATOM     61  C   UNL A   1      49.069  29.641  26.933  1.00  0.00     0.029 A 
ATOM     62  C   UNL A   1      48.070  28.682  26.932  1.00  0.00     0.049 A 
ATOM     63  H   UNL A   1      46.046  28.869  27.501  1.00  0.00     0.167 HD
ATOM     64  C   UNL A   1      47.140  26.405  26.597  1.00  0.00     0.074 A 
ATOM     65  C   UNL A   1      47.246  25.016  26.199  1.00  0.00     0.031 C 
ATOM     66  C   UNL A   1      48.157  27.300  26.532  1.00  0.00     0.037 A 
BRANCH  53  67
ATOM     67  C   UNL A   1      46.678  32.991  28.439  1.00  0.00     0.058 A 
ATOM     68  C   UNL A   1      46.605  33.978  27.443  1.00  0.00     0.135 A 
ATOM     69  C   UNL A   1      47.144  33.374  29.708  1.00  0.00     0.135 A 
ATOM     70  F   UNL A   1      46.184  33.662  26.208  1.00  0.00    -0.206 F 
ATOM     71  C   UNL A   1      46.996  35.289  27.690  1.00  0.00     0.059 A 
ATOM     72  C   UNL A   1      47.519  34.687  29.983  1.00  0.00     0.059 A 
ATOM     73  F   UNL A   1      47.233  32.471  30.696  1.00  0.00    -0.206 F 
ATOM     74  C   UNL A   1      47.453  35.634  28.964  1.00  0.00     0.060 A 
BRANCH  74  75
ATOM     75  S   UNL A   1      47.951  37.344  29.264  1.00  0.00     0.124 S 
ATOM     76  O   UNL A   1      46.885  38.079  28.590  1.00  0.00    -0.237 OA
ATOM     77  O   UNL A   1      47.947  37.419  30.721  1.00  0.00    -0.237 OA
ATOM     78  O   UNL A   1      49.266  37.432  28.637  1.00  0.00    -0.744 OA
ENDBRANCH  74  75
ENDBRANCH  53  67
BRANCH  54  79
ATOM     79  C   UNL A   1      43.312  23.689  26.997  1.00  0.00     0.058 A 
ATOM     80  C   UNL A   1      42.864  23.243  25.747  1.00  0.00     0.135 A 
ATOM     81  C   UNL A   1      43.327  22.768  28.056  1.00  0.00     0.135 A 
ATOM     82  F   UNL A   1      42.826  24.090  24.706  1.00  0.00    -0.206 F 
ATOM     83  C   UNL A   1      42.448  21.931  25.549  1.00  0.00     0.059 A 
ATOM     84  C   UNL A   1      42.939  21.445  27.878  1.00  0.00     0.059 A 
ATOM     85  F   UNL A   1      43.760  23.145  29.269  1.00  0.00    -0.206 F 
ATOM     86  C   UNL A   1      42.497  21.036  26.621  1.00  0.00     0.060 A 
BRANCH  86  87
ATOM     87  S   UNL A   1      42.029  19.317  26.334  1.00  0.00     0.124 S 
ATOM     88  O   UNL A   1      40.650  19.460  25.880  1.00  0.00    -0.237 OA
ATOM     89  O   UNL A   1      42.995  18.900  25.323  1.00  0.00    -0.237 OA
ATOM     90  O   UNL A   1      42.201  18.698  27.646  1.00  0.00    -0.744 OA
ENDBRANCH  86  87
ENDBRANCH  54  79
BRANCH  66  91
ATOM     91  C   UNL A   1      49.476  26.806  26.013  1.00  0.00     0.058 A 
ATOM     92  C   UNL A   1      49.842  26.978  24.669  1.00  0.00     0.135 A 
ATOM     93  C   UNL A   1      50.409  26.212  26.878  1.00  0.00     0.135 A 
ATOM     94  F   UNL A   1      48.982  27.532  23.800  1.00  0.00    -0.206 F 
ATOM     95  C   UNL A   1      51.084  26.566  24.198  1.00  0.00     0.059 A 
ATOM     96  C   UNL A   1      51.665  25.813  26.434  1.00  0.00     0.059 A 
ATOM     97  F   UNL A   1      50.109  26.033  28.174  1.00  0.00    -0.206 F 
ATOM     98  C   UNL A   1      51.991  25.988  25.089  1.00  0.00     0.060 A 
BRANCH  98  99
ATOM     99  S   UNL A   1      53.616  25.499  24.472  1.00  0.00     0.124 S 
ATOM    100  O   UNL A   1      53.521  25.876  23.065  1.00  0.00    -0.237 OA
ATOM    101  O   UNL A   1      54.516  26.311  25.285  1.00  0.00    -0.237 OA
ATOM    102  O   UNL A   1      53.662  24.065  24.736  1.00  0.00    -0.744 OA
ENDBRANCH  98  99
ENDBRANCH  66  91
ENDBRANCH  40  41
ENDBRANCH  32  35
ENDBRANCH  30  31
ENDBRANCH  29  30
ENDBRANCH  28  29
ENDBRANCH   1  28
TORSDOF 20
ENDMDL
MODEL 3
REMARK VINA RESULT:     -11.1      6.047     10.580
REMARK SMILES CC(C)CCc1cc2c(cc1Cl)C=C(C(=O)NCCCCCCNC(=O)c1ccc(-c3c4nc(c(-c5c(F)cc(S(=O)(=O)[O-])cc5F)c5ccc([nH]5)c(-c5c(F)cc(S(=O)(=O)[O-])cc5F)c5nc(c(-c6c(F)cc(S(=O)(=O)[O-])cc6F)c6ccc3[nH]6)C=C5)C=C4)cc1)[C@H](C(F)(F)F)O2
REMARK SMILES IDX 20 1 19 2 18 3 17 4 15 5 16 6 14 8 6 9 7 10 11 11 8 12 10 13
REMARK SMILES IDX 12 14 9 15 98 16 13 17 93 18 5 19 4 20 2 21 1 22 3 23 94 24
REMARK SMILES IDX 95 25 96 26 97 27 21 28 22 29 23 30 24 31 25 32 26 34 27 35
REMARK SMILES IDX 28 36 92 37 29 38 91 39 30 40 31 41 32 42 85 43 33 44 90 45
REMARK SMILES IDX 84 46 86 47 34 48 89 49 83 50 82 51 35 53 69 54 48 55 68 56
REMARK SMILES IDX 49 57 52 58 67 59 87 60 50 61 51 62 66 64 88 65 53 66 36 67
REMARK SMILES IDX 37 68 46 69 38 70 39 71 45 72 47 73 40 74 41 75 42 76 43 77
REMARK SMILES IDX 44 78 70 79 71 80 80 81 72 82 73 83 79 84 81 85 74 86 75 87
REMARK SMILES IDX 76 88 77 89 78 90 54 91 55 92 64 93 56 94 57 95 63 96 65 97
REMARK SMILES IDX 58 98 59 99 60 100 61 101 62 102
REMARK H PARENT 17 7 24 33 86 52 52 63
REMARK Flexibility Score: inf
ROOT
ATOM      1  C   UNL A   1      33.951  29.515  26.930  1.00  0.00     0.002 C 
ENDROOT
BRANCH   1   2
ATOM      2  C   UNL A   1      32.602  30.237  26.862  1.00  0.00     0.021 C 
BRANCH   2   3
ATOM      3  C   UNL A   1      31.774  29.899  25.624  1.00  0.00     0.116 C 
BRANCH   3   4
ATOM      4  N   UNL A   1      32.607  29.716  24.445  1.00  0.00    -0.352 N 
ATOM      5  C   UNL A   1      32.963  28.701  23.623  1.00  0.00     0.251 C 
ATOM      6  O   UNL A   1      33.664  29.024  22.657  1.00  0.00    -0.270 OA
ATOM      7  H   UNL A   1      33.029  30.562  24.173  1.00  0.00     0.163 HD
BRANCH   5   8
ATOM      8  C   UNL A   1      32.582  27.267  23.803  1.00  0.00     0.067 C 
ATOM      9  C   UNL A   1      32.413  22.394  25.167  1.00  0.00    -0.026 A 
ATOM     10  C   UNL A   1      31.656  23.236  24.350  1.00  0.00     0.052 A 
ATOM     11  C   UNL A   1      33.466  22.982  25.891  1.00  0.00     0.045 A 
ATOM     12  C   UNL A   1      32.002  24.569  24.163  1.00  0.00     0.128 A 
ATOM     13  C   UNL A   1      33.780  24.346  25.746  1.00  0.00     0.032 A 
ATOM     14  Cl  UNL A   1      34.430  22.057  26.992  1.00  0.00    -0.084 Cl
ATOM     15  C   UNL A   1      33.058  25.143  24.855  1.00  0.00     0.019 A 
ATOM     16  O   UNL A   1      31.276  25.215  23.214  1.00  0.00    -0.475 OA
ATOM     17  C   UNL A   1      33.388  26.540  24.602  1.00  0.00     0.025 C 
ATOM     18  C   UNL A   1      31.346  26.657  23.200  1.00  0.00     0.314 C 
BRANCH   9  19
ATOM     19  C   UNL A   1      32.119  20.907  25.239  1.00  0.00     0.037 C 
BRANCH  19  20
ATOM     20  C   UNL A   1      32.486  20.034  24.018  1.00  0.00     0.008 C 
BRANCH  20  21
ATOM     21  C   UNL A   1      33.379  18.799  24.296  1.00  0.00    -0.017 C 
ATOM     22  C   UNL A   1      34.784  19.178  24.755  1.00  0.00     0.007 C 
ATOM     23  C   UNL A   1      32.702  17.900  25.336  1.00  0.00     0.007 C 
ENDBRANCH  20  21
ENDBRANCH  19  20
ENDBRANCH   9  19
BRANCH  18  24
ATOM     24  C   UNL A   1      30.033  27.204  23.778  1.00  0.00     0.429 C 
ATOM     25  F   UNL A   1      30.035  27.263  25.127  1.00  0.00    -0.167 F 
ATOM     26  F   UNL A   1      29.809  28.464  23.329  1.00  0.00    -0.167 F 
ATOM     27  F   UNL A   1      28.963  26.453  23.426  1.00  0.00    -0.167 F 
ENDBRANCH  18  24
ENDBRANCH   5   8
ENDBRANCH   3   4
ENDBRANCH   2   3
ENDBRANCH   1   2
BRANCH   1  28
ATOM     28  C   UNL A   1      34.909  30.012  28.018  1.00  0.00     0.002 C 
BRANCH  28  29
ATOM     29  C   UNL A   1      35.306  31.487  27.922  1.00  0.00     0.021 C 
BRANCH  29  30
ATOM     30  C   UNL A   1      35.986  32.052  29.164  1.00  0.00     0.116 C 
BRANCH  30  31
ATOM     31  N   UNL A   1      35.768  31.228  30.343  1.00  0.00    -0.352 N 
ATOM     32  C   UNL A   1      36.608  30.303  30.918  1.00  0.00     0.251 C 
ATOM     33  H   UNL A   1      34.899  31.348  30.789  1.00  0.00     0.163 HD
ATOM     34  O   UNL A   1      36.206  29.579  31.820  1.00  0.00    -0.269 OA
BRANCH  32  35
ATOM     35  C   UNL A   1      37.992  30.172  30.411  1.00  0.00     0.039 A 
ATOM     36  C   UNL A   1      38.228  29.939  29.055  1.00  0.00     0.014 A 
ATOM     37  C   UNL A   1      39.059  30.245  31.311  1.00  0.00     0.014 A 
ATOM     38  C   UNL A   1      39.511  29.621  28.625  1.00  0.00     0.010 A 
ATOM     39  C   UNL A   1      40.359  30.003  30.860  1.00  0.00     0.010 A 
ATOM     40  C   UNL A   1      40.591  29.643  29.523  1.00  0.00    -0.014 A 
BRANCH  40  41
ATOM     41  C   UNL A   1      41.948  29.278  29.041  1.00  0.00     0.031 A 
ATOM     42  C   UNL A   1      42.239  27.888  28.540  1.00  0.00     0.074 A 
ATOM     43  C   UNL A   1      42.904  30.226  28.995  1.00  0.00     0.049 A 
ATOM     44  N   UNL A   1      43.357  27.401  28.064  1.00  0.00    -0.248 NA
ATOM     45  C   UNL A   1      41.135  26.915  28.581  1.00  0.00     0.031 C 
ATOM     46  C   UNL A   1      42.737  31.611  29.439  1.00  0.00     0.029 A 
ATOM     47  N   UNL A   1      44.195  30.180  28.530  1.00  0.00    -0.354 N 
ATOM     48  C   UNL A   1      43.099  26.068  27.764  1.00  0.00     0.074 A 
ATOM     49  C   UNL A   1      41.725  25.812  28.138  1.00  0.00     0.031 C 
ATOM     50  C   UNL A   1      43.858  32.298  29.172  1.00  0.00     0.029 A 
ATOM     51  C   UNL A   1      44.845  31.389  28.599  1.00  0.00     0.049 A 
ATOM     52  H   UNL A   1      44.613  29.360  28.182  1.00  0.00     0.167 HD
ATOM     53  C   UNL A   1      43.927  25.147  27.213  1.00  0.00     0.037 A 
ATOM     54  C   UNL A   1      46.101  31.730  28.248  1.00  0.00     0.037 A 
ATOM     55  C   UNL A   1      45.287  25.415  26.824  1.00  0.00     0.049 A 
ATOM     56  C   UNL A   1      47.011  30.681  27.680  1.00  0.00     0.074 A 
ATOM     57  C   UNL A   1      46.202  24.550  26.245  1.00  0.00     0.029 A 
ATOM     58  N   UNL A   1      45.930  26.636  26.966  1.00  0.00    -0.354 N 
ATOM     59  N   UNL A   1      46.750  29.423  27.411  1.00  0.00    -0.248 NA
ATOM     60  C   UNL A   1      48.390  31.089  27.381  1.00  0.00     0.031 C 
ATOM     61  C   UNL A   1      47.408  25.240  26.073  1.00  0.00     0.029 A 
ATOM     62  C   UNL A   1      47.233  26.544  26.505  1.00  0.00     0.049 A 
ATOM     63  H   UNL A   1      45.519  27.448  27.341  1.00  0.00     0.167 HD
ATOM     64  C   UNL A   1      47.930  28.892  26.906  1.00  0.00     0.074 A 
ATOM     65  C   UNL A   1      48.900  29.968  26.888  1.00  0.00     0.031 C 
ATOM     66  C   UNL A   1      48.188  27.623  26.501  1.00  0.00     0.037 A 
BRANCH  53  67
ATOM     67  C   UNL A   1      43.390  23.759  27.004  1.00  0.00     0.058 A 
ATOM     68  C   UNL A   1      43.021  23.297  25.730  1.00  0.00     0.135 A 
ATOM     69  C   UNL A   1      43.291  22.860  28.079  1.00  0.00     0.135 A 
ATOM     70  F   UNL A   1      43.079  24.119  24.670  1.00  0.00    -0.206 F 
ATOM     71  C   UNL A   1      42.555  22.001  25.533  1.00  0.00     0.059 A 
ATOM     72  C   UNL A   1      42.849  21.552  27.901  1.00  0.00     0.059 A 
ATOM     73  F   UNL A   1      43.631  23.249  29.318  1.00  0.00    -0.206 F 
ATOM     74  C   UNL A   1      42.472  21.135  26.626  1.00  0.00     0.060 A 
BRANCH  74  75
ATOM     75  S   UNL A   1      41.870  19.456  26.349  1.00  0.00     0.124 S 
ATOM     76  O   UNL A   1      42.539  19.111  25.098  1.00  0.00    -0.237 OA
ATOM     77  O   UNL A   1      42.345  18.754  27.536  1.00  0.00    -0.237 OA
ATOM     78  O   UNL A   1      40.422  19.623  26.259  1.00  0.00    -0.744 OA
ENDBRANCH  74  75
ENDBRANCH  53  67
BRANCH  54  79
ATOM     79  C   UNL A   1      46.558  33.131  28.431  1.00  0.00     0.058 A 
ATOM     80  C   UNL A   1      46.425  34.071  27.401  1.00  0.00     0.135 A 
ATOM     81  C   UNL A   1      47.087  33.569  29.655  1.00  0.00     0.135 A 
ATOM     82  F   UNL A   1      45.930  33.697  26.210  1.00  0.00    -0.206 F 
ATOM     83  C   UNL A   1      46.800  35.399  27.575  1.00  0.00     0.059 A 
ATOM     84  C   UNL A   1      47.447  34.897  29.862  1.00  0.00     0.059 A 
ATOM     85  F   UNL A   1      47.221  32.709  30.676  1.00  0.00    -0.206 F 
ATOM     86  C   UNL A   1      47.302  35.804  28.814  1.00  0.00     0.060 A 
BRANCH  86  87
ATOM     87  S   UNL A   1      47.712  37.546  29.054  1.00  0.00     0.124 S 
ATOM     88  O   UNL A   1      48.330  37.523  30.375  1.00  0.00    -0.237 OA
ATOM     89  O   UNL A   1      48.611  37.807  27.933  1.00  0.00    -0.237 OA
ATOM     90  O   UNL A   1      46.415  38.211  28.974  1.00  0.00    -0.744 OA
ENDBRANCH  86  87
ENDBRANCH  54  79
BRANCH  66  91
ATOM     91  C   UNL A   1      49.572  27.327  26.001  1.00  0.00     0.058 A 
ATOM     92  C   UNL A   1      50.590  26.911  26.873  1.00  0.00     0.135 A 
ATOM     93  C   UNL A   1      49.869  27.401  24.631  1.00  0.00     0.135 A 
ATOM     94  F   UNL A   1      50.359  26.834  28.193  1.00  0.00    -0.206 F 
ATOM     95  C   UNL A   1      51.859  26.589  26.405  1.00  0.00     0.059 A 
ATOM     96  C   UNL A   1      51.125  27.062  24.137  1.00  0.00     0.059 A 
ATOM     97  F   UNL A   1      48.927  27.786  23.755  1.00  0.00    -0.206 F 
ATOM     98  C   UNL A   1      52.116  26.663  25.034  1.00  0.00     0.060 A 
BRANCH  98  99
ATOM     99  S   UNL A   1      53.755  26.198  24.436  1.00  0.00     0.124 S 
ATOM    100  O   UNL A   1      54.460  27.475  24.491  1.00  0.00    -0.237 OA
ATOM    101  O   UNL A   1      54.173  25.201  25.416  1.00  0.00    -0.237 OA
ATOM    102  O   UNL A   1      53.494  25.682  23.096  1.00  0.00    -0.744 OA
ENDBRANCH  98  99
ENDBRANCH  66  91
ENDBRANCH  40  41
ENDBRANCH  32  35
ENDBRANCH  30  31
ENDBRANCH  29  30
ENDBRANCH  28  29
ENDBRANCH   1  28
TORSDOF 20
ENDMDL
