MODEL 1
REMARK VINA RESULT:      -9.9      0.000      0.000
REMARK SMILES Cc1cc(-c2ccc(/C=C/C(=O)NCCCCCCNC(=O)c3ccc(-c4c5nc(c(-c6c(F)cc(S(=O)(=O)[O-])cc6F)c6ccc([nH]6)c(-c6c(F)cc(S(=O)(=O)[O-])cc6F)c6nc(c(-c7c(F)cc(S(=O)(=O)[O-])cc7F)c7ccc4[nH]7)C=C6)C=C5)cc3)o2)c(C)cc1Br
REMARK SMILES IDX 17 1 16 2 15 3 14 4 13 5 11 6 12 7 10 9 9 10 8 11 5 12 6 13
REMARK SMILES IDX 89 14 7 15 4 16 1 17 2 18 3 19 93 20 92 21 94 22 90 23 91 24
REMARK SMILES IDX 18 25 19 26 20 27 21 28 22 30 23 31 24 32 88 33 25 34 87 35
REMARK SMILES IDX 26 36 27 37 28 38 81 39 29 40 86 41 80 42 82 43 30 44 85 45
REMARK SMILES IDX 79 46 78 47 31 49 65 50 44 51 64 52 45 53 48 54 63 55 83 56
REMARK SMILES IDX 46 57 47 58 62 60 84 61 49 62 32 63 33 64 42 65 34 66 35 67
REMARK SMILES IDX 41 68 43 69 36 70 37 71 38 72 39 73 40 74 66 75 67 76 76 77
REMARK SMILES IDX 68 78 69 79 75 80 77 81 70 82 71 83 72 84 73 85 74 86 50 87
REMARK SMILES IDX 51 88 60 89 52 90 53 91 59 92 61 93 54 94 55 95 56 96 57 97
REMARK SMILES IDX 58 98
REMARK H PARENT 13 8 20 29 82 48 48 59
REMARK Flexibility Score: inf
ROOT
ATOM      1  C   UNL A   1      42.656  20.733  27.705  1.00  0.00     0.002 C 
ENDROOT
BRANCH   1   2
ATOM      2  C   UNL A   1      41.965  19.395  27.408  1.00  0.00     0.002 C 
BRANCH   2   3
ATOM      3  C   UNL A   1      42.499  18.642  26.182  1.00  0.00     0.021 C 
BRANCH   3   4
ATOM      4  C   UNL A   1      43.458  19.471  25.326  1.00  0.00     0.116 C 
BRANCH   4   5
ATOM      5  N   UNL A   1      44.815  18.970  25.456  1.00  0.00    -0.353 N 
ATOM      6  C   UNL A   1      46.016  19.600  25.385  1.00  0.00     0.244 C 
ATOM      7  O   UNL A   1      47.043  18.959  25.601  1.00  0.00    -0.270 OA
ATOM      8  H   UNL A   1      44.875  18.001  25.624  1.00  0.00     0.163 HD
BRANCH   6   9
ATOM      9  C   UNL A   1      46.115  21.056  25.149  1.00  0.00     0.075 C 
ATOM     10  C   UNL A   1      45.661  22.017  25.963  1.00  0.00     0.053 C 
BRANCH  10  11
ATOM     11  C   UNL A   1      45.835  23.381  25.616  1.00  0.00     0.127 A 
ATOM     12  C   UNL A   1      45.673  25.592  25.756  1.00  0.00     0.135 A 
ATOM     13  C   UNL A   1      46.433  25.338  24.639  1.00  0.00     0.051 A 
ATOM     14  O   UNL A   1      45.276  24.420  26.320  1.00  0.00    -0.457 OA
ATOM     15  C   UNL A   1      46.563  23.929  24.567  1.00  0.00     0.051 A 
BRANCH  12  16
ATOM     16  C   UNL A   1      45.232  26.800  26.436  1.00  0.00     0.020 A 
ATOM     17  C   UNL A   1      42.263  29.157  26.129  1.00  0.00     0.045 C 
ATOM     18  C   UNL A   1      43.560  28.593  26.638  1.00  0.00    -0.036 A 
ATOM     19  C   UNL A   1      44.039  27.419  26.025  1.00  0.00     0.016 A 
ATOM     20  C   UNL A   1      44.316  29.155  27.674  1.00  0.00     0.021 A 
ATOM     21  C   UNL A   1      45.508  28.550  28.090  1.00  0.00     0.020 A 
ATOM     22  Br  UNL A   1      43.808  30.748  28.576  1.00  0.00    -0.051 Br
ATOM     23  C   UNL A   1      45.981  27.377  27.480  1.00  0.00    -0.039 A 
ATOM     24  C   UNL A   1      47.268  26.768  27.970  1.00  0.00     0.045 C 
ENDBRANCH  12  16
ENDBRANCH  10  11
ENDBRANCH   6   9
ENDBRANCH   4   5
ENDBRANCH   3   4
ENDBRANCH   2   3
ENDBRANCH   1   2
BRANCH   1  25
ATOM     25  C   UNL A   1      41.764  21.969  27.576  1.00  0.00     0.021 C 
BRANCH  25  26
ATOM     26  C   UNL A   1      41.527  22.432  26.143  1.00  0.00     0.116 C 
BRANCH  26  27
ATOM     27  N   UNL A   1      40.127  22.342  25.758  1.00  0.00    -0.352 N 
ATOM     28  C   UNL A   1      39.069  23.144  26.128  1.00  0.00     0.251 C 
ATOM     29  H   UNL A   1      39.903  21.602  25.147  1.00  0.00     0.163 HD
ATOM     30  O   UNL A   1      37.923  22.816  25.855  1.00  0.00    -0.269 OA
BRANCH  28  31
ATOM     31  C   UNL A   1      39.332  24.391  26.882  1.00  0.00     0.039 A 
ATOM     32  C   UNL A   1      40.065  25.426  26.302  1.00  0.00     0.014 A 
ATOM     33  C   UNL A   1      38.856  24.515  28.191  1.00  0.00     0.014 A 
ATOM     34  C   UNL A   1      40.463  26.507  27.079  1.00  0.00     0.010 A 
ATOM     35  C   UNL A   1      39.186  25.647  28.945  1.00  0.00     0.010 A 
ATOM     36  C   UNL A   1      40.032  26.630  28.411  1.00  0.00    -0.014 A 
BRANCH  36  37
ATOM     37  C   UNL A   1      40.490  27.799  29.211  1.00  0.00     0.031 A 
ATOM     38  C   UNL A   1      39.605  29.003  29.400  1.00  0.00     0.074 A 
ATOM     39  C   UNL A   1      41.679  27.730  29.842  1.00  0.00     0.049 A 
ATOM     40  N   UNL A   1      39.808  30.065  30.138  1.00  0.00    -0.248 NA
ATOM     41  C   UNL A   1      38.328  29.024  28.667  1.00  0.00     0.031 C 
ATOM     42  C   UNL A   1      42.623  26.615  29.735  1.00  0.00     0.029 A 
ATOM     43  N   UNL A   1      42.282  28.588  30.727  1.00  0.00    -0.354 N 
ATOM     44  C   UNL A   1      38.697  30.879  29.954  1.00  0.00     0.074 A 
ATOM     45  C   UNL A   1      37.835  30.208  29.006  1.00  0.00     0.031 C 
ATOM     46  C   UNL A   1      43.645  26.820  30.578  1.00  0.00     0.029 A 
ATOM     47  C   UNL A   1      43.463  28.108  31.240  1.00  0.00     0.049 A 
ATOM     48  H   UNL A   1      41.904  29.464  30.971  1.00  0.00     0.167 HD
ATOM     49  C   UNL A   1      38.413  32.068  30.537  1.00  0.00     0.037 A 
ATOM     50  C   UNL A   1      44.309  28.640  32.145  1.00  0.00     0.037 A 
ATOM     51  C   UNL A   1      39.263  32.722  31.497  1.00  0.00     0.049 A 
ATOM     52  C   UNL A   1      43.987  29.976  32.751  1.00  0.00     0.074 A 
ATOM     53  C   UNL A   1      39.054  33.923  32.153  1.00  0.00     0.029 A 
ATOM     54  N   UNL A   1      40.483  32.233  31.941  1.00  0.00    -0.354 N 
ATOM     55  N   UNL A   1      42.924  30.724  32.571  1.00  0.00    -0.248 NA
ATOM     56  C   UNL A   1      44.980  30.549  33.668  1.00  0.00     0.031 C 
ATOM     57  C   UNL A   1      40.163  34.178  32.965  1.00  0.00     0.029 A 
ATOM     58  C   UNL A   1      41.045  33.115  32.848  1.00  0.00     0.049 A 
ATOM     59  H   UNL A   1      40.890  31.384  31.653  1.00  0.00     0.167 HD
ATOM     60  C   UNL A   1      43.116  31.850  33.361  1.00  0.00     0.074 A 
ATOM     61  C   UNL A   1      44.389  31.680  34.032  1.00  0.00     0.031 C 
ATOM     62  C   UNL A   1      42.310  32.929  33.512  1.00  0.00     0.037 A 
BRANCH  49  63
ATOM     63  C   UNL A   1      37.124  32.746  30.161  1.00  0.00     0.058 A 
ATOM     64  C   UNL A   1      35.938  32.515  30.875  1.00  0.00     0.135 A 
ATOM     65  C   UNL A   1      37.088  33.688  29.119  1.00  0.00     0.135 A 
ATOM     66  F   UNL A   1      35.913  31.615  31.871  1.00  0.00    -0.206 F 
ATOM     67  C   UNL A   1      34.757  33.180  30.558  1.00  0.00     0.059 A 
ATOM     68  C   UNL A   1      35.923  34.381  28.799  1.00  0.00     0.059 A 
ATOM     69  F   UNL A   1      38.194  33.948  28.404  1.00  0.00    -0.206 F 
ATOM     70  C   UNL A   1      34.760  34.112  29.520  1.00  0.00     0.060 A 
BRANCH  70  71
ATOM     71  S   UNL A   1      33.221  34.973  29.134  1.00  0.00     0.124 S 
ATOM     72  O   UNL A   1      33.720  36.251  28.637  1.00  0.00    -0.237 OA
ATOM     73  O   UNL A   1      32.618  34.098  28.134  1.00  0.00    -0.237 OA
ATOM     74  O   UNL A   1      32.528  35.027  30.417  1.00  0.00    -0.744 OA
ENDBRANCH  70  71
ENDBRANCH  49  63
BRANCH  50  75
ATOM     75  C   UNL A   1      45.530  27.890  32.539  1.00  0.00     0.058 A 
ATOM     76  C   UNL A   1      45.484  26.917  33.547  1.00  0.00     0.135 A 
ATOM     77  C   UNL A   1      46.755  28.099  31.884  1.00  0.00     0.135 A 
ATOM     78  F   UNL A   1      44.338  26.685  34.204  1.00  0.00    -0.206 F 
ATOM     79  C   UNL A   1      46.609  26.175  33.893  1.00  0.00     0.059 A 
ATOM     80  C   UNL A   1      47.886  27.354  32.196  1.00  0.00     0.059 A 
ATOM     81  F   UNL A   1      46.845  29.010  30.904  1.00  0.00    -0.206 F 
ATOM     82  C   UNL A   1      47.804  26.396  33.206  1.00  0.00     0.060 A 
BRANCH  82  83
ATOM     83  S   UNL A   1      49.239  25.380  33.616  1.00  0.00     0.124 S 
ATOM     84  O   UNL A   1      50.004  26.283  34.469  1.00  0.00    -0.237 OA
ATOM     85  O   UNL A   1      48.624  24.238  34.285  1.00  0.00    -0.237 OA
ATOM     86  O   UNL A   1      49.829  25.090  32.313  1.00  0.00    -0.744 OA
ENDBRANCH  82  83
ENDBRANCH  50  75
BRANCH  62  87
ATOM     87  C   UNL A   1      42.765  34.015  34.444  1.00  0.00     0.058 A 
ATOM     88  C   UNL A   1      42.502  33.950  35.820  1.00  0.00     0.135 A 
ATOM     89  C   UNL A   1      43.560  35.072  33.973  1.00  0.00     0.135 A 
ATOM     90  F   UNL A   1      41.739  32.964  36.318  1.00  0.00    -0.206 F 
ATOM     91  C   UNL A   1      43.019  34.895  36.701  1.00  0.00     0.059 A 
ATOM     92  C   UNL A   1      44.104  36.015  34.838  1.00  0.00     0.059 A 
ATOM     93  F   UNL A   1      43.842  35.172  32.664  1.00  0.00    -0.206 F 
ATOM     94  C   UNL A   1      43.828  35.918  36.201  1.00  0.00     0.060 A 
BRANCH  94  95
ATOM     95  S   UNL A   1      44.558  37.087  37.367  1.00  0.00     0.124 S 
ATOM     96  O   UNL A   1      45.337  37.943  36.477  1.00  0.00    -0.237 OA
ATOM     97  O   UNL A   1      43.379  37.704  37.966  1.00  0.00    -0.237 OA
ATOM     98  O   UNL A   1      45.336  36.236  38.261  1.00  0.00    -0.744 OA
ENDBRANCH  94  95
ENDBRANCH  62  87
ENDBRANCH  36  37
ENDBRANCH  28  31
ENDBRANCH  26  27
ENDBRANCH  25  26
ENDBRANCH   1  25
TORSDOF 18
ENDMDL
MODEL 2
REMARK VINA RESULT:      -9.8      5.249     11.932
REMARK SMILES Cc1cc(-c2ccc(/C=C/C(=O)NCCCCCCNC(=O)c3ccc(-c4c5nc(c(-c6c(F)cc(S(=O)(=O)[O-])cc6F)c6ccc([nH]6)c(-c6c(F)cc(S(=O)(=O)[O-])cc6F)c6nc(c(-c7c(F)cc(S(=O)(=O)[O-])cc7F)c7ccc4[nH]7)C=C6)C=C5)cc3)o2)c(C)cc1Br
REMARK SMILES IDX 17 1 16 2 15 3 14 4 13 5 11 6 12 7 10 9 9 10 8 11 5 12 6 13
REMARK SMILES IDX 89 14 7 15 4 16 1 17 2 18 3 19 93 20 92 21 94 22 90 23 91 24
REMARK SMILES IDX 18 25 19 26 20 27 21 28 22 30 23 31 24 32 88 33 25 34 87 35
REMARK SMILES IDX 26 36 27 37 28 38 81 39 29 40 86 41 80 42 82 43 30 44 85 45
REMARK SMILES IDX 79 46 78 47 31 49 65 50 44 51 64 52 45 53 48 54 63 55 83 56
REMARK SMILES IDX 46 57 47 58 62 60 84 61 49 62 32 63 33 64 42 65 34 66 35 67
REMARK SMILES IDX 41 68 43 69 36 70 37 71 38 72 39 73 40 74 66 75 67 76 76 77
REMARK SMILES IDX 68 78 69 79 75 80 77 81 70 82 71 83 72 84 73 85 74 86 50 87
REMARK SMILES IDX 51 88 60 89 52 90 53 91 59 92 61 93 54 94 55 95 56 96 57 97
REMARK SMILES IDX 58 98
REMARK H PARENT 13 8 20 29 82 48 48 59
REMARK Flexibility Score: inf
ROOT
ATOM      1  C   UNL A   1      36.409  33.238  28.558  1.00  0.00     0.002 C 
ENDROOT
BRANCH   1   2
ATOM      2  C   UNL A   1      35.250  32.513  27.860  1.00  0.00     0.002 C 
BRANCH   2   3
ATOM      3  C   UNL A   1      34.904  31.132  28.434  1.00  0.00     0.021 C 
BRANCH   3   4
ATOM      4  C   UNL A   1      34.365  30.154  27.389  1.00  0.00     0.116 C 
BRANCH   4   5
ATOM      5  N   UNL A   1      33.191  30.704  26.736  1.00  0.00    -0.353 N 
ATOM      6  C   UNL A   1      32.205  30.114  26.012  1.00  0.00     0.244 C 
ATOM      7  O   UNL A   1      31.263  30.796  25.614  1.00  0.00    -0.270 OA
ATOM      8  H   UNL A   1      33.092  31.679  26.836  1.00  0.00     0.163 HD
BRANCH   6   9
ATOM      9  C   UNL A   1      32.188  28.656  25.770  1.00  0.00     0.075 C 
ATOM     10  C   UNL A   1      31.628  27.734  26.564  1.00  0.00     0.053 C 
BRANCH  10  11
ATOM     11  C   UNL A   1      31.675  26.364  26.201  1.00  0.00     0.127 A 
ATOM     12  C   UNL A   1      32.545  24.378  25.716  1.00  0.00     0.135 A 
ATOM     13  C   UNL A   1      31.181  24.221  25.646  1.00  0.00     0.051 A 
ATOM     14  O   UNL A   1      32.847  25.672  26.005  1.00  0.00    -0.457 OA
ATOM     15  C   UNL A   1      30.626  25.479  25.987  1.00  0.00     0.051 A 
BRANCH  12  16
ATOM     16  C   UNL A   1      33.683  23.486  25.559  1.00  0.00     0.020 A 
ATOM     17  C   UNL A   1      36.363  22.943  22.916  1.00  0.00     0.045 C 
ATOM     18  C   UNL A   1      35.582  22.741  24.184  1.00  0.00    -0.036 A 
ATOM     19  C   UNL A   1      34.471  23.579  24.399  1.00  0.00     0.016 A 
ATOM     20  C   UNL A   1      35.886  21.782  25.158  1.00  0.00     0.021 A 
ATOM     21  C   UNL A   1      35.106  21.676  26.316  1.00  0.00     0.020 A 
ATOM     22  Br  UNL A   1      37.338  20.567  24.993  1.00  0.00    -0.051 Br
ATOM     23  C   UNL A   1      34.002  22.516  26.529  1.00  0.00    -0.039 A 
ATOM     24  C   UNL A   1      33.201  22.360  27.795  1.00  0.00     0.045 C 
ENDBRANCH  12  16
ENDBRANCH  10  11
ENDBRANCH   6   9
ENDBRANCH   4   5
ENDBRANCH   3   4
ENDBRANCH   2   3
ENDBRANCH   1   2
BRANCH   1  25
ATOM     25  C   UNL A   1      36.100  33.757  29.964  1.00  0.00     0.021 C 
BRANCH  25  26
ATOM     26  C   UNL A   1      36.993  33.188  31.060  1.00  0.00     0.116 C 
BRANCH  26  27
ATOM     27  N   UNL A   1      36.486  31.931  31.587  1.00  0.00    -0.352 N 
ATOM     28  C   UNL A   1      36.983  30.656  31.426  1.00  0.00     0.251 C 
ATOM     29  H   UNL A   1      35.672  32.000  32.138  1.00  0.00     0.163 HD
ATOM     30  O   UNL A   1      36.328  29.689  31.790  1.00  0.00    -0.269 OA
BRANCH  28  31
ATOM     31  C   UNL A   1      38.304  30.466  30.784  1.00  0.00     0.039 A 
ATOM     32  C   UNL A   1      38.415  30.427  29.394  1.00  0.00     0.014 A 
ATOM     33  C   UNL A   1      39.439  30.304  31.584  1.00  0.00     0.014 A 
ATOM     34  C   UNL A   1      39.622  30.062  28.809  1.00  0.00     0.010 A 
ATOM     35  C   UNL A   1      40.674  30.024  30.988  1.00  0.00     0.010 A 
ATOM     36  C   UNL A   1      40.766  29.853  29.599  1.00  0.00    -0.014 A 
BRANCH  36  37
ATOM     37  C   UNL A   1      42.037  29.455  28.933  1.00  0.00     0.031 A 
ATOM     38  C   UNL A   1      43.204  30.404  28.863  1.00  0.00     0.074 A 
ATOM     39  C   UNL A   1      42.161  28.196  28.468  1.00  0.00     0.049 A 
ATOM     40  N   UNL A   1      44.411  30.188  28.403  1.00  0.00    -0.248 NA
ATOM     41  C   UNL A   1      42.996  31.770  29.370  1.00  0.00     0.031 C 
ATOM     42  C   UNL A   1      41.098  27.187  28.482  1.00  0.00     0.029 A 
ATOM     43  N   UNL A   1      43.237  27.533  27.935  1.00  0.00    -0.354 N 
ATOM     44  C   UNL A   1      45.100  31.386  28.557  1.00  0.00     0.074 A 
ATOM     45  C   UNL A   1      44.168  32.338  29.119  1.00  0.00     0.031 C 
ATOM     46  C   UNL A   1      41.595  26.018  28.052  1.00  0.00     0.029 A 
ATOM     47  C   UNL A   1      42.992  26.206  27.676  1.00  0.00     0.049 A 
ATOM     48  H   UNL A   1      44.103  27.968  27.755  1.00  0.00     0.167 HD
ATOM     49  C   UNL A   1      46.396  31.660  28.273  1.00  0.00     0.037 A 
ATOM     50  C   UNL A   1      43.800  25.242  27.190  1.00  0.00     0.037 A 
ATOM     51  C   UNL A   1      47.325  30.703  27.733  1.00  0.00     0.049 A 
ATOM     52  C   UNL A   1      45.223  25.581  26.851  1.00  0.00     0.074 A 
ATOM     53  C   UNL A   1      48.663  30.883  27.425  1.00  0.00     0.029 A 
ATOM     54  N   UNL A   1      47.019  29.385  27.423  1.00  0.00    -0.354 N 
ATOM     55  N   UNL A   1      45.857  26.718  27.015  1.00  0.00    -0.248 NA
ATOM     56  C   UNL A   1      46.036  24.518  26.248  1.00  0.00     0.031 C 
ATOM     57  C   UNL A   1      49.156  29.687  26.895  1.00  0.00     0.029 A 
ATOM     58  C   UNL A   1      48.136  28.748  26.912  1.00  0.00     0.049 A 
ATOM     59  H   UNL A   1      46.137  28.966  27.549  1.00  0.00     0.167 HD
ATOM     60  C   UNL A   1      47.147  26.502  26.546  1.00  0.00     0.074 A 
ATOM     61  C   UNL A   1      47.209  25.124  26.105  1.00  0.00     0.031 C 
ATOM     62  C   UNL A   1      48.184  27.373  26.483  1.00  0.00     0.037 A 
BRANCH  49  63
ATOM     63  C   UNL A   1      46.896  33.053  28.542  1.00  0.00     0.058 A 
ATOM     64  C   UNL A   1      47.431  33.411  29.789  1.00  0.00     0.135 A 
ATOM     65  C   UNL A   1      46.903  34.021  27.524  1.00  0.00     0.135 A 
ATOM     66  F   UNL A   1      47.436  32.529  30.801  1.00  0.00    -0.206 F 
ATOM     67  C   UNL A   1      47.939  34.685  30.023  1.00  0.00     0.059 A 
ATOM     68  C   UNL A   1      47.427  35.294  27.729  1.00  0.00     0.059 A 
ATOM     69  F   UNL A   1      46.404  33.730  26.312  1.00  0.00    -0.206 F 
ATOM     70  C   UNL A   1      47.934  35.620  28.986  1.00  0.00     0.060 A 
BRANCH  70  71
ATOM     71  S   UNL A   1      48.610  37.263  29.307  1.00  0.00     0.124 S 
ATOM     72  O   UNL A   1      49.707  37.318  28.345  1.00  0.00    -0.237 OA
ATOM     73  O   UNL A   1      47.472  38.129  29.018  1.00  0.00    -0.237 OA
ATOM     74  O   UNL A   1      49.009  37.200  30.709  1.00  0.00    -0.744 OA
ENDBRANCH  70  71
ENDBRANCH  49  63
BRANCH  50  75
ATOM     75  C   UNL A   1      43.275  23.862  27.017  1.00  0.00     0.058 A 
ATOM     76  C   UNL A   1      42.786  23.428  25.777  1.00  0.00     0.135 A 
ATOM     77  C   UNL A   1      43.294  22.938  28.075  1.00  0.00     0.135 A 
ATOM     78  F   UNL A   1      42.743  24.276  24.738  1.00  0.00    -0.206 F 
ATOM     79  C   UNL A   1      42.336  22.126  25.589  1.00  0.00     0.059 A 
ATOM     80  C   UNL A   1      42.872  21.625  27.904  1.00  0.00     0.059 A 
ATOM     81  F   UNL A   1      43.765  23.303  29.277  1.00  0.00    -0.206 F 
ATOM     82  C   UNL A   1      42.389  21.229  26.658  1.00  0.00     0.060 A 
BRANCH  82  83
ATOM     83  S   UNL A   1      41.866  19.523  26.384  1.00  0.00     0.124 S 
ATOM     84  O   UNL A   1      42.312  18.878  27.613  1.00  0.00    -0.237 OA
ATOM     85  O   UNL A   1      40.422  19.668  26.225  1.00  0.00    -0.237 OA
ATOM     86  O   UNL A   1      42.586  19.141  25.173  1.00  0.00    -0.744 OA
ENDBRANCH  82  83
ENDBRANCH  50  75
BRANCH  62  87
ATOM     87  C   UNL A   1      49.485  26.869  25.928  1.00  0.00     0.058 A 
ATOM     88  C   UNL A   1      49.836  27.083  24.587  1.00  0.00     0.135 A 
ATOM     89  C   UNL A   1      50.432  26.265  26.770  1.00  0.00     0.135 A 
ATOM     90  F   UNL A   1      48.962  27.649  23.741  1.00  0.00    -0.206 F 
ATOM     91  C   UNL A   1      51.087  26.719  24.100  1.00  0.00     0.059 A 
ATOM     92  C   UNL A   1      51.696  25.912  26.309  1.00  0.00     0.059 A 
ATOM     93  F   UNL A   1      50.144  26.045  28.063  1.00  0.00    -0.206 F 
ATOM     94  C   UNL A   1      52.015  26.144  24.972  1.00  0.00     0.060 A 
BRANCH  94  95
ATOM     95  S   UNL A   1      53.661  25.754  24.344  1.00  0.00     0.124 S 
ATOM     96  O   UNL A   1      53.831  24.377  24.798  1.00  0.00    -0.237 OA
ATOM     97  O   UNL A   1      53.494  25.929  22.905  1.00  0.00    -0.237 OA
ATOM     98  O   UNL A   1      54.518  26.740  24.994  1.00  0.00    -0.744 OA
ENDBRANCH  94  95
ENDBRANCH  62  87
ENDBRANCH  36  37
ENDBRANCH  28  31
ENDBRANCH  26  27
ENDBRANCH  25  26
ENDBRANCH   1  25
TORSDOF 18
ENDMDL
MODEL 3
REMARK VINA RESULT:      -9.5      5.051     10.841
REMARK SMILES Cc1cc(-c2ccc(/C=C/C(=O)NCCCCCCNC(=O)c3ccc(-c4c5nc(c(-c6c(F)cc(S(=O)(=O)[O-])cc6F)c6ccc([nH]6)c(-c6c(F)cc(S(=O)(=O)[O-])cc6F)c6nc(c(-c7c(F)cc(S(=O)(=O)[O-])cc7F)c7ccc4[nH]7)C=C6)C=C5)cc3)o2)c(C)cc1Br
REMARK SMILES IDX 17 1 16 2 15 3 14 4 13 5 11 6 12 7 10 9 9 10 8 11 5 12 6 13
REMARK SMILES IDX 89 14 7 15 4 16 1 17 2 18 3 19 93 20 92 21 94 22 90 23 91 24
REMARK SMILES IDX 18 25 19 26 20 27 21 28 22 30 23 31 24 32 88 33 25 34 87 35
REMARK SMILES IDX 26 36 27 37 28 38 81 39 29 40 86 41 80 42 82 43 30 44 85 45
REMARK SMILES IDX 79 46 78 47 31 49 65 50 44 51 64 52 45 53 48 54 63 55 83 56
REMARK SMILES IDX 46 57 47 58 62 60 84 61 49 62 32 63 33 64 42 65 34 66 35 67
REMARK SMILES IDX 41 68 43 69 36 70 37 71 38 72 39 73 40 74 66 75 67 76 76 77
REMARK SMILES IDX 68 78 69 79 75 80 77 81 70 82 71 83 72 84 73 85 74 86 50 87
REMARK SMILES IDX 51 88 60 89 52 90 53 91 59 92 61 93 54 94 55 95 56 96 57 97
REMARK SMILES IDX 58 98
REMARK H PARENT 13 8 20 29 82 48 48 59
REMARK Flexibility Score: inf
ROOT
ATOM      1  C   UNL A   1      35.950  22.388  23.847  1.00  0.00     0.002 C 
ENDROOT
BRANCH   1   2
ATOM      2  C   UNL A   1      34.711  21.501  24.033  1.00  0.00     0.002 C 
BRANCH   2   3
ATOM      3  C   UNL A   1      34.881  20.341  25.023  1.00  0.00     0.021 C 
BRANCH   3   4
ATOM      4  C   UNL A   1      33.593  19.975  25.762  1.00  0.00     0.116 C 
BRANCH   4   5
ATOM      5  N   UNL A   1      33.460  20.765  26.973  1.00  0.00    -0.353 N 
ATOM      6  C   UNL A   1      32.976  22.017  27.181  1.00  0.00     0.244 C 
ATOM      7  O   UNL A   1      32.904  22.448  28.330  1.00  0.00    -0.270 OA
ATOM      8  H   UNL A   1      33.777  20.312  27.789  1.00  0.00     0.163 HD
BRANCH   6   9
ATOM      9  C   UNL A   1      32.449  22.838  26.071  1.00  0.00     0.075 C 
ATOM     10  C   UNL A   1      32.674  24.146  25.886  1.00  0.00     0.053 C 
BRANCH  10  11
ATOM     11  C   UNL A   1      32.112  24.809  24.765  1.00  0.00     0.127 A 
ATOM     12  C   UNL A   1      31.018  26.358  23.609  1.00  0.00     0.135 A 
ATOM     13  C   UNL A   1      31.469  25.444  22.685  1.00  0.00     0.051 A 
ATOM     14  O   UNL A   1      31.364  25.957  24.861  1.00  0.00    -0.457 OA
ATOM     15  C   UNL A   1      32.194  24.473  23.420  1.00  0.00     0.051 A 
BRANCH  12  16
ATOM     16  C   UNL A   1      30.287  27.613  23.527  1.00  0.00     0.020 A 
ATOM     17  C   UNL A   1      26.636  28.608  23.147  1.00  0.00     0.045 C 
ATOM     18  C   UNL A   1      28.124  28.760  23.287  1.00  0.00    -0.036 A 
ATOM     19  C   UNL A   1      28.890  27.582  23.377  1.00  0.00     0.016 A 
ATOM     20  C   UNL A   1      28.794  29.989  23.333  1.00  0.00     0.021 A 
ATOM     21  C   UNL A   1      30.186  30.034  23.478  1.00  0.00     0.020 A 
ATOM     22  Br  UNL A   1      27.897  31.660  23.199  1.00  0.00    -0.051 Br
ATOM     23  C   UNL A   1      30.945  28.857  23.573  1.00  0.00    -0.039 A 
ATOM     24  C   UNL A   1      32.439  28.964  23.732  1.00  0.00     0.045 C 
ENDBRANCH  12  16
ENDBRANCH  10  11
ENDBRANCH   6   9
ENDBRANCH   4   5
ENDBRANCH   3   4
ENDBRANCH   2   3
ENDBRANCH   1   2
BRANCH   1  25
ATOM     25  C   UNL A   1      35.928  23.709  24.620  1.00  0.00     0.021 C 
BRANCH  25  26
ATOM     26  C   UNL A   1      36.506  23.629  26.028  1.00  0.00     0.116 C 
BRANCH  26  27
ATOM     27  N   UNL A   1      37.557  22.629  26.137  1.00  0.00    -0.352 N 
ATOM     28  C   UNL A   1      38.884  22.795  26.466  1.00  0.00     0.251 C 
ATOM     29  H   UNL A   1      37.281  21.702  25.950  1.00  0.00     0.163 HD
ATOM     30  O   UNL A   1      39.671  21.868  26.334  1.00  0.00    -0.269 OA
BRANCH  28  31
ATOM     31  C   UNL A   1      39.354  24.112  26.953  1.00  0.00     0.039 A 
ATOM     32  C   UNL A   1      39.904  25.038  26.066  1.00  0.00     0.014 A 
ATOM     33  C   UNL A   1      39.262  24.413  28.315  1.00  0.00     0.014 A 
ATOM     34  C   UNL A   1      40.510  26.187  26.560  1.00  0.00     0.010 A 
ATOM     35  C   UNL A   1      39.795  25.613  28.799  1.00  0.00     0.010 A 
ATOM     36  C   UNL A   1      40.466  26.488  27.932  1.00  0.00    -0.014 A 
BRANCH  36  37
ATOM     37  C   UNL A   1      41.137  27.725  28.419  1.00  0.00     0.031 A 
ATOM     38  C   UNL A   1      42.612  27.939  28.208  1.00  0.00     0.074 A 
ATOM     39  C   UNL A   1      40.387  28.696  28.977  1.00  0.00     0.049 A 
ATOM     40  N   UNL A   1      43.337  28.994  28.485  1.00  0.00    -0.248 NA
ATOM     41  C   UNL A   1      43.378  26.832  27.612  1.00  0.00     0.031 C 
ATOM     42  C   UNL A   1      38.947  28.602  29.232  1.00  0.00     0.029 A 
ATOM     43  N   UNL A   1      40.713  29.963  29.390  1.00  0.00    -0.354 N 
ATOM     44  C   UNL A   1      44.637  28.677  28.107  1.00  0.00     0.074 A 
ATOM     45  C   UNL A   1      44.612  27.317  27.614  1.00  0.00     0.031 C 
ATOM     46  C   UNL A   1      38.502  29.782  29.686  1.00  0.00     0.029 A 
ATOM     47  C   UNL A   1      39.631  30.699  29.812  1.00  0.00     0.049 A 
ATOM     48  H   UNL A   1      41.634  30.311  29.384  1.00  0.00     0.167 HD
ATOM     49  C   UNL A   1      45.745  29.455  28.150  1.00  0.00     0.037 A 
ATOM     50  C   UNL A   1      39.551  31.971  30.251  1.00  0.00     0.037 A 
ATOM     51  C   UNL A   1      45.761  30.815  28.622  1.00  0.00     0.049 A 
ATOM     52  C   UNL A   1      40.801  32.800  30.321  1.00  0.00     0.074 A 
ATOM     53  C   UNL A   1      46.833  31.688  28.691  1.00  0.00     0.029 A 
ATOM     54  N   UNL A   1      44.655  31.502  29.102  1.00  0.00    -0.354 N 
ATOM     55  N   UNL A   1      42.018  32.484  29.948  1.00  0.00    -0.248 NA
ATOM     56  C   UNL A   1      40.674  34.151  30.884  1.00  0.00     0.031 C 
ATOM     57  C   UNL A   1      46.384  32.889  29.247  1.00  0.00     0.029 A 
ATOM     58  C   UNL A   1      45.023  32.780  29.486  1.00  0.00     0.049 A 
ATOM     59  H   UNL A   1      43.744  31.134  29.162  1.00  0.00     0.167 HD
ATOM     60  C   UNL A   1      42.800  33.600  30.221  1.00  0.00     0.074 A 
ATOM     61  C   UNL A   1      41.917  34.605  30.776  1.00  0.00     0.031 C 
ATOM     62  C   UNL A   1      44.130  33.772  30.031  1.00  0.00     0.037 A 
BRANCH  49  63
ATOM     63  C   UNL A   1      47.041  28.861  27.671  1.00  0.00     0.058 A 
ATOM     64  C   UNL A   1      47.940  28.251  28.559  1.00  0.00     0.135 A 
ATOM     65  C   UNL A   1      47.357  28.841  26.302  1.00  0.00     0.135 A 
ATOM     66  F   UNL A   1      47.695  28.254  29.878  1.00  0.00    -0.206 F 
ATOM     67  C   UNL A   1      49.116  27.657  28.109  1.00  0.00     0.059 A 
ATOM     68  C   UNL A   1      48.516  28.233  25.827  1.00  0.00     0.059 A 
ATOM     69  F   UNL A   1      46.530  29.410  25.410  1.00  0.00    -0.206 F 
ATOM     70  C   UNL A   1      49.394  27.652  26.741  1.00  0.00     0.060 A 
BRANCH  70  71
ATOM     71  S   UNL A   1      50.918  26.865  26.177  1.00  0.00     0.124 S 
ATOM     72  O   UNL A   1      50.772  26.957  24.727  1.00  0.00    -0.237 OA
ATOM     73  O   UNL A   1      51.945  27.720  26.764  1.00  0.00    -0.237 OA
ATOM     74  O   UNL A   1      50.833  25.518  26.732  1.00  0.00    -0.744 OA
ENDBRANCH  70  71
ENDBRANCH  49  63
BRANCH  50  75
ATOM     75  C   UNL A   1      38.231  32.532  30.639  1.00  0.00     0.058 A 
ATOM     76  C   UNL A   1      37.777  32.457  31.962  1.00  0.00     0.135 A 
ATOM     77  C   UNL A   1      37.419  33.195  29.703  1.00  0.00     0.135 A 
ATOM     78  F   UNL A   1      38.515  31.830  32.890  1.00  0.00    -0.206 F 
ATOM     79  C   UNL A   1      36.565  33.020  32.348  1.00  0.00     0.059 A 
ATOM     80  C   UNL A   1      36.216  33.786  30.070  1.00  0.00     0.059 A 
ATOM     81  F   UNL A   1      37.817  33.304  28.427  1.00  0.00    -0.206 F 
ATOM     82  C   UNL A   1      35.794  33.689  31.396  1.00  0.00     0.060 A 
BRANCH  82  83
ATOM     83  S   UNL A   1      34.256  34.474  31.923  1.00  0.00     0.124 S 
ATOM     84  O   UNL A   1      34.751  35.692  32.554  1.00  0.00    -0.237 OA
ATOM     85  O   UNL A   1      33.554  34.651  30.656  1.00  0.00    -0.237 OA
ATOM     86  O   UNL A   1      33.668  33.489  32.824  1.00  0.00    -0.744 OA
ENDBRANCH  82  83
ENDBRANCH  50  75
BRANCH  62  87
ATOM     87  C   UNL A   1      44.725  35.097  30.414  1.00  0.00     0.058 A 
ATOM     88  C   UNL A   1      45.238  35.319  31.700  1.00  0.00     0.135 A 
ATOM     89  C   UNL A   1      44.880  36.111  29.456  1.00  0.00     0.135 A 
ATOM     90  F   UNL A   1      45.106  34.384  32.653  1.00  0.00    -0.206 F 
ATOM     91  C   UNL A   1      45.891  36.504  32.023  1.00  0.00     0.059 A 
ATOM     92  C   UNL A   1      45.548  37.295  29.751  1.00  0.00     0.059 A 
ATOM     93  F   UNL A   1      44.410  35.941  28.210  1.00  0.00    -0.206 F 
ATOM     94  C   UNL A   1      46.051  37.482  31.038  1.00  0.00     0.060 A 
BRANCH  94  95
ATOM     95  S   UNL A   1      46.973  38.978  31.450  1.00  0.00     0.124 S 
ATOM     96  O   UNL A   1      47.083  38.866  32.901  1.00  0.00    -0.237 OA
ATOM     97  O   UNL A   1      48.214  38.795  30.705  1.00  0.00    -0.237 OA
ATOM     98  O   UNL A   1      46.112  40.053  30.967  1.00  0.00    -0.744 OA
ENDBRANCH  94  95
ENDBRANCH  62  87
ENDBRANCH  36  37
ENDBRANCH  28  31
ENDBRANCH  26  27
ENDBRANCH  25  26
ENDBRANCH   1  25
TORSDOF 18
ENDMDL
