MODEL 1
REMARK VINA RESULT:     -13.0      0.000      0.000
REMARK SMILES CC(C)CCn1nc(C(=O)NCCCCCCNC(=O)c2ccc(-c3c4nc(c(-c5c(F)cc(S(=O)(=O)[O-])cc5F)c5ccc([nH]5)c(-c5c(F)cc(S(=O)(=O)[O-])cc5F)c5nc(c(-c6c(F)cc(S(=O)(=O)[O-])cc6F)c6ccc3[nH]6)C=C5)C=C4)cc2)c2c1CCN(C(=O)[C@@H]1CCc3nn(C)c(=O)n3C1)C2
REMARK SMILES IDX 14 1 13 2 12 3 11 4 9 5 10 6 8 8 6 9 7 10 88 11 87 12 89 13
REMARK SMILES IDX 105 14 90 15 91 16 5 17 4 18 2 19 1 20 3 21 92 22 93 23
REMARK SMILES IDX 94 24 95 25 104 26 96 27 103 28 97 29 101 30 98 31 99 32
REMARK SMILES IDX 102 33 100 34 15 35 16 36 17 37 18 38 19 39 20 41 21 42
REMARK SMILES IDX 22 43 86 44 23 45 85 46 24 47 25 48 26 49 79 50 27 51 84 52
REMARK SMILES IDX 78 53 80 54 28 55 83 56 77 57 76 58 29 60 63 61 42 62 62 63
REMARK SMILES IDX 43 64 46 65 61 66 81 67 44 68 45 69 60 71 82 72 47 73 30 74
REMARK SMILES IDX 31 75 40 76 32 77 33 78 39 79 41 80 34 81 35 82 36 83 37 84
REMARK SMILES IDX 38 85 64 86 65 87 74 88 66 89 67 90 73 91 75 92 68 93 69 94
REMARK SMILES IDX 70 95 71 96 72 97 48 98 49 99 58 100 50 101 51 102 57 103
REMARK SMILES IDX 59 104 52 105 53 106 54 107 55 108 56 109
REMARK H PARENT 11 7 18 40 80 59 46 70
REMARK Flexibility Score: inf
ROOT
ATOM      1  C   UNL A   1      40.411  22.352  26.355  1.00  0.00     0.002 C 
ENDROOT
BRANCH   1   2
ATOM      2  C   UNL A   1      38.974  22.839  26.515  1.00  0.00     0.021 C 
BRANCH   2   3
ATOM      3  C   UNL A   1      37.904  21.947  25.860  1.00  0.00     0.116 C 
BRANCH   3   4
ATOM      4  N   UNL A   1      37.626  22.349  24.492  1.00  0.00    -0.351 N 
ATOM      5  C   UNL A   1      36.488  22.536  23.738  1.00  0.00     0.272 C 
ATOM      6  O   UNL A   1      36.683  23.130  22.670  1.00  0.00    -0.267 OA
ATOM      7  H   UNL A   1      38.448  22.532  23.981  1.00  0.00     0.163 HD
BRANCH   5   8
ATOM      8  C   UNL A   1      35.127  22.107  24.147  1.00  0.00     0.155 A 
ATOM      9  N   UNL A   1      33.661  20.729  24.959  1.00  0.00    -0.268 N 
ATOM     10  N   UNL A   1      34.946  20.825  24.549  1.00  0.00    -0.167 NA
ATOM     11  C   UNL A   1      32.961  21.840  24.613  1.00  0.00     0.046 A 
ATOM     12  C   UNL A   1      33.894  22.804  24.275  1.00  0.00     0.026 A 
ATOM     13  C   UNL A   1      31.506  22.111  24.606  1.00  0.00     0.078 C 
ATOM     14  C   UNL A   1      33.520  24.228  24.053  1.00  0.00     0.159 C 
ATOM     15  C   UNL A   1      31.286  23.346  23.731  1.00  0.00     0.126 C 
ATOM     16  N   UNL A   1      32.080  24.472  24.184  1.00  0.00    -0.338 N 
BRANCH   9  17
ATOM     17  C   UNL A   1      33.319  19.565  25.765  1.00  0.00     0.145 C 
BRANCH  17  18
ATOM     18  C   UNL A   1      32.773  18.302  25.089  1.00  0.00     0.027 C 
BRANCH  18  19
ATOM     19  C   UNL A   1      33.361  18.016  23.694  1.00  0.00    -0.016 C 
ATOM     20  C   UNL A   1      33.888  16.595  23.534  1.00  0.00     0.007 C 
ATOM     21  C   UNL A   1      32.323  18.333  22.613  1.00  0.00     0.007 C 
ENDBRANCH  18  19
ENDBRANCH  17  18
ENDBRANCH   9  17
BRANCH  16  22
ATOM     22  C   UNL A   1      31.676  25.786  24.331  1.00  0.00     0.227 C 
ATOM     23  O   UNL A   1      30.606  26.020  24.913  1.00  0.00    -0.274 OA
BRANCH  22  24
ATOM     24  C   UNL A   1      32.473  27.006  23.816  1.00  0.00     0.099 C 
ATOM     25  C   UNL A   1      33.118  27.894  24.883  1.00  0.00     0.023 C 
ATOM     26  C   UNL A   1      31.832  27.813  22.693  1.00  0.00     0.142 C 
ATOM     27  C   UNL A   1      32.251  29.037  25.393  1.00  0.00     0.078 C 
ATOM     28  N   UNL A   1      31.179  29.018  23.155  1.00  0.00    -0.278 N 
ATOM     29  C   UNL A   1      31.293  29.583  24.375  1.00  0.00     0.133 A 
ATOM     30  C   UNL A   1      30.060  29.568  22.580  1.00  0.00     0.345 A 
ATOM     31  N   UNL A   1      30.376  30.465  24.653  1.00  0.00    -0.155 NA
ATOM     32  N   UNL A   1      29.579  30.476  23.528  1.00  0.00    -0.216 N 
ATOM     33  O   UNL A   1      29.515  29.220  21.544  1.00  0.00    -0.246 OA
ATOM     34  C   UNL A   1      28.265  31.058  23.518  1.00  0.00     0.179 C 
ENDBRANCH  22  24
ENDBRANCH  16  22
ENDBRANCH   5   8
ENDBRANCH   3   4
ENDBRANCH   2   3
ENDBRANCH   1   2
BRANCH   1  35
ATOM     35  C   UNL A   1      40.962  21.588  27.570  1.00  0.00     0.002 C 
BRANCH  35  36
ATOM     36  C   UNL A   1      41.880  20.386  27.283  1.00  0.00     0.021 C 
BRANCH  36  37
ATOM     37  C   UNL A   1      41.973  20.012  25.810  1.00  0.00     0.116 C 
BRANCH  37  38
ATOM     38  N   UNL A   1      43.328  19.627  25.416  1.00  0.00    -0.352 N 
ATOM     39  C   UNL A   1      44.398  20.441  25.091  1.00  0.00     0.251 C 
ATOM     40  H   UNL A   1      43.502  18.658  25.379  1.00  0.00     0.163 HD
ATOM     41  O   UNL A   1      45.356  19.991  24.487  1.00  0.00    -0.269 OA
BRANCH  39  42
ATOM     42  C   UNL A   1      44.349  21.865  25.479  1.00  0.00     0.039 A 
ATOM     43  C   UNL A   1      43.616  22.789  24.733  1.00  0.00     0.014 A 
ATOM     44  C   UNL A   1      45.036  22.267  26.622  1.00  0.00     0.014 A 
ATOM     45  C   UNL A   1      43.512  24.098  25.201  1.00  0.00     0.010 A 
ATOM     46  C   UNL A   1      44.801  23.505  27.165  1.00  0.00     0.010 A 
ATOM     47  C   UNL A   1      44.083  24.444  26.440  1.00  0.00    -0.014 A 
BRANCH  47  48
ATOM     48  C   UNL A   1      43.817  25.751  27.043  1.00  0.00     0.031 A 
ATOM     49  C   UNL A   1      44.849  26.772  26.730  1.00  0.00     0.074 A 
ATOM     50  C   UNL A   1      42.672  26.074  27.686  1.00  0.00     0.049 A 
ATOM     51  N   UNL A   1      45.749  27.233  27.532  1.00  0.00    -0.248 NA
ATOM     52  C   UNL A   1      45.029  27.201  25.332  1.00  0.00     0.031 C 
ATOM     53  C   UNL A   1      41.462  25.254  27.847  1.00  0.00     0.029 A 
ATOM     54  N   UNL A   1      42.310  27.250  28.280  1.00  0.00    -0.354 N 
ATOM     55  C   UNL A   1      46.441  28.203  26.814  1.00  0.00     0.074 A 
ATOM     56  C   UNL A   1      46.096  28.000  25.432  1.00  0.00     0.031 C 
ATOM     57  C   UNL A   1      40.439  26.021  28.284  1.00  0.00     0.029 A 
ATOM     58  C   UNL A   1      40.963  27.331  28.619  1.00  0.00     0.049 A 
ATOM     59  H   UNL A   1      42.950  27.978  28.453  1.00  0.00     0.167 HD
ATOM     60  C   UNL A   1      47.010  29.257  27.462  1.00  0.00     0.037 A 
ATOM     61  C   UNL A   1      40.313  28.377  29.188  1.00  0.00     0.037 A 
ATOM     62  C   UNL A   1      47.027  29.027  28.886  1.00  0.00     0.049 A 
ATOM     63  C   UNL A   1      41.331  29.161  29.922  1.00  0.00     0.074 A 
ATOM     64  C   UNL A   1      47.739  28.236  29.761  1.00  0.00     0.029 A 
ATOM     65  N   UNL A   1      45.875  29.411  29.524  1.00  0.00    -0.354 N 
ATOM     66  N   UNL A   1      41.981  28.692  30.953  1.00  0.00    -0.248 NA
ATOM     67  C   UNL A   1      41.921  30.336  29.296  1.00  0.00     0.031 C 
ATOM     68  C   UNL A   1      46.866  27.980  30.860  1.00  0.00     0.029 A 
ATOM     69  C   UNL A   1      45.667  28.658  30.650  1.00  0.00     0.049 A 
ATOM     70  H   UNL A   1      45.280  30.130  29.215  1.00  0.00     0.167 HD
ATOM     71  C   UNL A   1      43.250  29.223  30.831  1.00  0.00     0.074 A 
ATOM     72  C   UNL A   1      43.105  30.349  29.916  1.00  0.00     0.031 C 
ATOM     73  C   UNL A   1      44.346  28.515  31.230  1.00  0.00     0.037 A 
BRANCH  60  74
ATOM     74  C   UNL A   1      47.105  30.666  26.914  1.00  0.00     0.058 A 
ATOM     75  C   UNL A   1      48.338  31.351  26.989  1.00  0.00     0.135 A 
ATOM     76  C   UNL A   1      45.982  31.468  26.617  1.00  0.00     0.135 A 
ATOM     77  F   UNL A   1      49.471  30.688  27.271  1.00  0.00    -0.206 F 
ATOM     78  C   UNL A   1      48.435  32.737  26.850  1.00  0.00     0.059 A 
ATOM     79  C   UNL A   1      46.064  32.844  26.428  1.00  0.00     0.059 A 
ATOM     80  F   UNL A   1      44.738  30.978  26.597  1.00  0.00    -0.206 F 
ATOM     81  C   UNL A   1      47.286  33.477  26.585  1.00  0.00     0.060 A 
BRANCH  81  82
ATOM     82  S   UNL A   1      47.386  35.274  26.497  1.00  0.00     0.124 S 
ATOM     83  O   UNL A   1      46.150  35.601  25.796  1.00  0.00    -0.237 OA
ATOM     84  O   UNL A   1      47.442  35.642  27.908  1.00  0.00    -0.237 OA
ATOM     85  O   UNL A   1      48.617  35.503  25.745  1.00  0.00    -0.744 OA
ENDBRANCH  81  82
ENDBRANCH  60  74
BRANCH  61  86
ATOM     86  C   UNL A   1      38.927  28.853  28.952  1.00  0.00     0.058 A 
ATOM     87  C   UNL A   1      38.003  29.011  29.999  1.00  0.00     0.135 A 
ATOM     88  C   UNL A   1      38.577  29.438  27.719  1.00  0.00     0.135 A 
ATOM     89  F   UNL A   1      38.267  28.505  31.214  1.00  0.00    -0.206 F 
ATOM     90  C   UNL A   1      36.821  29.747  29.847  1.00  0.00     0.059 A 
ATOM     91  C   UNL A   1      37.405  30.173  27.543  1.00  0.00     0.059 A 
ATOM     92  F   UNL A   1      39.417  29.390  26.674  1.00  0.00    -0.206 F 
ATOM     93  C   UNL A   1      36.540  30.344  28.619  1.00  0.00     0.060 A 
BRANCH  93  94
ATOM     94  S   UNL A   1      35.104  31.435  28.462  1.00  0.00     0.124 S 
ATOM     95  O   UNL A   1      34.096  30.533  27.917  1.00  0.00    -0.237 OA
ATOM     96  O   UNL A   1      34.894  31.869  29.839  1.00  0.00    -0.237 OA
ATOM     97  O   UNL A   1      35.568  32.478  27.550  1.00  0.00    -0.744 OA
ENDBRANCH  93  94
ENDBRANCH  61  86
BRANCH  73  98
ATOM     98  C   UNL A   1      44.132  27.411  32.227  1.00  0.00     0.058 A 
ATOM     99  C   UNL A   1      44.124  26.041  31.918  1.00  0.00     0.135 A 
ATOM    100  C   UNL A   1      44.023  27.765  33.579  1.00  0.00     0.135 A 
ATOM    101  F   UNL A   1      44.300  25.617  30.660  1.00  0.00    -0.206 F 
ATOM    102  C   UNL A   1      43.983  25.066  32.907  1.00  0.00     0.059 A 
ATOM    103  C   UNL A   1      43.910  26.811  34.585  1.00  0.00     0.059 A 
ATOM    104  F   UNL A   1      44.074  29.058  33.940  1.00  0.00    -0.206 F 
ATOM    105  C   UNL A   1      43.879  25.462  34.240  1.00  0.00     0.060 A 
BRANCH 105 106
ATOM    106  S   UNL A   1      43.771  24.202  35.529  1.00  0.00     0.124 S 
ATOM    107  O   UNL A   1      44.953  24.484  36.335  1.00  0.00    -0.237 OA
ATOM    108  O   UNL A   1      42.488  24.502  36.159  1.00  0.00    -0.237 OA
ATOM    109  O   UNL A   1      43.809  22.946  34.783  1.00  0.00    -0.744 OA
ENDBRANCH 105 106
ENDBRANCH  73  98
ENDBRANCH  47  48
ENDBRANCH  39  42
ENDBRANCH  37  38
ENDBRANCH  36  37
ENDBRANCH  35  36
ENDBRANCH   1  35
TORSDOF 21
ENDMDL
MODEL 2
REMARK VINA RESULT:     -11.1      5.194     10.898
REMARK SMILES CC(C)CCn1nc(C(=O)NCCCCCCNC(=O)c2ccc(-c3c4nc(c(-c5c(F)cc(S(=O)(=O)[O-])cc5F)c5ccc([nH]5)c(-c5c(F)cc(S(=O)(=O)[O-])cc5F)c5nc(c(-c6c(F)cc(S(=O)(=O)[O-])cc6F)c6ccc3[nH]6)C=C5)C=C4)cc2)c2c1CCN(C(=O)[C@@H]1CCc3nn(C)c(=O)n3C1)C2
REMARK SMILES IDX 14 1 13 2 12 3 11 4 9 5 10 6 8 8 6 9 7 10 88 11 87 12 89 13
REMARK SMILES IDX 105 14 90 15 91 16 5 17 4 18 2 19 1 20 3 21 92 22 93 23
REMARK SMILES IDX 94 24 95 25 104 26 96 27 103 28 97 29 101 30 98 31 99 32
REMARK SMILES IDX 102 33 100 34 15 35 16 36 17 37 18 38 19 39 20 41 21 42
REMARK SMILES IDX 22 43 86 44 23 45 85 46 24 47 25 48 26 49 79 50 27 51 84 52
REMARK SMILES IDX 78 53 80 54 28 55 83 56 77 57 76 58 29 60 63 61 42 62 62 63
REMARK SMILES IDX 43 64 46 65 61 66 81 67 44 68 45 69 60 71 82 72 47 73 30 74
REMARK SMILES IDX 31 75 40 76 32 77 33 78 39 79 41 80 34 81 35 82 36 83 37 84
REMARK SMILES IDX 38 85 64 86 65 87 74 88 66 89 67 90 73 91 75 92 68 93 69 94
REMARK SMILES IDX 70 95 71 96 72 97 48 98 49 99 58 100 50 101 51 102 57 103
REMARK SMILES IDX 59 104 52 105 53 106 54 107 55 108 56 109
REMARK H PARENT 11 7 18 40 80 59 46 70
REMARK Flexibility Score: inf
ROOT
ATOM      1  C   UNL A   1      45.116  24.084  27.259  1.00  0.00     0.002 C 
ENDROOT
BRANCH   1   2
ATOM      2  C   UNL A   1      44.932  25.508  26.744  1.00  0.00     0.021 C 
BRANCH   2   3
ATOM      3  C   UNL A   1      45.187  25.698  25.237  1.00  0.00     0.116 C 
BRANCH   3   4
ATOM      4  N   UNL A   1      45.521  27.074  24.913  1.00  0.00    -0.351 N 
ATOM      5  C   UNL A   1      46.684  27.760  24.637  1.00  0.00     0.272 C 
ATOM      6  O   UNL A   1      46.503  28.889  24.163  1.00  0.00    -0.267 OA
ATOM      7  H   UNL A   1      44.727  27.656  24.884  1.00  0.00     0.163 HD
BRANCH   5   8
ATOM      8  C   UNL A   1      48.050  27.219  24.846  1.00  0.00     0.155 A 
ATOM      9  N   UNL A   1      49.615  26.204  25.955  1.00  0.00    -0.268 N 
ATOM     10  N   UNL A   1      48.368  26.717  26.065  1.00  0.00    -0.167 NA
ATOM     11  C   UNL A   1      50.185  26.573  24.779  1.00  0.00     0.046 A 
ATOM     12  C   UNL A   1      49.162  27.047  23.976  1.00  0.00     0.026 A 
ATOM     13  C   UNL A   1      51.585  26.488  24.307  1.00  0.00     0.078 C 
ATOM     14  C   UNL A   1      49.357  27.338  22.530  1.00  0.00     0.159 C 
ATOM     15  C   UNL A   1      51.710  27.427  23.106  1.00  0.00     0.126 C 
ATOM     16  N   UNL A   1      50.735  27.116  22.078  1.00  0.00    -0.338 N 
BRANCH   9  17
ATOM     17  C   UNL A   1      50.041  25.295  27.009  1.00  0.00     0.145 C 
BRANCH  17  18
ATOM     18  C   UNL A   1      50.985  25.793  28.111  1.00  0.00     0.027 C 
BRANCH  18  19
ATOM     19  C   UNL A   1      50.354  25.857  29.515  1.00  0.00    -0.016 C 
ATOM     20  C   UNL A   1      50.620  27.169  30.244  1.00  0.00     0.007 C 
ATOM     21  C   UNL A   1      48.850  25.583  29.426  1.00  0.00     0.007 C 
ENDBRANCH  18  19
ENDBRANCH  17  18
ENDBRANCH   9  17
BRANCH  16  22
ATOM     22  C   UNL A   1      50.944  27.030  20.715  1.00  0.00     0.227 C 
ATOM     23  O   UNL A   1      50.683  25.965  20.136  1.00  0.00    -0.274 OA
BRANCH  22  24
ATOM     24  C   UNL A   1      51.487  28.184  19.842  1.00  0.00     0.099 C 
ATOM     25  C   UNL A   1      52.846  27.951  19.177  1.00  0.00     0.023 C 
ATOM     26  C   UNL A   1      51.349  29.591  20.410  1.00  0.00     0.142 C 
ATOM     27  C   UNL A   1      54.055  28.382  19.995  1.00  0.00     0.078 C 
ATOM     28  N   UNL A   1      52.567  30.089  21.010  1.00  0.00    -0.278 N 
ATOM     29  C   UNL A   1      53.801  29.554  20.897  1.00  0.00     0.133 A 
ATOM     30  C   UNL A   1      52.616  30.943  22.083  1.00  0.00     0.345 A 
ATOM     31  N   UNL A   1      54.663  29.987  21.773  1.00  0.00    -0.155 NA
ATOM     32  N   UNL A   1      53.935  30.872  22.539  1.00  0.00    -0.216 N 
ATOM     33  O   UNL A   1      51.676  31.510  22.620  1.00  0.00    -0.246 OA
ATOM     34  C   UNL A   1      54.391  31.339  23.820  1.00  0.00     0.179 C 
ENDBRANCH  22  24
ENDBRANCH  16  22
ENDBRANCH   5   8
ENDBRANCH   3   4
ENDBRANCH   2   3
ENDBRANCH   1   2
BRANCH   1  35
ATOM     35  C   UNL A   1      45.330  23.032  26.158  1.00  0.00     0.002 C 
BRANCH  35  36
ATOM     36  C   UNL A   1      44.147  22.101  25.842  1.00  0.00     0.021 C 
BRANCH  36  37
ATOM     37  C   UNL A   1      42.940  22.809  25.242  1.00  0.00     0.116 C 
BRANCH  37  38
ATOM     38  N   UNL A   1      41.695  22.075  25.463  1.00  0.00    -0.352 N 
ATOM     39  C   UNL A   1      40.756  22.248  26.464  1.00  0.00     0.251 C 
ATOM     40  H   UNL A   1      41.497  21.364  24.811  1.00  0.00     0.163 HD
ATOM     41  O   UNL A   1      39.941  21.373  26.705  1.00  0.00    -0.269 OA
BRANCH  39  42
ATOM     42  C   UNL A   1      40.770  23.504  27.241  1.00  0.00     0.039 A 
ATOM     43  C   UNL A   1      41.679  23.695  28.283  1.00  0.00     0.014 A 
ATOM     44  C   UNL A   1      39.868  24.507  26.898  1.00  0.00     0.014 A 
ATOM     45  C   UNL A   1      41.725  24.937  28.912  1.00  0.00     0.010 A 
ATOM     46  C   UNL A   1      40.023  25.773  27.404  1.00  0.00     0.010 A 
ATOM     47  C   UNL A   1      40.913  25.988  28.446  1.00  0.00    -0.014 A 
BRANCH  47  48
ATOM     48  C   UNL A   1      41.089  27.347  28.958  1.00  0.00     0.031 A 
ATOM     49  C   UNL A   1      42.218  28.079  28.328  1.00  0.00     0.074 A 
ATOM     50  C   UNL A   1      40.226  27.963  29.798  1.00  0.00     0.049 A 
ATOM     51  N   UNL A   1      43.359  28.351  28.866  1.00  0.00    -0.248 NA
ATOM     52  C   UNL A   1      42.156  28.386  26.889  1.00  0.00     0.031 C 
ATOM     53  C   UNL A   1      38.937  27.462  30.299  1.00  0.00     0.029 A 
ATOM     54  N   UNL A   1      40.281  29.218  30.334  1.00  0.00    -0.354 N 
ATOM     55  C   UNL A   1      44.060  29.095  27.922  1.00  0.00     0.074 A 
ATOM     56  C   UNL A   1      43.366  28.913  26.675  1.00  0.00     0.031 C 
ATOM     57  C   UNL A   1      38.240  28.469  30.867  1.00  0.00     0.029 A 
ATOM     58  C   UNL A   1      39.102  29.633  30.947  1.00  0.00     0.049 A 
ATOM     59  H   UNL A   1      41.088  29.782  30.291  1.00  0.00     0.167 HD
ATOM     60  C   UNL A   1      44.982  30.013  28.322  1.00  0.00     0.037 A 
ATOM     61  C   UNL A   1      38.850  30.829  31.535  1.00  0.00     0.037 A 
ATOM     62  C   UNL A   1      45.281  29.853  29.724  1.00  0.00     0.049 A 
ATOM     63  C   UNL A   1      40.157  31.383  31.949  1.00  0.00     0.074 A 
ATOM     64  C   UNL A   1      45.986  28.959  30.499  1.00  0.00     0.029 A 
ATOM     65  N   UNL A   1      44.423  30.529  30.554  1.00  0.00    -0.354 N 
ATOM     66  N   UNL A   1      40.911  30.823  32.857  1.00  0.00    -0.248 NA
ATOM     67  C   UNL A   1      40.829  32.354  31.095  1.00  0.00     0.031 C 
ATOM     68  C   UNL A   1      45.359  28.970  31.781  1.00  0.00     0.029 A 
ATOM     69  C   UNL A   1      44.323  29.902  31.768  1.00  0.00     0.049 A 
ATOM     70  H   UNL A   1      43.945  31.354  30.310  1.00  0.00     0.167 HD
ATOM     71  C   UNL A   1      42.201  31.032  32.410  1.00  0.00     0.074 A 
ATOM     72  C   UNL A   1      42.098  32.115  31.440  1.00  0.00     0.031 C 
ATOM     73  C   UNL A   1      43.176  30.104  32.631  1.00  0.00     0.037 A 
BRANCH  60  74
ATOM     74  C   UNL A   1      45.254  31.331  27.627  1.00  0.00     0.058 A 
ATOM     75  C   UNL A   1      46.512  31.542  27.021  1.00  0.00     0.135 A 
ATOM     76  C   UNL A   1      44.465  32.488  27.805  1.00  0.00     0.135 A 
ATOM     77  F   UNL A   1      47.348  30.514  26.808  1.00  0.00    -0.206 F 
ATOM     78  C   UNL A   1      46.978  32.815  26.685  1.00  0.00     0.059 A 
ATOM     79  C   UNL A   1      44.890  33.759  27.434  1.00  0.00     0.059 A 
ATOM     80  F   UNL A   1      43.288  32.460  28.441  1.00  0.00    -0.206 F 
ATOM     81  C   UNL A   1      46.163  33.920  26.911  1.00  0.00     0.060 A 
BRANCH  81  82
ATOM     82  S   UNL A   1      46.791  35.574  26.567  1.00  0.00     0.124 S 
ATOM     83  O   UNL A   1      47.573  35.344  25.359  1.00  0.00    -0.237 OA
ATOM     84  O   UNL A   1      45.557  36.335  26.398  1.00  0.00    -0.237 OA
ATOM     85  O   UNL A   1      47.560  35.895  27.766  1.00  0.00    -0.744 OA
ENDBRANCH  81  82
ENDBRANCH  60  74
BRANCH  61  86
ATOM     86  C   UNL A   1      37.586  31.607  31.558  1.00  0.00     0.058 A 
ATOM     87  C   UNL A   1      36.762  31.661  32.695  1.00  0.00     0.135 A 
ATOM     88  C   UNL A   1      37.316  32.552  30.548  1.00  0.00     0.135 A 
ATOM     89  F   UNL A   1      36.964  30.813  33.716  1.00  0.00    -0.206 F 
ATOM     90  C   UNL A   1      35.756  32.624  32.844  1.00  0.00     0.059 A 
ATOM     91  C   UNL A   1      36.318  33.519  30.672  1.00  0.00     0.059 A 
ATOM     92  F   UNL A   1      38.081  32.618  29.448  1.00  0.00    -0.206 F 
ATOM     93  C   UNL A   1      35.556  33.565  31.834  1.00  0.00     0.060 A 
BRANCH  93  94
ATOM     94  S   UNL A   1      34.377  34.915  32.091  1.00  0.00     0.124 S 
ATOM     95  O   UNL A   1      35.183  35.886  32.822  1.00  0.00    -0.237 OA
ATOM     96  O   UNL A   1      34.023  35.280  30.724  1.00  0.00    -0.237 OA
ATOM     97  O   UNL A   1      33.305  34.287  32.860  1.00  0.00    -0.744 OA
ENDBRANCH  93  94
ENDBRANCH  61  86
BRANCH  73  98
ATOM     98  C   UNL A   1      42.965  29.131  33.757  1.00  0.00     0.058 A 
ATOM     99  C   UNL A   1      43.104  29.438  35.121  1.00  0.00     0.135 A 
ATOM    100  C   UNL A   1      42.507  27.846  33.432  1.00  0.00     0.135 A 
ATOM    101  F   UNL A   1      43.462  30.666  35.517  1.00  0.00    -0.206 F 
ATOM    102  C   UNL A   1      42.829  28.498  36.116  1.00  0.00     0.059 A 
ATOM    103  C   UNL A   1      42.200  26.903  34.406  1.00  0.00     0.059 A 
ATOM    104  F   UNL A   1      42.308  27.510  32.146  1.00  0.00    -0.206 F 
ATOM    105  C   UNL A   1      42.374  27.233  35.749  1.00  0.00     0.060 A 
BRANCH 105 106
ATOM    106  S   UNL A   1      41.947  26.040  37.035  1.00  0.00     0.124 S 
ATOM    107  O   UNL A   1      40.567  26.400  37.342  1.00  0.00    -0.237 OA
ATOM    108  O   UNL A   1      42.132  24.761  36.356  1.00  0.00    -0.237 OA
ATOM    109  O   UNL A   1      42.914  26.318  38.094  1.00  0.00    -0.744 OA
ENDBRANCH 105 106
ENDBRANCH  73  98
ENDBRANCH  47  48
ENDBRANCH  39  42
ENDBRANCH  37  38
ENDBRANCH  36  37
ENDBRANCH  35  36
ENDBRANCH   1  35
TORSDOF 21
ENDMDL
MODEL 3
REMARK VINA RESULT:     -11.1      1.738      2.459
REMARK SMILES CC(C)CCn1nc(C(=O)NCCCCCCNC(=O)c2ccc(-c3c4nc(c(-c5c(F)cc(S(=O)(=O)[O-])cc5F)c5ccc([nH]5)c(-c5c(F)cc(S(=O)(=O)[O-])cc5F)c5nc(c(-c6c(F)cc(S(=O)(=O)[O-])cc6F)c6ccc3[nH]6)C=C5)C=C4)cc2)c2c1CCN(C(=O)[C@@H]1CCc3nn(C)c(=O)n3C1)C2
REMARK SMILES IDX 14 1 13 2 12 3 11 4 9 5 10 6 8 8 6 9 7 10 88 11 87 12 89 13
REMARK SMILES IDX 105 14 90 15 91 16 5 17 4 18 2 19 1 20 3 21 92 22 93 23
REMARK SMILES IDX 94 24 95 25 104 26 96 27 103 28 97 29 101 30 98 31 99 32
REMARK SMILES IDX 102 33 100 34 15 35 16 36 17 37 18 38 19 39 20 41 21 42
REMARK SMILES IDX 22 43 86 44 23 45 85 46 24 47 25 48 26 49 79 50 27 51 84 52
REMARK SMILES IDX 78 53 80 54 28 55 83 56 77 57 76 58 29 60 63 61 42 62 62 63
REMARK SMILES IDX 43 64 46 65 61 66 81 67 44 68 45 69 60 71 82 72 47 73 30 74
REMARK SMILES IDX 31 75 40 76 32 77 33 78 39 79 41 80 34 81 35 82 36 83 37 84
REMARK SMILES IDX 38 85 64 86 65 87 74 88 66 89 67 90 73 91 75 92 68 93 69 94
REMARK SMILES IDX 70 95 71 96 72 97 48 98 49 99 58 100 50 101 51 102 57 103
REMARK SMILES IDX 59 104 52 105 53 106 54 107 55 108 56 109
REMARK H PARENT 11 7 18 40 80 59 46 70
REMARK Flexibility Score: inf
ROOT
ATOM      1  C   UNL A   1      39.692  24.519  26.746  1.00  0.00     0.002 C 
ENDROOT
BRANCH   1   2
ATOM      2  C   UNL A   1      38.185  24.286  26.698  1.00  0.00     0.021 C 
BRANCH   2   3
ATOM      3  C   UNL A   1      37.748  22.945  26.081  1.00  0.00     0.116 C 
BRANCH   3   4
ATOM      4  N   UNL A   1      37.666  23.015  24.632  1.00  0.00    -0.351 N 
ATOM      5  C   UNL A   1      36.659  22.889  23.702  1.00  0.00     0.272 C 
ATOM      6  O   UNL A   1      36.970  23.269  22.567  1.00  0.00    -0.267 OA
ATOM      7  H   UNL A   1      38.540  23.196  24.216  1.00  0.00     0.163 HD
BRANCH   5   8
ATOM      8  C   UNL A   1      35.298  22.375  23.999  1.00  0.00     0.155 A 
ATOM      9  N   UNL A   1      33.861  20.997  24.861  1.00  0.00    -0.268 N 
ATOM     10  N   UNL A   1      35.179  21.175  24.620  1.00  0.00    -0.167 NA
ATOM     11  C   UNL A   1      33.121  21.930  24.209  1.00  0.00     0.046 A 
ATOM     12  C   UNL A   1      33.999  22.925  23.816  1.00  0.00     0.026 A 
ATOM     13  C   UNL A   1      31.666  22.012  23.949  1.00  0.00     0.078 C 
ATOM     14  C   UNL A   1      33.530  24.226  23.266  1.00  0.00     0.159 C 
ATOM     15  C   UNL A   1      31.469  23.029  22.825  1.00  0.00     0.126 C 
ATOM     16  N   UNL A   1      32.070  24.309  23.148  1.00  0.00    -0.338 N 
BRANCH   9  17
ATOM     17  C   UNL A   1      33.509  19.967  25.829  1.00  0.00     0.145 C 
BRANCH  17  18
ATOM     18  C   UNL A   1      32.751  18.715  25.369  1.00  0.00     0.027 C 
BRANCH  18  19
ATOM     19  C   UNL A   1      33.590  17.424  25.363  1.00  0.00    -0.016 C 
ATOM     20  C   UNL A   1      32.764  16.161  25.145  1.00  0.00     0.007 C 
ATOM     21  C   UNL A   1      34.704  17.528  24.317  1.00  0.00     0.007 C 
ENDBRANCH  18  19
ENDBRANCH  17  18
ENDBRANCH   9  17
BRANCH  16  22
ATOM     22  C   UNL A   1      31.524  25.567  22.974  1.00  0.00     0.227 C 
ATOM     23  O   UNL A   1      31.498  26.054  21.834  1.00  0.00    -0.274 OA
BRANCH  22  24
ATOM     24  C   UNL A   1      30.932  26.425  24.115  1.00  0.00     0.099 C 
ATOM     25  C   UNL A   1      29.577  25.978  24.669  1.00  0.00     0.023 C 
ATOM     26  C   UNL A   1      31.025  27.937  23.947  1.00  0.00     0.142 C 
ATOM     27  C   UNL A   1      28.360  26.574  23.975  1.00  0.00     0.078 C 
ATOM     28  N   UNL A   1      29.794  28.537  23.481  1.00  0.00    -0.278 N 
ATOM     29  C   UNL A   1      28.580  27.953  23.425  1.00  0.00     0.133 A 
ATOM     30  C   UNL A   1      29.723  29.647  22.676  1.00  0.00     0.345 A 
ATOM     31  N   UNL A   1      27.709  28.576  22.683  1.00  0.00    -0.155 NA
ATOM     32  N   UNL A   1      28.411  29.658  22.194  1.00  0.00    -0.216 N 
ATOM     33  O   UNL A   1      30.647  30.367  22.326  1.00  0.00    -0.246 OA
ATOM     34  C   UNL A   1      27.949  30.437  21.078  1.00  0.00     0.179 C 
ENDBRANCH  22  24
ENDBRANCH  16  22
ENDBRANCH   5   8
ENDBRANCH   3   4
ENDBRANCH   2   3
ENDBRANCH   1   2
BRANCH   1  35
ATOM     35  C   UNL A   1      40.425  23.712  27.830  1.00  0.00     0.002 C 
BRANCH  35  36
ATOM     36  C   UNL A   1      41.290  22.531  27.358  1.00  0.00     0.021 C 
BRANCH  36  37
ATOM     37  C   UNL A   1      41.245  22.287  25.856  1.00  0.00     0.116 C 
BRANCH  37  38
ATOM     38  N   UNL A   1      42.560  21.970  25.301  1.00  0.00    -0.352 N 
ATOM     39  C   UNL A   1      43.635  22.814  25.090  1.00  0.00     0.251 C 
ATOM     40  H   UNL A   1      42.700  21.030  25.044  1.00  0.00     0.163 HD
ATOM     41  O   UNL A   1      44.541  22.487  24.342  1.00  0.00    -0.269 OA
BRANCH  39  42
ATOM     42  C   UNL A   1      43.657  24.121  25.778  1.00  0.00     0.039 A 
ATOM     43  C   UNL A   1      42.968  25.218  25.259  1.00  0.00     0.014 A 
ATOM     44  C   UNL A   1      44.365  24.232  26.971  1.00  0.00     0.014 A 
ATOM     45  C   UNL A   1      42.929  26.397  26.001  1.00  0.00     0.010 A 
ATOM     46  C   UNL A   1      44.193  25.333  27.773  1.00  0.00     0.010 A 
ATOM     47  C   UNL A   1      43.519  26.440  27.278  1.00  0.00    -0.014 A 
BRANCH  47  48
ATOM     48  C   UNL A   1      43.318  27.595  28.153  1.00  0.00     0.031 A 
ATOM     49  C   UNL A   1      44.368  28.637  28.014  1.00  0.00     0.074 A 
ATOM     50  C   UNL A   1      42.211  27.800  28.902  1.00  0.00     0.049 A 
ATOM     51  N   UNL A   1      45.314  28.898  28.852  1.00  0.00    -0.248 NA
ATOM     52  C   UNL A   1      44.504  29.347  26.730  1.00  0.00     0.031 C 
ATOM     53  C   UNL A   1      40.984  26.991  28.944  1.00  0.00     0.029 A 
ATOM     54  N   UNL A   1      41.911  28.832  29.745  1.00  0.00    -0.354 N 
ATOM     55  C   UNL A   1      46.006  29.983  28.322  1.00  0.00     0.074 A 
ATOM     56  C   UNL A   1      45.599  30.084  26.946  1.00  0.00     0.031 C 
ATOM     57  C   UNL A   1      40.004  27.671  29.578  1.00  0.00     0.029 A 
ATOM     58  C   UNL A   1      40.582  28.870  30.156  1.00  0.00     0.049 A 
ATOM     59  H   UNL A   1      42.579  29.494  30.038  1.00  0.00     0.167 HD
ATOM     60  C   UNL A   1      46.633  30.864  29.150  1.00  0.00     0.037 A 
ATOM     61  C   UNL A   1      39.988  29.786  30.961  1.00  0.00     0.037 A 
ATOM     62  C   UNL A   1      46.701  30.338  30.491  1.00  0.00     0.049 A 
ATOM     63  C   UNL A   1      41.058  30.375  31.795  1.00  0.00     0.074 A 
ATOM     64  C   UNL A   1      47.423  29.366  31.147  1.00  0.00     0.029 A 
ATOM     65  N   UNL A   1      45.589  30.604  31.248  1.00  0.00    -0.354 N 
ATOM     66  N   UNL A   1      41.735  29.685  32.674  1.00  0.00    -0.248 NA
ATOM     67  C   UNL A   1      41.660  31.643  31.403  1.00  0.00     0.031 C 
ATOM     68  C   UNL A   1      46.588  28.903  32.207  1.00  0.00     0.029 A 
ATOM     69  C   UNL A   1      45.403  29.636  32.199  1.00  0.00     0.049 A 
ATOM     70  H   UNL A   1      45.004  31.386  31.125  1.00  0.00     0.167 HD
ATOM     71  C   UNL A   1      43.014  30.203  32.607  1.00  0.00     0.074 A 
ATOM     72  C   UNL A   1      42.867  31.499  31.956  1.00  0.00     0.031 C 
ATOM     73  C   UNL A   1      44.103  29.403  32.797  1.00  0.00     0.037 A 
BRANCH  60  74
ATOM     74  C   UNL A   1      46.749  32.354  28.905  1.00  0.00     0.058 A 
ATOM     75  C   UNL A   1      45.573  33.113  28.712  1.00  0.00     0.135 A 
ATOM     76  C   UNL A   1      47.953  32.997  28.542  1.00  0.00     0.135 A 
ATOM     77  F   UNL A   1      44.371  32.599  29.017  1.00  0.00    -0.206 F 
ATOM     78  C   UNL A   1      45.588  34.384  28.134  1.00  0.00     0.059 A 
ATOM     79  C   UNL A   1      47.994  34.281  28.009  1.00  0.00     0.059 A 
ATOM     80  F   UNL A   1      49.137  32.376  28.586  1.00  0.00    -0.206 F 
ATOM     81  C   UNL A   1      46.805  34.953  27.772  1.00  0.00     0.060 A 
BRANCH  81  82
ATOM     82  S   UNL A   1      46.828  36.553  26.943  1.00  0.00     0.124 S 
ATOM     83  O   UNL A   1      45.738  36.402  25.986  1.00  0.00    -0.237 OA
ATOM     84  O   UNL A   1      46.587  37.471  28.052  1.00  0.00    -0.237 OA
ATOM     85  O   UNL A   1      48.169  36.612  26.368  1.00  0.00    -0.744 OA
ENDBRANCH  81  82
ENDBRANCH  60  74
BRANCH  61  86
ATOM     86  C   UNL A   1      38.609  30.331  30.894  1.00  0.00     0.058 A 
ATOM     87  C   UNL A   1      37.699  30.193  31.957  1.00  0.00     0.135 A 
ATOM     88  C   UNL A   1      38.258  31.254  29.889  1.00  0.00     0.135 A 
ATOM     89  F   UNL A   1      37.966  29.352  32.969  1.00  0.00    -0.206 F 
ATOM     90  C   UNL A   1      36.530  30.959  32.042  1.00  0.00     0.059 A 
ATOM     91  C   UNL A   1      37.097  32.026  29.952  1.00  0.00     0.059 A 
ATOM     92  F   UNL A   1      39.086  31.497  28.862  1.00  0.00    -0.206 F 
ATOM     93  C   UNL A   1      36.248  31.891  31.044  1.00  0.00     0.060 A 
BRANCH  93  94
ATOM     94  S   UNL A   1      34.831  33.003  31.232  1.00  0.00     0.124 S 
ATOM     95  O   UNL A   1      34.145  32.837  29.956  1.00  0.00    -0.237 OA
ATOM     96  O   UNL A   1      34.154  32.445  32.398  1.00  0.00    -0.237 OA
ATOM     97  O   UNL A   1      35.451  34.309  31.443  1.00  0.00    -0.744 OA
ENDBRANCH  93  94
ENDBRANCH  61  86
BRANCH  73  98
ATOM     98  C   UNL A   1      43.896  28.118  33.549  1.00  0.00     0.058 A 
ATOM     99  C   UNL A   1      43.711  28.022  34.939  1.00  0.00     0.135 A 
ATOM    100  C   UNL A   1      43.789  26.936  32.805  1.00  0.00     0.135 A 
ATOM    101  F   UNL A   1      43.722  29.116  35.712  1.00  0.00    -0.206 F 
ATOM    102  C   UNL A   1      43.461  26.799  35.563  1.00  0.00     0.059 A 
ATOM    103  C   UNL A   1      43.512  25.710  33.400  1.00  0.00     0.059 A 
ATOM    104  F   UNL A   1      43.908  26.972  31.466  1.00  0.00    -0.206 F 
ATOM    105  C   UNL A   1      43.360  25.647  34.784  1.00  0.00     0.060 A 
BRANCH 105 106
ATOM    106  S   UNL A   1      42.963  24.075  35.579  1.00  0.00     0.124 S 
ATOM    107  O   UNL A   1      41.674  24.361  36.198  1.00  0.00    -0.237 OA
ATOM    108  O   UNL A   1      42.933  23.148  34.451  1.00  0.00    -0.237 OA
ATOM    109  O   UNL A   1      44.071  23.874  36.510  1.00  0.00    -0.744 OA
ENDBRANCH 105 106
ENDBRANCH  73  98
ENDBRANCH  47  48
ENDBRANCH  39  42
ENDBRANCH  37  38
ENDBRANCH  36  37
ENDBRANCH  35  36
ENDBRANCH   1  35
TORSDOF 21
ENDMDL
