MODEL 1
REMARK VINA RESULT:     -13.2      0.000      0.000
REMARK SMILES Cc1ccccc1C(=O)Nc1ccc(N2CCCCC2)cc1C(=O)NCCCCCCNC(=O)c1ccc(-c2c3nc(c(-c4c(F)cc(S(=O)(=O)[O-])cc4F)c4ccc([nH]4)c(-c4c(F)cc(S(=O)(=O)[O-])cc4F)c4nc(c(-c5c(F)cc(S(=O)(=O)[O-])cc5F)c5ccc2[nH]5)C=C4)C=C3)cc1
REMARK SMILES IDX 29 1 28 2 27 3 26 4 25 5 23 6 24 7 22 9 11 10 12 11 13 12
REMARK SMILES IDX 21 13 14 14 10 15 8 16 9 17 7 19 1 20 2 21 3 22 4 23 6 24
REMARK SMILES IDX 5 25 15 26 16 27 20 28 17 29 19 30 18 31 30 32 31 33 32 34
REMARK SMILES IDX 33 35 34 37 35 38 36 39 100 40 37 41 99 42 38 43 39 44 40 45
REMARK SMILES IDX 93 46 41 47 98 48 92 49 94 50 42 51 97 52 91 53 90 54 43 56
REMARK SMILES IDX 77 57 56 58 76 59 57 60 60 61 75 62 95 63 58 64 59 65 74 67
REMARK SMILES IDX 96 68 61 69 44 70 45 71 54 72 46 73 47 74 53 75 55 76 48 77
REMARK SMILES IDX 49 78 50 79 51 80 52 81 78 82 79 83 88 84 80 85 81 86 87 87
REMARK SMILES IDX 89 88 82 89 83 90 84 91 85 92 86 93 62 94 63 95 72 96 64 97
REMARK SMILES IDX 65 98 71 99 73 100 66 101 67 102 68 103 69 104 70 105
REMARK H PARENT 25 8 10 18 32 36 94 55 60 66
REMARK Flexibility Score: inf
ROOT
ATOM      1  C   UNL A   1      31.944  29.611  25.668  1.00  0.00     0.002 C 
ENDROOT
BRANCH   1   2
ATOM      2  C   UNL A   1      32.435  29.700  24.219  1.00  0.00     0.002 C 
BRANCH   2   3
ATOM      3  C   UNL A   1      33.399  28.621  23.722  1.00  0.00     0.021 C 
BRANCH   3   4
ATOM      4  C   UNL A   1      33.427  28.318  22.226  1.00  0.00     0.116 C 
BRANCH   4   5
ATOM      5  N   UNL A   1      33.129  26.946  21.857  1.00  0.00    -0.352 N 
ATOM      6  C   UNL A   1      31.937  26.256  21.891  1.00  0.00     0.253 C 
ATOM      7  O   UNL A   1      31.896  25.119  21.423  1.00  0.00    -0.269 OA
ATOM      8  H   UNL A   1      33.899  26.427  21.532  1.00  0.00     0.163 HD
BRANCH   6   9
ATOM      9  C   UNL A   1      30.700  26.849  22.470  1.00  0.00     0.065 A 
ATOM     10  C   UNL A   1      29.809  26.083  23.244  1.00  0.00     0.054 A 
ATOM     11  C   UNL A   1      28.572  26.634  23.608  1.00  0.00     0.029 A 
ATOM     12  C   UNL A   1      28.304  27.979  23.378  1.00  0.00     0.028 A 
ATOM     13  C   UNL A   1      30.344  28.173  22.140  1.00  0.00     0.042 A 
ATOM     14  C   UNL A   1      29.211  28.784  22.686  1.00  0.00     0.038 A 
BRANCH  10  15
ATOM     15  N   UNL A   1      30.020  24.802  23.778  1.00  0.00    -0.321 N 
ATOM     16  C   UNL A   1      31.013  24.262  24.555  1.00  0.00     0.255 C 
ATOM     17  O   UNL A   1      30.963  23.047  24.776  1.00  0.00    -0.269 OA
ATOM     18  H   UNL A   1      29.311  24.159  23.547  1.00  0.00     0.170 HD
BRANCH  16  19
ATOM     19  C   UNL A   1      32.064  25.053  25.254  1.00  0.00     0.043 A 
ATOM     20  C   UNL A   1      34.105  24.144  23.954  1.00  0.00     0.045 C 
ATOM     21  C   UNL A   1      33.446  25.029  24.972  1.00  0.00    -0.038 A 
ATOM     22  C   UNL A   1      34.291  25.912  25.674  1.00  0.00     0.004 A 
ATOM     23  C   UNL A   1      33.781  26.848  26.573  1.00  0.00     0.000 A 
ATOM     24  C   UNL A   1      31.564  26.016  26.151  1.00  0.00     0.014 A 
ATOM     25  C   UNL A   1      32.414  26.910  26.802  1.00  0.00     0.001 A 
ENDBRANCH  16  19
ENDBRANCH  10  15
BRANCH  14  26
ATOM     26  N   UNL A   1      28.988  30.156  22.648  1.00  0.00    -0.372 N 
ATOM     27  C   UNL A   1      28.059  30.577  21.585  1.00  0.00     0.116 C 
ATOM     28  C   UNL A   1      28.901  30.926  23.887  1.00  0.00     0.116 C 
ATOM     29  C   UNL A   1      28.309  32.040  21.234  1.00  0.00     0.021 C 
ATOM     30  C   UNL A   1      29.187  32.396  23.570  1.00  0.00     0.021 C 
ATOM     31  C   UNL A   1      28.262  32.928  22.475  1.00  0.00     0.004 C 
ENDBRANCH  14  26
ENDBRANCH   6   9
ENDBRANCH   4   5
ENDBRANCH   3   4
ENDBRANCH   2   3
ENDBRANCH   1   2
BRANCH   1  32
ATOM     32  C   UNL A   1      32.394  30.718  26.618  1.00  0.00     0.021 C 
BRANCH  32  33
ATOM     33  C   UNL A   1      33.626  30.383  27.453  1.00  0.00     0.116 C 
BRANCH  33  34
ATOM     34  N   UNL A   1      34.049  31.481  28.314  1.00  0.00    -0.352 N 
ATOM     35  C   UNL A   1      35.167  31.537  29.137  1.00  0.00     0.251 C 
ATOM     36  H   UNL A   1      33.473  32.278  28.313  1.00  0.00     0.163 HD
ATOM     37  O   UNL A   1      35.370  32.455  29.902  1.00  0.00    -0.269 OA
BRANCH  35  38
ATOM     38  C   UNL A   1      36.153  30.444  28.986  1.00  0.00     0.039 A 
ATOM     39  C   UNL A   1      36.402  29.637  30.100  1.00  0.00     0.014 A 
ATOM     40  C   UNL A   1      36.988  30.418  27.873  1.00  0.00     0.014 A 
ATOM     41  C   UNL A   1      37.608  28.946  30.180  1.00  0.00     0.010 A 
ATOM     42  C   UNL A   1      38.221  29.804  27.992  1.00  0.00     0.010 A 
ATOM     43  C   UNL A   1      38.557  29.123  29.171  1.00  0.00    -0.014 A 
BRANCH  43  44
ATOM     44  C   UNL A   1      39.957  28.726  29.308  1.00  0.00     0.031 A 
ATOM     45  C   UNL A   1      40.377  27.346  28.952  1.00  0.00     0.074 A 
ATOM     46  C   UNL A   1      40.886  29.629  29.704  1.00  0.00     0.049 A 
ATOM     47  N   UNL A   1      41.499  26.813  29.308  1.00  0.00    -0.248 NA
ATOM     48  C   UNL A   1      39.512  26.411  28.236  1.00  0.00     0.031 C 
ATOM     49  C   UNL A   1      42.337  29.491  29.596  1.00  0.00     0.029 A 
ATOM     50  N   UNL A   1      40.724  30.771  30.497  1.00  0.00    -0.354 N 
ATOM     51  C   UNL A   1      41.634  25.619  28.637  1.00  0.00     0.074 A 
ATOM     52  C   UNL A   1      40.322  25.355  28.105  1.00  0.00     0.031 C 
ATOM     53  C   UNL A   1      42.915  30.275  30.517  1.00  0.00     0.029 A 
ATOM     54  C   UNL A   1      41.850  30.825  31.337  1.00  0.00     0.049 A 
ATOM     55  H   UNL A   1      39.973  31.408  30.472  1.00  0.00     0.167 HD
ATOM     56  C   UNL A   1      42.877  25.073  28.502  1.00  0.00     0.037 A 
ATOM     57  C   UNL A   1      41.818  30.778  32.702  1.00  0.00     0.037 A 
ATOM     58  C   UNL A   1      43.815  25.702  29.435  1.00  0.00     0.049 A 
ATOM     59  C   UNL A   1      42.652  29.658  33.287  1.00  0.00     0.074 A 
ATOM     60  C   UNL A   1      44.844  26.616  29.284  1.00  0.00     0.029 A 
ATOM     61  N   UNL A   1      43.594  25.580  30.805  1.00  0.00    -0.354 N 
ATOM     62  N   UNL A   1      43.116  28.657  32.590  1.00  0.00    -0.248 NA
ATOM     63  C   UNL A   1      42.989  29.548  34.704  1.00  0.00     0.031 C 
ATOM     64  C   UNL A   1      45.165  27.123  30.573  1.00  0.00     0.029 A 
ATOM     65  C   UNL A   1      44.365  26.485  31.508  1.00  0.00     0.049 A 
ATOM     66  H   UNL A   1      42.971  24.938  31.216  1.00  0.00     0.167 HD
ATOM     67  C   UNL A   1      43.748  27.769  33.420  1.00  0.00     0.074 A 
ATOM     68  C   UNL A   1      43.672  28.389  34.730  1.00  0.00     0.031 C 
ATOM     69  C   UNL A   1      44.260  26.588  32.959  1.00  0.00     0.037 A 
BRANCH  56  70
ATOM     70  C   UNL A   1      43.322  24.123  27.390  1.00  0.00     0.058 A 
ATOM     71  C   UNL A   1      42.951  22.756  27.428  1.00  0.00     0.135 A 
ATOM     72  C   UNL A   1      44.223  24.440  26.348  1.00  0.00     0.135 A 
ATOM     73  F   UNL A   1      42.095  22.295  28.351  1.00  0.00    -0.206 F 
ATOM     74  C   UNL A   1      43.465  21.792  26.550  1.00  0.00     0.059 A 
ATOM     75  C   UNL A   1      44.718  23.503  25.436  1.00  0.00     0.059 A 
ATOM     76  F   UNL A   1      44.730  25.663  26.177  1.00  0.00    -0.206 F 
ATOM     77  C   UNL A   1      44.362  22.172  25.563  1.00  0.00     0.060 A 
BRANCH  77  78
ATOM     78  S   UNL A   1      45.087  20.933  24.473  1.00  0.00     0.124 S 
ATOM     79  O   UNL A   1      44.616  21.372  23.164  1.00  0.00    -0.237 OA
ATOM     80  O   UNL A   1      46.515  21.090  24.724  1.00  0.00    -0.237 OA
ATOM     81  O   UNL A   1      44.509  19.679  24.951  1.00  0.00    -0.744 OA
ENDBRANCH  77  78
ENDBRANCH  56  70
BRANCH  57  82
ATOM     82  C   UNL A   1      40.587  31.330  33.318  1.00  0.00     0.058 A 
ATOM     83  C   UNL A   1      39.554  30.431  33.631  1.00  0.00     0.135 A 
ATOM     84  C   UNL A   1      40.603  32.567  33.978  1.00  0.00     0.135 A 
ATOM     85  F   UNL A   1      39.474  29.251  32.995  1.00  0.00    -0.206 F 
ATOM     86  C   UNL A   1      38.685  30.666  34.690  1.00  0.00     0.059 A 
ATOM     87  C   UNL A   1      39.737  32.826  35.040  1.00  0.00     0.059 A 
ATOM     88  F   UNL A   1      41.571  33.458  33.720  1.00  0.00    -0.206 F 
ATOM     89  C   UNL A   1      38.840  31.833  35.436  1.00  0.00     0.060 A 
BRANCH  89  90
ATOM     90  S   UNL A   1      38.018  31.920  37.045  1.00  0.00     0.124 S 
ATOM     91  O   UNL A   1      36.946  32.875  36.789  1.00  0.00    -0.237 OA
ATOM     92  O   UNL A   1      37.605  30.530  37.227  1.00  0.00    -0.237 OA
ATOM     93  O   UNL A   1      39.080  32.379  37.932  1.00  0.00    -0.744 OA
ENDBRANCH  89  90
ENDBRANCH  57  82
BRANCH  69  94
ATOM     94  C   UNL A   1      44.779  25.460  33.823  1.00  0.00     0.058 A 
ATOM     95  C   UNL A   1      46.143  25.170  34.006  1.00  0.00     0.135 A 
ATOM     96  C   UNL A   1      43.886  24.698  34.616  1.00  0.00     0.135 A 
ATOM     97  F   UNL A   1      47.096  25.902  33.412  1.00  0.00    -0.206 F 
ATOM     98  C   UNL A   1      46.587  24.144  34.845  1.00  0.00     0.059 A 
ATOM     99  C   UNL A   1      44.311  23.708  35.500  1.00  0.00     0.059 A 
ATOM    100  F   UNL A   1      42.561  24.901  34.565  1.00  0.00    -0.206 F 
ATOM    101  C   UNL A   1      45.665  23.414  35.584  1.00  0.00     0.060 A 
BRANCH 101 102
ATOM    102  S   UNL A   1      46.227  22.117  36.704  1.00  0.00     0.124 S 
ATOM    103  O   UNL A   1      45.792  22.638  37.996  1.00  0.00    -0.237 OA
ATOM    104  O   UNL A   1      45.509  20.938  36.228  1.00  0.00    -0.237 OA
ATOM    105  O   UNL A   1      47.670  22.094  36.483  1.00  0.00    -0.744 OA
ENDBRANCH 101 102
ENDBRANCH  69  94
ENDBRANCH  43  44
ENDBRANCH  35  38
ENDBRANCH  33  34
ENDBRANCH  32  33
ENDBRANCH   1  32
TORSDOF 19
ENDMDL
MODEL 2
REMARK VINA RESULT:     -12.5      1.761      4.171
REMARK SMILES Cc1ccccc1C(=O)Nc1ccc(N2CCCCC2)cc1C(=O)NCCCCCCNC(=O)c1ccc(-c2c3nc(c(-c4c(F)cc(S(=O)(=O)[O-])cc4F)c4ccc([nH]4)c(-c4c(F)cc(S(=O)(=O)[O-])cc4F)c4nc(c(-c5c(F)cc(S(=O)(=O)[O-])cc5F)c5ccc2[nH]5)C=C4)C=C3)cc1
REMARK SMILES IDX 29 1 28 2 27 3 26 4 25 5 23 6 24 7 22 9 11 10 12 11 13 12
REMARK SMILES IDX 21 13 14 14 10 15 8 16 9 17 7 19 1 20 2 21 3 22 4 23 6 24
REMARK SMILES IDX 5 25 15 26 16 27 20 28 17 29 19 30 18 31 30 32 31 33 32 34
REMARK SMILES IDX 33 35 34 37 35 38 36 39 100 40 37 41 99 42 38 43 39 44 40 45
REMARK SMILES IDX 93 46 41 47 98 48 92 49 94 50 42 51 97 52 91 53 90 54 43 56
REMARK SMILES IDX 77 57 56 58 76 59 57 60 60 61 75 62 95 63 58 64 59 65 74 67
REMARK SMILES IDX 96 68 61 69 44 70 45 71 54 72 46 73 47 74 53 75 55 76 48 77
REMARK SMILES IDX 49 78 50 79 51 80 52 81 78 82 79 83 88 84 80 85 81 86 87 87
REMARK SMILES IDX 89 88 82 89 83 90 84 91 85 92 86 93 62 94 63 95 72 96 64 97
REMARK SMILES IDX 65 98 71 99 73 100 66 101 67 102 68 103 69 104 70 105
REMARK H PARENT 25 8 10 18 32 36 94 55 60 66
REMARK Flexibility Score: inf
ROOT
ATOM      1  C   UNL A   1      32.428  30.536  27.327  1.00  0.00     0.002 C 
ENDROOT
BRANCH   1   2
ATOM      2  C   UNL A   1      31.793  29.165  27.072  1.00  0.00     0.002 C 
BRANCH   2   3
ATOM      3  C   UNL A   1      32.591  27.921  27.471  1.00  0.00     0.021 C 
BRANCH   3   4
ATOM      4  C   UNL A   1      32.453  26.671  26.605  1.00  0.00     0.116 C 
BRANCH   4   5
ATOM      5  N   UNL A   1      31.526  25.667  27.094  1.00  0.00    -0.352 N 
ATOM      6  C   UNL A   1      31.395  24.338  26.754  1.00  0.00     0.253 C 
ATOM      7  O   UNL A   1      30.600  23.640  27.384  1.00  0.00    -0.269 OA
ATOM      8  H   UNL A   1      30.891  25.986  27.775  1.00  0.00     0.163 HD
BRANCH   6   9
ATOM      9  C   UNL A   1      32.189  23.724  25.655  1.00  0.00     0.065 A 
ATOM     10  C   UNL A   1      31.670  23.597  24.353  1.00  0.00     0.054 A 
ATOM     11  C   UNL A   1      32.380  22.848  23.405  1.00  0.00     0.029 A 
ATOM     12  C   UNL A   1      33.666  22.398  23.680  1.00  0.00     0.028 A 
ATOM     13  C   UNL A   1      33.442  23.145  25.944  1.00  0.00     0.042 A 
ATOM     14  C   UNL A   1      34.239  22.586  24.939  1.00  0.00     0.038 A 
BRANCH  10  15
ATOM     15  N   UNL A   1      30.513  24.195  23.831  1.00  0.00    -0.321 N 
ATOM     16  C   UNL A   1      30.219  25.469  23.417  1.00  0.00     0.255 C 
ATOM     17  O   UNL A   1      29.050  25.707  23.098  1.00  0.00    -0.269 OA
ATOM     18  H   UNL A   1      29.756  23.571  23.744  1.00  0.00     0.170 HD
BRANCH  16  19
ATOM     19  C   UNL A   1      31.231  26.541  23.202  1.00  0.00     0.043 A 
ATOM     20  C   UNL A   1      32.634  25.339  21.395  1.00  0.00     0.045 C 
ATOM     21  C   UNL A   1      32.296  26.504  22.278  1.00  0.00    -0.038 A 
ATOM     22  C   UNL A   1      33.109  27.648  22.143  1.00  0.00     0.004 A 
ATOM     23  C   UNL A   1      32.833  28.824  22.839  1.00  0.00     0.000 A 
ATOM     24  C   UNL A   1      30.957  27.743  23.883  1.00  0.00     0.014 A 
ATOM     25  C   UNL A   1      31.747  28.876  23.701  1.00  0.00     0.001 A 
ENDBRANCH  16  19
ENDBRANCH  10  15
BRANCH  14  26
ATOM     26  N   UNL A   1      35.588  22.293  25.107  1.00  0.00    -0.372 N 
ATOM     27  C   UNL A   1      36.300  23.250  25.973  1.00  0.00     0.116 C 
ATOM     28  C   UNL A   1      36.037  20.907  25.216  1.00  0.00     0.116 C 
ATOM     29  C   UNL A   1      37.790  23.223  25.652  1.00  0.00     0.021 C 
ATOM     30  C   UNL A   1      37.524  20.844  24.860  1.00  0.00     0.021 C 
ATOM     31  C   UNL A   1      38.350  21.804  25.716  1.00  0.00     0.004 C 
ENDBRANCH  14  26
ENDBRANCH   6   9
ENDBRANCH   4   5
ENDBRANCH   3   4
ENDBRANCH   2   3
ENDBRANCH   1   2
BRANCH   1  32
ATOM     32  C   UNL A   1      33.952  30.598  27.352  1.00  0.00     0.021 C 
BRANCH  32  33
ATOM     33  C   UNL A   1      34.533  31.972  27.671  1.00  0.00     0.116 C 
BRANCH  33  34
ATOM     34  N   UNL A   1      34.471  32.305  29.089  1.00  0.00    -0.352 N 
ATOM     35  C   UNL A   1      35.206  31.751  30.129  1.00  0.00     0.251 C 
ATOM     36  H   UNL A   1      33.829  33.007  29.340  1.00  0.00     0.163 HD
ATOM     37  O   UNL A   1      34.999  32.020  31.292  1.00  0.00    -0.269 OA
BRANCH  35  38
ATOM     38  C   UNL A   1      36.321  30.857  29.744  1.00  0.00     0.039 A 
ATOM     39  C   UNL A   1      36.505  29.692  30.494  1.00  0.00     0.014 A 
ATOM     40  C   UNL A   1      37.298  31.313  28.863  1.00  0.00     0.014 A 
ATOM     41  C   UNL A   1      37.760  29.087  30.510  1.00  0.00     0.010 A 
ATOM     42  C   UNL A   1      38.564  30.765  28.948  1.00  0.00     0.010 A 
ATOM     43  C   UNL A   1      38.811  29.694  29.820  1.00  0.00    -0.014 A 
BRANCH  43  44
ATOM     44  C   UNL A   1      40.216  29.348  30.031  1.00  0.00     0.031 A 
ATOM     45  C   UNL A   1      40.725  28.018  29.609  1.00  0.00     0.074 A 
ATOM     46  C   UNL A   1      41.070  30.257  30.560  1.00  0.00     0.049 A 
ATOM     47  N   UNL A   1      41.843  27.507  30.007  1.00  0.00    -0.248 NA
ATOM     48  C   UNL A   1      39.960  27.104  28.764  1.00  0.00     0.031 C 
ATOM     49  C   UNL A   1      42.530  30.189  30.551  1.00  0.00     0.029 A 
ATOM     50  N   UNL A   1      40.797  31.327  31.421  1.00  0.00    -0.354 N 
ATOM     51  C   UNL A   1      42.083  26.375  29.263  1.00  0.00     0.074 A 
ATOM     52  C   UNL A   1      40.827  26.097  28.617  1.00  0.00     0.031 C 
ATOM     53  C   UNL A   1      43.002  30.924  31.568  1.00  0.00     0.029 A 
ATOM     54  C   UNL A   1      41.856  31.365  32.344  1.00  0.00     0.049 A 
ATOM     55  H   UNL A   1      40.020  31.932  31.385  1.00  0.00     0.167 HD
ATOM     56  C   UNL A   1      43.358  25.894  29.183  1.00  0.00     0.037 A 
ATOM     57  C   UNL A   1      41.729  31.213  33.695  1.00  0.00     0.037 A 
ATOM     58  C   UNL A   1      44.196  26.489  30.227  1.00  0.00     0.049 A 
ATOM     59  C   UNL A   1      42.571  30.088  34.258  1.00  0.00     0.074 A 
ATOM     60  C   UNL A   1      45.187  27.455  30.220  1.00  0.00     0.029 A 
ATOM     61  N   UNL A   1      43.882  26.255  31.564  1.00  0.00    -0.354 N 
ATOM     62  N   UNL A   1      43.132  29.164  33.527  1.00  0.00    -0.248 NA
ATOM     63  C   UNL A   1      42.812  29.885  35.685  1.00  0.00     0.031 C 
ATOM     64  C   UNL A   1      45.391  27.876  31.563  1.00  0.00     0.029 A 
ATOM     65  C   UNL A   1      44.557  27.135  32.386  1.00  0.00     0.049 A 
ATOM     66  H   UNL A   1      43.264  25.557  31.879  1.00  0.00     0.167 HD
ATOM     67  C   UNL A   1      43.745  28.243  34.335  1.00  0.00     0.074 A 
ATOM     68  C   UNL A   1      43.546  28.758  35.677  1.00  0.00     0.031 C 
ATOM     69  C   UNL A   1      44.344  27.123  33.830  1.00  0.00     0.037 A 
BRANCH  56  70
ATOM     70  C   UNL A   1      43.926  25.052  28.041  1.00  0.00     0.058 A 
ATOM     71  C   UNL A   1      44.168  25.637  26.774  1.00  0.00     0.135 A 
ATOM     72  C   UNL A   1      44.118  23.651  28.068  1.00  0.00     0.135 A 
ATOM     73  F   UNL A   1      44.039  26.958  26.583  1.00  0.00    -0.206 F 
ATOM     74  C   UNL A   1      44.515  24.896  25.635  1.00  0.00     0.059 A 
ATOM     75  C   UNL A   1      44.502  22.898  26.954  1.00  0.00     0.059 A 
ATOM     76  F   UNL A   1      43.890  22.911  29.154  1.00  0.00    -0.206 F 
ATOM     77  C   UNL A   1      44.666  23.521  25.731  1.00  0.00     0.060 A 
BRANCH  77  78
ATOM     78  S   UNL A   1      45.040  22.547  24.261  1.00  0.00     0.124 S 
ATOM     79  O   UNL A   1      45.424  21.265  24.841  1.00  0.00    -0.237 OA
ATOM     80  O   UNL A   1      43.773  22.568  23.539  1.00  0.00    -0.237 OA
ATOM     81  O   UNL A   1      46.126  23.291  23.627  1.00  0.00    -0.744 OA
ENDBRANCH  77  78
ENDBRANCH  56  70
BRANCH  57  82
ATOM     82  C   UNL A   1      40.432  31.664  34.256  1.00  0.00     0.058 A 
ATOM     83  C   UNL A   1      39.452  30.687  34.502  1.00  0.00     0.135 A 
ATOM     84  C   UNL A   1      40.325  32.886  34.935  1.00  0.00     0.135 A 
ATOM     85  F   UNL A   1      39.490  29.517  33.845  1.00  0.00    -0.206 F 
ATOM     86  C   UNL A   1      38.517  30.840  35.519  1.00  0.00     0.059 A 
ATOM     87  C   UNL A   1      39.392  33.062  35.956  1.00  0.00     0.059 A 
ATOM     88  F   UNL A   1      41.238  33.849  34.741  1.00  0.00    -0.206 F 
ATOM     89  C   UNL A   1      38.550  32.000  36.289  1.00  0.00     0.060 A 
BRANCH  89  90
ATOM     90  S   UNL A   1      37.645  31.997  37.855  1.00  0.00     0.124 S 
ATOM     91  O   UNL A   1      38.675  32.403  38.804  1.00  0.00    -0.237 OA
ATOM     92  O   UNL A   1      36.603  32.985  37.582  1.00  0.00    -0.237 OA
ATOM     93  O   UNL A   1      37.185  30.617  37.967  1.00  0.00    -0.744 OA
ENDBRANCH  89  90
ENDBRANCH  57  82
BRANCH  69  94
ATOM     94  C   UNL A   1      44.854  25.955  34.646  1.00  0.00     0.058 A 
ATOM     95  C   UNL A   1      46.183  25.820  35.083  1.00  0.00     0.135 A 
ATOM     96  C   UNL A   1      43.953  24.976  35.131  1.00  0.00     0.135 A 
ATOM     97  F   UNL A   1      47.108  26.748  34.799  1.00  0.00    -0.206 F 
ATOM     98  C   UNL A   1      46.610  24.747  35.871  1.00  0.00     0.059 A 
ATOM     99  C   UNL A   1      44.346  23.929  35.962  1.00  0.00     0.059 A 
ATOM    100  F   UNL A   1      42.649  25.012  34.820  1.00  0.00    -0.206 F 
ATOM    101  C   UNL A   1      45.686  23.802  36.302  1.00  0.00     0.060 A 
BRANCH 101 102
ATOM    102  S   UNL A   1      46.214  22.437  37.355  1.00  0.00     0.124 S 
ATOM    103  O   UNL A   1      47.662  22.621  37.367  1.00  0.00    -0.237 OA
ATOM    104  O   UNL A   1      45.534  22.714  38.617  1.00  0.00    -0.237 OA
ATOM    105  O   UNL A   1      45.730  21.261  36.638  1.00  0.00    -0.744 OA
ENDBRANCH 101 102
ENDBRANCH  69  94
ENDBRANCH  43  44
ENDBRANCH  35  38
ENDBRANCH  33  34
ENDBRANCH  32  33
ENDBRANCH   1  32
TORSDOF 19
ENDMDL
MODEL 3
REMARK VINA RESULT:     -12.4      3.800      5.459
REMARK SMILES Cc1ccccc1C(=O)Nc1ccc(N2CCCCC2)cc1C(=O)NCCCCCCNC(=O)c1ccc(-c2c3nc(c(-c4c(F)cc(S(=O)(=O)[O-])cc4F)c4ccc([nH]4)c(-c4c(F)cc(S(=O)(=O)[O-])cc4F)c4nc(c(-c5c(F)cc(S(=O)(=O)[O-])cc5F)c5ccc2[nH]5)C=C4)C=C3)cc1
REMARK SMILES IDX 29 1 28 2 27 3 26 4 25 5 23 6 24 7 22 9 11 10 12 11 13 12
REMARK SMILES IDX 21 13 14 14 10 15 8 16 9 17 7 19 1 20 2 21 3 22 4 23 6 24
REMARK SMILES IDX 5 25 15 26 16 27 20 28 17 29 19 30 18 31 30 32 31 33 32 34
REMARK SMILES IDX 33 35 34 37 35 38 36 39 100 40 37 41 99 42 38 43 39 44 40 45
REMARK SMILES IDX 93 46 41 47 98 48 92 49 94 50 42 51 97 52 91 53 90 54 43 56
REMARK SMILES IDX 77 57 56 58 76 59 57 60 60 61 75 62 95 63 58 64 59 65 74 67
REMARK SMILES IDX 96 68 61 69 44 70 45 71 54 72 46 73 47 74 53 75 55 76 48 77
REMARK SMILES IDX 49 78 50 79 51 80 52 81 78 82 79 83 88 84 80 85 81 86 87 87
REMARK SMILES IDX 89 88 82 89 83 90 84 91 85 92 86 93 62 94 63 95 72 96 64 97
REMARK SMILES IDX 65 98 71 99 73 100 66 101 67 102 68 103 69 104 70 105
REMARK H PARENT 25 8 10 18 32 36 94 55 60 66
REMARK Flexibility Score: inf
ROOT
ATOM      1  C   UNL A   1      36.727  29.525  28.585  1.00  0.00     0.002 C 
ENDROOT
BRANCH   1   2
ATOM      2  C   UNL A   1      35.776  29.620  27.386  1.00  0.00     0.002 C 
BRANCH   2   3
ATOM      3  C   UNL A   1      34.276  29.732  27.667  1.00  0.00     0.021 C 
BRANCH   3   4
ATOM      4  C   UNL A   1      33.359  28.644  27.113  1.00  0.00     0.116 C 
BRANCH   4   5
ATOM      5  N   UNL A   1      34.026  27.540  26.447  1.00  0.00    -0.352 N 
ATOM      6  C   UNL A   1      33.520  26.574  25.605  1.00  0.00     0.253 C 
ATOM      7  O   UNL A   1      34.299  25.791  25.064  1.00  0.00    -0.269 OA
ATOM      8  H   UNL A   1      34.991  27.471  26.625  1.00  0.00     0.163 HD
BRANCH   6   9
ATOM      9  C   UNL A   1      32.062  26.457  25.327  1.00  0.00     0.065 A 
ATOM     10  C   UNL A   1      31.277  25.453  25.924  1.00  0.00     0.054 A 
ATOM     11  C   UNL A   1      29.957  25.269  25.489  1.00  0.00     0.029 A 
ATOM     12  C   UNL A   1      29.366  26.182  24.624  1.00  0.00     0.028 A 
ATOM     13  C   UNL A   1      31.471  27.289  24.354  1.00  0.00     0.042 A 
ATOM     14  C   UNL A   1      30.100  27.239  24.083  1.00  0.00     0.038 A 
BRANCH  10  15
ATOM     15  N   UNL A   1      31.631  24.607  26.987  1.00  0.00    -0.321 N 
ATOM     16  C   UNL A   1      32.152  23.340  27.043  1.00  0.00     0.255 C 
ATOM     17  O   UNL A   1      32.256  22.818  28.158  1.00  0.00    -0.269 OA
ATOM     18  H   UNL A   1      31.473  25.005  27.873  1.00  0.00     0.170 HD
BRANCH  16  19
ATOM     19  C   UNL A   1      32.719  22.606  25.877  1.00  0.00     0.043 A 
ATOM     20  C   UNL A   1      35.219  22.909  26.457  1.00  0.00     0.045 C 
ATOM     21  C   UNL A   1      34.088  22.383  25.623  1.00  0.00    -0.038 A 
ATOM     22  C   UNL A   1      34.446  21.589  24.514  1.00  0.00     0.004 A 
ATOM     23  C   UNL A   1      33.481  20.966  23.723  1.00  0.00     0.000 A 
ATOM     24  C   UNL A   1      31.759  21.955  25.078  1.00  0.00     0.014 A 
ATOM     25  C   UNL A   1      32.135  21.138  24.014  1.00  0.00     0.001 A 
ENDBRANCH  16  19
ENDBRANCH  10  15
BRANCH  14  26
ATOM     26  N   UNL A   1      29.422  28.229  23.379  1.00  0.00    -0.372 N 
ATOM     27  C   UNL A   1      30.180  28.769  22.237  1.00  0.00     0.116 C 
ATOM     28  C   UNL A   1      27.978  28.136  23.176  1.00  0.00     0.116 C 
ATOM     29  C   UNL A   1      29.673  30.168  21.900  1.00  0.00     0.021 C 
ATOM     30  C   UNL A   1      27.435  29.535  22.874  1.00  0.00     0.021 C 
ATOM     31  C   UNL A   1      28.160  30.179  21.693  1.00  0.00     0.004 C 
ENDBRANCH  14  26
ENDBRANCH   6   9
ENDBRANCH   4   5
ENDBRANCH   3   4
ENDBRANCH   2   3
ENDBRANCH   1   2
BRANCH   1  32
ATOM     32  C   UNL A   1      36.894  30.781  29.434  1.00  0.00     0.021 C 
BRANCH  32  33
ATOM     33  C   UNL A   1      37.965  30.686  30.516  1.00  0.00     0.116 C 
BRANCH  33  34
ATOM     34  N   UNL A   1      37.469  30.125  31.766  1.00  0.00    -0.352 N 
ATOM     35  C   UNL A   1      37.792  28.902  32.341  1.00  0.00     0.251 C 
ATOM     36  H   UNL A   1      36.825  30.679  32.263  1.00  0.00     0.163 HD
ATOM     37  O   UNL A   1      37.237  28.478  33.331  1.00  0.00    -0.269 OA
BRANCH  35  38
ATOM     38  C   UNL A   1      38.913  28.160  31.723  1.00  0.00     0.039 A 
ATOM     39  C   UNL A   1      40.209  28.473  32.146  1.00  0.00     0.014 A 
ATOM     40  C   UNL A   1      38.690  27.400  30.579  1.00  0.00     0.014 A 
ATOM     41  C   UNL A   1      41.283  28.191  31.306  1.00  0.00     0.010 A 
ATOM     42  C   UNL A   1      39.745  27.200  29.708  1.00  0.00     0.010 A 
ATOM     43  C   UNL A   1      41.030  27.654  30.042  1.00  0.00    -0.014 A 
BRANCH  43  44
ATOM     44  C   UNL A   1      42.020  27.628  28.968  1.00  0.00     0.031 A 
ATOM     45  C   UNL A   1      42.739  26.367  28.650  1.00  0.00     0.074 A 
ATOM     46  C   UNL A   1      42.246  28.736  28.222  1.00  0.00     0.049 A 
ATOM     47  N   UNL A   1      43.819  26.304  27.942  1.00  0.00    -0.248 NA
ATOM     48  C   UNL A   1      42.344  25.068  29.190  1.00  0.00     0.031 C 
ATOM     49  C   UNL A   1      42.954  28.797  26.944  1.00  0.00     0.029 A 
ATOM     50  N   UNL A   1      42.082  30.082  28.569  1.00  0.00    -0.354 N 
ATOM     51  C   UNL A   1      44.082  24.978  27.686  1.00  0.00     0.074 A 
ATOM     52  C   UNL A   1      43.227  24.259  28.594  1.00  0.00     0.031 C 
ATOM     53  C   UNL A   1      43.432  30.037  26.775  1.00  0.00     0.029 A 
ATOM     54  C   UNL A   1      43.171  30.767  28.003  1.00  0.00     0.049 A 
ATOM     55  H   UNL A   1      41.350  30.470  29.102  1.00  0.00     0.167 HD
ATOM     56  C   UNL A   1      44.894  24.656  26.637  1.00  0.00     0.037 A 
ATOM     57  C   UNL A   1      44.110  31.469  28.703  1.00  0.00     0.037 A 
ATOM     58  C   UNL A   1      45.640  25.834  26.188  1.00  0.00     0.049 A 
ATOM     59  C   UNL A   1      45.528  31.003  28.447  1.00  0.00     0.074 A 
ATOM     60  C   UNL A   1      45.536  26.667  25.088  1.00  0.00     0.029 A 
ATOM     61  N   UNL A   1      46.532  26.448  27.065  1.00  0.00    -0.354 N 
ATOM     62  N   UNL A   1      45.827  29.874  27.865  1.00  0.00    -0.248 NA
ATOM     63  C   UNL A   1      46.717  31.743  28.865  1.00  0.00     0.031 C 
ATOM     64  C   UNL A   1      46.291  27.841  25.361  1.00  0.00     0.029 A 
ATOM     65  C   UNL A   1      46.888  27.699  26.604  1.00  0.00     0.049 A 
ATOM     66  H   UNL A   1      46.861  26.044  27.901  1.00  0.00     0.167 HD
ATOM     67  C   UNL A   1      47.187  29.700  27.865  1.00  0.00     0.074 A 
ATOM     68  C   UNL A   1      47.701  30.914  28.472  1.00  0.00     0.031 C 
ATOM     69  C   UNL A   1      47.769  28.560  27.386  1.00  0.00     0.037 A 
BRANCH  56  70
ATOM     70  C   UNL A   1      44.874  23.339  25.861  1.00  0.00     0.058 A 
ATOM     71  C   UNL A   1      43.686  22.571  25.789  1.00  0.00     0.135 A 
ATOM     72  C   UNL A   1      46.000  22.700  25.294  1.00  0.00     0.135 A 
ATOM     73  F   UNL A   1      42.526  23.039  26.273  1.00  0.00    -0.206 F 
ATOM     74  C   UNL A   1      43.634  21.276  25.254  1.00  0.00     0.059 A 
ATOM     75  C   UNL A   1      45.964  21.426  24.721  1.00  0.00     0.059 A 
ATOM     76  F   UNL A   1      47.221  23.239  25.311  1.00  0.00    -0.206 F 
ATOM     77  C   UNL A   1      44.785  20.703  24.733  1.00  0.00     0.060 A 
BRANCH  77  78
ATOM     78  S   UNL A   1      44.752  19.012  24.109  1.00  0.00     0.124 S 
ATOM     79  O   UNL A   1      46.067  18.521  24.505  1.00  0.00    -0.237 OA
ATOM     80  O   UNL A   1      43.614  18.438  24.818  1.00  0.00    -0.237 OA
ATOM     81  O   UNL A   1      44.561  19.185  22.671  1.00  0.00    -0.744 OA
ENDBRANCH  77  78
ENDBRANCH  56  70
BRANCH  57  82
ATOM     82  C   UNL A   1      43.629  32.062  29.974  1.00  0.00     0.058 A 
ATOM     83  C   UNL A   1      42.954  33.293  29.906  1.00  0.00     0.135 A 
ATOM     84  C   UNL A   1      43.430  31.268  31.112  1.00  0.00     0.135 A 
ATOM     85  F   UNL A   1      43.144  34.107  28.855  1.00  0.00    -0.206 F 
ATOM     86  C   UNL A   1      41.976  33.635  30.833  1.00  0.00     0.059 A 
ATOM     87  C   UNL A   1      42.458  31.594  32.057  1.00  0.00     0.059 A 
ATOM     88  F   UNL A   1      44.046  30.082  31.223  1.00  0.00    -0.206 F 
ATOM     89  C   UNL A   1      41.684  32.739  31.859  1.00  0.00     0.060 A 
BRANCH  89  90
ATOM     90  S   UNL A   1      40.144  32.980  32.776  1.00  0.00     0.124 S 
ATOM     91  O   UNL A   1      39.812  31.619  33.179  1.00  0.00    -0.237 OA
ATOM     92  O   UNL A   1      40.588  33.872  33.846  1.00  0.00    -0.237 OA
ATOM     93  O   UNL A   1      39.262  33.584  31.784  1.00  0.00    -0.744 OA
ENDBRANCH  89  90
ENDBRANCH  57  82
BRANCH  69  94
ATOM     94  C   UNL A   1      49.228  28.190  27.537  1.00  0.00     0.058 A 
ATOM     95  C   UNL A   1      49.830  27.842  28.759  1.00  0.00     0.135 A 
ATOM     96  C   UNL A   1      50.052  28.048  26.394  1.00  0.00     0.135 A 
ATOM     97  F   UNL A   1      49.125  27.811  29.900  1.00  0.00    -0.206 F 
ATOM     98  C   UNL A   1      51.173  27.465  28.855  1.00  0.00     0.059 A 
ATOM     99  C   UNL A   1      51.377  27.621  26.461  1.00  0.00     0.059 A 
ATOM    100  F   UNL A   1      49.587  28.311  25.163  1.00  0.00    -0.206 F 
ATOM    101  C   UNL A   1      51.941  27.363  27.701  1.00  0.00     0.060 A 
BRANCH 101 102
ATOM    102  S   UNL A   1      53.663  26.835  27.806  1.00  0.00     0.124 S 
ATOM    103  O   UNL A   1      53.855  26.752  29.250  1.00  0.00    -0.237 OA
ATOM    104  O   UNL A   1      53.658  25.558  27.098  1.00  0.00    -0.237 OA
ATOM    105  O   UNL A   1      54.379  27.914  27.131  1.00  0.00    -0.744 OA
ENDBRANCH 101 102
ENDBRANCH  69  94
ENDBRANCH  43  44
ENDBRANCH  35  38
ENDBRANCH  33  34
ENDBRANCH  32  33
ENDBRANCH   1  32
TORSDOF 19
ENDMDL
