MODEL 1
REMARK VINA RESULT:     -10.3      0.000      0.000
REMARK SMILES CC(C)C[C@H](NC(N)=O)C(=O)N[C@@H](C(=O)NCCCCCCNC(=O)c1ccc(-c2c3nc(c(-c4c(F)cc(S(=O)(=O)[O-])cc4F)c4ccc([nH]4)c(-c4c(F)cc(S(=O)(=O)[O-])cc4F)c4nc(c(-c5c(F)cc(S(=O)(=O)[O-])cc5F)c5ccc2[nH]5)C=C4)C=C3)cc1)C(C)C
REMARK SMILES IDX 19 1 18 2 17 3 16 4 14 5 15 6 13 8 12 9 10 10 11 11 5 13
REMARK SMILES IDX 4 14 2 15 1 16 3 17 6 18 7 19 8 21 9 22 92 25 93 26 94 27
REMARK SMILES IDX 20 28 21 29 22 30 23 31 24 32 25 34 26 35 27 36 91 37 28 38
REMARK SMILES IDX 90 39 29 40 30 41 31 42 84 43 32 44 89 45 83 46 85 47 33 48
REMARK SMILES IDX 88 49 82 50 81 51 34 53 68 54 47 55 67 56 48 57 51 58 66 59
REMARK SMILES IDX 86 60 49 61 50 62 65 64 87 65 52 66 35 67 36 68 45 69 37 70
REMARK SMILES IDX 38 71 44 72 46 73 39 74 40 75 41 76 42 77 43 78 69 79 70 80
REMARK SMILES IDX 79 81 71 82 72 83 78 84 80 85 73 86 74 87 75 88 76 89 77 90
REMARK SMILES IDX 53 91 54 92 63 93 55 94 56 95 62 96 64 97 57 98 58 99 59 100
REMARK SMILES IDX 60 101 61 102
REMARK H PARENT 16 7 12 12 6 20 8 23 8 24 23 33 85 52 51 63
REMARK Flexibility Score: inf
ROOT
ATOM      1  C   UNL A   1      33.885  31.224  27.577  1.00  0.00     0.002 C 
ENDROOT
BRANCH   1   2
ATOM      2  C   UNL A   1      33.490  29.822  27.112  1.00  0.00     0.021 C 
BRANCH   2   3
ATOM      3  C   UNL A   1      31.991  29.630  26.937  1.00  0.00     0.116 C 
BRANCH   3   4
ATOM      4  N   UNL A   1      31.560  28.317  27.336  1.00  0.00    -0.354 N 
ATOM      5  C   UNL A   1      31.348  27.191  26.603  1.00  0.00     0.242 C 
ATOM      6  O   UNL A   1      31.029  26.197  27.266  1.00  0.00    -0.273 OA
ATOM      7  H   UNL A   1      31.391  28.216  28.301  1.00  0.00     0.163 HD
BRANCH   5   8
ATOM      8  C   UNL A   1      31.601  27.122  25.051  1.00  0.00     0.173 C 
BRANCH   8   9
ATOM      9  N   UNL A   1      30.316  27.084  24.336  1.00  0.00    -0.342 N 
ATOM     10  C   UNL A   1      29.707  27.968  23.493  1.00  0.00     0.243 C 
ATOM     11  O   UNL A   1      28.513  27.753  23.254  1.00  0.00    -0.273 OA
ATOM     12  H   UNL A   1      29.795  26.264  24.496  1.00  0.00     0.164 HD
BRANCH  10  13
ATOM     13  C   UNL A   1      30.408  29.208  22.870  1.00  0.00     0.173 C 
BRANCH  13  14
ATOM     14  C   UNL A   1      29.437  30.169  22.175  1.00  0.00     0.038 C 
BRANCH  14  15
ATOM     15  C   UNL A   1      28.857  31.278  23.078  1.00  0.00    -0.015 C 
ATOM     16  C   UNL A   1      27.447  30.974  23.581  1.00  0.00     0.007 C 
ATOM     17  C   UNL A   1      29.790  31.510  24.270  1.00  0.00     0.007 C 
ENDBRANCH  14  15
ENDBRANCH  13  14
BRANCH  13  18
ATOM     18  N   UNL A   1      31.607  28.811  22.119  1.00  0.00    -0.327 N 
ATOM     19  C   UNL A   1      32.898  28.877  22.537  1.00  0.00     0.312 C 
ATOM     20  H   UNL A   1      31.458  28.456  21.213  1.00  0.00     0.166 HD
ATOM     21  N   UNL A   1      33.764  28.360  21.631  1.00  0.00    -0.352 N 
ATOM     22  O   UNL A   1      33.305  29.359  23.580  1.00  0.00    -0.249 OA
ATOM     23  H   UNL A   1      33.426  27.974  20.792  1.00  0.00     0.161 HD
ATOM     24  H   UNL A   1      34.732  28.372  21.815  1.00  0.00     0.161 HD
ENDBRANCH  13  18
ENDBRANCH  10  13
ENDBRANCH   8   9
BRANCH   8  25
ATOM     25  C   UNL A   1      32.454  25.839  24.777  1.00  0.00     0.015 C 
ATOM     26  C   UNL A   1      32.379  25.286  23.357  1.00  0.00     0.010 C 
ATOM     27  C   UNL A   1      33.932  26.088  25.117  1.00  0.00     0.010 C 
ENDBRANCH   8  25
ENDBRANCH   5   8
ENDBRANCH   3   4
ENDBRANCH   2   3
ENDBRANCH   1   2
BRANCH   1  28
ATOM     28  C   UNL A   1      35.394  31.481  27.641  1.00  0.00     0.002 C 
BRANCH  28  29
ATOM     29  C   UNL A   1      35.801  32.877  28.121  1.00  0.00     0.021 C 
BRANCH  29  30
ATOM     30  C   UNL A   1      36.703  32.895  29.353  1.00  0.00     0.116 C 
BRANCH  30  31
ATOM     31  N   UNL A   1      36.235  31.987  30.386  1.00  0.00    -0.352 N 
ATOM     32  C   UNL A   1      36.757  30.785  30.790  1.00  0.00     0.251 C 
ATOM     33  H   UNL A   1      35.426  32.277  30.866  1.00  0.00     0.163 HD
ATOM     34  O   UNL A   1      36.117  30.068  31.554  1.00  0.00    -0.269 OA
BRANCH  32  35
ATOM     35  C   UNL A   1      38.076  30.349  30.289  1.00  0.00     0.039 A 
ATOM     36  C   UNL A   1      38.209  30.020  28.938  1.00  0.00     0.014 A 
ATOM     37  C   UNL A   1      39.175  30.251  31.149  1.00  0.00     0.014 A 
ATOM     38  C   UNL A   1      39.457  29.644  28.437  1.00  0.00     0.010 A 
ATOM     39  C   UNL A   1      40.430  29.939  30.636  1.00  0.00     0.010 A 
ATOM     40  C   UNL A   1      40.583  29.629  29.276  1.00  0.00    -0.014 A 
BRANCH  40  41
ATOM     41  C   UNL A   1      41.928  29.289  28.749  1.00  0.00     0.031 A 
ATOM     42  C   UNL A   1      42.226  27.888  28.288  1.00  0.00     0.074 A 
ATOM     43  C   UNL A   1      42.898  30.223  28.749  1.00  0.00     0.049 A 
ATOM     44  N   UNL A   1      43.355  27.380  27.867  1.00  0.00    -0.248 NA
ATOM     45  C   UNL A   1      41.113  26.924  28.330  1.00  0.00     0.031 C 
ATOM     46  C   UNL A   1      42.743  31.602  29.218  1.00  0.00     0.029 A 
ATOM     47  N   UNL A   1      44.211  30.154  28.355  1.00  0.00    -0.354 N 
ATOM     48  C   UNL A   1      43.096  26.038  27.612  1.00  0.00     0.074 A 
ATOM     49  C   UNL A   1      41.714  25.800  27.969  1.00  0.00     0.031 C 
ATOM     50  C   UNL A   1      43.909  32.251  29.069  1.00  0.00     0.029 A 
ATOM     51  C   UNL A   1      44.903  31.329  28.528  1.00  0.00     0.049 A 
ATOM     52  H   UNL A   1      44.618  29.339  27.983  1.00  0.00     0.167 HD
ATOM     53  C   UNL A   1      43.928  25.096  27.106  1.00  0.00     0.037 A 
ATOM     54  C   UNL A   1      46.194  31.628  28.287  1.00  0.00     0.037 A 
ATOM     55  C   UNL A   1      45.293  25.350  26.724  1.00  0.00     0.049 A 
ATOM     56  C   UNL A   1      47.095  30.569  27.711  1.00  0.00     0.074 A 
ATOM     57  C   UNL A   1      46.200  24.481  26.144  1.00  0.00     0.029 A 
ATOM     58  N   UNL A   1      45.948  26.563  26.884  1.00  0.00    -0.354 N 
ATOM     59  N   UNL A   1      46.815  29.323  27.415  1.00  0.00    -0.248 NA
ATOM     60  C   UNL A   1      48.482  30.959  27.428  1.00  0.00     0.031 C 
ATOM     61  C   UNL A   1      47.415  25.156  25.987  1.00  0.00     0.029 A 
ATOM     62  C   UNL A   1      47.253  26.459  26.429  1.00  0.00     0.049 A 
ATOM     63  H   UNL A   1      45.546  27.376  27.265  1.00  0.00     0.167 HD
ATOM     64  C   UNL A   1      47.984  28.786  26.887  1.00  0.00     0.074 A 
ATOM     65  C   UNL A   1      48.970  29.847  26.894  1.00  0.00     0.031 C 
ATOM     66  C   UNL A   1      48.218  27.530  26.435  1.00  0.00     0.037 A 
BRANCH  53  67
ATOM     67  C   UNL A   1      43.384  23.706  26.930  1.00  0.00     0.058 A 
ATOM     68  C   UNL A   1      42.951  23.237  25.679  1.00  0.00     0.135 A 
ATOM     69  C   UNL A   1      43.327  22.818  28.016  1.00  0.00     0.135 A 
ATOM     70  F   UNL A   1      42.970  24.049  24.609  1.00  0.00    -0.206 F 
ATOM     71  C   UNL A   1      42.455  21.948  25.516  1.00  0.00     0.059 A 
ATOM     72  C   UNL A   1      42.859  21.516  27.872  1.00  0.00     0.059 A 
ATOM     73  F   UNL A   1      43.727  23.214  29.235  1.00  0.00    -0.206 F 
ATOM     74  C   UNL A   1      42.411  21.095  26.619  1.00  0.00     0.060 A 
BRANCH  74  75
ATOM     75  S   UNL A   1      41.769  19.423  26.391  1.00  0.00     0.124 S 
ATOM     76  O   UNL A   1      40.345  19.683  26.199  1.00  0.00    -0.237 OA
ATOM     77  O   UNL A   1      42.494  18.967  25.210  1.00  0.00    -0.237 OA
ATOM     78  O   UNL A   1      42.120  18.751  27.638  1.00  0.00    -0.744 OA
ENDBRANCH  74  75
ENDBRANCH  53  67
BRANCH  54  79
ATOM     79  C   UNL A   1      46.702  32.996  28.567  1.00  0.00     0.058 A 
ATOM     80  C   UNL A   1      46.630  34.004  27.594  1.00  0.00     0.135 A 
ATOM     81  C   UNL A   1      47.254  33.329  29.814  1.00  0.00     0.135 A 
ATOM     82  F   UNL A   1      46.115  33.734  26.385  1.00  0.00    -0.206 F 
ATOM     83  C   UNL A   1      47.100  35.291  27.841  1.00  0.00     0.059 A 
ATOM     84  C   UNL A   1      47.707  34.613  30.093  1.00  0.00     0.059 A 
ATOM     85  F   UNL A   1      47.327  32.404  30.784  1.00  0.00    -0.206 F 
ATOM     86  C   UNL A   1      47.635  35.586  29.097  1.00  0.00     0.060 A 
BRANCH  86  87
ATOM     87  S   UNL A   1      48.193  37.271  29.426  1.00  0.00     0.124 S 
ATOM     88  O   UNL A   1      49.183  37.464  28.374  1.00  0.00    -0.237 OA
ATOM     89  O   UNL A   1      46.957  38.036  29.289  1.00  0.00    -0.237 OA
ATOM     90  O   UNL A   1      48.721  37.189  30.785  1.00  0.00    -0.744 OA
ENDBRANCH  86  87
ENDBRANCH  54  79
BRANCH  66  91
ATOM     91  C   UNL A   1      49.582  27.239  25.875  1.00  0.00     0.058 A 
ATOM     92  C   UNL A   1      50.649  26.848  26.698  1.00  0.00     0.135 A 
ATOM     93  C   UNL A   1      49.807  27.298  24.490  1.00  0.00     0.135 A 
ATOM     94  F   UNL A   1      50.488  26.784  28.029  1.00  0.00    -0.206 F 
ATOM     95  C   UNL A   1      51.900  26.546  26.169  1.00  0.00     0.059 A 
ATOM     96  C   UNL A   1      51.042  26.974  23.937  1.00  0.00     0.059 A 
ATOM     97  F   UNL A   1      48.816  27.657  23.658  1.00  0.00    -0.206 F 
ATOM     98  C   UNL A   1      52.085  26.609  24.786  1.00  0.00     0.060 A 
BRANCH  98  99
ATOM     99  S   UNL A   1      53.701  26.174  24.108  1.00  0.00     0.124 S 
ATOM    100  O   UNL A   1      54.537  27.252  24.628  1.00  0.00    -0.237 OA
ATOM    101  O   UNL A   1      53.938  24.854  24.684  1.00  0.00    -0.237 OA
ATOM    102  O   UNL A   1      53.479  26.190  22.665  1.00  0.00    -0.744 OA
ENDBRANCH  98  99
ENDBRANCH  66  91
ENDBRANCH  40  41
ENDBRANCH  32  35
ENDBRANCH  30  31
ENDBRANCH  29  30
ENDBRANCH  28  29
ENDBRANCH   1  28
TORSDOF 22
ENDMDL
MODEL 2
REMARK VINA RESULT:     -10.0      1.332      8.360
REMARK SMILES CC(C)C[C@H](NC(N)=O)C(=O)N[C@@H](C(=O)NCCCCCCNC(=O)c1ccc(-c2c3nc(c(-c4c(F)cc(S(=O)(=O)[O-])cc4F)c4ccc([nH]4)c(-c4c(F)cc(S(=O)(=O)[O-])cc4F)c4nc(c(-c5c(F)cc(S(=O)(=O)[O-])cc5F)c5ccc2[nH]5)C=C4)C=C3)cc1)C(C)C
REMARK SMILES IDX 19 1 18 2 17 3 16 4 14 5 15 6 13 8 12 9 10 10 11 11 5 13
REMARK SMILES IDX 4 14 2 15 1 16 3 17 6 18 7 19 8 21 9 22 92 25 93 26 94 27
REMARK SMILES IDX 20 28 21 29 22 30 23 31 24 32 25 34 26 35 27 36 91 37 28 38
REMARK SMILES IDX 90 39 29 40 30 41 31 42 84 43 32 44 89 45 83 46 85 47 33 48
REMARK SMILES IDX 88 49 82 50 81 51 34 53 68 54 47 55 67 56 48 57 51 58 66 59
REMARK SMILES IDX 86 60 49 61 50 62 65 64 87 65 52 66 35 67 36 68 45 69 37 70
REMARK SMILES IDX 38 71 44 72 46 73 39 74 40 75 41 76 42 77 43 78 69 79 70 80
REMARK SMILES IDX 79 81 71 82 72 83 78 84 80 85 73 86 74 87 75 88 76 89 77 90
REMARK SMILES IDX 53 91 54 92 63 93 55 94 56 95 62 96 64 97 57 98 58 99 59 100
REMARK SMILES IDX 60 101 61 102
REMARK H PARENT 16 7 12 12 6 20 8 23 8 24 23 33 85 52 51 63
REMARK Flexibility Score: inf
ROOT
ATOM      1  C   UNL A   1      34.693  28.621  27.141  1.00  0.00     0.002 C 
ENDROOT
BRANCH   1   2
ATOM      2  C   UNL A   1      34.116  28.208  25.786  1.00  0.00     0.021 C 
BRANCH   2   3
ATOM      3  C   UNL A   1      32.983  27.197  25.881  1.00  0.00     0.116 C 
BRANCH   3   4
ATOM      4  N   UNL A   1      33.424  25.932  26.406  1.00  0.00    -0.354 N 
ATOM      5  C   UNL A   1      33.390  24.686  25.863  1.00  0.00     0.242 C 
ATOM      6  O   UNL A   1      33.908  23.806  26.561  1.00  0.00    -0.273 OA
ATOM      7  H   UNL A   1      33.816  25.977  27.308  1.00  0.00     0.163 HD
BRANCH   5   8
ATOM      8  C   UNL A   1      32.845  24.399  24.415  1.00  0.00     0.173 C 
BRANCH   8   9
ATOM      9  N   UNL A   1      31.380  24.530  24.397  1.00  0.00    -0.342 N 
ATOM     10  C   UNL A   1      30.546  25.429  23.799  1.00  0.00     0.243 C 
ATOM     11  O   UNL A   1      29.370  25.414  24.182  1.00  0.00    -0.273 OA
ATOM     12  H   UNL A   1      30.912  23.836  24.915  1.00  0.00     0.164 HD
BRANCH  10  13
ATOM     13  C   UNL A   1      30.994  26.459  22.724  1.00  0.00     0.173 C 
BRANCH  13  14
ATOM     14  C   UNL A   1      30.041  27.652  22.591  1.00  0.00     0.038 C 
BRANCH  14  15
ATOM     15  C   UNL A   1      30.551  28.968  23.216  1.00  0.00    -0.015 C 
ATOM     16  C   UNL A   1      32.028  29.241  22.933  1.00  0.00     0.007 C 
ATOM     17  C   UNL A   1      29.705  30.139  22.706  1.00  0.00     0.007 C 
ENDBRANCH  14  15
ENDBRANCH  13  14
BRANCH  13  18
ATOM     18  N   UNL A   1      31.393  25.781  21.482  1.00  0.00    -0.327 N 
ATOM     19  C   UNL A   1      32.649  25.664  20.978  1.00  0.00     0.312 C 
ATOM     20  H   UNL A   1      30.671  25.366  20.960  1.00  0.00     0.166 HD
ATOM     21  N   UNL A   1      32.688  24.911  19.851  1.00  0.00    -0.352 N 
ATOM     22  O   UNL A   1      33.666  26.172  21.419  1.00  0.00    -0.249 OA
ATOM     23  H   UNL A   1      31.862  24.505  19.502  1.00  0.00     0.161 HD
ATOM     24  H   UNL A   1      33.542  24.772  19.382  1.00  0.00     0.161 HD
ENDBRANCH  13  18
ENDBRANCH  10  13
ENDBRANCH   8   9
BRANCH   8  25
ATOM     25  C   UNL A   1      33.302  22.953  24.026  1.00  0.00     0.015 C 
ATOM     26  C   UNL A   1      32.182  21.974  23.687  1.00  0.00     0.010 C 
ATOM     27  C   UNL A   1      34.278  22.994  22.840  1.00  0.00     0.010 C 
ENDBRANCH   8  25
ENDBRANCH   5   8
ENDBRANCH   3   4
ENDBRANCH   2   3
ENDBRANCH   1   2
BRANCH   1  28
ATOM     28  C   UNL A   1      33.997  29.816  27.800  1.00  0.00     0.002 C 
BRANCH  28  29
ATOM     29  C   UNL A   1      34.580  31.189  27.451  1.00  0.00     0.021 C 
BRANCH  29  30
ATOM     30  C   UNL A   1      35.764  31.623  28.312  1.00  0.00     0.116 C 
BRANCH  30  31
ATOM     31  N   UNL A   1      35.572  31.289  29.712  1.00  0.00    -0.352 N 
ATOM     32  C   UNL A   1      36.404  30.614  30.568  1.00  0.00     0.251 C 
ATOM     33  H   UNL A   1      34.721  31.591  30.104  1.00  0.00     0.163 HD
ATOM     34  O   UNL A   1      35.992  30.263  31.670  1.00  0.00    -0.269 OA
BRANCH  32  35
ATOM     35  C   UNL A   1      37.786  30.296  30.153  1.00  0.00     0.039 A 
ATOM     36  C   UNL A   1      38.740  30.028  31.138  1.00  0.00     0.014 A 
ATOM     37  C   UNL A   1      38.143  30.275  28.802  1.00  0.00     0.014 A 
ATOM     38  C   UNL A   1      40.041  29.686  30.764  1.00  0.00     0.010 A 
ATOM     39  C   UNL A   1      39.421  29.871  28.429  1.00  0.00     0.010 A 
ATOM     40  C   UNL A   1      40.384  29.577  29.406  1.00  0.00    -0.014 A 
BRANCH  40  41
ATOM     41  C   UNL A   1      41.746  29.158  28.990  1.00  0.00     0.031 A 
ATOM     42  C   UNL A   1      42.861  30.166  28.932  1.00  0.00     0.074 A 
ATOM     43  C   UNL A   1      41.960  27.886  28.601  1.00  0.00     0.049 A 
ATOM     44  N   UNL A   1      44.094  30.011  28.524  1.00  0.00    -0.248 NA
ATOM     45  C   UNL A   1      42.540  31.537  29.363  1.00  0.00     0.031 C 
ATOM     46  C   UNL A   1      40.946  26.830  28.568  1.00  0.00     0.029 A 
ATOM     47  N   UNL A   1      43.097  27.266  28.147  1.00  0.00    -0.354 N 
ATOM     48  C   UNL A   1      44.690  31.262  28.633  1.00  0.00     0.074 A 
ATOM     49  C   UNL A   1      43.670  32.176  29.101  1.00  0.00     0.031 C 
ATOM     50  C   UNL A   1      41.510  25.692  28.133  1.00  0.00     0.029 A 
ATOM     51  C   UNL A   1      42.914  25.943  27.825  1.00  0.00     0.049 A 
ATOM     52  H   UNL A   1      43.963  27.727  28.062  1.00  0.00     0.167 HD
ATOM     53  C   UNL A   1      45.976  31.612  28.387  1.00  0.00     0.037 A 
ATOM     54  C   UNL A   1      43.778  25.036  27.328  1.00  0.00     0.037 A 
ATOM     55  C   UNL A   1      46.991  30.689  27.951  1.00  0.00     0.049 A 
ATOM     56  C   UNL A   1      45.204  25.445  27.076  1.00  0.00     0.074 A 
ATOM     57  C   UNL A   1      48.336  30.930  27.733  1.00  0.00     0.029 A 
ATOM     58  N   UNL A   1      46.774  29.348  27.667  1.00  0.00    -0.354 N 
ATOM     59  N   UNL A   1      45.766  26.617  27.246  1.00  0.00    -0.248 NA
ATOM     60  C   UNL A   1      46.114  24.407  26.574  1.00  0.00     0.031 C 
ATOM     61  C   UNL A   1      48.926  29.744  27.281  1.00  0.00     0.029 A 
ATOM     62  C   UNL A   1      47.957  28.753  27.259  1.00  0.00     0.049 A 
ATOM     63  H   UNL A   1      45.907  28.888  27.742  1.00  0.00     0.167 HD
ATOM     64  C   UNL A   1      47.102  26.452  26.897  1.00  0.00     0.074 A 
ATOM     65  C   UNL A   1      47.265  25.063  26.516  1.00  0.00     0.031 C 
ATOM     66  C   UNL A   1      48.103  27.366  26.894  1.00  0.00     0.037 A 
BRANCH  53  67
ATOM     67  C   UNL A   1      46.358  33.052  28.587  1.00  0.00     0.058 A 
ATOM     68  C   UNL A   1      46.755  33.540  29.842  1.00  0.00     0.135 A 
ATOM     69  C   UNL A   1      46.362  33.947  27.506  1.00  0.00     0.135 A 
ATOM     70  F   UNL A   1      46.755  32.730  30.914  1.00  0.00    -0.206 F 
ATOM     71  C   UNL A   1      47.116  34.871  30.025  1.00  0.00     0.059 A 
ATOM     72  C   UNL A   1      46.744  35.277  27.660  1.00  0.00     0.059 A 
ATOM     73  F   UNL A   1      45.991  33.534  26.284  1.00  0.00    -0.206 F 
ATOM     74  C   UNL A   1      47.106  35.732  28.927  1.00  0.00     0.060 A 
BRANCH  74  75
ATOM     75  S   UNL A   1      47.581  37.456  29.179  1.00  0.00     0.124 S 
ATOM     76  O   UNL A   1      46.675  38.143  28.263  1.00  0.00    -0.237 OA
ATOM     77  O   UNL A   1      47.311  37.651  30.600  1.00  0.00    -0.237 OA
ATOM     78  O   UNL A   1      48.990  37.479  28.802  1.00  0.00    -0.744 OA
ENDBRANCH  74  75
ENDBRANCH  53  67
BRANCH  54  79
ATOM     79  C   UNL A   1      43.321  23.647  27.061  1.00  0.00     0.058 A 
ATOM     80  C   UNL A   1      43.268  22.696  28.090  1.00  0.00     0.135 A 
ATOM     81  C   UNL A   1      42.913  23.247  25.779  1.00  0.00     0.135 A 
ATOM     82  F   UNL A   1      43.653  23.029  29.332  1.00  0.00    -0.206 F 
ATOM     83  C   UNL A   1      42.841  21.392  27.857  1.00  0.00     0.059 A 
ATOM     84  C   UNL A   1      42.458  21.957  25.526  1.00  0.00     0.059 A 
ATOM     85  F   UNL A   1      42.926  24.126  24.765  1.00  0.00    -0.206 F 
ATOM     86  C   UNL A   1      42.436  21.033  26.570  1.00  0.00     0.060 A 
BRANCH  86  87
ATOM     87  S   UNL A   1      41.832  19.355  26.288  1.00  0.00     0.124 S 
ATOM     88  O   UNL A   1      42.141  18.714  27.561  1.00  0.00    -0.237 OA
ATOM     89  O   UNL A   1      40.416  19.580  26.012  1.00  0.00    -0.237 OA
ATOM     90  O   UNL A   1      42.620  18.904  25.145  1.00  0.00    -0.744 OA
ENDBRANCH  86  87
ENDBRANCH  54  79
BRANCH  66  91
ATOM     91  C   UNL A   1      49.473  26.891  26.503  1.00  0.00     0.058 A 
ATOM     92  C   UNL A   1      50.379  26.390  27.451  1.00  0.00     0.135 A 
ATOM     93  C   UNL A   1      49.863  26.883  25.153  1.00  0.00     0.135 A 
ATOM     94  F   UNL A   1      50.058  26.383  28.754  1.00  0.00    -0.206 F 
ATOM     95  C   UNL A   1      51.633  25.917  27.077  1.00  0.00     0.059 A 
ATOM     96  C   UNL A   1      51.101  26.389  24.754  1.00  0.00     0.059 A 
ATOM     97  F   UNL A   1      49.029  27.341  24.207  1.00  0.00    -0.206 F 
ATOM     98  C   UNL A   1      51.983  25.918  25.725  1.00  0.00     0.060 A 
BRANCH  98  99
ATOM     99  S   UNL A   1      53.597  25.264  25.248  1.00  0.00     0.124 S 
ATOM    100  O   UNL A   1      53.786  25.878  23.937  1.00  0.00    -0.237 OA
ATOM    101  O   UNL A   1      54.464  25.762  26.311  1.00  0.00    -0.237 OA
ATOM    102  O   UNL A   1      53.389  23.819  25.241  1.00  0.00    -0.744 OA
ENDBRANCH  98  99
ENDBRANCH  66  91
ENDBRANCH  40  41
ENDBRANCH  32  35
ENDBRANCH  30  31
ENDBRANCH  29  30
ENDBRANCH  28  29
ENDBRANCH   1  28
TORSDOF 22
ENDMDL
MODEL 3
REMARK VINA RESULT:      -9.9      5.915     10.696
REMARK SMILES CC(C)C[C@H](NC(N)=O)C(=O)N[C@@H](C(=O)NCCCCCCNC(=O)c1ccc(-c2c3nc(c(-c4c(F)cc(S(=O)(=O)[O-])cc4F)c4ccc([nH]4)c(-c4c(F)cc(S(=O)(=O)[O-])cc4F)c4nc(c(-c5c(F)cc(S(=O)(=O)[O-])cc5F)c5ccc2[nH]5)C=C4)C=C3)cc1)C(C)C
REMARK SMILES IDX 19 1 18 2 17 3 16 4 14 5 15 6 13 8 12 9 10 10 11 11 5 13
REMARK SMILES IDX 4 14 2 15 1 16 3 17 6 18 7 19 8 21 9 22 92 25 93 26 94 27
REMARK SMILES IDX 20 28 21 29 22 30 23 31 24 32 25 34 26 35 27 36 91 37 28 38
REMARK SMILES IDX 90 39 29 40 30 41 31 42 84 43 32 44 89 45 83 46 85 47 33 48
REMARK SMILES IDX 88 49 82 50 81 51 34 53 68 54 47 55 67 56 48 57 51 58 66 59
REMARK SMILES IDX 86 60 49 61 50 62 65 64 87 65 52 66 35 67 36 68 45 69 37 70
REMARK SMILES IDX 38 71 44 72 46 73 39 74 40 75 41 76 42 77 43 78 69 79 70 80
REMARK SMILES IDX 79 81 71 82 72 83 78 84 80 85 73 86 74 87 75 88 76 89 77 90
REMARK SMILES IDX 53 91 54 92 63 93 55 94 56 95 62 96 64 97 57 98 58 99 59 100
REMARK SMILES IDX 60 101 61 102
REMARK H PARENT 16 7 12 12 6 20 8 23 8 24 23 33 85 52 51 63
REMARK Flexibility Score: inf
ROOT
ATOM      1  C   UNL A   1      33.929  29.329  27.279  1.00  0.00     0.002 C 
ENDROOT
BRANCH   1   2
ATOM      2  C   UNL A   1      33.319  28.065  26.675  1.00  0.00     0.021 C 
BRANCH   2   3
ATOM      3  C   UNL A   1      31.848  27.867  27.014  1.00  0.00     0.116 C 
BRANCH   3   4
ATOM      4  N   UNL A   1      31.537  26.494  27.308  1.00  0.00    -0.354 N 
ATOM      5  C   UNL A   1      31.189  25.467  26.487  1.00  0.00     0.242 C 
ATOM      6  O   UNL A   1      31.039  24.380  27.057  1.00  0.00    -0.273 OA
ATOM      7  H   UNL A   1      31.583  26.258  28.262  1.00  0.00     0.163 HD
BRANCH   5   8
ATOM      8  C   UNL A   1      31.099  25.617  24.923  1.00  0.00     0.173 C 
BRANCH   8   9
ATOM      9  N   UNL A   1      29.689  25.673  24.506  1.00  0.00    -0.342 N 
ATOM     10  C   UNL A   1      28.934  26.667  23.955  1.00  0.00     0.243 C 
ATOM     11  O   UNL A   1      27.711  26.479  23.951  1.00  0.00    -0.273 OA
ATOM     12  H   UNL A   1      29.197  24.834  24.652  1.00  0.00     0.164 HD
BRANCH  10  13
ATOM     13  C   UNL A   1      29.511  27.993  23.384  1.00  0.00     0.173 C 
BRANCH  13  14
ATOM     14  C   UNL A   1      28.438  28.933  22.827  1.00  0.00     0.038 C 
BRANCH  14  15
ATOM     15  C   UNL A   1      28.760  30.438  22.950  1.00  0.00    -0.015 C 
ATOM     16  C   UNL A   1      29.059  31.104  21.607  1.00  0.00     0.007 C 
ATOM     17  C   UNL A   1      27.593  31.158  23.632  1.00  0.00     0.007 C 
ENDBRANCH  14  15
ENDBRANCH  13  14
BRANCH  13  18
ATOM     18  N   UNL A   1      30.679  27.731  22.530  1.00  0.00    -0.327 N 
ATOM     19  C   UNL A   1      31.946  28.188  22.708  1.00  0.00     0.312 C 
ATOM     20  H   UNL A   1      30.526  27.161  21.743  1.00  0.00     0.166 HD
ATOM     21  N   UNL A   1      32.808  27.702  21.782  1.00  0.00    -0.352 N 
ATOM     22  O   UNL A   1      32.329  28.970  23.562  1.00  0.00    -0.249 OA
ATOM     23  H   UNL A   1      32.490  27.072  21.096  1.00  0.00     0.161 HD
ATOM     24  H   UNL A   1      33.754  27.979  21.796  1.00  0.00     0.161 HD
ENDBRANCH  13  18
ENDBRANCH  10  13
ENDBRANCH   8   9
BRANCH   8  25
ATOM     25  C   UNL A   1      31.840  24.389  24.296  1.00  0.00     0.015 C 
ATOM     26  C   UNL A   1      31.450  24.043  22.862  1.00  0.00     0.010 C 
ATOM     27  C   UNL A   1      33.362  24.591  24.344  1.00  0.00     0.010 C 
ENDBRANCH   8  25
ENDBRANCH   5   8
ENDBRANCH   3   4
ENDBRANCH   2   3
ENDBRANCH   1   2
BRANCH   1  28
ATOM     28  C   UNL A   1      33.576  30.629  26.547  1.00  0.00     0.002 C 
BRANCH  28  29
ATOM     29  C   UNL A   1      33.883  31.917  27.315  1.00  0.00     0.021 C 
BRANCH  29  30
ATOM     30  C   UNL A   1      32.666  32.607  27.928  1.00  0.00     0.116 C 
BRANCH  30  31
ATOM     31  N   UNL A   1      32.792  34.055  27.906  1.00  0.00    -0.352 N 
ATOM     32  C   UNL A   1      33.638  34.866  28.617  1.00  0.00     0.251 C 
ATOM     33  H   UNL A   1      32.180  34.520  27.290  1.00  0.00     0.163 HD
ATOM     34  O   UNL A   1      33.472  36.082  28.603  1.00  0.00    -0.269 OA
BRANCH  32  35
ATOM     35  C   UNL A   1      34.732  34.272  29.412  1.00  0.00     0.039 A 
ATOM     36  C   UNL A   1      34.412  33.541  30.558  1.00  0.00     0.014 A 
ATOM     37  C   UNL A   1      36.068  34.447  29.038  1.00  0.00     0.014 A 
ATOM     38  C   UNL A   1      35.430  32.939  31.300  1.00  0.00     0.010 A 
ATOM     39  C   UNL A   1      37.075  33.794  29.741  1.00  0.00     0.010 A 
ATOM     40  C   UNL A   1      36.767  33.037  30.881  1.00  0.00    -0.014 A 
BRANCH  40  41
ATOM     41  C   UNL A   1      37.856  32.354  31.625  1.00  0.00     0.031 A 
ATOM     42  C   UNL A   1      38.291  32.872  32.968  1.00  0.00     0.074 A 
ATOM     43  C   UNL A   1      38.496  31.313  31.059  1.00  0.00     0.049 A 
ATOM     44  N   UNL A   1      39.268  32.460  33.734  1.00  0.00    -0.248 NA
ATOM     45  C   UNL A   1      37.547  34.021  33.511  1.00  0.00     0.031 C 
ATOM     46  C   UNL A   1      38.196  30.752  29.739  1.00  0.00     0.029 A 
ATOM     47  N   UNL A   1      39.539  30.546  31.514  1.00  0.00    -0.354 N 
ATOM     48  C   UNL A   1      39.268  33.307  34.837  1.00  0.00     0.074 A 
ATOM     49  C   UNL A   1      38.224  34.284  34.619  1.00  0.00     0.031 C 
ATOM     50  C   UNL A   1      39.025  29.724  29.500  1.00  0.00     0.029 A 
ATOM     51  C   UNL A   1      39.936  29.571  30.630  1.00  0.00     0.049 A 
ATOM     52  H   UNL A   1      39.963  30.682  32.392  1.00  0.00     0.167 HD
ATOM     53  C   UNL A   1      40.053  33.260  35.941  1.00  0.00     0.037 A 
ATOM     54  C   UNL A   1      40.927  28.664  30.715  1.00  0.00     0.037 A 
ATOM     55  C   UNL A   1      41.069  32.265  36.163  1.00  0.00     0.049 A 
ATOM     56  C   UNL A   1      41.777  28.622  31.957  1.00  0.00     0.074 A 
ATOM     57  C   UNL A   1      41.875  32.092  37.275  1.00  0.00     0.029 A 
ATOM     58  N   UNL A   1      41.419  31.273  35.258  1.00  0.00    -0.354 N 
ATOM     59  N   UNL A   1      41.720  29.390  33.018  1.00  0.00    -0.248 NA
ATOM     60  C   UNL A   1      42.816  27.587  32.017  1.00  0.00     0.031 C 
ATOM     61  C   UNL A   1      42.739  31.019  37.027  1.00  0.00     0.029 A 
ATOM     62  C   UNL A   1      42.441  30.496  35.779  1.00  0.00     0.049 A 
ATOM     63  H   UNL A   1      41.003  31.141  34.376  1.00  0.00     0.167 HD
ATOM     64  C   UNL A   1      42.699  28.914  33.884  1.00  0.00     0.074 A 
ATOM     65  C   UNL A   1      43.325  27.785  33.226  1.00  0.00     0.031 C 
ATOM     66  C   UNL A   1      43.045  29.369  35.113  1.00  0.00     0.037 A 
BRANCH  53  67
ATOM     67  C   UNL A   1      39.840  34.311  36.994  1.00  0.00     0.058 A 
ATOM     68  C   UNL A   1      40.380  35.601  36.867  1.00  0.00     0.135 A 
ATOM     69  C   UNL A   1      39.055  34.039  38.126  1.00  0.00     0.135 A 
ATOM     70  F   UNL A   1      41.151  35.910  35.811  1.00  0.00    -0.206 F 
ATOM     71  C   UNL A   1      40.175  36.575  37.839  1.00  0.00     0.059 A 
ATOM     72  C   UNL A   1      38.815  35.006  39.098  1.00  0.00     0.059 A 
ATOM     73  F   UNL A   1      38.514  32.823  38.298  1.00  0.00    -0.206 F 
ATOM     74  C   UNL A   1      39.392  36.267  38.952  1.00  0.00     0.060 A 
BRANCH  74  75
ATOM     75  S   UNL A   1      39.131  37.544  40.202  1.00  0.00     0.124 S 
ATOM     76  O   UNL A   1      38.600  36.758  41.312  1.00  0.00    -0.237 OA
ATOM     77  O   UNL A   1      40.477  38.077  40.391  1.00  0.00    -0.237 OA
ATOM     78  O   UNL A   1      38.183  38.453  39.567  1.00  0.00    -0.744 OA
ENDBRANCH  74  75
ENDBRANCH  53  67
BRANCH  54  79
ATOM     79  C   UNL A   1      41.154  27.706  29.601  1.00  0.00     0.058 A 
ATOM     80  C   UNL A   1      40.287  26.623  29.396  1.00  0.00     0.135 A 
ATOM     81  C   UNL A   1      42.227  27.863  28.711  1.00  0.00     0.135 A 
ATOM     82  F   UNL A   1      39.249  26.429  30.224  1.00  0.00    -0.206 F 
ATOM     83  C   UNL A   1      40.483  25.719  28.357  1.00  0.00     0.059 A 
ATOM     84  C   UNL A   1      42.430  26.987  27.650  1.00  0.00     0.059 A 
ATOM     85  F   UNL A   1      43.073  28.895  28.853  1.00  0.00    -0.206 F 
ATOM     86  C   UNL A   1      41.558  25.912  27.487  1.00  0.00     0.060 A 
BRANCH  86  87
ATOM     87  S   UNL A   1      41.773  24.764  26.109  1.00  0.00     0.124 S 
ATOM     88  O   UNL A   1      40.507  24.042  26.127  1.00  0.00    -0.237 OA
ATOM     89  O   UNL A   1      41.976  25.671  24.983  1.00  0.00    -0.237 OA
ATOM     90  O   UNL A   1      42.949  23.992  26.498  1.00  0.00    -0.744 OA
ENDBRANCH  86  87
ENDBRANCH  54  79
BRANCH  66  91
ATOM     91  C   UNL A   1      44.126  28.626  35.846  1.00  0.00     0.058 A 
ATOM     92  C   UNL A   1      43.836  27.540  36.687  1.00  0.00     0.135 A 
ATOM     93  C   UNL A   1      45.475  28.969  35.658  1.00  0.00     0.135 A 
ATOM     94  F   UNL A   1      42.562  27.177  36.906  1.00  0.00    -0.206 F 
ATOM     95  C   UNL A   1      44.844  26.834  37.334  1.00  0.00     0.059 A 
ATOM     96  C   UNL A   1      46.501  28.259  36.274  1.00  0.00     0.059 A 
ATOM     97  F   UNL A   1      45.807  29.993  34.856  1.00  0.00    -0.206 F 
ATOM     98  C   UNL A   1      46.175  27.199  37.119  1.00  0.00     0.060 A 
BRANCH  98  99
ATOM     99  S   UNL A   1      47.477  26.248  37.931  1.00  0.00     0.124 S 
ATOM    100  O   UNL A   1      48.677  26.917  37.439  1.00  0.00    -0.237 OA
ATOM    101  O   UNL A   1      47.175  26.448  39.345  1.00  0.00    -0.237 OA
ATOM    102  O   UNL A   1      47.265  24.891  37.437  1.00  0.00    -0.744 OA
ENDBRANCH  98  99
ENDBRANCH  66  91
ENDBRANCH  40  41
ENDBRANCH  32  35
ENDBRANCH  30  31
ENDBRANCH  29  30
ENDBRANCH  28  29
ENDBRANCH   1  28
TORSDOF 22
ENDMDL
