MODEL 1
REMARK VINA RESULT:     -10.7      0.000      0.000
REMARK SMILES C[C@H](CNC(=O)N1C[C@H]2CCCC[N@@H+]2C[C@@H]1C)C(=O)NCCCCCCNC(=O)c1ccc(-c2c3nc(c(-c4c(F)cc(S(=O)(=O)[O-])cc4F)c4ccc([nH]4)c(-c4c(F)cc(S(=O)(=O)[O-])cc4F)c4nc(c(-c5c(F)cc(S(=O)(=O)[O-])cc5F)c5ccc2[nH]5)C=C4)C=C3)cc1
REMARK SMILES IDX 23 1 22 2 21 3 20 4 18 5 19 6 2 8 1 9 3 10 4 11 5 12 6 14
REMARK SMILES IDX 7 15 8 16 16 17 9 18 15 19 17 20 10 21 14 22 11 23 13 24
REMARK SMILES IDX 12 26 24 27 25 28 26 29 27 30 28 31 29 33 30 34 31 35 95 36
REMARK SMILES IDX 32 37 94 38 33 39 34 40 35 41 88 42 36 43 93 44 87 45 89 46
REMARK SMILES IDX 37 47 92 48 86 49 85 50 38 52 72 53 51 54 71 55 52 56 55 57
REMARK SMILES IDX 70 58 90 59 53 60 54 61 69 63 91 64 56 65 39 66 40 67 49 68
REMARK SMILES IDX 41 69 42 70 48 71 50 72 43 73 44 74 45 75 46 76 47 77 73 78
REMARK SMILES IDX 74 79 83 80 75 81 76 82 82 83 84 84 77 85 78 86 79 87 80 88
REMARK SMILES IDX 81 89 57 90 58 91 67 92 59 93 60 94 66 95 68 96 61 97 62 98
REMARK SMILES IDX 63 99 64 100 65 101
REMARK H PARENT 20 7 4 13 14 25 27 32 89 51 55 62
REMARK Flexibility Score: inf
ROOT
ATOM      1  C   UNL A   1      31.441  29.075  25.200  1.00  0.00     0.002 C 
ENDROOT
BRANCH   1   2
ATOM      2  C   UNL A   1      31.788  28.843  23.725  1.00  0.00     0.021 C 
BRANCH   2   3
ATOM      3  C   UNL A   1      30.860  27.853  23.025  1.00  0.00     0.116 C 
BRANCH   3   4
ATOM      4  N   UNL A   1      31.534  27.210  21.910  1.00  0.00    -0.356 N 
ATOM      5  C   UNL A   1      31.956  25.929  21.736  1.00  0.00     0.224 C 
ATOM      6  O   UNL A   1      32.559  25.662  20.693  1.00  0.00    -0.275 OA
ATOM      7  H   UNL A   1      31.719  27.806  21.148  1.00  0.00     0.163 HD
BRANCH   5   8
ATOM      8  C   UNL A   1      31.699  24.853  22.781  1.00  0.00     0.094 C 
ATOM      9  C   UNL A   1      30.208  24.749  23.111  1.00  0.00     0.020 C 
BRANCH   8  10
ATOM     10  C   UNL A   1      32.643  25.028  23.976  1.00  0.00     0.130 C 
BRANCH  10  11
ATOM     11  N   UNL A   1      32.085  24.499  25.211  1.00  0.00    -0.337 N 
ATOM     12  C   UNL A   1      32.474  23.430  25.947  1.00  0.00     0.318 C 
ATOM     13  H   UNL A   1      31.309  24.991  25.565  1.00  0.00     0.165 HD
ATOM     14  O   UNL A   1      31.654  22.928  26.714  1.00  0.00    -0.249 OA
BRANCH  12  15
ATOM     15  N   UNL A   1      33.745  22.933  25.763  1.00  0.00    -0.311 N 
ATOM     16  C   UNL A   1      34.852  23.545  26.502  1.00  0.00     0.186 C 
ATOM     17  C   UNL A   1      33.879  21.485  25.529  1.00  0.00     0.139 C 
ATOM     18  C   UNL A   1      36.211  23.198  25.875  1.00  0.00     0.203 C 
ATOM     19  C   UNL A   1      35.346  20.981  25.339  1.00  0.00     0.287 C 
ATOM     20  C   UNL A   1      33.099  21.062  24.270  1.00  0.00     0.037 C 
ATOM     21  C   UNL A   1      37.342  23.945  26.601  1.00  0.00     0.067 C 
ATOM     22  N   UNL A   1      36.450  21.742  25.954  1.00  0.00    -0.329 N 
ATOM     23  C   UNL A   1      38.707  23.594  26.014  1.00  0.00     0.012 C 
ATOM     24  C   UNL A   1      37.719  21.389  25.295  1.00  0.00     0.262 C 
ATOM     25  H   UNL A   1      36.503  21.495  26.941  1.00  0.00     0.348 HD
ATOM     26  C   UNL A   1      38.904  22.083  25.957  1.00  0.00     0.062 C 
ENDBRANCH  12  15
ENDBRANCH  10  11
ENDBRANCH   8  10
ENDBRANCH   5   8
ENDBRANCH   3   4
ENDBRANCH   2   3
ENDBRANCH   1   2
BRANCH   1  27
ATOM     27  C   UNL A   1      31.494  27.819  26.078  1.00  0.00     0.002 C 
BRANCH  27  28
ATOM     28  C   UNL A   1      32.291  27.974  27.375  1.00  0.00     0.021 C 
BRANCH  28  29
ATOM     29  C   UNL A   1      33.670  28.601  27.195  1.00  0.00     0.116 C 
BRANCH  29  30
ATOM     30  N   UNL A   1      33.659  30.026  27.491  1.00  0.00    -0.352 N 
ATOM     31  C   UNL A   1      34.604  30.783  28.134  1.00  0.00     0.251 C 
ATOM     32  H   UNL A   1      32.861  30.515  27.186  1.00  0.00     0.163 HD
ATOM     33  O   UNL A   1      34.335  31.928  28.493  1.00  0.00    -0.269 OA
BRANCH  31  34
ATOM     34  C   UNL A   1      35.936  30.209  28.412  1.00  0.00     0.039 A 
ATOM     35  C   UNL A   1      36.901  30.216  27.405  1.00  0.00     0.014 A 
ATOM     36  C   UNL A   1      36.234  29.683  29.672  1.00  0.00     0.014 A 
ATOM     37  C   UNL A   1      38.191  29.759  27.684  1.00  0.00     0.010 A 
ATOM     38  C   UNL A   1      37.537  29.299  29.970  1.00  0.00     0.010 A 
ATOM     39  C   UNL A   1      38.531  29.338  28.981  1.00  0.00    -0.014 A 
BRANCH  39  40
ATOM     40  C   UNL A   1      39.927  28.974  29.329  1.00  0.00     0.031 A 
ATOM     41  C   UNL A   1      40.840  29.980  29.974  1.00  0.00     0.074 A 
ATOM     42  C   UNL A   1      40.395  27.756  28.990  1.00  0.00     0.049 A 
ATOM     43  N   UNL A   1      42.107  29.868  30.280  1.00  0.00    -0.248 NA
ATOM     44  C   UNL A   1      40.257  31.292  30.293  1.00  0.00     0.031 C 
ATOM     45  C   UNL A   1      39.622  26.715  28.309  1.00  0.00     0.029 A 
ATOM     46  N   UNL A   1      41.638  27.194  29.151  1.00  0.00    -0.354 N 
ATOM     47  C   UNL A   1      42.475  31.093  30.822  1.00  0.00     0.074 A 
ATOM     48  C   UNL A   1      41.313  31.952  30.745  1.00  0.00     0.031 C 
ATOM     49  C   UNL A   1      40.402  25.640  28.120  1.00  0.00     0.029 A 
ATOM     50  C   UNL A   1      41.742  25.928  28.625  1.00  0.00     0.049 A 
ATOM     51  H   UNL A   1      42.382  27.654  29.602  1.00  0.00     0.167 HD
ATOM     52  C   UNL A   1      43.665  31.458  31.358  1.00  0.00     0.037 A 
ATOM     53  C   UNL A   1      42.800  25.099  28.535  1.00  0.00     0.037 A 
ATOM     54  C   UNL A   1      44.816  30.595  31.425  1.00  0.00     0.049 A 
ATOM     55  C   UNL A   1      44.119  25.531  29.113  1.00  0.00     0.074 A 
ATOM     56  C   UNL A   1      46.052  30.852  31.992  1.00  0.00     0.029 A 
ATOM     57  N   UNL A   1      44.878  29.312  30.898  1.00  0.00    -0.354 N 
ATOM     58  N   UNL A   1      44.430  26.666  29.694  1.00  0.00    -0.248 NA
ATOM     59  C   UNL A   1      45.229  24.573  29.032  1.00  0.00     0.031 C 
ATOM     60  C   UNL A   1      46.879  29.748  31.755  1.00  0.00     0.029 A 
ATOM     61  C   UNL A   1      46.142  28.778  31.096  1.00  0.00     0.049 A 
ATOM     62  H   UNL A   1      44.134  28.850  30.449  1.00  0.00     0.167 HD
ATOM     63  C   UNL A   1      45.767  26.553  30.059  1.00  0.00     0.074 A 
ATOM     64  C   UNL A   1      46.198  25.231  29.651  1.00  0.00     0.031 C 
ATOM     65  C   UNL A   1      46.563  27.462  30.675  1.00  0.00     0.037 A 
BRANCH  52  66
ATOM     66  C   UNL A   1      43.777  32.859  31.902  1.00  0.00     0.058 A 
ATOM     67  C   UNL A   1      44.217  33.928  31.104  1.00  0.00     0.135 A 
ATOM     68  C   UNL A   1      43.437  33.139  33.236  1.00  0.00     0.135 A 
ATOM     69  F   UNL A   1      44.567  33.719  29.824  1.00  0.00    -0.206 F 
ATOM     70  C   UNL A   1      44.364  35.212  31.620  1.00  0.00     0.059 A 
ATOM     71  C   UNL A   1      43.543  34.423  33.763  1.00  0.00     0.059 A 
ATOM     72  F   UNL A   1      43.006  32.159  34.045  1.00  0.00    -0.206 F 
ATOM     73  C   UNL A   1      44.030  35.448  32.954  1.00  0.00     0.060 A 
BRANCH  73  74
ATOM     74  S   UNL A   1      44.256  37.112  33.616  1.00  0.00     0.124 S 
ATOM     75  O   UNL A   1      42.919  37.674  33.450  1.00  0.00    -0.237 OA
ATOM     76  O   UNL A   1      44.664  36.847  34.992  1.00  0.00    -0.237 OA
ATOM     77  O   UNL A   1      45.288  37.684  32.756  1.00  0.00    -0.744 OA
ENDBRANCH  73  74
ENDBRANCH  52  66
BRANCH  53  78
ATOM     78  C   UNL A   1      42.640  23.780  27.868  1.00  0.00     0.058 A 
ATOM     79  C   UNL A   1      42.757  23.649  26.477  1.00  0.00     0.135 A 
ATOM     80  C   UNL A   1      42.419  22.614  28.618  1.00  0.00     0.135 A 
ATOM     81  F   UNL A   1      42.962  24.735  25.716  1.00  0.00    -0.206 F 
ATOM     82  C   UNL A   1      42.661  22.410  25.851  1.00  0.00     0.059 A 
ATOM     83  C   UNL A   1      42.345  21.361  28.018  1.00  0.00     0.059 A 
ATOM     84  F   UNL A   1      42.315  22.683  29.955  1.00  0.00    -0.206 F 
ATOM     85  C   UNL A   1      42.464  21.269  26.633  1.00  0.00     0.060 A 
BRANCH  85  86
ATOM     86  S   UNL A   1      42.423  19.658  25.820  1.00  0.00     0.124 S 
ATOM     87  O   UNL A   1      41.016  19.547  25.455  1.00  0.00    -0.237 OA
ATOM     88  O   UNL A   1      43.358  19.851  24.715  1.00  0.00    -0.237 OA
ATOM     89  O   UNL A   1      42.880  18.743  26.863  1.00  0.00    -0.744 OA
ENDBRANCH  85  86
ENDBRANCH  53  78
BRANCH  65  90
ATOM     90  C   UNL A   1      47.984  27.059  30.961  1.00  0.00     0.058 A 
ATOM     91  C   UNL A   1      48.323  26.301  32.094  1.00  0.00     0.135 A 
ATOM     92  C   UNL A   1      49.013  27.382  30.060  1.00  0.00     0.135 A 
ATOM     93  F   UNL A   1      47.381  25.971  32.993  1.00  0.00    -0.206 F 
ATOM     94  C   UNL A   1      49.631  25.891  32.330  1.00  0.00     0.059 A 
ATOM     95  C   UNL A   1      50.322  26.957  30.262  1.00  0.00     0.059 A 
ATOM     96  F   UNL A   1      48.745  28.099  28.957  1.00  0.00    -0.206 F 
ATOM     97  C   UNL A   1      50.622  26.219  31.405  1.00  0.00     0.060 A 
BRANCH  97  98
ATOM     98  S   UNL A   1      52.307  25.640  31.703  1.00  0.00     0.124 S 
ATOM     99  O   UNL A   1      52.717  26.487  32.818  1.00  0.00    -0.237 OA
ATOM    100  O   UNL A   1      52.099  24.231  32.020  1.00  0.00    -0.237 OA
ATOM    101  O   UNL A   1      52.985  25.900  30.437  1.00  0.00    -0.744 OA
ENDBRANCH  97  98
ENDBRANCH  65  90
ENDBRANCH  39  40
ENDBRANCH  31  34
ENDBRANCH  29  30
ENDBRANCH  28  29
ENDBRANCH  27  28
ENDBRANCH   1  27
TORSDOF 19
ENDMDL
MODEL 2
REMARK VINA RESULT:     -10.7      2.820      3.462
REMARK SMILES C[C@H](CNC(=O)N1C[C@H]2CCCC[N@@H+]2C[C@@H]1C)C(=O)NCCCCCCNC(=O)c1ccc(-c2c3nc(c(-c4c(F)cc(S(=O)(=O)[O-])cc4F)c4ccc([nH]4)c(-c4c(F)cc(S(=O)(=O)[O-])cc4F)c4nc(c(-c5c(F)cc(S(=O)(=O)[O-])cc5F)c5ccc2[nH]5)C=C4)C=C3)cc1
REMARK SMILES IDX 23 1 22 2 21 3 20 4 18 5 19 6 2 8 1 9 3 10 4 11 5 12 6 14
REMARK SMILES IDX 7 15 8 16 16 17 9 18 15 19 17 20 10 21 14 22 11 23 13 24
REMARK SMILES IDX 12 26 24 27 25 28 26 29 27 30 28 31 29 33 30 34 31 35 95 36
REMARK SMILES IDX 32 37 94 38 33 39 34 40 35 41 88 42 36 43 93 44 87 45 89 46
REMARK SMILES IDX 37 47 92 48 86 49 85 50 38 52 72 53 51 54 71 55 52 56 55 57
REMARK SMILES IDX 70 58 90 59 53 60 54 61 69 63 91 64 56 65 39 66 40 67 49 68
REMARK SMILES IDX 41 69 42 70 48 71 50 72 43 73 44 74 45 75 46 76 47 77 73 78
REMARK SMILES IDX 74 79 83 80 75 81 76 82 82 83 84 84 77 85 78 86 79 87 80 88
REMARK SMILES IDX 81 89 57 90 58 91 67 92 59 93 60 94 66 95 68 96 61 97 62 98
REMARK SMILES IDX 63 99 64 100 65 101
REMARK H PARENT 20 7 4 13 14 25 27 32 89 51 55 62
REMARK Flexibility Score: inf
ROOT
ATOM      1  C   UNL A   1      33.586  27.936  26.237  1.00  0.00     0.002 C 
ENDROOT
BRANCH   1   2
ATOM      2  C   UNL A   1      33.959  27.435  24.837  1.00  0.00     0.021 C 
BRANCH   2   3
ATOM      3  C   UNL A   1      33.096  28.028  23.725  1.00  0.00     0.116 C 
BRANCH   3   4
ATOM      4  N   UNL A   1      31.713  27.604  23.861  1.00  0.00    -0.356 N 
ATOM      5  C   UNL A   1      31.122  26.394  23.663  1.00  0.00     0.224 C 
ATOM      6  O   UNL A   1      29.899  26.326  23.804  1.00  0.00    -0.275 OA
ATOM      7  H   UNL A   1      31.095  28.315  24.147  1.00  0.00     0.163 HD
BRANCH   5   8
ATOM      8  C   UNL A   1      31.930  25.162  23.283  1.00  0.00     0.094 C 
ATOM      9  C   UNL A   1      32.357  25.213  21.815  1.00  0.00     0.020 C 
BRANCH   8  10
ATOM     10  C   UNL A   1      31.206  23.886  23.732  1.00  0.00     0.130 C 
BRANCH  10  11
ATOM     11  N   UNL A   1      30.922  23.878  25.159  1.00  0.00    -0.337 N 
ATOM     12  C   UNL A   1      31.554  23.224  26.162  1.00  0.00     0.318 C 
ATOM     13  H   UNL A   1      30.156  24.432  25.436  1.00  0.00     0.165 HD
ATOM     14  O   UNL A   1      30.935  23.036  27.209  1.00  0.00    -0.249 OA
BRANCH  12  15
ATOM     15  N   UNL A   1      32.832  22.761  25.943  1.00  0.00    -0.311 N 
ATOM     16  C   UNL A   1      33.961  23.565  26.414  1.00  0.00     0.186 C 
ATOM     17  C   UNL A   1      33.043  21.304  25.993  1.00  0.00     0.139 C 
ATOM     18  C   UNL A   1      35.272  23.160  25.724  1.00  0.00     0.203 C 
ATOM     19  C   UNL A   1      34.515  20.842  25.748  1.00  0.00     0.287 C 
ATOM     20  C   UNL A   1      32.173  20.590  24.941  1.00  0.00     0.037 C 
ATOM     21  C   UNL A   1      36.414  24.096  26.153  1.00  0.00     0.067 C 
ATOM     22  N   UNL A   1      35.619  21.766  26.069  1.00  0.00    -0.329 N 
ATOM     23  C   UNL A   1      37.736  23.696  25.501  1.00  0.00     0.012 C 
ATOM     24  C   UNL A   1      36.837  21.344  25.359  1.00  0.00     0.262 C 
ATOM     25  H   UNL A   1      35.786  21.734  27.074  1.00  0.00     0.348 HD
ATOM     26  C   UNL A   1      38.031  22.218  25.730  1.00  0.00     0.062 C 
ENDBRANCH  12  15
ENDBRANCH  10  11
ENDBRANCH   8  10
ENDBRANCH   5   8
ENDBRANCH   3   4
ENDBRANCH   2   3
ENDBRANCH   1   2
BRANCH   1  27
ATOM     27  C   UNL A   1      34.707  28.676  26.975  1.00  0.00     0.002 C 
BRANCH  27  28
ATOM     28  C   UNL A   1      34.423  30.152  27.261  1.00  0.00     0.021 C 
BRANCH  28  29
ATOM     29  C   UNL A   1      35.550  30.879  27.988  1.00  0.00     0.116 C 
BRANCH  29  30
ATOM     30  N   UNL A   1      35.399  30.803  29.434  1.00  0.00    -0.352 N 
ATOM     31  C   UNL A   1      36.305  30.395  30.379  1.00  0.00     0.251 C 
ATOM     32  H   UNL A   1      34.523  31.084  29.783  1.00  0.00     0.163 HD
ATOM     33  O   UNL A   1      35.939  30.186  31.533  1.00  0.00    -0.269 OA
BRANCH  31  34
ATOM     34  C   UNL A   1      37.717  30.189  29.996  1.00  0.00     0.039 A 
ATOM     35  C   UNL A   1      38.686  30.106  30.997  1.00  0.00     0.014 A 
ATOM     36  C   UNL A   1      38.077  30.060  28.652  1.00  0.00     0.014 A 
ATOM     37  C   UNL A   1      40.009  29.820  30.653  1.00  0.00     0.010 A 
ATOM     38  C   UNL A   1      39.379  29.701  28.316  1.00  0.00     0.010 A 
ATOM     39  C   UNL A   1      40.357  29.572  29.314  1.00  0.00    -0.014 A 
BRANCH  39  40
ATOM     40  C   UNL A   1      41.729  29.140  28.944  1.00  0.00     0.031 A 
ATOM     41  C   UNL A   1      42.851  30.138  28.883  1.00  0.00     0.074 A 
ATOM     42  C   UNL A   1      41.943  27.858  28.588  1.00  0.00     0.049 A 
ATOM     43  N   UNL A   1      44.092  29.962  28.509  1.00  0.00    -0.248 NA
ATOM     44  C   UNL A   1      42.530  31.520  29.268  1.00  0.00     0.031 C 
ATOM     45  C   UNL A   1      40.920  26.810  28.552  1.00  0.00     0.029 A 
ATOM     46  N   UNL A   1      43.085  27.221  28.167  1.00  0.00    -0.354 N 
ATOM     47  C   UNL A   1      44.699  31.207  28.609  1.00  0.00     0.074 A 
ATOM     48  C   UNL A   1      43.672  32.142  29.018  1.00  0.00     0.031 C 
ATOM     49  C   UNL A   1      41.481  25.662  28.143  1.00  0.00     0.029 A 
ATOM     50  C   UNL A   1      42.890  25.899  27.845  1.00  0.00     0.049 A 
ATOM     51  H   UNL A   1      43.959  27.669  28.103  1.00  0.00     0.167 HD
ATOM     52  C   UNL A   1      45.997  31.537  28.402  1.00  0.00     0.037 A 
ATOM     53  C   UNL A   1      43.742  24.983  27.343  1.00  0.00     0.037 A 
ATOM     54  C   UNL A   1      47.009  30.598  27.991  1.00  0.00     0.049 A 
ATOM     55  C   UNL A   1      45.173  25.373  27.097  1.00  0.00     0.074 A 
ATOM     56  C   UNL A   1      48.362  30.819  27.802  1.00  0.00     0.029 A 
ATOM     57  N   UNL A   1      46.779  29.262  27.692  1.00  0.00    -0.354 N 
ATOM     58  N   UNL A   1      45.750  26.539  27.271  1.00  0.00    -0.248 NA
ATOM     59  C   UNL A   1      46.072  24.326  26.594  1.00  0.00     0.031 C 
ATOM     60  C   UNL A   1      48.938  29.634  27.333  1.00  0.00     0.029 A 
ATOM     61  C   UNL A   1      47.958  28.655  27.287  1.00  0.00     0.049 A 
ATOM     62  H   UNL A   1      45.906  28.812  27.756  1.00  0.00     0.167 HD
ATOM     63  C   UNL A   1      47.081  26.363  26.911  1.00  0.00     0.074 A 
ATOM     64  C   UNL A   1      47.228  24.973  26.530  1.00  0.00     0.031 C 
ATOM     65  C   UNL A   1      48.089  27.270  26.899  1.00  0.00     0.037 A 
BRANCH  52  66
ATOM     66  C   UNL A   1      46.387  32.977  28.609  1.00  0.00     0.058 A 
ATOM     67  C   UNL A   1      46.367  33.907  27.556  1.00  0.00     0.135 A 
ATOM     68  C   UNL A   1      46.780  33.438  29.877  1.00  0.00     0.135 A 
ATOM     69  F   UNL A   1      46.011  33.521  26.320  1.00  0.00    -0.206 F 
ATOM     70  C   UNL A   1      46.771  35.225  27.739  1.00  0.00     0.059 A 
ATOM     71  C   UNL A   1      47.154  34.762  30.090  1.00  0.00     0.059 A 
ATOM     72  F   UNL A   1      46.813  32.598  30.923  1.00  0.00    -0.206 F 
ATOM     73  C   UNL A   1      47.169  35.642  29.010  1.00  0.00     0.060 A 
BRANCH  73  74
ATOM     74  S   UNL A   1      47.719  37.348  29.223  1.00  0.00     0.124 S 
ATOM     75  O   UNL A   1      46.820  38.058  28.318  1.00  0.00    -0.237 OA
ATOM     76  O   UNL A   1      47.492  37.574  30.647  1.00  0.00    -0.237 OA
ATOM     77  O   UNL A   1      49.120  37.308  28.812  1.00  0.00    -0.744 OA
ENDBRANCH  73  74
ENDBRANCH  52  66
BRANCH  53  78
ATOM     78  C   UNL A   1      43.249  23.613  27.044  1.00  0.00     0.058 A 
ATOM     79  C   UNL A   1      43.133  23.152  25.725  1.00  0.00     0.135 A 
ATOM     80  C   UNL A   1      42.932  22.717  28.078  1.00  0.00     0.135 A 
ATOM     81  F   UNL A   1      43.417  23.972  24.702  1.00  0.00    -0.206 F 
ATOM     82  C   UNL A   1      42.722  21.854  25.440  1.00  0.00     0.059 A 
ATOM     83  C   UNL A   1      42.545  21.407  27.820  1.00  0.00     0.059 A 
ATOM     84  F   UNL A   1      43.042  23.104  29.360  1.00  0.00    -0.206 F 
ATOM     85  C   UNL A   1      42.439  20.985  26.496  1.00  0.00     0.060 A 
BRANCH  85  86
ATOM     86  S   UNL A   1      41.987  19.279  26.117  1.00  0.00     0.124 S 
ATOM     87  O   UNL A   1      40.538  19.380  25.982  1.00  0.00    -0.237 OA
ATOM     88  O   UNL A   1      42.729  19.034  24.884  1.00  0.00    -0.237 OA
ATOM     89  O   UNL A   1      42.462  18.538  27.282  1.00  0.00    -0.744 OA
ENDBRANCH  85  86
ENDBRANCH  53  78
BRANCH  65  90
ATOM     90  C   UNL A   1      49.449  26.791  26.470  1.00  0.00     0.058 A 
ATOM     91  C   UNL A   1      50.275  26.049  27.330  1.00  0.00     0.135 A 
ATOM     92  C   UNL A   1      49.908  27.024  25.163  1.00  0.00     0.135 A 
ATOM     93  F   UNL A   1      49.890  25.806  28.593  1.00  0.00    -0.206 F 
ATOM     94  C   UNL A   1      51.513  25.569  26.914  1.00  0.00     0.059 A 
ATOM     95  C   UNL A   1      51.129  26.527  24.717  1.00  0.00     0.059 A 
ATOM     96  F   UNL A   1      49.157  27.721  24.296  1.00  0.00    -0.206 F 
ATOM     97  C   UNL A   1      51.928  25.808  25.604  1.00  0.00     0.060 A 
BRANCH  97  98
ATOM     98  S   UNL A   1      53.516  25.138  25.065  1.00  0.00     0.124 S 
ATOM     99  O   UNL A   1      53.548  25.547  23.665  1.00  0.00    -0.237 OA
ATOM    100  O   UNL A   1      54.457  25.821  25.947  1.00  0.00    -0.237 OA
ATOM    101  O   UNL A   1      53.377  23.703  25.296  1.00  0.00    -0.744 OA
ENDBRANCH  97  98
ENDBRANCH  65  90
ENDBRANCH  39  40
ENDBRANCH  31  34
ENDBRANCH  29  30
ENDBRANCH  28  29
ENDBRANCH  27  28
ENDBRANCH   1  27
TORSDOF 19
ENDMDL
MODEL 3
REMARK VINA RESULT:     -10.6      3.326      9.455
REMARK SMILES C[C@H](CNC(=O)N1C[C@H]2CCCC[N@@H+]2C[C@@H]1C)C(=O)NCCCCCCNC(=O)c1ccc(-c2c3nc(c(-c4c(F)cc(S(=O)(=O)[O-])cc4F)c4ccc([nH]4)c(-c4c(F)cc(S(=O)(=O)[O-])cc4F)c4nc(c(-c5c(F)cc(S(=O)(=O)[O-])cc5F)c5ccc2[nH]5)C=C4)C=C3)cc1
REMARK SMILES IDX 23 1 22 2 21 3 20 4 18 5 19 6 2 8 1 9 3 10 4 11 5 12 6 14
REMARK SMILES IDX 7 15 8 16 16 17 9 18 15 19 17 20 10 21 14 22 11 23 13 24
REMARK SMILES IDX 12 26 24 27 25 28 26 29 27 30 28 31 29 33 30 34 31 35 95 36
REMARK SMILES IDX 32 37 94 38 33 39 34 40 35 41 88 42 36 43 93 44 87 45 89 46
REMARK SMILES IDX 37 47 92 48 86 49 85 50 38 52 72 53 51 54 71 55 52 56 55 57
REMARK SMILES IDX 70 58 90 59 53 60 54 61 69 63 91 64 56 65 39 66 40 67 49 68
REMARK SMILES IDX 41 69 42 70 48 71 50 72 43 73 44 74 45 75 46 76 47 77 73 78
REMARK SMILES IDX 74 79 83 80 75 81 76 82 82 83 84 84 77 85 78 86 79 87 80 88
REMARK SMILES IDX 81 89 57 90 58 91 67 92 59 93 60 94 66 95 68 96 61 97 62 98
REMARK SMILES IDX 63 99 64 100 65 101
REMARK H PARENT 20 7 4 13 14 25 27 32 89 51 55 62
REMARK Flexibility Score: inf
ROOT
ATOM      1  C   UNL A   1      35.737  21.086  24.735  1.00  0.00     0.002 C 
ENDROOT
BRANCH   1   2
ATOM      2  C   UNL A   1      34.358  20.609  25.207  1.00  0.00     0.021 C 
BRANCH   2   3
ATOM      3  C   UNL A   1      33.212  21.061  24.306  1.00  0.00     0.116 C 
BRANCH   3   4
ATOM      4  N   UNL A   1      31.994  21.253  25.075  1.00  0.00    -0.356 N 
ATOM      5  C   UNL A   1      31.311  22.383  25.405  1.00  0.00     0.224 C 
ATOM      6  O   UNL A   1      30.317  22.261  26.125  1.00  0.00    -0.275 OA
ATOM      7  H   UNL A   1      31.592  20.422  25.417  1.00  0.00     0.163 HD
BRANCH   5   8
ATOM      8  C   UNL A   1      31.746  23.755  24.909  1.00  0.00     0.094 C 
ATOM      9  C   UNL A   1      32.258  24.621  26.062  1.00  0.00     0.020 C 
BRANCH   8  10
ATOM     10  C   UNL A   1      30.656  24.378  24.029  1.00  0.00     0.130 C 
BRANCH  10  11
ATOM     11  N   UNL A   1      31.172  24.858  22.757  1.00  0.00    -0.337 N 
ATOM     12  C   UNL A   1      31.383  26.128  22.335  1.00  0.00     0.318 C 
ATOM     13  H   UNL A   1      31.403  24.157  22.106  1.00  0.00     0.165 HD
ATOM     14  O   UNL A   1      31.445  26.330  21.122  1.00  0.00    -0.249 OA
BRANCH  12  15
ATOM     15  N   UNL A   1      31.468  27.129  23.276  1.00  0.00    -0.311 N 
ATOM     16  C   UNL A   1      32.775  27.429  23.866  1.00  0.00     0.186 C 
ATOM     17  C   UNL A   1      30.578  28.291  23.112  1.00  0.00     0.139 C 
ATOM     18  C   UNL A   1      32.636  28.223  25.174  1.00  0.00     0.203 C 
ATOM     19  C   UNL A   1      30.730  29.397  24.205  1.00  0.00     0.287 C 
ATOM     20  C   UNL A   1      29.101  27.853  23.127  1.00  0.00     0.037 C 
ATOM     21  C   UNL A   1      34.014  28.423  25.827  1.00  0.00     0.067 C 
ATOM     22  N   UNL A   1      32.020  29.539  24.907  1.00  0.00    -0.329 N 
ATOM     23  C   UNL A   1      33.906  29.235  27.115  1.00  0.00     0.012 C 
ATOM     24  C   UNL A   1      31.819  30.282  26.162  1.00  0.00     0.262 C 
ATOM     25  H   UNL A   1      32.659  30.058  24.306  1.00  0.00     0.348 HD
ATOM     26  C   UNL A   1      33.142  30.533  26.880  1.00  0.00     0.062 C 
ENDBRANCH  12  15
ENDBRANCH  10  11
ENDBRANCH   8  10
ENDBRANCH   5   8
ENDBRANCH   3   4
ENDBRANCH   2   3
ENDBRANCH   1   2
BRANCH   1  27
ATOM     27  C   UNL A   1      36.882  20.104  25.001  1.00  0.00     0.002 C 
BRANCH  27  28
ATOM     28  C   UNL A   1      38.286  20.695  24.846  1.00  0.00     0.021 C 
BRANCH  28  29
ATOM     29  C   UNL A   1      39.118  20.681  26.124  1.00  0.00     0.116 C 
BRANCH  29  30
ATOM     30  N   UNL A   1      40.067  19.578  26.140  1.00  0.00    -0.352 N 
ATOM     31  C   UNL A   1      41.438  19.616  26.139  1.00  0.00     0.251 C 
ATOM     32  H   UNL A   1      39.669  18.678  26.155  1.00  0.00     0.163 HD
ATOM     33  O   UNL A   1      42.081  18.589  25.933  1.00  0.00    -0.269 OA
BRANCH  31  34
ATOM     34  C   UNL A   1      42.134  20.898  26.365  1.00  0.00     0.039 A 
ATOM     35  C   UNL A   1      42.579  21.632  25.265  1.00  0.00     0.014 A 
ATOM     36  C   UNL A   1      42.331  21.381  27.662  1.00  0.00     0.014 A 
ATOM     37  C   UNL A   1      43.156  22.888  25.462  1.00  0.00     0.010 A 
ATOM     38  C   UNL A   1      42.837  22.663  27.853  1.00  0.00     0.010 A 
ATOM     39  C   UNL A   1      43.250  23.432  26.755  1.00  0.00    -0.014 A 
BRANCH  39  40
ATOM     40  C   UNL A   1      43.741  24.816  26.972  1.00  0.00     0.031 A 
ATOM     41  C   UNL A   1      45.197  25.146  26.792  1.00  0.00     0.074 A 
ATOM     42  C   UNL A   1      42.883  25.760  27.408  1.00  0.00     0.049 A 
ATOM     43  N   UNL A   1      45.820  26.275  27.009  1.00  0.00    -0.248 NA
ATOM     44  C   UNL A   1      46.070  24.055  26.333  1.00  0.00     0.031 C 
ATOM     45  C   UNL A   1      41.458  25.547  27.674  1.00  0.00     0.029 A 
ATOM     46  N   UNL A   1      43.085  27.080  27.725  1.00  0.00    -0.354 N 
ATOM     47  C   UNL A   1      47.156  26.032  26.718  1.00  0.00     0.074 A 
ATOM     48  C   UNL A   1      47.262  24.630  26.370  1.00  0.00     0.031 C 
ATOM     49  C   UNL A   1      40.914  26.695  28.103  1.00  0.00     0.029 A 
ATOM     50  C   UNL A   1      41.956  27.715  28.186  1.00  0.00     0.049 A 
ATOM     51  H   UNL A   1      43.955  27.530  27.630  1.00  0.00     0.167 HD
ATOM     52  C   UNL A   1      48.195  26.902  26.717  1.00  0.00     0.037 A 
ATOM     53  C   UNL A   1      41.780  28.968  28.647  1.00  0.00     0.037 A 
ATOM     54  C   UNL A   1      48.079  28.294  27.069  1.00  0.00     0.049 A 
ATOM     55  C   UNL A   1      42.949  29.913  28.662  1.00  0.00     0.074 A 
ATOM     56  C   UNL A   1      49.059  29.271  27.053  1.00  0.00     0.029 A 
ATOM     57  N   UNL A   1      46.914  28.906  27.514  1.00  0.00    -0.354 N 
ATOM     58  N   UNL A   1      44.193  29.689  28.309  1.00  0.00    -0.248 NA
ATOM     59  C   UNL A   1      42.694  31.282  29.129  1.00  0.00     0.031 C 
ATOM     60  C   UNL A   1      48.502  30.457  27.543  1.00  0.00     0.029 A 
ATOM     61  C   UNL A   1      47.159  30.239  27.807  1.00  0.00     0.049 A 
ATOM     62  H   UNL A   1      46.042  28.458  27.608  1.00  0.00     0.167 HD
ATOM     63  C   UNL A   1      44.866  30.891  28.499  1.00  0.00     0.074 A 
ATOM     64  C   UNL A   1      43.886  31.844  28.979  1.00  0.00     0.031 C 
ATOM     65  C   UNL A   1      46.176  31.177  28.295  1.00  0.00     0.037 A 
BRANCH  52  66
ATOM     66  C   UNL A   1      49.549  26.363  26.332  1.00  0.00     0.058 A 
ATOM     67  C   UNL A   1      50.403  25.770  27.276  1.00  0.00     0.135 A 
ATOM     68  C   UNL A   1      49.997  26.436  25.003  1.00  0.00     0.135 A 
ATOM     69  F   UNL A   1      50.033  25.683  28.564  1.00  0.00    -0.206 F 
ATOM     70  C   UNL A   1      51.671  25.315  26.929  1.00  0.00     0.059 A 
ATOM     71  C   UNL A   1      51.248  25.955  24.626  1.00  0.00     0.059 A 
ATOM     72  F   UNL A   1      49.223  26.988  24.056  1.00  0.00    -0.206 F 
ATOM     73  C   UNL A   1      52.087  25.417  25.601  1.00  0.00     0.060 A 
BRANCH  73  74
ATOM     74  S   UNL A   1      53.746  24.850  25.172  1.00  0.00     0.124 S 
ATOM     75  O   UNL A   1      54.003  25.603  23.948  1.00  0.00    -0.237 OA
ATOM     76  O   UNL A   1      54.525  25.255  26.339  1.00  0.00    -0.237 OA
ATOM     77  O   UNL A   1      53.581  23.410  25.000  1.00  0.00    -0.744 OA
ENDBRANCH  73  74
ENDBRANCH  52  66
BRANCH  53  78
ATOM     78  C   UNL A   1      40.438  29.388  29.130  1.00  0.00     0.058 A 
ATOM     79  C   UNL A   1      40.157  29.493  30.500  1.00  0.00     0.135 A 
ATOM     80  C   UNL A   1      39.423  29.742  28.227  1.00  0.00     0.135 A 
ATOM     81  F   UNL A   1      41.091  29.159  31.403  1.00  0.00    -0.206 F 
ATOM     82  C   UNL A   1      38.919  29.935  30.958  1.00  0.00     0.059 A 
ATOM     83  C   UNL A   1      38.187  30.211  28.660  1.00  0.00     0.059 A 
ATOM     84  F   UNL A   1      39.646  29.674  26.904  1.00  0.00    -0.206 F 
ATOM     85  C   UNL A   1      37.943  30.301  30.028  1.00  0.00     0.060 A 
BRANCH  85  86
ATOM     86  S   UNL A   1      36.371  30.951  30.633  1.00  0.00     0.124 S 
ATOM     87  O   UNL A   1      35.635  31.148  29.390  1.00  0.00    -0.237 OA
ATOM     88  O   UNL A   1      35.903  29.865  31.490  1.00  0.00    -0.237 OA
ATOM     89  O   UNL A   1      36.760  32.170  31.337  1.00  0.00    -0.744 OA
ENDBRANCH  85  86
ENDBRANCH  53  78
BRANCH  65  90
ATOM     90  C   UNL A   1      46.631  32.583  28.576  1.00  0.00     0.058 A 
ATOM     91  C   UNL A   1      46.580  33.586  27.594  1.00  0.00     0.135 A 
ATOM     92  C   UNL A   1      47.068  32.948  29.861  1.00  0.00     0.135 A 
ATOM     93  F   UNL A   1      46.179  33.290  26.347  1.00  0.00    -0.206 F 
ATOM     94  C   UNL A   1      46.958  34.895  27.872  1.00  0.00     0.059 A 
ATOM     95  C   UNL A   1      47.423  34.257  30.169  1.00  0.00     0.059 A 
ATOM     96  F   UNL A   1      47.130  32.031  30.839  1.00  0.00    -0.206 F 
ATOM     97  C   UNL A   1      47.373  35.222  29.164  1.00  0.00     0.060 A 
BRANCH  97  98
ATOM     98  S   UNL A   1      47.817  36.936  29.520  1.00  0.00     0.124 S 
ATOM     99  O   UNL A   1      48.729  37.238  28.422  1.00  0.00    -0.237 OA
ATOM    100  O   UNL A   1      46.522  37.608  29.474  1.00  0.00    -0.237 OA
ATOM    101  O   UNL A   1      48.431  36.861  30.842  1.00  0.00    -0.744 OA
ENDBRANCH  97  98
ENDBRANCH  65  90
ENDBRANCH  39  40
ENDBRANCH  31  34
ENDBRANCH  29  30
ENDBRANCH  28  29
ENDBRANCH  27  28
ENDBRANCH   1  27
TORSDOF 19
ENDMDL
