MODEL 1
REMARK VINA RESULT:     -12.1      0.000      0.000
REMARK SMILES CC1=C(C(=O)NCCCCCCNC(=O)c2ccc(-c3c4nc(c(-c5c(F)cc(S(=O)(=O)[O-])cc5F)c5ccc([nH]5)c(-c5c(F)cc(S(=O)(=O)[O-])cc5F)c5nc(c(-c6c(F)cc(S(=O)(=O)[O-])cc6F)c6ccc3[nH]6)C=C5)C=C4)cc2)N2C(=O)[C@H](NC(=O)c3c(Cl)c(C(F)(F)F)nn3C)[C@@H]2SC1
REMARK SMILES IDX 9 1 8 2 7 3 6 4 4 5 5 6 3 8 1 9 2 10 102 11 82 12 101 13
REMARK SMILES IDX 83 14 100 15 84 16 85 17 86 18 87 19 88 21 89 22 90 23 98 24
REMARK SMILES IDX 91 25 92 26 97 27 99 28 93 29 94 30 95 31 96 32 10 33 11 34
REMARK SMILES IDX 12 35 13 36 14 37 15 39 16 40 17 41 81 42 18 43 80 44 19 45
REMARK SMILES IDX 20 46 21 47 74 48 22 49 79 50 73 51 75 52 23 53 78 54 72 55
REMARK SMILES IDX 71 56 24 58 58 59 37 60 57 61 38 62 41 63 56 64 76 65 39 66
REMARK SMILES IDX 40 67 55 69 77 70 42 71 25 72 26 73 35 74 27 75 28 76 34 77
REMARK SMILES IDX 36 78 29 79 30 80 31 81 32 82 33 83 59 84 60 85 69 86 61 87
REMARK SMILES IDX 62 88 68 89 70 90 63 91 64 92 65 93 66 94 67 95 43 96 44 97
REMARK SMILES IDX 53 98 45 99 46 100 52 101 54 102 47 103 48 104 49 105 50 106
REMARK SMILES IDX 51 107
REMARK H PARENT 6 7 86 20 13 38 75 57 41 68
REMARK Flexibility Score: inf
ROOT
ATOM      1  C   UNL A   1      37.305  23.576  25.345  1.00  0.00     0.002 C 
ENDROOT
BRANCH   1   2
ATOM      2  C   UNL A   1      37.147  22.220  24.647  1.00  0.00     0.021 C 
BRANCH   2   3
ATOM      3  C   UNL A   1      36.559  21.068  25.461  1.00  0.00     0.116 C 
BRANCH   3   4
ATOM      4  N   UNL A   1      35.608  21.432  26.495  1.00  0.00    -0.351 N 
ATOM      5  C   UNL A   1      34.251  21.648  26.417  1.00  0.00     0.268 C 
ATOM      6  O   UNL A   1      33.612  21.673  27.465  1.00  0.00    -0.268 OA
ATOM      7  H   UNL A   1      35.995  21.542  27.394  1.00  0.00     0.163 HD
BRANCH   5   8
ATOM      8  C   UNL A   1      33.586  21.931  25.082  1.00  0.00     0.110 C 
ATOM      9  C   UNL A   1      32.519  19.633  24.933  1.00  0.00     0.043 C 
ATOM     10  C   UNL A   1      32.902  20.985  24.386  1.00  0.00    -0.034 C 
ATOM     11  C   UNL A   1      32.322  21.214  23.007  1.00  0.00     0.104 C 
ATOM     12  N   UNL A   1      33.555  23.236  24.650  1.00  0.00    -0.290 N 
ATOM     13  S   UNL A   1      31.629  22.866  22.820  1.00  0.00    -0.129 SA
ATOM     14  C   UNL A   1      33.646  24.471  25.202  1.00  0.00     0.253 C 
ATOM     15  C   UNL A   1      33.170  23.673  23.326  1.00  0.00     0.181 C 
ATOM     16  O   UNL A   1      33.966  24.905  26.281  1.00  0.00    -0.272 OA
ATOM     17  C   UNL A   1      33.029  25.116  23.910  1.00  0.00     0.206 C 
BRANCH  17  18
ATOM     18  N   UNL A   1      31.635  25.637  24.041  1.00  0.00    -0.336 N 
ATOM     19  C   UNL A   1      31.181  26.868  24.442  1.00  0.00     0.271 C 
ATOM     20  H   UNL A   1      30.930  24.993  23.803  1.00  0.00     0.164 HD
ATOM     21  O   UNL A   1      29.971  27.076  24.430  1.00  0.00    -0.267 OA
BRANCH  19  22
ATOM     22  C   UNL A   1      32.126  27.852  24.889  1.00  0.00     0.145 A 
ATOM     23  C   UNL A   1      32.325  28.313  26.177  1.00  0.00     0.104 A 
ATOM     24  N   UNL A   1      32.927  28.646  24.112  1.00  0.00    -0.261 N 
ATOM     25  Cl  UNL A   1      31.525  27.821  27.593  1.00  0.00    -0.079 Cl
ATOM     26  C   UNL A   1      33.360  29.275  26.100  1.00  0.00     0.185 A 
ATOM     27  N   UNL A   1      33.755  29.440  24.820  1.00  0.00    -0.166 NA
ATOM     28  C   UNL A   1      32.945  28.760  22.672  1.00  0.00     0.174 C 
BRANCH  26  29
ATOM     29  C   UNL A   1      33.956  30.033  27.248  1.00  0.00     0.436 C 
ATOM     30  F   UNL A   1      33.012  30.717  27.950  1.00  0.00    -0.164 F 
ATOM     31  F   UNL A   1      34.579  29.211  28.136  1.00  0.00    -0.164 F 
ATOM     32  F   UNL A   1      34.887  30.948  26.865  1.00  0.00    -0.164 F 
ENDBRANCH  26  29
ENDBRANCH  19  22
ENDBRANCH  17  18
ENDBRANCH   5   8
ENDBRANCH   3   4
ENDBRANCH   2   3
ENDBRANCH   1   2
BRANCH   1  33
ATOM     33  C   UNL A   1      38.335  23.702  26.472  1.00  0.00     0.002 C 
BRANCH  33  34
ATOM     34  C   UNL A   1      39.458  22.664  26.539  1.00  0.00     0.021 C 
BRANCH  34  35
ATOM     35  C   UNL A   1      40.807  23.132  27.074  1.00  0.00     0.116 C 
BRANCH  35  36
ATOM     36  N   UNL A   1      41.647  23.758  26.069  1.00  0.00    -0.352 N 
ATOM     37  C   UNL A   1      42.112  25.050  25.986  1.00  0.00     0.251 C 
ATOM     38  H   UNL A   1      41.927  23.167  25.334  1.00  0.00     0.163 HD
ATOM     39  O   UNL A   1      42.747  25.396  24.993  1.00  0.00    -0.269 OA
BRANCH  37  40
ATOM     40  C   UNL A   1      41.828  26.037  27.056  1.00  0.00     0.039 A 
ATOM     41  C   UNL A   1      40.855  25.725  28.012  1.00  0.00     0.014 A 
ATOM     42  C   UNL A   1      42.486  27.269  27.119  1.00  0.00     0.014 A 
ATOM     43  C   UNL A   1      40.592  26.611  29.062  1.00  0.00     0.010 A 
ATOM     44  C   UNL A   1      42.272  28.123  28.203  1.00  0.00     0.010 A 
ATOM     45  C   UNL A   1      41.324  27.803  29.188  1.00  0.00    -0.014 A 
BRANCH  45  46
ATOM     46  C   UNL A   1      41.119  28.715  30.345  1.00  0.00     0.031 A 
ATOM     47  C   UNL A   1      41.965  28.579  31.582  1.00  0.00     0.074 A 
ATOM     48  C   UNL A   1      40.126  29.625  30.309  1.00  0.00     0.049 A 
ATOM     49  N   UNL A   1      41.887  29.235  32.713  1.00  0.00    -0.248 NA
ATOM     50  C   UNL A   1      43.019  27.553  31.555  1.00  0.00     0.031 C 
ATOM     51  C   UNL A   1      39.204  29.826  29.189  1.00  0.00     0.029 A 
ATOM     52  N   UNL A   1      39.714  30.543  31.243  1.00  0.00    -0.354 N 
ATOM     53  C   UNL A   1      42.866  28.691  33.536  1.00  0.00     0.074 A 
ATOM     54  C   UNL A   1      43.494  27.621  32.791  1.00  0.00     0.031 C 
ATOM     55  C   UNL A   1      38.347  30.813  29.495  1.00  0.00     0.029 A 
ATOM     56  C   UNL A   1      38.633  31.293  30.843  1.00  0.00     0.049 A 
ATOM     57  H   UNL A   1      40.152  30.654  32.118  1.00  0.00     0.167 HD
ATOM     58  C   UNL A   1      43.223  29.061  34.790  1.00  0.00     0.037 A 
ATOM     59  C   UNL A   1      37.944  32.254  31.490  1.00  0.00     0.037 A 
ATOM     60  C   UNL A   1      42.614  30.145  35.518  1.00  0.00     0.049 A 
ATOM     61  C   UNL A   1      38.365  32.659  32.876  1.00  0.00     0.074 A 
ATOM     62  C   UNL A   1      42.952  30.640  36.766  1.00  0.00     0.029 A 
ATOM     63  N   UNL A   1      41.541  30.899  35.067  1.00  0.00    -0.354 N 
ATOM     64  N   UNL A   1      39.337  32.177  33.614  1.00  0.00    -0.248 NA
ATOM     65  C   UNL A   1      37.604  33.741  33.513  1.00  0.00     0.031 C 
ATOM     66  C   UNL A   1      42.055  31.666  37.087  1.00  0.00     0.029 A 
ATOM     67  C   UNL A   1      41.189  31.842  36.020  1.00  0.00     0.049 A 
ATOM     68  H   UNL A   1      41.095  30.782  34.197  1.00  0.00     0.167 HD
ATOM     69  C   UNL A   1      39.318  32.912  34.794  1.00  0.00     0.074 A 
ATOM     70  C   UNL A   1      38.245  33.878  34.667  1.00  0.00     0.031 C 
ATOM     71  C   UNL A   1      40.118  32.798  35.882  1.00  0.00     0.037 A 
BRANCH  58  72
ATOM     72  C   UNL A   1      44.325  28.281  35.457  1.00  0.00     0.058 A 
ATOM     73  C   UNL A   1      44.053  27.163  36.264  1.00  0.00     0.135 A 
ATOM     74  C   UNL A   1      45.668  28.643  35.274  1.00  0.00     0.135 A 
ATOM     75  F   UNL A   1      42.785  26.780  36.483  1.00  0.00    -0.206 F 
ATOM     76  C   UNL A   1      45.071  26.459  36.898  1.00  0.00     0.059 A 
ATOM     77  C   UNL A   1      46.706  27.935  35.875  1.00  0.00     0.059 A 
ATOM     78  F   UNL A   1      45.986  29.700  34.509  1.00  0.00    -0.206 F 
ATOM     79  C   UNL A   1      46.394  26.857  36.703  1.00  0.00     0.060 A 
BRANCH  79  80
ATOM     80  S   UNL A   1      47.704  25.948  37.550  1.00  0.00     0.124 S 
ATOM     81  O   UNL A   1      47.574  24.626  36.946  1.00  0.00    -0.237 OA
ATOM     82  O   UNL A   1      48.899  26.700  37.180  1.00  0.00    -0.237 OA
ATOM     83  O   UNL A   1      47.322  26.035  38.957  1.00  0.00    -0.744 OA
ENDBRANCH  79  80
ENDBRANCH  58  72
BRANCH  59  84
ATOM     84  C   UNL A   1      36.795  32.914  30.816  1.00  0.00     0.058 A 
ATOM     85  C   UNL A   1      35.475  32.554  31.123  1.00  0.00     0.135 A 
ATOM     86  C   UNL A   1      36.993  33.942  29.881  1.00  0.00     0.135 A 
ATOM     87  F   UNL A   1      35.236  31.572  32.005  1.00  0.00    -0.206 F 
ATOM     88  C   UNL A   1      34.390  33.187  30.524  1.00  0.00     0.059 A 
ATOM     89  C   UNL A   1      35.925  34.605  29.286  1.00  0.00     0.059 A 
ATOM     90  F   UNL A   1      38.237  34.334  29.566  1.00  0.00    -0.206 F 
ATOM     91  C   UNL A   1      34.625  34.215  29.611  1.00  0.00     0.060 A 
BRANCH  91  92
ATOM     92  S   UNL A   1      33.210  35.080  28.895  1.00  0.00     0.124 S 
ATOM     93  O   UNL A   1      32.691  34.079  27.971  1.00  0.00    -0.237 OA
ATOM     94  O   UNL A   1      32.390  35.352  30.072  1.00  0.00    -0.237 OA
ATOM     95  O   UNL A   1      33.815  36.258  28.279  1.00  0.00    -0.744 OA
ENDBRANCH  91  92
ENDBRANCH  59  84
BRANCH  71  96
ATOM     96  C   UNL A   1      39.885  33.756  37.018  1.00  0.00     0.058 A 
ATOM     97  C   UNL A   1      40.502  35.015  37.058  1.00  0.00     0.135 A 
ATOM     98  C   UNL A   1      38.992  33.428  38.052  1.00  0.00     0.135 A 
ATOM     99  F   UNL A   1      41.368  35.373  36.097  1.00  0.00    -0.206 F 
ATOM    100  C   UNL A   1      40.257  35.911  38.094  1.00  0.00     0.059 A 
ATOM    101  C   UNL A   1      38.715  34.318  39.085  1.00  0.00     0.059 A 
ATOM    102  F   UNL A   1      38.369  32.239  38.057  1.00  0.00    -0.206 F 
ATOM    103  C   UNL A   1      39.361  35.553  39.103  1.00  0.00     0.060 A 
BRANCH 103 104
ATOM    104  S   UNL A   1      39.023  36.738  40.424  1.00  0.00     0.124 S 
ATOM    105  O   UNL A   1      40.349  36.907  41.010  1.00  0.00    -0.237 OA
ATOM    106  O   UNL A   1      38.504  37.887  39.688  1.00  0.00    -0.237 OA
ATOM    107  O   UNL A   1      38.049  36.045  41.260  1.00  0.00    -0.744 OA
ENDBRANCH 103 104
ENDBRANCH  71  96
ENDBRANCH  45  46
ENDBRANCH  37  40
ENDBRANCH  35  36
ENDBRANCH  34  35
ENDBRANCH  33  34
ENDBRANCH   1  33
TORSDOF 19
ENDMDL
MODEL 2
REMARK VINA RESULT:     -11.9      6.240     11.791
REMARK SMILES CC1=C(C(=O)NCCCCCCNC(=O)c2ccc(-c3c4nc(c(-c5c(F)cc(S(=O)(=O)[O-])cc5F)c5ccc([nH]5)c(-c5c(F)cc(S(=O)(=O)[O-])cc5F)c5nc(c(-c6c(F)cc(S(=O)(=O)[O-])cc6F)c6ccc3[nH]6)C=C5)C=C4)cc2)N2C(=O)[C@H](NC(=O)c3c(Cl)c(C(F)(F)F)nn3C)[C@@H]2SC1
REMARK SMILES IDX 9 1 8 2 7 3 6 4 4 5 5 6 3 8 1 9 2 10 102 11 82 12 101 13
REMARK SMILES IDX 83 14 100 15 84 16 85 17 86 18 87 19 88 21 89 22 90 23 98 24
REMARK SMILES IDX 91 25 92 26 97 27 99 28 93 29 94 30 95 31 96 32 10 33 11 34
REMARK SMILES IDX 12 35 13 36 14 37 15 39 16 40 17 41 81 42 18 43 80 44 19 45
REMARK SMILES IDX 20 46 21 47 74 48 22 49 79 50 73 51 75 52 23 53 78 54 72 55
REMARK SMILES IDX 71 56 24 58 58 59 37 60 57 61 38 62 41 63 56 64 76 65 39 66
REMARK SMILES IDX 40 67 55 69 77 70 42 71 25 72 26 73 35 74 27 75 28 76 34 77
REMARK SMILES IDX 36 78 29 79 30 80 31 81 32 82 33 83 59 84 60 85 69 86 61 87
REMARK SMILES IDX 62 88 68 89 70 90 63 91 64 92 65 93 66 94 67 95 43 96 44 97
REMARK SMILES IDX 53 98 45 99 46 100 52 101 54 102 47 103 48 104 49 105 50 106
REMARK SMILES IDX 51 107
REMARK H PARENT 6 7 86 20 13 38 75 57 41 68
REMARK Flexibility Score: inf
ROOT
ATOM      1  C   UNL A   1      34.837  30.703  28.025  1.00  0.00     0.002 C 
ENDROOT
BRANCH   1   2
ATOM      2  C   UNL A   1      35.303  29.546  27.133  1.00  0.00     0.021 C 
BRANCH   2   3
ATOM      3  C   UNL A   1      34.277  28.474  26.771  1.00  0.00     0.116 C 
BRANCH   3   4
ATOM      4  N   UNL A   1      33.031  28.499  27.515  1.00  0.00    -0.351 N 
ATOM      5  C   UNL A   1      31.800  27.969  27.203  1.00  0.00     0.268 C 
ATOM      6  O   UNL A   1      30.970  27.874  28.103  1.00  0.00    -0.268 OA
ATOM      7  H   UNL A   1      33.073  28.970  28.379  1.00  0.00     0.163 HD
BRANCH   5   8
ATOM      8  C   UNL A   1      31.455  27.597  25.772  1.00  0.00     0.110 C 
ATOM      9  C   UNL A   1      31.242  30.010  25.015  1.00  0.00     0.043 C 
ATOM     10  C   UNL A   1      31.108  28.519  24.835  1.00  0.00    -0.034 C 
ATOM     11  C   UNL A   1      30.658  28.164  23.435  1.00  0.00     0.104 C 
ATOM     12  N   UNL A   1      31.654  26.292  25.388  1.00  0.00    -0.290 N 
ATOM     13  S   UNL A   1      31.580  26.775  22.751  1.00  0.00    -0.129 SA
ATOM     14  C   UNL A   1      32.399  25.236  25.796  1.00  0.00     0.253 C 
ATOM     15  C   UNL A   1      31.187  25.699  24.154  1.00  0.00     0.181 C 
ATOM     16  O   UNL A   1      33.057  24.979  26.774  1.00  0.00    -0.272 OA
ATOM     17  C   UNL A   1      32.180  24.522  24.415  1.00  0.00     0.206 C 
BRANCH  17  18
ATOM     18  N   UNL A   1      33.371  24.457  23.516  1.00  0.00    -0.336 N 
ATOM     19  C   UNL A   1      34.285  23.451  23.323  1.00  0.00     0.271 C 
ATOM     20  H   UNL A   1      33.525  25.266  22.976  1.00  0.00     0.164 HD
ATOM     21  O   UNL A   1      35.169  23.619  22.486  1.00  0.00    -0.267 OA
BRANCH  19  22
ATOM     22  C   UNL A   1      34.196  22.261  24.120  1.00  0.00     0.145 A 
ATOM     23  C   UNL A   1      33.363  21.175  23.930  1.00  0.00     0.104 A 
ATOM     24  N   UNL A   1      34.812  22.017  25.319  1.00  0.00    -0.261 N 
ATOM     25  Cl  UNL A   1      32.234  20.934  22.683  1.00  0.00    -0.079 Cl
ATOM     26  C   UNL A   1      33.648  20.266  24.978  1.00  0.00     0.185 A 
ATOM     27  N   UNL A   1      34.581  20.782  25.806  1.00  0.00    -0.166 NA
ATOM     28  C   UNL A   1      35.611  22.922  26.114  1.00  0.00     0.174 C 
BRANCH  26  29
ATOM     29  C   UNL A   1      33.023  18.919  25.181  1.00  0.00     0.436 C 
ATOM     30  F   UNL A   1      31.901  18.761  24.426  1.00  0.00    -0.164 F 
ATOM     31  F   UNL A   1      33.866  17.906  24.840  1.00  0.00    -0.164 F 
ATOM     32  F   UNL A   1      32.654  18.685  26.470  1.00  0.00    -0.164 F 
ENDBRANCH  26  29
ENDBRANCH  19  22
ENDBRANCH  17  18
ENDBRANCH   5   8
ENDBRANCH   3   4
ENDBRANCH   2   3
ENDBRANCH   1   2
BRANCH   1  33
ATOM     33  C   UNL A   1      35.383  32.107  27.745  1.00  0.00     0.002 C 
BRANCH  33  34
ATOM     34  C   UNL A   1      35.535  33.068  28.926  1.00  0.00     0.021 C 
BRANCH  34  35
ATOM     35  C   UNL A   1      36.643  32.770  29.929  1.00  0.00     0.116 C 
BRANCH  35  36
ATOM     36  N   UNL A   1      36.230  31.896  31.012  1.00  0.00    -0.352 N 
ATOM     37  C   UNL A   1      36.819  30.751  31.498  1.00  0.00     0.251 C 
ATOM     38  H   UNL A   1      35.401  32.163  31.468  1.00  0.00     0.163 HD
ATOM     39  O   UNL A   1      36.248  30.110  32.377  1.00  0.00    -0.269 OA
BRANCH  37  40
ATOM     40  C   UNL A   1      38.110  30.263  30.954  1.00  0.00     0.039 A 
ATOM     41  C   UNL A   1      38.299  30.280  29.568  1.00  0.00     0.014 A 
ATOM     42  C   UNL A   1      39.121  29.770  31.783  1.00  0.00     0.014 A 
ATOM     43  C   UNL A   1      39.520  29.869  29.021  1.00  0.00     0.010 A 
ATOM     44  C   UNL A   1      40.362  29.424  31.243  1.00  0.00     0.010 A 
ATOM     45  C   UNL A   1      40.576  29.471  29.856  1.00  0.00    -0.014 A 
BRANCH  45  46
ATOM     46  C   UNL A   1      41.908  29.115  29.299  1.00  0.00     0.031 A 
ATOM     47  C   UNL A   1      42.984  30.159  29.168  1.00  0.00     0.074 A 
ATOM     48  C   UNL A   1      42.129  27.865  28.846  1.00  0.00     0.049 A 
ATOM     49  N   UNL A   1      44.179  30.054  28.644  1.00  0.00    -0.248 NA
ATOM     50  C   UNL A   1      42.665  31.506  29.667  1.00  0.00     0.031 C 
ATOM     51  C   UNL A   1      41.153  26.774  28.870  1.00  0.00     0.029 A 
ATOM     52  N   UNL A   1      43.238  27.303  28.265  1.00  0.00    -0.354 N 
ATOM     53  C   UNL A   1      44.747  31.318  28.734  1.00  0.00     0.074 A 
ATOM     54  C   UNL A   1      43.749  32.187  29.321  1.00  0.00     0.031 C 
ATOM     55  C   UNL A   1      41.712  25.672  28.343  1.00  0.00     0.029 A 
ATOM     56  C   UNL A   1      43.071  25.985  27.912  1.00  0.00     0.049 A 
ATOM     57  H   UNL A   1      44.077  27.798  28.114  1.00  0.00     0.167 HD
ATOM     58  C   UNL A   1      45.993  31.717  28.379  1.00  0.00     0.037 A 
ATOM     59  C   UNL A   1      43.911  25.125  27.303  1.00  0.00     0.037 A 
ATOM     60  C   UNL A   1      46.993  30.845  27.819  1.00  0.00     0.049 A 
ATOM     61  C   UNL A   1      45.294  25.584  26.929  1.00  0.00     0.074 A 
ATOM     62  C   UNL A   1      48.305  31.140  27.491  1.00  0.00     0.029 A 
ATOM     63  N   UNL A   1      46.794  29.509  27.503  1.00  0.00    -0.354 N 
ATOM     64  N   UNL A   1      45.836  26.769  27.082  1.00  0.00    -0.248 NA
ATOM     65  C   UNL A   1      46.180  24.591  26.309  1.00  0.00     0.031 C 
ATOM     66  C   UNL A   1      48.886  29.992  26.937  1.00  0.00     0.029 A 
ATOM     67  C   UNL A   1      47.951  28.970  26.964  1.00  0.00     0.049 A 
ATOM     68  H   UNL A   1      45.953  29.016  27.643  1.00  0.00     0.167 HD
ATOM     69  C   UNL A   1      47.134  26.658  26.598  1.00  0.00     0.074 A 
ATOM     70  C   UNL A   1      47.299  25.287  26.156  1.00  0.00     0.031 C 
ATOM     71  C   UNL A   1      48.102  27.604  26.527  1.00  0.00     0.037 A 
BRANCH  58  72
ATOM     72  C   UNL A   1      46.341  33.168  28.581  1.00  0.00     0.058 A 
ATOM     73  C   UNL A   1      46.133  34.125  27.573  1.00  0.00     0.135 A 
ATOM     74  C   UNL A   1      46.873  33.611  29.802  1.00  0.00     0.135 A 
ATOM     75  F   UNL A   1      45.639  33.754  26.381  1.00  0.00    -0.206 F 
ATOM     76  C   UNL A   1      46.479  35.460  27.755  1.00  0.00     0.059 A 
ATOM     77  C   UNL A   1      47.199  34.948  30.017  1.00  0.00     0.059 A 
ATOM     78  F   UNL A   1      47.088  32.741  30.802  1.00  0.00    -0.206 F 
ATOM     79  C   UNL A   1      47.017  35.860  28.979  1.00  0.00     0.060 A 
BRANCH  79  80
ATOM     80  S   UNL A   1      47.482  37.592  29.192  1.00  0.00     0.124 S 
ATOM     81  O   UNL A   1      48.845  37.465  29.698  1.00  0.00    -0.237 OA
ATOM     82  O   UNL A   1      47.354  38.121  27.838  1.00  0.00    -0.237 OA
ATOM     83  O   UNL A   1      46.501  38.090  30.153  1.00  0.00    -0.744 OA
ENDBRANCH  79  80
ENDBRANCH  58  72
BRANCH  59  84
ATOM     84  C   UNL A   1      43.469  23.732  27.033  1.00  0.00     0.058 A 
ATOM     85  C   UNL A   1      43.358  22.796  28.072  1.00  0.00     0.135 A 
ATOM     86  C   UNL A   1      43.111  23.319  25.740  1.00  0.00     0.135 A 
ATOM     87  F   UNL A   1      43.696  23.142  29.324  1.00  0.00    -0.206 F 
ATOM     88  C   UNL A   1      42.914  21.499  27.840  1.00  0.00     0.059 A 
ATOM     89  C   UNL A   1      42.643  22.034  25.487  1.00  0.00     0.059 A 
ATOM     90  F   UNL A   1      43.184  24.182  24.715  1.00  0.00    -0.206 F 
ATOM     91  C   UNL A   1      42.552  21.129  26.544  1.00  0.00     0.060 A 
BRANCH  91  92
ATOM     92  S   UNL A   1      41.906  19.465  26.265  1.00  0.00     0.124 S 
ATOM     93  O   UNL A   1      42.540  19.113  25.001  1.00  0.00    -0.237 OA
ATOM     94  O   UNL A   1      42.386  18.749  27.443  1.00  0.00    -0.237 OA
ATOM     95  O   UNL A   1      40.461  19.673  26.213  1.00  0.00    -0.744 OA
ENDBRANCH  91  92
ENDBRANCH  59  84
BRANCH  71  96
ATOM     96  C   UNL A   1      49.438  27.190  25.974  1.00  0.00     0.058 A 
ATOM     97  C   UNL A   1      50.453  26.686  26.800  1.00  0.00     0.135 A 
ATOM     98  C   UNL A   1      49.686  27.252  24.592  1.00  0.00     0.135 A 
ATOM     99  F   UNL A   1      50.270  26.614  28.128  1.00  0.00    -0.206 F 
ATOM    100  C   UNL A   1      51.676  26.274  26.279  1.00  0.00     0.059 A 
ATOM    101  C   UNL A   1      50.891  26.822  24.047  1.00  0.00     0.059 A 
ATOM    102  F   UNL A   1      48.744  27.718  23.757  1.00  0.00    -0.206 F 
ATOM    103  C   UNL A   1      51.885  26.345  24.901  1.00  0.00     0.060 A 
BRANCH 103 104
ATOM    104  S   UNL A   1      53.462  25.774  24.232  1.00  0.00     0.124 S 
ATOM    105  O   UNL A   1      53.520  24.409  24.745  1.00  0.00    -0.237 OA
ATOM    106  O   UNL A   1      53.257  25.902  22.792  1.00  0.00    -0.237 OA
ATOM    107  O   UNL A   1      54.431  26.703  24.805  1.00  0.00    -0.744 OA
ENDBRANCH 103 104
ENDBRANCH  71  96
ENDBRANCH  45  46
ENDBRANCH  37  40
ENDBRANCH  35  36
ENDBRANCH  34  35
ENDBRANCH  33  34
ENDBRANCH   1  33
TORSDOF 19
ENDMDL
MODEL 3
REMARK VINA RESULT:     -11.8      0.553      7.824
REMARK SMILES CC1=C(C(=O)NCCCCCCNC(=O)c2ccc(-c3c4nc(c(-c5c(F)cc(S(=O)(=O)[O-])cc5F)c5ccc([nH]5)c(-c5c(F)cc(S(=O)(=O)[O-])cc5F)c5nc(c(-c6c(F)cc(S(=O)(=O)[O-])cc6F)c6ccc3[nH]6)C=C5)C=C4)cc2)N2C(=O)[C@H](NC(=O)c3c(Cl)c(C(F)(F)F)nn3C)[C@@H]2SC1
REMARK SMILES IDX 9 1 8 2 7 3 6 4 4 5 5 6 3 8 1 9 2 10 102 11 82 12 101 13
REMARK SMILES IDX 83 14 100 15 84 16 85 17 86 18 87 19 88 21 89 22 90 23 98 24
REMARK SMILES IDX 91 25 92 26 97 27 99 28 93 29 94 30 95 31 96 32 10 33 11 34
REMARK SMILES IDX 12 35 13 36 14 37 15 39 16 40 17 41 81 42 18 43 80 44 19 45
REMARK SMILES IDX 20 46 21 47 74 48 22 49 79 50 73 51 75 52 23 53 78 54 72 55
REMARK SMILES IDX 71 56 24 58 58 59 37 60 57 61 38 62 41 63 56 64 76 65 39 66
REMARK SMILES IDX 40 67 55 69 77 70 42 71 25 72 26 73 35 74 27 75 28 76 34 77
REMARK SMILES IDX 36 78 29 79 30 80 31 81 32 82 33 83 59 84 60 85 69 86 61 87
REMARK SMILES IDX 62 88 68 89 70 90 63 91 64 92 65 93 66 94 67 95 43 96 44 97
REMARK SMILES IDX 53 98 45 99 46 100 52 101 54 102 47 103 48 104 49 105 50 106
REMARK SMILES IDX 51 107
REMARK H PARENT 6 7 86 20 13 38 75 57 41 68
REMARK Flexibility Score: inf
ROOT
ATOM      1  C   UNL A   1      37.198  23.655  25.390  1.00  0.00     0.002 C 
ENDROOT
BRANCH   1   2
ATOM      2  C   UNL A   1      37.143  22.310  24.655  1.00  0.00     0.021 C 
BRANCH   2   3
ATOM      3  C   UNL A   1      36.506  21.130  25.386  1.00  0.00     0.116 C 
BRANCH   3   4
ATOM      4  N   UNL A   1      35.553  21.458  26.430  1.00  0.00    -0.351 N 
ATOM      5  C   UNL A   1      34.189  21.628  26.365  1.00  0.00     0.268 C 
ATOM      6  O   UNL A   1      33.559  21.629  27.420  1.00  0.00    -0.268 OA
ATOM      7  H   UNL A   1      35.943  21.580  27.325  1.00  0.00     0.163 HD
BRANCH   5   8
ATOM      8  C   UNL A   1      33.501  21.891  25.037  1.00  0.00     0.110 C 
ATOM      9  C   UNL A   1      32.491  19.566  24.905  1.00  0.00     0.043 C 
ATOM     10  C   UNL A   1      32.834  20.926  24.351  1.00  0.00    -0.034 C 
ATOM     11  C   UNL A   1      32.233  21.137  22.978  1.00  0.00     0.104 C 
ATOM     12  N   UNL A   1      33.432  23.193  24.602  1.00  0.00    -0.290 N 
ATOM     13  S   UNL A   1      31.496  22.771  22.796  1.00  0.00    -0.129 SA
ATOM     14  C   UNL A   1      33.498  24.431  25.151  1.00  0.00     0.253 C 
ATOM     15  C   UNL A   1      33.021  23.618  23.283  1.00  0.00     0.181 C 
ATOM     16  O   UNL A   1      33.819  24.876  26.226  1.00  0.00    -0.272 OA
ATOM     17  C   UNL A   1      32.850  25.058  23.865  1.00  0.00     0.206 C 
BRANCH  17  18
ATOM     18  N   UNL A   1      31.445  25.543  24.011  1.00  0.00    -0.336 N 
ATOM     19  C   UNL A   1      30.965  26.767  24.405  1.00  0.00     0.271 C 
ATOM     20  H   UNL A   1      30.754  24.878  23.790  1.00  0.00     0.164 HD
ATOM     21  O   UNL A   1      29.750  26.943  24.408  1.00  0.00    -0.267 OA
BRANCH  19  22
ATOM     22  C   UNL A   1      31.890  27.780  24.827  1.00  0.00     0.145 A 
ATOM     23  C   UNL A   1      32.187  28.171  26.119  1.00  0.00     0.104 A 
ATOM     24  N   UNL A   1      32.562  28.672  24.034  1.00  0.00    -0.261 N 
ATOM     25  Cl  UNL A   1      31.561  27.540  27.567  1.00  0.00    -0.079 Cl
ATOM     26  C   UNL A   1      33.152  29.202  26.011  1.00  0.00     0.185 A 
ATOM     27  N   UNL A   1      33.409  29.471  24.714  1.00  0.00    -0.166 NA
ATOM     28  C   UNL A   1      32.432  28.876  22.610  1.00  0.00     0.174 C 
BRANCH  26  29
ATOM     29  C   UNL A   1      33.812  29.923  27.147  1.00  0.00     0.436 C 
ATOM     30  F   UNL A   1      34.352  29.061  28.052  1.00  0.00    -0.164 F 
ATOM     31  F   UNL A   1      34.826  30.726  26.724  1.00  0.00    -0.164 F 
ATOM     32  F   UNL A   1      32.962  30.726  27.844  1.00  0.00    -0.164 F 
ENDBRANCH  26  29
ENDBRANCH  19  22
ENDBRANCH  17  18
ENDBRANCH   5   8
ENDBRANCH   3   4
ENDBRANCH   2   3
ENDBRANCH   1   2
BRANCH   1  33
ATOM     33  C   UNL A   1      38.239  23.838  26.499  1.00  0.00     0.002 C 
BRANCH  33  34
ATOM     34  C   UNL A   1      39.391  22.834  26.579  1.00  0.00     0.021 C 
BRANCH  34  35
ATOM     35  C   UNL A   1      40.767  23.379  26.941  1.00  0.00     0.116 C 
BRANCH  35  36
ATOM     36  N   UNL A   1      41.326  24.267  25.938  1.00  0.00    -0.352 N 
ATOM     37  C   UNL A   1      41.630  25.606  26.013  1.00  0.00     0.251 C 
ATOM     38  H   UNL A   1      41.516  23.845  25.069  1.00  0.00     0.163 HD
ATOM     39  O   UNL A   1      42.021  26.190  25.004  1.00  0.00    -0.269 OA
BRANCH  37  40
ATOM     40  C   UNL A   1      41.461  26.361  27.278  1.00  0.00     0.039 A 
ATOM     41  C   UNL A   1      42.341  27.415  27.550  1.00  0.00     0.014 A 
ATOM     42  C   UNL A   1      40.468  26.034  28.206  1.00  0.00     0.014 A 
ATOM     43  C   UNL A   1      42.184  28.178  28.712  1.00  0.00     0.010 A 
ATOM     44  C   UNL A   1      40.270  26.837  29.331  1.00  0.00     0.010 A 
ATOM     45  C   UNL A   1      41.125  27.919  29.596  1.00  0.00    -0.014 A 
BRANCH  45  46
ATOM     46  C   UNL A   1      40.890  28.774  30.791  1.00  0.00     0.031 A 
ATOM     47  C   UNL A   1      39.800  29.812  30.784  1.00  0.00     0.074 A 
ATOM     48  C   UNL A   1      41.703  28.664  31.860  1.00  0.00     0.049 A 
ATOM     49  N   UNL A   1      39.492  30.693  31.701  1.00  0.00    -0.248 NA
ATOM     50  C   UNL A   1      38.963  29.886  29.576  1.00  0.00     0.031 C 
ATOM     51  C   UNL A   1      42.827  27.732  31.974  1.00  0.00     0.029 A 
ATOM     52  N   UNL A   1      41.720  29.348  33.049  1.00  0.00    -0.354 N 
ATOM     53  C   UNL A   1      38.441  31.436  31.177  1.00  0.00     0.074 A 
ATOM     54  C   UNL A   1      38.195  30.932  29.843  1.00  0.00     0.031 C 
ATOM     55  C   UNL A   1      43.413  27.893  33.171  1.00  0.00     0.029 A 
ATOM     56  C   UNL A   1      42.731  28.960  33.897  1.00  0.00     0.049 A 
ATOM     57  H   UNL A   1      41.069  30.052  33.276  1.00  0.00     0.167 HD
ATOM     58  C   UNL A   1      37.733  32.434  31.760  1.00  0.00     0.037 A 
ATOM     59  C   UNL A   1      43.078  29.416  35.117  1.00  0.00     0.037 A 
ATOM     60  C   UNL A   1      37.963  32.915  33.098  1.00  0.00     0.049 A 
ATOM     61  C   UNL A   1      42.271  30.515  35.751  1.00  0.00     0.074 A 
ATOM     62  C   UNL A   1      37.254  33.874  33.801  1.00  0.00     0.029 A 
ATOM     63  N   UNL A   1      38.979  32.477  33.935  1.00  0.00    -0.354 N 
ATOM     64  N   UNL A   1      41.238  31.162  35.266  1.00  0.00    -0.248 NA
ATOM     65  C   UNL A   1      42.668  30.940  37.100  1.00  0.00     0.031 C 
ATOM     66  C   UNL A   1      37.869  34.045  35.048  1.00  0.00     0.029 A 
ATOM     67  C   UNL A   1      38.930  33.160  35.139  1.00  0.00     0.049 A 
ATOM     68  H   UNL A   1      39.637  31.781  33.707  1.00  0.00     0.167 HD
ATOM     69  C   UNL A   1      40.849  32.055  36.257  1.00  0.00     0.074 A 
ATOM     70  C   UNL A   1      41.750  31.858  37.374  1.00  0.00     0.031 C 
ATOM     71  C   UNL A   1      39.835  32.955  36.244  1.00  0.00     0.037 A 
BRANCH  58  72
ATOM     72  C   UNL A   1      36.641  33.077  30.946  1.00  0.00     0.058 A 
ATOM     73  C   UNL A   1      35.285  32.796  31.178  1.00  0.00     0.135 A 
ATOM     74  C   UNL A   1      36.954  33.999  29.934  1.00  0.00     0.135 A 
ATOM     75  F   UNL A   1      34.929  31.914  32.126  1.00  0.00    -0.206 F 
ATOM     76  C   UNL A   1      34.280  33.373  30.409  1.00  0.00     0.059 A 
ATOM     77  C   UNL A   1      35.963  34.611  29.171  1.00  0.00     0.059 A 
ATOM     78  F   UNL A   1      38.233  34.308  29.673  1.00  0.00    -0.206 F 
ATOM     79  C   UNL A   1      34.630  34.275  29.402  1.00  0.00     0.060 A 
BRANCH  79  80
ATOM     80  S   UNL A   1      33.318  35.000  28.396  1.00  0.00     0.124 S 
ATOM     81  O   UNL A   1      32.595  35.788  29.389  1.00  0.00    -0.237 OA
ATOM     82  O   UNL A   1      34.068  35.763  27.403  1.00  0.00    -0.237 OA
ATOM     83  O   UNL A   1      32.604  33.835  27.880  1.00  0.00    -0.744 OA
ENDBRANCH  79  80
ENDBRANCH  58  72
BRANCH  59  84
ATOM     84  C   UNL A   1      44.236  28.811  35.826  1.00  0.00     0.058 A 
ATOM     85  C   UNL A   1      44.064  27.710  36.678  1.00  0.00     0.135 A 
ATOM     86  C   UNL A   1      45.540  29.294  35.636  1.00  0.00     0.135 A 
ATOM     87  F   UNL A   1      42.836  27.217  36.896  1.00  0.00    -0.206 F 
ATOM     88  C   UNL A   1      45.143  27.112  37.322  1.00  0.00     0.059 A 
ATOM     89  C   UNL A   1      46.636  28.700  36.251  1.00  0.00     0.059 A 
ATOM     90  F   UNL A   1      45.758  30.335  34.818  1.00  0.00    -0.206 F 
ATOM     91  C   UNL A   1      46.427  27.611  37.097  1.00  0.00     0.060 A 
BRANCH  91  92
ATOM     92  S   UNL A   1      47.828  26.782  37.879  1.00  0.00     0.124 S 
ATOM     93  O   UNL A   1      48.811  26.789  36.802  1.00  0.00    -0.237 OA
ATOM     94  O   UNL A   1      48.111  27.660  39.009  1.00  0.00    -0.237 OA
ATOM     95  O   UNL A   1      47.287  25.473  38.233  1.00  0.00    -0.744 OA
ENDBRANCH  91  92
ENDBRANCH  59  84
BRANCH  71  96
ATOM     96  C   UNL A   1      39.626  33.782  37.482  1.00  0.00     0.058 A 
ATOM     97  C   UNL A   1      38.818  33.336  38.539  1.00  0.00     0.135 A 
ATOM     98  C   UNL A   1      40.284  35.015  37.634  1.00  0.00     0.135 A 
ATOM     99  F   UNL A   1      38.162  32.169  38.441  1.00  0.00    -0.206 F 
ATOM    100  C   UNL A   1      38.654  34.091  39.696  1.00  0.00     0.059 A 
ATOM    101  C   UNL A   1      40.154  35.774  38.792  1.00  0.00     0.059 A 
ATOM    102  F   UNL A   1      41.076  35.483  36.656  1.00  0.00    -0.206 F 
ATOM    103  C   UNL A   1      39.327  35.308  39.814  1.00  0.00     0.060 A 
BRANCH 103 104
ATOM    104  S   UNL A   1      39.135  36.262  41.336  1.00  0.00     0.124 S 
ATOM    105  O   UNL A   1      40.424  36.041  41.983  1.00  0.00    -0.237 OA
ATOM    106  O   UNL A   1      38.902  37.612  40.832  1.00  0.00    -0.237 OA
ATOM    107  O   UNL A   1      37.989  35.637  41.986  1.00  0.00    -0.744 OA
ENDBRANCH 103 104
ENDBRANCH  71  96
ENDBRANCH  45  46
ENDBRANCH  37  40
ENDBRANCH  35  36
ENDBRANCH  34  35
ENDBRANCH  33  34
ENDBRANCH   1  33
TORSDOF 19
ENDMDL
