MODEL 1
REMARK VINA RESULT:     -11.9      0.000      0.000
REMARK SMILES O=C(Cc1ccccc1)Nc1cc(Cl)ccc1C(=O)NCCCCCCNC(=O)c1ccc(-c2c3nc(c(-c4c(F)cc(S(=O)(=O)[O-])cc4F)c4ccc([nH]4)c(-c4c(F)cc(S(=O)(=O)[O-])cc4F)c4nc(c(-c5c(F)cc(S(=O)(=O)[O-])cc5F)c5ccc2[nH]5)C=C4)C=C3)cc1
REMARK SMILES IDX 23 1 22 2 21 3 20 4 18 5 19 6 17 8 11 9 12 10 13 11 16 12
REMARK SMILES IDX 14 13 15 14 10 15 1 16 2 17 3 19 4 20 5 21 9 22 6 23 8 24
REMARK SMILES IDX 7 25 24 26 25 27 26 28 27 29 28 30 29 32 30 33 31 34 95 35
REMARK SMILES IDX 32 36 94 37 33 38 34 39 35 40 88 41 36 42 93 43 87 44 89 45
REMARK SMILES IDX 37 46 92 47 86 48 85 49 38 51 72 52 51 53 71 54 52 55 55 56
REMARK SMILES IDX 70 57 90 58 53 59 54 60 69 62 91 63 56 64 39 65 40 66 49 67
REMARK SMILES IDX 41 68 42 69 48 70 50 71 43 72 44 73 45 74 46 75 47 76 73 77
REMARK SMILES IDX 74 78 83 79 75 80 76 81 82 82 84 83 77 84 78 85 79 86 80 87
REMARK SMILES IDX 81 88 57 89 58 90 67 91 59 92 60 93 66 94 68 95 61 96 62 97
REMARK SMILES IDX 63 98 64 99 65 100
REMARK H PARENT 20 7 10 18 27 31 89 50 55 61
REMARK Flexibility Score: inf
ROOT
ATOM      1  C   UNL A   1      39.800  21.839  26.387  1.00  0.00     0.002 C 
ENDROOT
BRANCH   1   2
ATOM      2  C   UNL A   1      38.629  22.814  26.182  1.00  0.00     0.021 C 
BRANCH   2   3
ATOM      3  C   UNL A   1      37.292  22.226  25.736  1.00  0.00     0.116 C 
BRANCH   3   4
ATOM      4  N   UNL A   1      36.993  22.241  24.330  1.00  0.00    -0.352 N 
ATOM      5  C   UNL A   1      36.046  22.979  23.644  1.00  0.00     0.253 C 
ATOM      6  O   UNL A   1      36.192  23.049  22.419  1.00  0.00    -0.269 OA
ATOM      7  H   UNL A   1      37.541  21.640  23.776  1.00  0.00     0.163 HD
BRANCH   5   8
ATOM      8  C   UNL A   1      34.765  23.502  24.239  1.00  0.00     0.063 A 
ATOM      9  C   UNL A   1      33.438  23.021  24.143  1.00  0.00     0.055 A 
ATOM     10  C   UNL A   1      32.377  23.826  24.616  1.00  0.00     0.047 A 
ATOM     11  C   UNL A   1      32.621  25.022  25.288  1.00  0.00     0.043 A 
ATOM     12  C   UNL A   1      34.973  24.716  24.945  1.00  0.00     0.017 A 
ATOM     13  Cl  UNL A   1      31.309  25.940  25.917  1.00  0.00    -0.084 Cl
ATOM     14  C   UNL A   1      33.920  25.462  25.478  1.00  0.00     0.021 A 
BRANCH   9  15
ATOM     15  N   UNL A   1      33.017  21.760  23.653  1.00  0.00    -0.325 N 
ATOM     16  O   UNL A   1      32.418  20.806  25.661  1.00  0.00    -0.274 OA
ATOM     17  C   UNL A   1      32.609  20.712  24.452  1.00  0.00     0.228 C 
ATOM     18  H   UNL A   1      33.016  21.624  22.678  1.00  0.00     0.169 HD
BRANCH  17  19
ATOM     19  C   UNL A   1      32.587  19.365  23.759  1.00  0.00     0.135 C 
BRANCH  19  20
ATOM     20  C   UNL A   1      33.152  18.150  24.439  1.00  0.00    -0.039 A 
ATOM     21  C   UNL A   1      32.314  17.271  25.151  1.00  0.00     0.004 A 
ATOM     22  C   UNL A   1      34.485  17.793  24.221  1.00  0.00     0.004 A 
ATOM     23  C   UNL A   1      32.795  16.037  25.593  1.00  0.00     0.000 A 
ATOM     24  C   UNL A   1      34.961  16.559  24.664  1.00  0.00     0.000 A 
ATOM     25  C   UNL A   1      34.116  15.678  25.338  1.00  0.00     0.000 A 
ENDBRANCH  19  20
ENDBRANCH  17  19
ENDBRANCH   9  15
ENDBRANCH   5   8
ENDBRANCH   3   4
ENDBRANCH   2   3
ENDBRANCH   1   2
BRANCH   1  26
ATOM     26  C   UNL A   1      40.629  21.937  27.678  1.00  0.00     0.002 C 
BRANCH  26  27
ATOM     27  C   UNL A   1      42.152  21.832  27.568  1.00  0.00     0.021 C 
BRANCH  27  28
ATOM     28  C   UNL A   1      42.961  23.111  27.409  1.00  0.00     0.116 C 
BRANCH  28  29
ATOM     29  N   UNL A   1      42.638  23.851  26.208  1.00  0.00    -0.352 N 
ATOM     30  C   UNL A   1      42.077  25.097  26.050  1.00  0.00     0.251 C 
ATOM     31  H   UNL A   1      42.856  23.388  25.368  1.00  0.00     0.163 HD
ATOM     32  O   UNL A   1      41.785  25.465  24.913  1.00  0.00    -0.269 OA
BRANCH  30  33
ATOM     33  C   UNL A   1      41.792  25.997  27.202  1.00  0.00     0.039 A 
ATOM     34  C   UNL A   1      42.607  27.124  27.374  1.00  0.00     0.014 A 
ATOM     35  C   UNL A   1      40.805  25.725  28.153  1.00  0.00     0.014 A 
ATOM     36  C   UNL A   1      42.409  27.986  28.460  1.00  0.00     0.010 A 
ATOM     37  C   UNL A   1      40.565  26.622  29.202  1.00  0.00     0.010 A 
ATOM     38  C   UNL A   1      41.372  27.756  29.376  1.00  0.00    -0.014 A 
BRANCH  38  39
ATOM     39  C   UNL A   1      41.147  28.674  30.529  1.00  0.00     0.031 A 
ATOM     40  C   UNL A   1      41.998  28.568  31.769  1.00  0.00     0.074 A 
ATOM     41  C   UNL A   1      40.153  29.584  30.483  1.00  0.00     0.049 A 
ATOM     42  N   UNL A   1      41.919  29.244  32.888  1.00  0.00    -0.248 NA
ATOM     43  C   UNL A   1      43.065  27.555  31.756  1.00  0.00     0.031 C 
ATOM     44  C   UNL A   1      39.231  29.774  29.361  1.00  0.00     0.029 A 
ATOM     45  N   UNL A   1      39.746  30.518  31.405  1.00  0.00    -0.354 N 
ATOM     46  C   UNL A   1      42.910  28.729  33.717  1.00  0.00     0.074 A 
ATOM     47  C   UNL A   1      43.549  27.655  32.987  1.00  0.00     0.031 C 
ATOM     48  C   UNL A   1      38.381  30.772  29.653  1.00  0.00     0.029 A 
ATOM     49  C   UNL A   1      38.674  31.274  30.994  1.00  0.00     0.049 A 
ATOM     50  H   UNL A   1      40.183  30.635  32.280  1.00  0.00     0.167 HD
ATOM     51  C   UNL A   1      43.270  29.126  34.962  1.00  0.00     0.037 A 
ATOM     52  C   UNL A   1      37.998  32.256  31.622  1.00  0.00     0.037 A 
ATOM     53  C   UNL A   1      42.659  30.216  35.678  1.00  0.00     0.049 A 
ATOM     54  C   UNL A   1      38.421  32.686  33.001  1.00  0.00     0.074 A 
ATOM     55  C   UNL A   1      42.996  30.726  36.920  1.00  0.00     0.029 A 
ATOM     56  N   UNL A   1      41.589  30.967  35.216  1.00  0.00    -0.354 N 
ATOM     57  N   UNL A   1      39.393  32.219  33.747  1.00  0.00    -0.248 NA
ATOM     58  C   UNL A   1      37.659  33.779  33.622  1.00  0.00     0.031 C 
ATOM     59  C   UNL A   1      42.107  31.762  37.226  1.00  0.00     0.029 A 
ATOM     60  C   UNL A   1      41.242  31.923  36.157  1.00  0.00     0.049 A 
ATOM     61  H   UNL A   1      41.142  30.840  34.348  1.00  0.00     0.167 HD
ATOM     62  C   UNL A   1      39.375  32.976  34.913  1.00  0.00     0.074 A 
ATOM     63  C   UNL A   1      38.302  33.938  34.771  1.00  0.00     0.031 C 
ATOM     64  C   UNL A   1      40.175  32.881  36.003  1.00  0.00     0.037 A 
BRANCH  51  65
ATOM     65  C   UNL A   1      44.386  28.373  35.636  1.00  0.00     0.058 A 
ATOM     66  C   UNL A   1      45.729  28.749  35.477  1.00  0.00     0.135 A 
ATOM     67  C   UNL A   1      44.106  27.286  36.481  1.00  0.00     0.135 A 
ATOM     68  F   UNL A   1      46.053  29.774  34.672  1.00  0.00    -0.206 F 
ATOM     69  C   UNL A   1      46.759  28.055  36.104  1.00  0.00     0.059 A 
ATOM     70  C   UNL A   1      45.118  26.592  37.138  1.00  0.00     0.059 A 
ATOM     71  F   UNL A   1      42.839  26.885  36.670  1.00  0.00    -0.206 F 
ATOM     72  C   UNL A   1      46.442  26.975  36.931  1.00  0.00     0.060 A 
BRANCH  72  73
ATOM     73  S   UNL A   1      47.789  26.079  37.733  1.00  0.00     0.124 S 
ATOM     74  O   UNL A   1      47.341  26.065  39.121  1.00  0.00    -0.237 OA
ATOM     75  O   UNL A   1      47.765  24.792  37.046  1.00  0.00    -0.237 OA
ATOM     76  O   UNL A   1      48.959  26.909  37.460  1.00  0.00    -0.744 OA
ENDBRANCH  72  73
ENDBRANCH  51  65
BRANCH  52  77
ATOM     77  C   UNL A   1      36.854  32.918  30.940  1.00  0.00     0.058 A 
ATOM     78  C   UNL A   1      35.533  32.668  31.342  1.00  0.00     0.135 A 
ATOM     79  C   UNL A   1      37.058  33.819  29.885  1.00  0.00     0.135 A 
ATOM     80  F   UNL A   1      35.288  31.807  32.340  1.00  0.00    -0.206 F 
ATOM     81  C   UNL A   1      34.453  33.280  30.714  1.00  0.00     0.059 A 
ATOM     82  C   UNL A   1      35.995  34.460  29.256  1.00  0.00     0.059 A 
ATOM     83  F   UNL A   1      38.304  34.103  29.474  1.00  0.00    -0.206 F 
ATOM     84  C   UNL A   1      34.695  34.178  29.672  1.00  0.00     0.060 A 
BRANCH  84  85
ATOM     85  S   UNL A   1      33.292  35.011  28.899  1.00  0.00     0.124 S 
ATOM     86  O   UNL A   1      33.932  36.184  28.318  1.00  0.00    -0.237 OA
ATOM     87  O   UNL A   1      32.819  34.005  27.953  1.00  0.00    -0.237 OA
ATOM     88  O   UNL A   1      32.398  35.270  30.026  1.00  0.00    -0.744 OA
ENDBRANCH  84  85
ENDBRANCH  52  77
BRANCH  64  89
ATOM     89  C   UNL A   1      39.942  33.858  37.122  1.00  0.00     0.058 A 
ATOM     90  C   UNL A   1      40.576  35.110  37.148  1.00  0.00     0.135 A 
ATOM     91  C   UNL A   1      39.037  33.559  38.153  1.00  0.00     0.135 A 
ATOM     92  F   UNL A   1      41.455  35.443  36.190  1.00  0.00    -0.206 F 
ATOM     93  C   UNL A   1      40.334  36.025  38.169  1.00  0.00     0.059 A 
ATOM     94  C   UNL A   1      38.763  34.467  39.171  1.00  0.00     0.059 A 
ATOM     95  F   UNL A   1      38.397  32.379  38.170  1.00  0.00    -0.206 F 
ATOM     96  C   UNL A   1      39.426  35.694  39.176  1.00  0.00     0.060 A 
BRANCH  96  97
ATOM     97  S   UNL A   1      39.094  36.902  40.477  1.00  0.00     0.124 S 
ATOM     98  O   UNL A   1      38.463  37.980  39.722  1.00  0.00    -0.237 OA
ATOM     99  O   UNL A   1      38.215  36.161  41.378  1.00  0.00    -0.237 OA
ATOM    100  O   UNL A   1      40.420  37.200  41.009  1.00  0.00    -0.744 OA
ENDBRANCH  96  97
ENDBRANCH  64  89
ENDBRANCH  38  39
ENDBRANCH  30  33
ENDBRANCH  28  29
ENDBRANCH  27  28
ENDBRANCH  26  27
ENDBRANCH   1  26
TORSDOF 19
ENDMDL
MODEL 2
REMARK VINA RESULT:     -11.8      3.939      6.013
REMARK SMILES O=C(Cc1ccccc1)Nc1cc(Cl)ccc1C(=O)NCCCCCCNC(=O)c1ccc(-c2c3nc(c(-c4c(F)cc(S(=O)(=O)[O-])cc4F)c4ccc([nH]4)c(-c4c(F)cc(S(=O)(=O)[O-])cc4F)c4nc(c(-c5c(F)cc(S(=O)(=O)[O-])cc5F)c5ccc2[nH]5)C=C4)C=C3)cc1
REMARK SMILES IDX 23 1 22 2 21 3 20 4 18 5 19 6 17 8 11 9 12 10 13 11 16 12
REMARK SMILES IDX 14 13 15 14 10 15 1 16 2 17 3 19 4 20 5 21 9 22 6 23 8 24
REMARK SMILES IDX 7 25 24 26 25 27 26 28 27 29 28 30 29 32 30 33 31 34 95 35
REMARK SMILES IDX 32 36 94 37 33 38 34 39 35 40 88 41 36 42 93 43 87 44 89 45
REMARK SMILES IDX 37 46 92 47 86 48 85 49 38 51 72 52 51 53 71 54 52 55 55 56
REMARK SMILES IDX 70 57 90 58 53 59 54 60 69 62 91 63 56 64 39 65 40 66 49 67
REMARK SMILES IDX 41 68 42 69 48 70 50 71 43 72 44 73 45 74 46 75 47 76 73 77
REMARK SMILES IDX 74 78 83 79 75 80 76 81 82 82 84 83 77 84 78 85 79 86 80 87
REMARK SMILES IDX 81 88 57 89 58 90 67 91 59 92 60 93 66 94 68 95 61 96 62 97
REMARK SMILES IDX 63 98 64 99 65 100
REMARK H PARENT 20 7 10 18 27 31 89 50 55 61
REMARK Flexibility Score: inf
ROOT
ATOM      1  C   UNL A   1      32.916  23.325  26.826  1.00  0.00     0.002 C 
ENDROOT
BRANCH   1   2
ATOM      2  C   UNL A   1      31.779  22.823  25.921  1.00  0.00     0.021 C 
BRANCH   2   3
ATOM      3  C   UNL A   1      30.962  23.872  25.170  1.00  0.00     0.116 C 
BRANCH   3   4
ATOM      4  N   UNL A   1      31.503  24.384  23.941  1.00  0.00    -0.352 N 
ATOM      5  C   UNL A   1      32.346  25.461  23.737  1.00  0.00     0.253 C 
ATOM      6  O   UNL A   1      32.914  25.509  22.641  1.00  0.00    -0.269 OA
ATOM      7  H   UNL A   1      31.236  23.899  23.128  1.00  0.00     0.163 HD
BRANCH   5   8
ATOM      8  C   UNL A   1      32.447  26.660  24.644  1.00  0.00     0.063 A 
ATOM      9  C   UNL A   1      31.586  27.772  24.804  1.00  0.00     0.055 A 
ATOM     10  C   UNL A   1      32.024  28.877  25.568  1.00  0.00     0.047 A 
ATOM     11  C   UNL A   1      33.228  28.842  26.268  1.00  0.00     0.043 A 
ATOM     12  C   UNL A   1      33.656  26.654  25.387  1.00  0.00     0.017 A 
ATOM     13  Cl  UNL A   1      33.695  30.177  27.248  1.00  0.00    -0.084 Cl
ATOM     14  C   UNL A   1      34.039  27.721  26.202  1.00  0.00     0.021 A 
BRANCH   9  15
ATOM     15  N   UNL A   1      30.264  27.909  24.314  1.00  0.00    -0.325 N 
ATOM     16  O   UNL A   1      30.751  28.021  22.066  1.00  0.00    -0.274 OA
ATOM     17  C   UNL A   1      29.942  28.101  22.987  1.00  0.00     0.228 C 
ATOM     18  H   UNL A   1      29.527  27.863  24.965  1.00  0.00     0.169 HD
BRANCH  17  19
ATOM     19  C   UNL A   1      28.534  28.608  22.748  1.00  0.00     0.135 C 
BRANCH  19  20
ATOM     20  C   UNL A   1      28.286  30.065  22.472  1.00  0.00    -0.039 A 
ATOM     21  C   UNL A   1      28.446  31.025  23.489  1.00  0.00     0.004 A 
ATOM     22  C   UNL A   1      28.067  30.492  21.160  1.00  0.00     0.004 A 
ATOM     23  C   UNL A   1      28.431  32.387  23.184  1.00  0.00     0.000 A 
ATOM     24  C   UNL A   1      28.055  31.854  20.860  1.00  0.00     0.000 A 
ATOM     25  C   UNL A   1      28.248  32.800  21.868  1.00  0.00     0.000 A 
ENDBRANCH  19  20
ENDBRANCH  17  19
ENDBRANCH   9  15
ENDBRANCH   5   8
ENDBRANCH   3   4
ENDBRANCH   2   3
ENDBRANCH   1   2
BRANCH   1  26
ATOM     26  C   UNL A   1      34.352  22.856  26.541  1.00  0.00     0.002 C 
BRANCH  26  27
ATOM     27  C   UNL A   1      35.028  23.339  25.256  1.00  0.00     0.021 C 
BRANCH  27  28
ATOM     28  C   UNL A   1      36.438  23.906  25.343  1.00  0.00     0.116 C 
BRANCH  28  29
ATOM     29  N   UNL A   1      37.462  22.890  25.450  1.00  0.00    -0.352 N 
ATOM     30  C   UNL A   1      38.722  22.945  25.999  1.00  0.00     0.251 C 
ATOM     31  H   UNL A   1      37.216  22.016  25.070  1.00  0.00     0.163 HD
ATOM     32  O   UNL A   1      39.462  21.972  25.861  1.00  0.00    -0.269 OA
BRANCH  30  33
ATOM     33  C   UNL A   1      39.224  24.143  26.729  1.00  0.00     0.039 A 
ATOM     34  C   UNL A   1      38.836  24.311  28.065  1.00  0.00     0.014 A 
ATOM     35  C   UNL A   1      39.995  25.136  26.119  1.00  0.00     0.014 A 
ATOM     36  C   UNL A   1      39.247  25.437  28.789  1.00  0.00     0.010 A 
ATOM     37  C   UNL A   1      40.460  26.229  26.862  1.00  0.00     0.010 A 
ATOM     38  C   UNL A   1      40.082  26.399  28.201  1.00  0.00    -0.014 A 
BRANCH  38  39
ATOM     39  C   UNL A   1      40.534  27.595  28.968  1.00  0.00     0.031 A 
ATOM     40  C   UNL A   1      41.896  27.619  29.614  1.00  0.00     0.074 A 
ATOM     41  C   UNL A   1      39.711  28.653  29.117  1.00  0.00     0.049 A 
ATOM     42  N   UNL A   1      42.443  28.547  30.359  1.00  0.00    -0.248 NA
ATOM     43  C   UNL A   1      42.746  26.435  29.414  1.00  0.00     0.031 C 
ATOM     44  C   UNL A   1      38.355  28.752  28.574  1.00  0.00     0.029 A 
ATOM     45  N   UNL A   1      39.891  29.846  29.775  1.00  0.00    -0.354 N 
ATOM     46  C   UNL A   1      43.690  28.054  30.730  1.00  0.00     0.074 A 
ATOM     47  C   UNL A   1      43.801  26.727  30.163  1.00  0.00     0.031 C 
ATOM     48  C   UNL A   1      37.834  29.945  28.905  1.00  0.00     0.029 A 
ATOM     49  C   UNL A   1      38.804  30.685  29.710  1.00  0.00     0.049 A 
ATOM     50  H   UNL A   1      40.723  30.078  30.249  1.00  0.00     0.167 HD
ATOM     51  C   UNL A   1      44.663  28.657  31.456  1.00  0.00     0.037 A 
ATOM     52  C   UNL A   1      38.604  31.908  30.239  1.00  0.00     0.037 A 
ATOM     53  C   UNL A   1      44.570  29.990  31.993  1.00  0.00     0.049 A 
ATOM     54  C   UNL A   1      39.701  32.562  31.036  1.00  0.00     0.074 A 
ATOM     55  C   UNL A   1      45.527  30.705  32.694  1.00  0.00     0.029 A 
ATOM     56  N   UNL A   1      43.458  30.813  31.888  1.00  0.00    -0.354 N 
ATOM     57  N   UNL A   1      40.892  32.098  31.332  1.00  0.00    -0.248 NA
ATOM     58  C   UNL A   1      39.430  33.906  31.566  1.00  0.00     0.031 C 
ATOM     59  C   UNL A   1      44.982  31.945  33.043  1.00  0.00     0.029 A 
ATOM     60  C   UNL A   1      43.699  32.019  32.526  1.00  0.00     0.049 A 
ATOM     61  H   UNL A   1      42.621  30.574  31.427  1.00  0.00     0.167 HD
ATOM     62  C   UNL A   1      41.519  33.102  32.062  1.00  0.00     0.074 A 
ATOM     63  C   UNL A   1      40.582  34.202  32.154  1.00  0.00     0.031 C 
ATOM     64  C   UNL A   1      42.761  33.110  32.607  1.00  0.00     0.037 A 
BRANCH  51  65
ATOM     65  C   UNL A   1      45.923  27.876  31.716  1.00  0.00     0.058 A 
ATOM     66  C   UNL A   1      47.001  27.899  30.817  1.00  0.00     0.135 A 
ATOM     67  C   UNL A   1      46.069  27.126  32.894  1.00  0.00     0.135 A 
ATOM     68  F   UNL A   1      46.910  28.591  29.669  1.00  0.00    -0.206 F 
ATOM     69  C   UNL A   1      48.167  27.180  31.060  1.00  0.00     0.059 A 
ATOM     70  C   UNL A   1      47.236  26.418  33.170  1.00  0.00     0.059 A 
ATOM     71  F   UNL A   1      45.070  27.071  33.789  1.00  0.00    -0.206 F 
ATOM     72  C   UNL A   1      48.272  26.439  32.239  1.00  0.00     0.060 A 
BRANCH  72  73
ATOM     73  S   UNL A   1      49.788  25.505  32.538  1.00  0.00     0.124 S 
ATOM     74  O   UNL A   1      49.295  24.410  33.367  1.00  0.00    -0.237 OA
ATOM     75  O   UNL A   1      50.206  25.140  31.189  1.00  0.00    -0.237 OA
ATOM     76  O   UNL A   1      50.651  26.467  33.218  1.00  0.00    -0.744 OA
ENDBRANCH  72  73
ENDBRANCH  51  65
BRANCH  52  77
ATOM     77  C   UNL A   1      37.311  32.607  30.017  1.00  0.00     0.058 A 
ATOM     78  C   UNL A   1      36.191  32.324  30.813  1.00  0.00     0.135 A 
ATOM     79  C   UNL A   1      37.172  33.578  29.013  1.00  0.00     0.135 A 
ATOM     80  F   UNL A   1      36.273  31.397  31.779  1.00  0.00    -0.206 F 
ATOM     81  C   UNL A   1      34.975  32.971  30.616  1.00  0.00     0.059 A 
ATOM     82  C   UNL A   1      35.972  34.254  28.811  1.00  0.00     0.059 A 
ATOM     83  F   UNL A   1      38.219  33.895  28.234  1.00  0.00    -0.206 F 
ATOM     84  C   UNL A   1      34.877  33.937  29.613  1.00  0.00     0.060 A 
BRANCH  84  85
ATOM     85  S   UNL A   1      33.311  34.812  29.400  1.00  0.00     0.124 S 
ATOM     86  O   UNL A   1      33.752  36.052  28.773  1.00  0.00    -0.237 OA
ATOM     87  O   UNL A   1      32.560  33.896  28.548  1.00  0.00    -0.237 OA
ATOM     88  O   UNL A   1      32.812  34.937  30.768  1.00  0.00    -0.744 OA
ENDBRANCH  84  85
ENDBRANCH  52  77
BRANCH  64  89
ATOM     89  C   UNL A   1      43.193  34.355  33.330  1.00  0.00     0.058 A 
ATOM     90  C   UNL A   1      43.844  35.404  32.662  1.00  0.00     0.135 A 
ATOM     91  C   UNL A   1      42.907  34.523  34.694  1.00  0.00     0.135 A 
ATOM     92  F   UNL A   1      44.147  35.292  31.359  1.00  0.00    -0.206 F 
ATOM     93  C   UNL A   1      44.216  36.569  33.328  1.00  0.00     0.059 A 
ATOM     94  C   UNL A   1      43.249  35.688  35.374  1.00  0.00     0.059 A 
ATOM     95  F   UNL A   1      42.277  33.554  35.377  1.00  0.00    -0.206 F 
ATOM     96  C   UNL A   1      43.913  36.702  34.684  1.00  0.00     0.060 A 
BRANCH  96  97
ATOM     97  S   UNL A   1      44.368  38.231  35.530  1.00  0.00     0.124 S 
ATOM     98  O   UNL A   1      43.736  39.235  34.680  1.00  0.00    -0.237 OA
ATOM     99  O   UNL A   1      43.769  38.051  36.850  1.00  0.00    -0.237 OA
ATOM    100  O   UNL A   1      45.827  38.212  35.503  1.00  0.00    -0.744 OA
ENDBRANCH  96  97
ENDBRANCH  64  89
ENDBRANCH  38  39
ENDBRANCH  30  33
ENDBRANCH  28  29
ENDBRANCH  27  28
ENDBRANCH  26  27
ENDBRANCH   1  26
TORSDOF 19
ENDMDL
MODEL 3
REMARK VINA RESULT:     -11.7      5.413      7.715
REMARK SMILES O=C(Cc1ccccc1)Nc1cc(Cl)ccc1C(=O)NCCCCCCNC(=O)c1ccc(-c2c3nc(c(-c4c(F)cc(S(=O)(=O)[O-])cc4F)c4ccc([nH]4)c(-c4c(F)cc(S(=O)(=O)[O-])cc4F)c4nc(c(-c5c(F)cc(S(=O)(=O)[O-])cc5F)c5ccc2[nH]5)C=C4)C=C3)cc1
REMARK SMILES IDX 23 1 22 2 21 3 20 4 18 5 19 6 17 8 11 9 12 10 13 11 16 12
REMARK SMILES IDX 14 13 15 14 10 15 1 16 2 17 3 19 4 20 5 21 9 22 6 23 8 24
REMARK SMILES IDX 7 25 24 26 25 27 26 28 27 29 28 30 29 32 30 33 31 34 95 35
REMARK SMILES IDX 32 36 94 37 33 38 34 39 35 40 88 41 36 42 93 43 87 44 89 45
REMARK SMILES IDX 37 46 92 47 86 48 85 49 38 51 72 52 51 53 71 54 52 55 55 56
REMARK SMILES IDX 70 57 90 58 53 59 54 60 69 62 91 63 56 64 39 65 40 66 49 67
REMARK SMILES IDX 41 68 42 69 48 70 50 71 43 72 44 73 45 74 46 75 47 76 73 77
REMARK SMILES IDX 74 78 83 79 75 80 76 81 82 82 84 83 77 84 78 85 79 86 80 87
REMARK SMILES IDX 81 88 57 89 58 90 67 91 59 92 60 93 66 94 68 95 61 96 62 97
REMARK SMILES IDX 63 98 64 99 65 100
REMARK H PARENT 20 7 10 18 27 31 89 50 55 61
REMARK Flexibility Score: inf
ROOT
ATOM      1  C   UNL A   1      32.623  22.799  27.441  1.00  0.00     0.002 C 
ENDROOT
BRANCH   1   2
ATOM      2  C   UNL A   1      31.766  22.319  26.258  1.00  0.00     0.021 C 
BRANCH   2   3
ATOM      3  C   UNL A   1      30.669  23.256  25.757  1.00  0.00     0.116 C 
BRANCH   3   4
ATOM      4  N   UNL A   1      30.737  23.692  24.389  1.00  0.00    -0.352 N 
ATOM      5  C   UNL A   1      31.444  24.744  23.839  1.00  0.00     0.253 C 
ATOM      6  O   UNL A   1      31.588  24.723  22.612  1.00  0.00    -0.269 OA
ATOM      7  H   UNL A   1      30.203  23.165  23.752  1.00  0.00     0.163 HD
BRANCH   5   8
ATOM      8  C   UNL A   1      31.850  25.991  24.581  1.00  0.00     0.063 A 
ATOM      9  C   UNL A   1      31.223  27.257  24.672  1.00  0.00     0.055 A 
ATOM     10  C   UNL A   1      31.926  28.333  25.258  1.00  0.00     0.047 A 
ATOM     11  C   UNL A   1      33.170  28.144  25.859  1.00  0.00     0.043 A 
ATOM     12  C   UNL A   1      33.108  25.834  25.220  1.00  0.00     0.017 A 
ATOM     13  Cl  UNL A   1      33.965  29.462  26.627  1.00  0.00    -0.084 Cl
ATOM     14  C   UNL A   1      33.756  26.889  25.866  1.00  0.00     0.021 A 
BRANCH   9  15
ATOM     15  N   UNL A   1      29.904  27.589  24.277  1.00  0.00    -0.325 N 
ATOM     16  O   UNL A   1      30.289  27.858  22.023  1.00  0.00    -0.274 OA
ATOM     17  C   UNL A   1      29.542  27.943  22.994  1.00  0.00     0.228 C 
ATOM     18  H   UNL A   1      29.200  27.566  24.964  1.00  0.00     0.169 HD
BRANCH  17  19
ATOM     19  C   UNL A   1      28.195  28.627  22.887  1.00  0.00     0.135 C 
BRANCH  19  20
ATOM     20  C   UNL A   1      28.108  30.088  22.544  1.00  0.00    -0.039 A 
ATOM     21  C   UNL A   1      28.287  31.070  23.537  1.00  0.00     0.004 A 
ATOM     22  C   UNL A   1      28.025  30.480  21.206  1.00  0.00     0.004 A 
ATOM     23  C   UNL A   1      28.425  32.414  23.187  1.00  0.00     0.000 A 
ATOM     24  C   UNL A   1      28.166  31.825  20.860  1.00  0.00     0.000 A 
ATOM     25  C   UNL A   1      28.376  32.788  21.847  1.00  0.00     0.000 A 
ENDBRANCH  19  20
ENDBRANCH  17  19
ENDBRANCH   9  15
ENDBRANCH   5   8
ENDBRANCH   3   4
ENDBRANCH   2   3
ENDBRANCH   1   2
BRANCH   1  26
ATOM     26  C   UNL A   1      34.150  22.636  27.364  1.00  0.00     0.002 C 
BRANCH  26  27
ATOM     27  C   UNL A   1      34.850  22.997  26.053  1.00  0.00     0.021 C 
BRANCH  27  28
ATOM     28  C   UNL A   1      36.242  23.610  26.114  1.00  0.00     0.116 C 
BRANCH  28  29
ATOM     29  N   UNL A   1      37.305  22.629  26.098  1.00  0.00    -0.352 N 
ATOM     30  C   UNL A   1      38.648  22.762  26.363  1.00  0.00     0.251 C 
ATOM     31  H   UNL A   1      37.020  21.718  25.859  1.00  0.00     0.163 HD
ATOM     32  O   UNL A   1      39.381  21.794  26.163  1.00  0.00    -0.269 OA
BRANCH  30  33
ATOM     33  C   UNL A   1      39.243  24.035  26.858  1.00  0.00     0.039 A 
ATOM     34  C   UNL A   1      39.856  24.881  25.924  1.00  0.00     0.014 A 
ATOM     35  C   UNL A   1      39.283  24.379  28.212  1.00  0.00     0.014 A 
ATOM     36  C   UNL A   1      40.465  26.073  26.337  1.00  0.00     0.010 A 
ATOM     37  C   UNL A   1      39.834  25.601  28.616  1.00  0.00     0.010 A 
ATOM     38  C   UNL A   1      40.443  26.457  27.687  1.00  0.00    -0.014 A 
BRANCH  38  39
ATOM     39  C   UNL A   1      41.078  27.729  28.134  1.00  0.00     0.031 A 
ATOM     40  C   UNL A   1      42.570  27.919  28.025  1.00  0.00     0.074 A 
ATOM     41  C   UNL A   1      40.323  28.708  28.674  1.00  0.00     0.049 A 
ATOM     42  N   UNL A   1      43.305  28.933  28.407  1.00  0.00    -0.248 NA
ATOM     43  C   UNL A   1      43.337  26.815  27.428  1.00  0.00     0.031 C 
ATOM     44  C   UNL A   1      38.873  28.645  28.872  1.00  0.00     0.029 A 
ATOM     45  N   UNL A   1      40.669  29.944  29.163  1.00  0.00    -0.354 N 
ATOM     46  C   UNL A   1      44.620  28.585  28.112  1.00  0.00     0.074 A 
ATOM     47  C   UNL A   1      44.584  27.248  27.560  1.00  0.00     0.031 C 
ATOM     48  C   UNL A   1      38.454  29.797  29.421  1.00  0.00     0.029 A 
ATOM     49  C   UNL A   1      39.605  30.668  29.645  1.00  0.00     0.049 A 
ATOM     50  H   UNL A   1      41.595  30.281  29.166  1.00  0.00     0.167 HD
ATOM     51  C   UNL A   1      45.750  29.317  28.267  1.00  0.00     0.037 A 
ATOM     52  C   UNL A   1      39.557  31.892  30.209  1.00  0.00     0.037 A 
ATOM     53  C   UNL A   1      45.786  30.660  28.785  1.00  0.00     0.049 A 
ATOM     54  C   UNL A   1      40.824  32.690  30.363  1.00  0.00     0.074 A 
ATOM     55  C   UNL A   1      46.878  31.500  28.925  1.00  0.00     0.029 A 
ATOM     56  N   UNL A   1      44.682  31.363  29.245  1.00  0.00    -0.354 N 
ATOM     57  N   UNL A   1      42.049  32.361  30.032  1.00  0.00    -0.248 NA
ATOM     58  C   UNL A   1      40.700  34.026  30.963  1.00  0.00     0.031 C 
ATOM     59  C   UNL A   1      46.441  32.697  29.502  1.00  0.00     0.029 A 
ATOM     60  C   UNL A   1      45.070  32.618  29.685  1.00  0.00     0.049 A 
ATOM     61  H   UNL A   1      43.759  31.021  29.256  1.00  0.00     0.167 HD
ATOM     62  C   UNL A   1      42.838  33.457  30.361  1.00  0.00     0.074 A 
ATOM     63  C   UNL A   1      41.952  34.464  30.907  1.00  0.00     0.031 C 
ATOM     64  C   UNL A   1      44.178  33.615  30.223  1.00  0.00     0.037 A 
BRANCH  51  65
ATOM     65  C   UNL A   1      47.053  28.677  27.869  1.00  0.00     0.058 A 
ATOM     66  C   UNL A   1      47.838  27.970  28.792  1.00  0.00     0.135 A 
ATOM     67  C   UNL A   1      47.503  28.742  26.540  1.00  0.00     0.135 A 
ATOM     68  F   UNL A   1      47.460  27.886  30.078  1.00  0.00    -0.206 F 
ATOM     69  C   UNL A   1      49.041  27.376  28.421  1.00  0.00     0.059 A 
ATOM     70  C   UNL A   1      48.691  28.135  26.140  1.00  0.00     0.059 A 
ATOM     71  F   UNL A   1      46.790  29.405  25.616  1.00  0.00    -0.206 F 
ATOM     72  C   UNL A   1      49.460  27.468  27.092  1.00  0.00     0.060 A 
BRANCH  72  73
ATOM     73  S   UNL A   1      51.025  26.698  26.626  1.00  0.00     0.124 S 
ATOM     74  O   UNL A   1      51.984  27.718  27.039  1.00  0.00    -0.237 OA
ATOM     75  O   UNL A   1      51.023  25.473  27.418  1.00  0.00    -0.237 OA
ATOM     76  O   UNL A   1      50.894  26.509  25.184  1.00  0.00    -0.744 OA
ENDBRANCH  72  73
ENDBRANCH  51  65
BRANCH  52  77
ATOM     77  C   UNL A   1      38.252  32.449  30.655  1.00  0.00     0.058 A 
ATOM     78  C   UNL A   1      37.804  32.269  31.972  1.00  0.00     0.135 A 
ATOM     79  C   UNL A   1      37.435  33.180  29.780  1.00  0.00     0.135 A 
ATOM     80  F   UNL A   1      38.546  31.568  32.843  1.00  0.00    -0.206 F 
ATOM     81  C   UNL A   1      36.586  32.784  32.404  1.00  0.00     0.059 A 
ATOM     82  C   UNL A   1      36.223  33.724  30.194  1.00  0.00     0.059 A 
ATOM     83  F   UNL A   1      37.827  33.393  28.513  1.00  0.00    -0.206 F 
ATOM     84  C   UNL A   1      35.803  33.513  31.507  1.00  0.00     0.060 A 
BRANCH  84  85
ATOM     85  S   UNL A   1      34.250  34.227  32.090  1.00  0.00     0.124 S 
ATOM     86  O   UNL A   1      33.557  34.486  30.834  1.00  0.00    -0.237 OA
ATOM     87  O   UNL A   1      33.706  33.151  32.911  1.00  0.00    -0.237 OA
ATOM     88  O   UNL A   1      34.685  35.410  32.829  1.00  0.00    -0.744 OA
ENDBRANCH  84  85
ENDBRANCH  52  77
BRANCH  64  89
ATOM     89  C   UNL A   1      44.769  34.932  30.643  1.00  0.00     0.058 A 
ATOM     90  C   UNL A   1      44.878  36.008  29.748  1.00  0.00     0.135 A 
ATOM     91  C   UNL A   1      45.183  35.137  31.969  1.00  0.00     0.135 A 
ATOM     92  F   UNL A   1      44.502  35.863  28.467  1.00  0.00    -0.206 F 
ATOM     93  C   UNL A   1      45.397  37.236  30.149  1.00  0.00     0.059 A 
ATOM     94  C   UNL A   1      45.683  36.363  32.397  1.00  0.00     0.059 A 
ATOM     95  F   UNL A   1      45.091  34.143  32.867  1.00  0.00    -0.206 F 
ATOM     96  C   UNL A   1      45.797  37.404  31.476  1.00  0.00     0.060 A 
BRANCH  96  97
ATOM     97  S   UNL A   1      46.436  39.012  31.993  1.00  0.00     0.124 S 
ATOM     98  O   UNL A   1      47.134  38.666  33.227  1.00  0.00    -0.237 OA
ATOM     99  O   UNL A   1      47.286  39.389  30.868  1.00  0.00    -0.237 OA
ATOM    100  O   UNL A   1      45.231  39.818  32.158  1.00  0.00    -0.744 OA
ENDBRANCH  96  97
ENDBRANCH  64  89
ENDBRANCH  38  39
ENDBRANCH  30  33
ENDBRANCH  28  29
ENDBRANCH  27  28
ENDBRANCH  26  27
ENDBRANCH   1  26
TORSDOF 19
ENDMDL
