MODEL 1
REMARK VINA RESULT:     -13.1      0.000      0.000
REMARK SMILES C[C@@H](NC(=O)/C(=C/c1ccc(Cl)cc1)NC(=O)c1ccc(C(C)(C)C)cc1)C(=O)NCCCCCCNC(=O)c1ccc(-c2c3nc(c(-c4c(F)cc(S(=O)(=O)[O-])cc4F)c4ccc([nH]4)c(-c4c(F)cc(S(=O)(=O)[O-])cc4F)c4nc(c(-c5c(F)cc(S(=O)(=O)[O-])cc5F)c5ccc2[nH]5)C=C4)C=C3)cc1
REMARK SMILES IDX 32 1 31 2 30 3 28 4 29 5 2 7 1 8 3 9 4 10 5 12 6 13 7 14
REMARK SMILES IDX 15 15 16 16 17 18 18 19 19 20 27 21 20 22 26 23 21 24 22 25
REMARK SMILES IDX 23 26 24 27 25 28 8 29 9 30 14 31 10 32 13 33 11 34 12 35
REMARK SMILES IDX 33 36 34 37 35 38 36 39 37 40 38 41 39 43 40 44 41 45 105 46
REMARK SMILES IDX 42 47 104 48 43 49 44 50 45 51 98 52 46 53 103 54 97 55
REMARK SMILES IDX 99 56 47 57 102 58 96 59 95 60 48 62 82 63 61 64 81 65 62 66
REMARK SMILES IDX 65 67 80 68 100 69 63 70 64 71 79 73 101 74 66 75 49 76
REMARK SMILES IDX 50 77 59 78 51 79 52 80 58 81 60 82 53 83 54 84 55 85 56 86
REMARK SMILES IDX 57 87 83 88 84 89 93 90 85 91 86 92 92 93 94 94 87 95 88 96
REMARK SMILES IDX 89 97 90 98 91 99 67 100 68 101 77 102 69 103 70 104 76 105
REMARK SMILES IDX 78 106 71 107 72 108 73 109 74 110 75 111
REMARK H PARENT 30 6 3 11 15 17 37 42 99 61 65 72
REMARK Flexibility Score: inf
ROOT
ATOM      1  C   UNL A   1      37.626  21.224  25.237  1.00  0.00     0.021 C 
ENDROOT
BRANCH   1   2
ATOM      2  C   UNL A   1      36.170  21.444  25.619  1.00  0.00     0.116 C 
BRANCH   2   3
ATOM      3  N   UNL A   1      35.372  20.312  25.195  1.00  0.00    -0.354 N 
ATOM      4  C   UNL A   1      34.134  20.299  24.642  1.00  0.00     0.242 C 
ATOM      5  O   UNL A   1      33.593  19.204  24.456  1.00  0.00    -0.273 OA
ATOM      6  H   UNL A   1      35.788  19.430  25.326  1.00  0.00     0.163 HD
BRANCH   4   7
ATOM      7  C   UNL A   1      33.372  21.603  24.359  1.00  0.00     0.168 C 
ATOM      8  C   UNL A   1      32.547  21.379  23.084  1.00  0.00     0.041 C 
BRANCH   7   9
ATOM      9  N   UNL A   1      32.546  22.178  25.440  1.00  0.00    -0.339 N 
ATOM     10  C   UNL A   1      31.724  23.280  25.305  1.00  0.00     0.268 C 
ATOM     11  H   UNL A   1      32.585  21.743  26.322  1.00  0.00     0.164 HD
ATOM     12  O   UNL A   1      30.509  23.151  25.429  1.00  0.00    -0.268 OA
BRANCH  10  13
ATOM     13  C   UNL A   1      32.358  24.641  25.188  1.00  0.00     0.107 C 
ATOM     14  C   UNL A   1      32.277  25.435  26.274  1.00  0.00     0.040 C 
BRANCH  13  15
ATOM     15  N   UNL A   1      33.078  25.029  24.075  1.00  0.00    -0.317 N 
ATOM     16  C   UNL A   1      32.938  25.983  23.097  1.00  0.00     0.255 C 
ATOM     17  H   UNL A   1      33.892  24.490  23.954  1.00  0.00     0.170 HD
ATOM     18  O   UNL A   1      33.734  25.987  22.158  1.00  0.00    -0.269 OA
BRANCH  16  19
ATOM     19  C   UNL A   1      31.866  26.979  23.111  1.00  0.00     0.040 A 
ATOM     20  C   UNL A   1      32.226  28.324  23.113  1.00  0.00     0.014 A 
ATOM     21  C   UNL A   1      30.527  26.603  23.169  1.00  0.00     0.014 A 
ATOM     22  C   UNL A   1      31.234  29.299  23.049  1.00  0.00     0.005 A 
ATOM     23  C   UNL A   1      29.537  27.588  23.096  1.00  0.00     0.005 A 
ATOM     24  C   UNL A   1      29.870  28.951  22.984  1.00  0.00    -0.043 A 
BRANCH  24  25
ATOM     25  C   UNL A   1      28.813  30.050  22.781  1.00  0.00    -0.013 C 
ATOM     26  C   UNL A   1      28.874  30.561  21.329  1.00  0.00     0.016 C 
ATOM     27  C   UNL A   1      27.403  29.477  23.062  1.00  0.00     0.016 C 
ATOM     28  C   UNL A   1      28.994  31.259  23.725  1.00  0.00     0.016 C 
ENDBRANCH  24  25
ENDBRANCH  16  19
ENDBRANCH  13  15
BRANCH  14  29
ATOM     29  C   UNL A   1      32.578  26.876  26.435  1.00  0.00    -0.023 A 
ATOM     30  C   UNL A   1      31.622  27.837  26.799  1.00  0.00     0.010 A 
ATOM     31  C   UNL A   1      33.921  27.276  26.390  1.00  0.00     0.010 A 
ATOM     32  C   UNL A   1      31.983  29.166  27.049  1.00  0.00     0.021 A 
ATOM     33  C   UNL A   1      34.290  28.598  26.660  1.00  0.00     0.021 A 
ATOM     34  C   UNL A   1      33.319  29.541  26.979  1.00  0.00     0.041 A 
ATOM     35  Cl  UNL A   1      33.772  31.163  27.316  1.00  0.00    -0.084 Cl
ENDBRANCH  14  29
ENDBRANCH  10  13
ENDBRANCH   7   9
ENDBRANCH   4   7
ENDBRANCH   2   3
ENDBRANCH   1   2
BRANCH   1  36
ATOM     36  C   UNL A   1      38.558  22.278  25.842  1.00  0.00     0.002 C 
BRANCH  36  37
ATOM     37  C   UNL A   1      39.922  21.730  26.279  1.00  0.00     0.002 C 
BRANCH  37  38
ATOM     38  C   UNL A   1      40.457  22.295  27.593  1.00  0.00     0.021 C 
BRANCH  38  39
ATOM     39  C   UNL A   1      41.695  23.170  27.447  1.00  0.00     0.116 C 
BRANCH  39  40
ATOM     40  N   UNL A   1      41.632  24.013  26.266  1.00  0.00    -0.352 N 
ATOM     41  C   UNL A   1      41.317  25.346  26.175  1.00  0.00     0.251 C 
ATOM     42  H   UNL A   1      41.845  23.568  25.414  1.00  0.00     0.163 HD
ATOM     43  O   UNL A   1      41.132  25.861  25.081  1.00  0.00    -0.269 OA
BRANCH  41  44
ATOM     44  C   UNL A   1      41.180  26.140  27.415  1.00  0.00     0.039 A 
ATOM     45  C   UNL A   1      42.175  27.065  27.731  1.00  0.00     0.014 A 
ATOM     46  C   UNL A   1      40.066  25.986  28.246  1.00  0.00     0.014 A 
ATOM     47  C   UNL A   1      42.025  27.873  28.858  1.00  0.00     0.010 A 
ATOM     48  C   UNL A   1      39.877  26.854  29.317  1.00  0.00     0.010 A 
ATOM     49  C   UNL A   1      40.860  27.799  29.640  1.00  0.00    -0.014 A 
BRANCH  49  50
ATOM     50  C   UNL A   1      40.662  28.720  30.787  1.00  0.00     0.031 A 
ATOM     51  C   UNL A   1      41.526  28.613  32.013  1.00  0.00     0.074 A 
ATOM     52  C   UNL A   1      39.676  29.636  30.730  1.00  0.00     0.049 A 
ATOM     53  N   UNL A   1      41.525  29.356  33.091  1.00  0.00    -0.248 NA
ATOM     54  C   UNL A   1      42.502  27.511  32.049  1.00  0.00     0.031 C 
ATOM     55  C   UNL A   1      38.733  29.795  29.620  1.00  0.00     0.029 A 
ATOM     56  N   UNL A   1      39.307  30.615  31.618  1.00  0.00    -0.354 N 
ATOM     57  C   UNL A   1      42.486  28.808  33.931  1.00  0.00     0.074 A 
ATOM     58  C   UNL A   1      43.009  27.635  33.267  1.00  0.00     0.031 C 
ATOM     59  C   UNL A   1      37.931  30.843  29.869  1.00  0.00     0.029 A 
ATOM     60  C   UNL A   1      38.275  31.406  31.170  1.00  0.00     0.049 A 
ATOM     61  H   UNL A   1      39.741  30.740  32.493  1.00  0.00     0.167 HD
ATOM     62  C   UNL A   1      42.910  29.256  35.138  1.00  0.00     0.037 A 
ATOM     63  C   UNL A   1      37.681  32.472  31.738  1.00  0.00     0.037 A 
ATOM     64  C   UNL A   1      42.393  30.436  35.783  1.00  0.00     0.049 A 
ATOM     65  C   UNL A   1      38.174  32.954  33.075  1.00  0.00     0.074 A 
ATOM     66  C   UNL A   1      42.805  31.021  36.968  1.00  0.00     0.029 A 
ATOM     67  N   UNL A   1      41.341  31.205  35.306  1.00  0.00    -0.354 N 
ATOM     68  N   UNL A   1      39.147  32.479  33.817  1.00  0.00    -0.248 NA
ATOM     69  C   UNL A   1      37.492  34.120  33.648  1.00  0.00     0.031 C 
ATOM     70  C   UNL A   1      41.962  32.104  37.240  1.00  0.00     0.029 A 
ATOM     71  C   UNL A   1      41.064  32.236  36.191  1.00  0.00     0.049 A 
ATOM     72  H   UNL A   1      40.860  31.042  34.462  1.00  0.00     0.167 HD
ATOM     73  C   UNL A   1      39.210  33.305  34.934  1.00  0.00     0.074 A 
ATOM     74  C   UNL A   1      38.192  34.320  34.756  1.00  0.00     0.031 C 
ATOM     75  C   UNL A   1      40.035  33.230  36.009  1.00  0.00     0.037 A 
BRANCH  62  76
ATOM     76  C   UNL A   1      43.977  28.458  35.843  1.00  0.00     0.058 A 
ATOM     77  C   UNL A   1      43.663  27.422  36.740  1.00  0.00     0.135 A 
ATOM     78  C   UNL A   1      45.335  28.722  35.604  1.00  0.00     0.135 A 
ATOM     79  F   UNL A   1      42.382  27.132  37.019  1.00  0.00    -0.206 F 
ATOM     80  C   UNL A   1      44.655  26.708  37.404  1.00  0.00     0.059 A 
ATOM     81  C   UNL A   1      46.345  27.997  36.232  1.00  0.00     0.059 A 
ATOM     82  F   UNL A   1      45.696  29.698  34.756  1.00  0.00    -0.206 F 
ATOM     83  C   UNL A   1      45.995  27.005  37.146  1.00  0.00     0.060 A 
BRANCH  83  84
ATOM     84  S   UNL A   1      47.269  26.079  38.026  1.00  0.00     0.124 S 
ATOM     85  O   UNL A   1      46.615  25.829  39.307  1.00  0.00    -0.237 OA
ATOM     86  O   UNL A   1      47.452  24.911  37.171  1.00  0.00    -0.237 OA
ATOM     87  O   UNL A   1      48.396  27.006  38.069  1.00  0.00    -0.744 OA
ENDBRANCH  83  84
ENDBRANCH  62  76
BRANCH  63  88
ATOM     88  C   UNL A   1      36.589  33.184  31.021  1.00  0.00     0.058 A 
ATOM     89  C   UNL A   1      36.869  34.018  29.930  1.00  0.00     0.135 A 
ATOM     90  C   UNL A   1      35.245  33.028  31.397  1.00  0.00     0.135 A 
ATOM     91  F   UNL A   1      38.139  34.204  29.536  1.00  0.00    -0.206 F 
ATOM     92  C   UNL A   1      35.861  34.685  29.243  1.00  0.00     0.059 A 
ATOM     93  C   UNL A   1      34.216  33.662  30.708  1.00  0.00     0.059 A 
ATOM     94  F   UNL A   1      34.922  32.229  32.424  1.00  0.00    -0.206 F 
ATOM     95  C   UNL A   1      34.535  34.495  29.637  1.00  0.00     0.060 A 
BRANCH  95  96
ATOM     96  S   UNL A   1      33.230  35.323  28.702  1.00  0.00     0.124 S 
ATOM     97  O   UNL A   1      32.482  35.985  29.763  1.00  0.00    -0.237 OA
ATOM     98  O   UNL A   1      33.996  36.196  27.818  1.00  0.00    -0.237 OA
ATOM     99  O   UNL A   1      32.541  34.219  28.039  1.00  0.00    -0.744 OA
ENDBRANCH  95  96
ENDBRANCH  63  88
BRANCH  75 100
ATOM    100  C   UNL A   1      39.876  34.291  37.067  1.00  0.00     0.058 A 
ATOM    101  C   UNL A   1      39.078  34.089  38.205  1.00  0.00     0.135 A 
ATOM    102  C   UNL A   1      40.534  35.526  36.942  1.00  0.00     0.135 A 
ATOM    103  F   UNL A   1      38.424  32.928  38.373  1.00  0.00    -0.206 F 
ATOM    104  C   UNL A   1      38.898  35.089  39.154  1.00  0.00     0.059 A 
ATOM    105  C   UNL A   1      40.397  36.527  37.898  1.00  0.00     0.059 A 
ATOM    106  F   UNL A   1      41.323  35.770  35.882  1.00  0.00    -0.206 F 
ATOM    107  C   UNL A   1      39.558  36.308  38.989  1.00  0.00     0.060 A 
BRANCH 107 108
ATOM    108  S   UNL A   1      39.308  37.601  40.222  1.00  0.00     0.124 S 
ATOM    109  O   UNL A   1      40.632  38.212  40.277  1.00  0.00    -0.237 OA
ATOM    110  O   UNL A   1      38.259  38.414  39.615  1.00  0.00    -0.237 OA
ATOM    111  O   UNL A   1      38.908  36.860  41.415  1.00  0.00    -0.744 OA
ENDBRANCH 107 108
ENDBRANCH  75 100
ENDBRANCH  49  50
ENDBRANCH  41  44
ENDBRANCH  39  40
ENDBRANCH  38  39
ENDBRANCH  37  38
ENDBRANCH  36  37
ENDBRANCH   1  36
TORSDOF 22
ENDMDL
MODEL 2
REMARK VINA RESULT:     -11.1      6.294     11.797
REMARK SMILES C[C@@H](NC(=O)/C(=C/c1ccc(Cl)cc1)NC(=O)c1ccc(C(C)(C)C)cc1)C(=O)NCCCCCCNC(=O)c1ccc(-c2c3nc(c(-c4c(F)cc(S(=O)(=O)[O-])cc4F)c4ccc([nH]4)c(-c4c(F)cc(S(=O)(=O)[O-])cc4F)c4nc(c(-c5c(F)cc(S(=O)(=O)[O-])cc5F)c5ccc2[nH]5)C=C4)C=C3)cc1
REMARK SMILES IDX 32 1 31 2 30 3 28 4 29 5 2 7 1 8 3 9 4 10 5 12 6 13 7 14
REMARK SMILES IDX 15 15 16 16 17 18 18 19 19 20 27 21 20 22 26 23 21 24 22 25
REMARK SMILES IDX 23 26 24 27 25 28 8 29 9 30 14 31 10 32 13 33 11 34 12 35
REMARK SMILES IDX 33 36 34 37 35 38 36 39 37 40 38 41 39 43 40 44 41 45 105 46
REMARK SMILES IDX 42 47 104 48 43 49 44 50 45 51 98 52 46 53 103 54 97 55
REMARK SMILES IDX 99 56 47 57 102 58 96 59 95 60 48 62 82 63 61 64 81 65 62 66
REMARK SMILES IDX 65 67 80 68 100 69 63 70 64 71 79 73 101 74 66 75 49 76
REMARK SMILES IDX 50 77 59 78 51 79 52 80 58 81 60 82 53 83 54 84 55 85 56 86
REMARK SMILES IDX 57 87 83 88 84 89 93 90 85 91 86 92 92 93 94 94 87 95 88 96
REMARK SMILES IDX 89 97 90 98 91 99 67 100 68 101 77 102 69 103 70 104 76 105
REMARK SMILES IDX 78 106 71 107 72 108 73 109 74 110 75 111
REMARK H PARENT 30 6 3 11 15 17 37 42 99 61 65 72
REMARK Flexibility Score: inf
ROOT
ATOM      1  C   UNL A   1      33.689  30.431  26.884  1.00  0.00     0.021 C 
ENDROOT
BRANCH   1   2
ATOM      2  C   UNL A   1      34.102  29.172  26.137  1.00  0.00     0.116 C 
BRANCH   2   3
ATOM      3  N   UNL A   1      33.125  28.126  26.355  1.00  0.00    -0.354 N 
ATOM      4  C   UNL A   1      32.131  27.701  25.536  1.00  0.00     0.242 C 
ATOM      5  O   UNL A   1      31.339  26.860  25.973  1.00  0.00    -0.273 OA
ATOM      6  H   UNL A   1      33.193  27.658  27.219  1.00  0.00     0.163 HD
BRANCH   4   7
ATOM      7  C   UNL A   1      31.919  28.325  24.148  1.00  0.00     0.168 C 
ATOM      8  C   UNL A   1      33.233  28.163  23.373  1.00  0.00     0.041 C 
BRANCH   7   9
ATOM      9  N   UNL A   1      30.763  27.873  23.348  1.00  0.00    -0.339 N 
ATOM     10  C   UNL A   1      30.092  26.679  23.535  1.00  0.00     0.268 C 
ATOM     11  H   UNL A   1      30.446  28.466  22.630  1.00  0.00     0.164 HD
ATOM     12  O   UNL A   1      28.918  26.691  23.896  1.00  0.00    -0.268 OA
BRANCH  10  13
ATOM     13  C   UNL A   1      30.767  25.401  23.115  1.00  0.00     0.107 C 
ATOM     14  C   UNL A   1      30.506  24.312  23.864  1.00  0.00     0.040 C 
BRANCH  13  15
ATOM     15  N   UNL A   1      31.530  25.308  21.967  1.00  0.00    -0.317 N 
ATOM     16  C   UNL A   1      32.833  24.987  21.676  1.00  0.00     0.255 C 
ATOM     17  H   UNL A   1      31.012  25.526  21.159  1.00  0.00     0.170 HD
ATOM     18  O   UNL A   1      33.228  25.113  20.517  1.00  0.00    -0.269 OA
BRANCH  16  19
ATOM     19  C   UNL A   1      33.780  24.527  22.692  1.00  0.00     0.040 A 
ATOM     20  C   UNL A   1      33.874  25.259  23.874  1.00  0.00     0.014 A 
ATOM     21  C   UNL A   1      34.600  23.424  22.475  1.00  0.00     0.014 A 
ATOM     22  C   UNL A   1      34.708  24.808  24.894  1.00  0.00     0.005 A 
ATOM     23  C   UNL A   1      35.429  22.974  23.506  1.00  0.00     0.005 A 
ATOM     24  C   UNL A   1      35.463  23.626  24.754  1.00  0.00    -0.043 A 
BRANCH  24  25
ATOM     25  C   UNL A   1      36.269  23.090  25.949  1.00  0.00    -0.013 C 
ATOM     26  C   UNL A   1      35.402  23.146  27.221  1.00  0.00     0.016 C 
ATOM     27  C   UNL A   1      36.690  21.625  25.681  1.00  0.00     0.016 C 
ATOM     28  C   UNL A   1      37.568  23.881  26.218  1.00  0.00     0.016 C 
ENDBRANCH  24  25
ENDBRANCH  16  19
ENDBRANCH  13  15
BRANCH  14  29
ATOM     29  C   UNL A   1      31.153  22.980  23.882  1.00  0.00    -0.023 A 
ATOM     30  C   UNL A   1      31.335  22.185  22.740  1.00  0.00     0.010 A 
ATOM     31  C   UNL A   1      31.769  22.564  25.071  1.00  0.00     0.010 A 
ATOM     32  C   UNL A   1      32.055  20.986  22.792  1.00  0.00     0.021 A 
ATOM     33  C   UNL A   1      32.508  21.377  25.125  1.00  0.00     0.021 A 
ATOM     34  C   UNL A   1      32.640  20.587  23.988  1.00  0.00     0.041 A 
ATOM     35  Cl  UNL A   1      33.551  19.132  24.052  1.00  0.00    -0.084 Cl
ENDBRANCH  14  29
ENDBRANCH  10  13
ENDBRANCH   7   9
ENDBRANCH   4   7
ENDBRANCH   2   3
ENDBRANCH   1   2
BRANCH   1  36
ATOM     36  C   UNL A   1      34.699  30.835  27.961  1.00  0.00     0.002 C 
BRANCH  36  37
ATOM     37  C   UNL A   1      34.658  32.322  28.332  1.00  0.00     0.002 C 
BRANCH  37  38
ATOM     38  C   UNL A   1      36.020  33.008  28.412  1.00  0.00     0.021 C 
BRANCH  38  39
ATOM     39  C   UNL A   1      36.620  33.059  29.811  1.00  0.00     0.116 C 
BRANCH  39  40
ATOM     40  N   UNL A   1      36.154  31.965  30.646  1.00  0.00    -0.352 N 
ATOM     41  C   UNL A   1      36.714  30.726  30.834  1.00  0.00     0.251 C 
ATOM     42  H   UNL A   1      35.323  32.136  31.144  1.00  0.00     0.163 HD
ATOM     43  O   UNL A   1      36.095  29.855  31.430  1.00  0.00    -0.269 OA
BRANCH  41  44
ATOM     44  C   UNL A   1      38.060  30.454  30.287  1.00  0.00     0.039 A 
ATOM     45  C   UNL A   1      39.158  30.523  31.145  1.00  0.00     0.014 A 
ATOM     46  C   UNL A   1      38.232  30.110  28.943  1.00  0.00     0.014 A 
ATOM     47  C   UNL A   1      40.425  30.198  30.662  1.00  0.00     0.010 A 
ATOM     48  C   UNL A   1      39.482  29.701  28.488  1.00  0.00     0.010 A 
ATOM     49  C   UNL A   1      40.593  29.750  29.340  1.00  0.00    -0.014 A 
BRANCH  49  50
ATOM     50  C   UNL A   1      41.927  29.320  28.853  1.00  0.00     0.031 A 
ATOM     51  C   UNL A   1      43.076  30.291  28.808  1.00  0.00     0.074 A 
ATOM     52  C   UNL A   1      42.092  28.055  28.421  1.00  0.00     0.049 A 
ATOM     53  N   UNL A   1      44.318  30.083  28.453  1.00  0.00    -0.248 NA
ATOM     54  C   UNL A   1      42.788  31.685  29.184  1.00  0.00     0.031 C 
ATOM     55  C   UNL A   1      41.037  27.040  28.358  1.00  0.00     0.029 A 
ATOM     56  N   UNL A   1      43.207  27.399  27.963  1.00  0.00    -0.354 N 
ATOM     57  C   UNL A   1      44.953  31.315  28.553  1.00  0.00     0.074 A 
ATOM     58  C   UNL A   1      43.948  32.278  28.943  1.00  0.00     0.031 C 
ATOM     59  C   UNL A   1      41.567  25.879  27.942  1.00  0.00     0.029 A 
ATOM     60  C   UNL A   1      42.988  26.074  27.672  1.00  0.00     0.049 A 
ATOM     61  H   UNL A   1      44.083  27.837  27.856  1.00  0.00     0.167 HD
ATOM     62  C   UNL A   1      46.262  31.611  28.359  1.00  0.00     0.037 A 
ATOM     63  C   UNL A   1      43.836  25.121  27.245  1.00  0.00     0.037 A 
ATOM     64  C   UNL A   1      47.259  30.639  27.987  1.00  0.00     0.049 A 
ATOM     65  C   UNL A   1      45.284  25.473  27.044  1.00  0.00     0.074 A 
ATOM     66  C   UNL A   1      48.623  30.818  27.840  1.00  0.00     0.029 A 
ATOM     67  N   UNL A   1      46.997  29.309  27.688  1.00  0.00    -0.354 N 
ATOM     68  N   UNL A   1      45.890  26.623  27.230  1.00  0.00    -0.248 NA
ATOM     69  C   UNL A   1      46.167  24.395  26.579  1.00  0.00     0.031 C 
ATOM     70  C   UNL A   1      49.177  29.613  27.390  1.00  0.00     0.029 A 
ATOM     71  C   UNL A   1      48.168  28.665  27.320  1.00  0.00     0.049 A 
ATOM     72  H   UNL A   1      46.110  28.885  27.730  1.00  0.00     0.167 HD
ATOM     73  C   UNL A   1      47.229  26.401  26.930  1.00  0.00     0.074 A 
ATOM     74  C   UNL A   1      47.346  25.001  26.572  1.00  0.00     0.031 C 
ATOM     75  C   UNL A   1      48.267  27.274  26.949  1.00  0.00     0.037 A 
BRANCH  62  76
ATOM     76  C   UNL A   1      46.685  33.047  28.534  1.00  0.00     0.058 A 
ATOM     77  C   UNL A   1      46.805  33.927  27.445  1.00  0.00     0.135 A 
ATOM     78  C   UNL A   1      46.958  33.555  29.814  1.00  0.00     0.135 A 
ATOM     79  F   UNL A   1      46.570  33.495  26.196  1.00  0.00    -0.206 F 
ATOM     80  C   UNL A   1      47.221  35.244  27.615  1.00  0.00     0.059 A 
ATOM     81  C   UNL A   1      47.343  34.879  30.011  1.00  0.00     0.059 A 
ATOM     82  F   UNL A   1      46.859  32.762  30.893  1.00  0.00    -0.206 F 
ATOM     83  C   UNL A   1      47.491  35.710  28.903  1.00  0.00     0.060 A 
BRANCH  83  84
ATOM     84  S   UNL A   1      48.042  37.417  29.104  1.00  0.00     0.124 S 
ATOM     85  O   UNL A   1      48.587  37.704  27.781  1.00  0.00    -0.237 OA
ATOM     86  O   UNL A   1      46.801  38.108  29.441  1.00  0.00    -0.237 OA
ATOM     87  O   UNL A   1      49.023  37.333  30.182  1.00  0.00    -0.744 OA
ENDBRANCH  83  84
ENDBRANCH  62  76
BRANCH  63  88
ATOM     88  C   UNL A   1      43.347  23.732  27.029  1.00  0.00     0.058 A 
ATOM     89  C   UNL A   1      42.977  23.291  25.751  1.00  0.00     0.135 A 
ATOM     90  C   UNL A   1      43.260  22.815  28.089  1.00  0.00     0.135 A 
ATOM     91  F   UNL A   1      43.037  24.133  24.707  1.00  0.00    -0.206 F 
ATOM     92  C   UNL A   1      42.525  21.995  25.529  1.00  0.00     0.059 A 
ATOM     93  C   UNL A   1      42.838  21.505  27.886  1.00  0.00     0.059 A 
ATOM     94  F   UNL A   1      43.617  23.182  29.328  1.00  0.00    -0.206 F 
ATOM     95  C   UNL A   1      42.465  21.106  26.604  1.00  0.00     0.060 A 
BRANCH  95  96
ATOM     96  S   UNL A   1      41.929  19.410  26.292  1.00  0.00     0.124 S 
ATOM     97  O   UNL A   1      40.504  19.592  26.043  1.00  0.00    -0.237 OA
ATOM     98  O   UNL A   1      42.739  19.042  25.136  1.00  0.00    -0.237 OA
ATOM     99  O   UNL A   1      42.269  18.718  27.533  1.00  0.00    -0.744 OA
ENDBRANCH  95  96
ENDBRANCH  63  88
BRANCH  75 100
ATOM    100  C   UNL A   1      49.624  26.730  26.586  1.00  0.00     0.058 A 
ATOM    101  C   UNL A   1      50.509  26.237  27.558  1.00  0.00     0.135 A 
ATOM    102  C   UNL A   1      50.044  26.698  25.246  1.00  0.00     0.135 A 
ATOM    103  F   UNL A   1      50.160  26.246  28.856  1.00  0.00    -0.206 F 
ATOM    104  C   UNL A   1      51.779  25.779  27.222  1.00  0.00     0.059 A 
ATOM    105  C   UNL A   1      51.296  26.211  24.883  1.00  0.00     0.059 A 
ATOM    106  F   UNL A   1      49.234  27.142  24.271  1.00  0.00    -0.206 F 
ATOM    107  C   UNL A   1      52.165  25.775  25.881  1.00  0.00     0.060 A 
BRANCH 107 108
ATOM    108  S   UNL A   1      53.818  25.188  25.459  1.00  0.00     0.124 S 
ATOM    109  O   UNL A   1      53.515  23.962  24.727  1.00  0.00    -0.237 OA
ATOM    110  O   UNL A   1      54.347  26.288  24.659  1.00  0.00    -0.237 OA
ATOM    111  O   UNL A   1      54.455  25.002  26.759  1.00  0.00    -0.744 OA
ENDBRANCH 107 108
ENDBRANCH  75 100
ENDBRANCH  49  50
ENDBRANCH  41  44
ENDBRANCH  39  40
ENDBRANCH  38  39
ENDBRANCH  37  38
ENDBRANCH  36  37
ENDBRANCH   1  36
TORSDOF 22
ENDMDL
MODEL 3
REMARK VINA RESULT:     -10.8      1.215      2.026
REMARK SMILES C[C@@H](NC(=O)/C(=C/c1ccc(Cl)cc1)NC(=O)c1ccc(C(C)(C)C)cc1)C(=O)NCCCCCCNC(=O)c1ccc(-c2c3nc(c(-c4c(F)cc(S(=O)(=O)[O-])cc4F)c4ccc([nH]4)c(-c4c(F)cc(S(=O)(=O)[O-])cc4F)c4nc(c(-c5c(F)cc(S(=O)(=O)[O-])cc5F)c5ccc2[nH]5)C=C4)C=C3)cc1
REMARK SMILES IDX 32 1 31 2 30 3 28 4 29 5 2 7 1 8 3 9 4 10 5 12 6 13 7 14
REMARK SMILES IDX 15 15 16 16 17 18 18 19 19 20 27 21 20 22 26 23 21 24 22 25
REMARK SMILES IDX 23 26 24 27 25 28 8 29 9 30 14 31 10 32 13 33 11 34 12 35
REMARK SMILES IDX 33 36 34 37 35 38 36 39 37 40 38 41 39 43 40 44 41 45 105 46
REMARK SMILES IDX 42 47 104 48 43 49 44 50 45 51 98 52 46 53 103 54 97 55
REMARK SMILES IDX 99 56 47 57 102 58 96 59 95 60 48 62 82 63 61 64 81 65 62 66
REMARK SMILES IDX 65 67 80 68 100 69 63 70 64 71 79 73 101 74 66 75 49 76
REMARK SMILES IDX 50 77 59 78 51 79 52 80 58 81 60 82 53 83 54 84 55 85 56 86
REMARK SMILES IDX 57 87 83 88 84 89 93 90 85 91 86 92 92 93 94 94 87 95 88 96
REMARK SMILES IDX 89 97 90 98 91 99 67 100 68 101 77 102 69 103 70 104 76 105
REMARK SMILES IDX 78 106 71 107 72 108 73 109 74 110 75 111
REMARK H PARENT 30 6 3 11 15 17 37 42 99 61 65 72
REMARK Flexibility Score: inf
ROOT
ATOM      1  C   UNL A   1      37.530  21.859  24.999  1.00  0.00     0.021 C 
ENDROOT
BRANCH   1   2
ATOM      2  C   UNL A   1      36.169  22.499  24.765  1.00  0.00     0.116 C 
BRANCH   2   3
ATOM      3  N   UNL A   1      35.253  22.109  25.815  1.00  0.00    -0.354 N 
ATOM      4  C   UNL A   1      34.150  21.324  25.739  1.00  0.00     0.242 C 
ATOM      5  O   UNL A   1      33.448  21.210  26.749  1.00  0.00    -0.273 OA
ATOM      6  H   UNL A   1      35.461  22.463  26.710  1.00  0.00     0.163 HD
BRANCH   4   7
ATOM      7  C   UNL A   1      33.715  20.685  24.411  1.00  0.00     0.168 C 
ATOM      8  C   UNL A   1      33.302  19.239  24.718  1.00  0.00     0.041 C 
BRANCH   7   9
ATOM      9  N   UNL A   1      32.691  21.378  23.604  1.00  0.00    -0.339 N 
ATOM     10  C   UNL A   1      32.836  22.640  23.059  1.00  0.00     0.268 C 
ATOM     11  H   UNL A   1      31.843  20.907  23.443  1.00  0.00     0.164 HD
ATOM     12  O   UNL A   1      32.852  22.777  21.839  1.00  0.00    -0.268 OA
BRANCH  10  13
ATOM     13  C   UNL A   1      32.789  23.831  23.979  1.00  0.00     0.107 C 
ATOM     14  C   UNL A   1      33.427  24.940  23.556  1.00  0.00     0.040 C 
BRANCH  13  15
ATOM     15  N   UNL A   1      32.048  23.838  25.145  1.00  0.00    -0.317 N 
ATOM     16  C   UNL A   1      31.112  24.669  25.709  1.00  0.00     0.255 C 
ATOM     17  H   UNL A   1      32.237  23.055  25.709  1.00  0.00     0.170 HD
ATOM     18  O   UNL A   1      30.717  24.426  26.850  1.00  0.00    -0.269 OA
BRANCH  16  19
ATOM     19  C   UNL A   1      30.583  25.848  25.021  1.00  0.00     0.040 A 
ATOM     20  C   UNL A   1      30.759  27.090  25.628  1.00  0.00     0.014 A 
ATOM     21  C   UNL A   1      29.883  25.737  23.824  1.00  0.00     0.014 A 
ATOM     22  C   UNL A   1      30.337  28.241  24.967  1.00  0.00     0.005 A 
ATOM     23  C   UNL A   1      29.470  26.897  23.163  1.00  0.00     0.005 A 
ATOM     24  C   UNL A   1      29.733  28.174  23.695  1.00  0.00    -0.043 A 
BRANCH  24  25
ATOM     25  C   UNL A   1      29.401  29.473  22.941  1.00  0.00    -0.013 C 
ATOM     26  C   UNL A   1      30.430  29.691  21.815  1.00  0.00     0.016 C 
ATOM     27  C   UNL A   1      27.984  29.373  22.326  1.00  0.00     0.016 C 
ATOM     28  C   UNL A   1      29.404  30.726  23.844  1.00  0.00     0.016 C 
ENDBRANCH  24  25
ENDBRANCH  16  19
ENDBRANCH  13  15
BRANCH  14  29
ATOM     29  C   UNL A   1      33.772  26.185  24.279  1.00  0.00    -0.023 A 
ATOM     30  C   UNL A   1      33.629  27.470  23.733  1.00  0.00     0.010 A 
ATOM     31  C   UNL A   1      34.095  26.087  25.640  1.00  0.00     0.010 A 
ATOM     32  C   UNL A   1      33.861  28.618  24.500  1.00  0.00     0.021 A 
ATOM     33  C   UNL A   1      34.307  27.231  26.417  1.00  0.00     0.021 A 
ATOM     34  C   UNL A   1      34.199  28.493  25.842  1.00  0.00     0.041 A 
ATOM     35  Cl  UNL A   1      34.454  29.899  26.795  1.00  0.00    -0.084 Cl
ENDBRANCH  14  29
ENDBRANCH  10  13
ENDBRANCH   7   9
ENDBRANCH   4   7
ENDBRANCH   2   3
ENDBRANCH   1   2
BRANCH   1  36
ATOM     36  C   UNL A   1      38.267  22.465  26.197  1.00  0.00     0.002 C 
BRANCH  36  37
ATOM     37  C   UNL A   1      38.055  23.974  26.364  1.00  0.00     0.002 C 
BRANCH  37  38
ATOM     38  C   UNL A   1      39.334  24.797  26.505  1.00  0.00     0.021 C 
BRANCH  38  39
ATOM     39  C   UNL A   1      40.586  23.975  26.782  1.00  0.00     0.116 C 
BRANCH  39  40
ATOM     40  N   UNL A   1      41.703  24.383  25.948  1.00  0.00    -0.352 N 
ATOM     41  C   UNL A   1      42.490  25.504  26.050  1.00  0.00     0.251 C 
ATOM     42  H   UNL A   1      41.926  23.773  25.208  1.00  0.00     0.163 HD
ATOM     43  O   UNL A   1      43.274  25.789  25.155  1.00  0.00    -0.269 OA
BRANCH  41  44
ATOM     44  C   UNL A   1      42.359  26.369  27.241  1.00  0.00     0.039 A 
ATOM     45  C   UNL A   1      42.481  27.750  27.082  1.00  0.00     0.014 A 
ATOM     46  C   UNL A   1      42.095  25.821  28.500  1.00  0.00     0.014 A 
ATOM     47  C   UNL A   1      42.286  28.585  28.182  1.00  0.00     0.010 A 
ATOM     48  C   UNL A   1      41.815  26.660  29.574  1.00  0.00     0.010 A 
ATOM     49  C   UNL A   1      41.918  28.050  29.429  1.00  0.00    -0.014 A 
BRANCH  49  50
ATOM     50  C   UNL A   1      41.626  28.945  30.576  1.00  0.00     0.031 A 
ATOM     51  C   UNL A   1      42.509  28.941  31.794  1.00  0.00     0.074 A 
ATOM     52  C   UNL A   1      40.540  29.741  30.528  1.00  0.00     0.049 A 
ATOM     53  N   UNL A   1      42.432  29.682  32.870  1.00  0.00    -0.248 NA
ATOM     54  C   UNL A   1      43.606  27.961  31.821  1.00  0.00     0.031 C 
ATOM     55  C   UNL A   1      39.574  29.786  29.428  1.00  0.00     0.029 A 
ATOM     56  N   UNL A   1      40.069  30.672  31.419  1.00  0.00    -0.354 N 
ATOM     57  C   UNL A   1      43.459  29.251  33.702  1.00  0.00     0.074 A 
ATOM     58  C   UNL A   1      44.107  28.145  33.033  1.00  0.00     0.031 C 
ATOM     59  C   UNL A   1      38.659  30.735  29.684  1.00  0.00     0.029 A 
ATOM     60  C   UNL A   1      38.948  31.338  30.980  1.00  0.00     0.049 A 
ATOM     61  H   UNL A   1      40.494  30.849  32.289  1.00  0.00     0.167 HD
ATOM     62  C   UNL A   1      43.841  29.748  34.904  1.00  0.00     0.037 A 
ATOM     63  C   UNL A   1      38.240  32.329  31.553  1.00  0.00     0.037 A 
ATOM     64  C   UNL A   1      43.197  30.863  35.553  1.00  0.00     0.049 A 
ATOM     65  C   UNL A   1      38.688  32.868  32.884  1.00  0.00     0.074 A 
ATOM     66  C   UNL A   1      43.551  31.494  36.732  1.00  0.00     0.029 A 
ATOM     67  N   UNL A   1      42.058  31.503  35.085  1.00  0.00    -0.354 N 
ATOM     68  N   UNL A   1      39.716  32.511  33.617  1.00  0.00    -0.248 NA
ATOM     69  C   UNL A   1      37.880  33.949  33.463  1.00  0.00     0.031 C 
ATOM     70  C   UNL A   1      42.590  32.473  37.011  1.00  0.00     0.029 A 
ATOM     71  C   UNL A   1      41.673  32.497  35.971  1.00  0.00     0.049 A 
ATOM     72  H   UNL A   1      41.591  31.284  34.246  1.00  0.00     0.167 HD
ATOM     73  C   UNL A   1      39.694  33.341  34.732  1.00  0.00     0.074 A 
ATOM     74  C   UNL A   1      38.564  34.231  34.563  1.00  0.00     0.031 C 
ATOM     75  C   UNL A   1      40.533  33.365  35.799  1.00  0.00     0.037 A 
BRANCH  62  76
ATOM     76  C   UNL A   1      44.999  29.081  35.599  1.00  0.00     0.058 A 
ATOM     77  C   UNL A   1      46.333  29.437  35.335  1.00  0.00     0.135 A 
ATOM     78  C   UNL A   1      44.771  28.080  36.557  1.00  0.00     0.135 A 
ATOM     79  F   UNL A   1      46.614  30.378  34.419  1.00  0.00    -0.206 F 
ATOM     80  C   UNL A   1      47.397  28.798  35.964  1.00  0.00     0.059 A 
ATOM     81  C   UNL A   1      45.819  27.450  37.224  1.00  0.00     0.059 A 
ATOM     82  F   UNL A   1      43.518  27.698  36.852  1.00  0.00    -0.206 F 
ATOM     83  C   UNL A   1      47.129  27.802  36.906  1.00  0.00     0.060 A 
BRANCH  83  84
ATOM     84  S   UNL A   1      48.520  26.974  37.703  1.00  0.00     0.124 S 
ATOM     85  O   UNL A   1      49.046  26.167  36.605  1.00  0.00    -0.237 OA
ATOM     86  O   UNL A   1      49.354  28.095  38.120  1.00  0.00    -0.237 OA
ATOM     87  O   UNL A   1      47.894  26.223  38.787  1.00  0.00    -0.744 OA
ENDBRANCH  83  84
ENDBRANCH  62  76
BRANCH  63  88
ATOM     88  C   UNL A   1      37.066  32.907  30.846  1.00  0.00     0.058 A 
ATOM     89  C   UNL A   1      35.760  32.548  31.209  1.00  0.00     0.135 A 
ATOM     90  C   UNL A   1      37.223  33.844  29.812  1.00  0.00     0.135 A 
ATOM     91  F   UNL A   1      35.558  31.651  32.187  1.00  0.00    -0.206 F 
ATOM     92  C   UNL A   1      34.650  33.084  30.565  1.00  0.00     0.059 A 
ATOM     93  C   UNL A   1      36.129  34.416  29.173  1.00  0.00     0.059 A 
ATOM     94  F   UNL A   1      38.451  34.233  29.438  1.00  0.00    -0.206 F 
ATOM     95  C   UNL A   1      34.845  34.024  29.550  1.00  0.00     0.060 A 
BRANCH  95  96
ATOM     96  S   UNL A   1      33.395  34.754  28.760  1.00  0.00     0.124 S 
ATOM     97  O   UNL A   1      32.500  34.935  29.896  1.00  0.00    -0.237 OA
ATOM     98  O   UNL A   1      33.947  35.974  28.180  1.00  0.00    -0.237 OA
ATOM     99  O   UNL A   1      32.991  33.735  27.794  1.00  0.00    -0.744 OA
ENDBRANCH  95  96
ENDBRANCH  63  88
BRANCH  75 100
ATOM    100  C   UNL A   1      40.263  34.403  36.857  1.00  0.00     0.058 A 
ATOM    101  C   UNL A   1      39.337  34.184  37.889  1.00  0.00     0.135 A 
ATOM    102  C   UNL A   1      40.943  35.632  36.839  1.00  0.00     0.135 A 
ATOM    103  F   UNL A   1      38.656  33.028  37.953  1.00  0.00    -0.206 F 
ATOM    104  C   UNL A   1      39.058  35.164  38.836  1.00  0.00     0.059 A 
ATOM    105  C   UNL A   1      40.706  36.612  37.797  1.00  0.00     0.059 A 
ATOM    106  F   UNL A   1      41.852  35.891  35.884  1.00  0.00    -0.206 F 
ATOM    107  C   UNL A   1      39.744  36.378  38.778  1.00  0.00     0.060 A 
BRANCH 107 108
ATOM    108  S   UNL A   1      39.366  37.646  40.005  1.00  0.00     0.124 S 
ATOM    109  O   UNL A   1      40.590  38.440  39.993  1.00  0.00    -0.237 OA
ATOM    110  O   UNL A   1      38.187  38.291  39.437  1.00  0.00    -0.237 OA
ATOM    111  O   UNL A   1      39.127  36.878  41.224  1.00  0.00    -0.744 OA
ENDBRANCH 107 108
ENDBRANCH  75 100
ENDBRANCH  49  50
ENDBRANCH  41  44
ENDBRANCH  39  40
ENDBRANCH  38  39
ENDBRANCH  37  38
ENDBRANCH  36  37
ENDBRANCH   1  36
TORSDOF 22
ENDMDL
