MODEL 1
REMARK VINA RESULT:     -11.7      0.000      0.000
REMARK SMILES O=C(CCN1C(=O)S/C(=C\c2ccccc2F)C1=O)Nc1ccc(C(=O)NCCCCCCNC(=O)c2ccc(-c3c4nc(c(-c5c(F)cc(S(=O)(=O)[O-])cc5F)c5ccc([nH]5)c(-c5c(F)cc(S(=O)(=O)[O-])cc5F)c5nc(c(-c6c(F)cc(S(=O)(=O)[O-])cc6F)c6ccc3[nH]6)C=C5)C=C4)cc2)c(O)c1
REMARK SMILES IDX 29 1 28 2 27 3 25 4 26 5 24 7 21 8 22 9 105 10 23 11 103 12
REMARK SMILES IDX 20 13 1 14 2 15 3 17 4 18 5 19 6 20 18 21 7 22 8 23 9 24
REMARK SMILES IDX 19 25 10 26 11 27 12 28 16 29 13 30 15 31 17 32 14 33 104 34
REMARK SMILES IDX 30 36 31 37 32 38 33 39 34 40 35 41 36 43 37 44 38 45 102 46
REMARK SMILES IDX 39 47 101 48 40 49 41 50 42 51 95 52 43 53 100 54 94 55
REMARK SMILES IDX 96 56 44 57 99 58 93 59 92 60 45 62 79 63 58 64 78 65 59 66
REMARK SMILES IDX 62 67 77 68 97 69 60 70 61 71 76 73 98 74 63 75 46 76 47 77
REMARK SMILES IDX 56 78 48 79 49 80 55 81 57 82 50 83 51 84 52 85 53 86 54 87
REMARK SMILES IDX 80 88 81 89 90 90 82 91 83 92 89 93 91 94 84 95 85 96 86 97
REMARK SMILES IDX 87 98 88 99 64 100 65 101 74 102 66 103 67 104 73 105 75 106
REMARK SMILES IDX 68 107 69 108 70 109 71 110 72 111
REMARK H PARENT 27 6 20 16 104 35 34 42 96 61 62 72
REMARK Flexibility Score: inf
ROOT
ATOM      1  C   UNL A   1      37.253  21.188  24.205  1.00  0.00     0.021 C 
ENDROOT
BRANCH   1   2
ATOM      2  C   UNL A   1      36.654  20.388  25.362  1.00  0.00     0.116 C 
BRANCH   2   3
ATOM      3  N   UNL A   1      35.747  19.330  24.939  1.00  0.00    -0.352 N 
ATOM      4  C   UNL A   1      34.387  19.347  24.735  1.00  0.00     0.255 C 
ATOM      5  O   UNL A   1      33.819  18.295  24.442  1.00  0.00    -0.269 OA
ATOM      6  H   UNL A   1      36.178  18.461  24.773  1.00  0.00     0.163 HD
BRANCH   4   7
ATOM      7  C   UNL A   1      33.579  20.584  24.879  1.00  0.00     0.081 A 
ATOM      8  C   UNL A   1      31.959  22.895  24.959  1.00  0.00     0.044 A 
ATOM      9  C   UNL A   1      32.388  22.385  23.735  1.00  0.00     0.027 A 
ATOM     10  C   UNL A   1      32.409  22.291  26.138  1.00  0.00     0.073 A 
ATOM     11  C   UNL A   1      33.202  21.243  23.697  1.00  0.00     0.020 A 
ATOM     12  C   UNL A   1      33.224  21.158  26.100  1.00  0.00     0.130 A 
BRANCH   8  13
ATOM     13  N   UNL A   1      31.092  23.996  25.100  1.00  0.00    -0.326 N 
ATOM     14  O   UNL A   1      30.220  24.213  22.951  1.00  0.00    -0.275 OA
ATOM     15  C   UNL A   1      30.268  24.539  24.133  1.00  0.00     0.226 C 
ATOM     16  H   UNL A   1      31.070  24.426  25.986  1.00  0.00     0.169 HD
BRANCH  15  17
ATOM     17  C   UNL A   1      29.343  25.616  24.681  1.00  0.00     0.122 C 
BRANCH  17  18
ATOM     18  C   UNL A   1      29.598  27.006  24.078  1.00  0.00     0.140 C 
BRANCH  18  19
ATOM     19  N   UNL A   1      30.864  27.605  24.494  1.00  0.00    -0.268 N 
ATOM     20  C   UNL A   1      31.708  28.192  23.586  1.00  0.00     0.293 C 
ATOM     21  C   UNL A   1      31.310  27.543  25.797  1.00  0.00     0.268 C 
ATOM     22  O   UNL A   1      31.559  28.245  22.379  1.00  0.00    -0.261 OA
ATOM     23  S   UNL A   1      33.046  28.955  24.415  1.00  0.00    -0.022 SA
ATOM     24  C   UNL A   1      32.556  28.347  25.946  1.00  0.00     0.083 C 
ATOM     25  O   UNL A   1      30.751  26.963  26.718  1.00  0.00    -0.268 OA
ATOM     26  C   UNL A   1      33.110  28.602  27.140  1.00  0.00     0.032 C 
BRANCH  26  27
ATOM     27  C   UNL A   1      34.148  29.617  27.365  1.00  0.00     0.012 A 
ATOM     28  C   UNL A   1      35.509  29.307  27.366  1.00  0.00     0.011 A 
ATOM     29  C   UNL A   1      33.756  30.949  27.567  1.00  0.00     0.130 A 
ATOM     30  C   UNL A   1      36.455  30.321  27.565  1.00  0.00     0.001 A 
ATOM     31  C   UNL A   1      34.692  31.959  27.765  1.00  0.00     0.040 A 
ATOM     32  F   UNL A   1      32.452  31.271  27.563  1.00  0.00    -0.206 F 
ATOM     33  C   UNL A   1      36.048  31.643  27.764  1.00  0.00     0.003 A 
ENDBRANCH  26  27
ENDBRANCH  18  19
ENDBRANCH  17  18
ENDBRANCH  15  17
ENDBRANCH   8  13
BRANCH  12  34
ATOM     34  O   UNL A   1      33.653  20.708  27.317  1.00  0.00    -0.507 OA
ATOM     35  H   UNL A   1      34.509  20.933  27.623  1.00  0.00     0.293 HD
ENDBRANCH  12  34
ENDBRANCH   4   7
ENDBRANCH   2   3
ENDBRANCH   1   2
BRANCH   1  36
ATOM     36  C   UNL A   1      36.676  22.589  23.968  1.00  0.00     0.002 C 
BRANCH  36  37
ATOM     37  C   UNL A   1      37.022  23.664  25.001  1.00  0.00     0.002 C 
BRANCH  37  38
ATOM     38  C   UNL A   1      38.130  23.320  25.998  1.00  0.00     0.021 C 
BRANCH  38  39
ATOM     39  C   UNL A   1      39.021  24.479  26.434  1.00  0.00     0.116 C 
BRANCH  39  40
ATOM     40  N   UNL A   1      40.439  24.182  26.316  1.00  0.00    -0.352 N 
ATOM     41  C   UNL A   1      41.517  24.813  26.889  1.00  0.00     0.251 C 
ATOM     42  H   UNL A   1      40.660  23.414  25.740  1.00  0.00     0.163 HD
ATOM     43  O   UNL A   1      42.656  24.496  26.556  1.00  0.00    -0.269 OA
BRANCH  41  44
ATOM     44  C   UNL A   1      41.310  25.892  27.881  1.00  0.00     0.039 A 
ATOM     45  C   UNL A   1      40.200  25.823  28.728  1.00  0.00     0.014 A 
ATOM     46  C   UNL A   1      42.198  26.967  27.982  1.00  0.00     0.014 A 
ATOM     47  C   UNL A   1      40.023  26.789  29.721  1.00  0.00     0.010 A 
ATOM     48  C   UNL A   1      42.059  27.888  29.019  1.00  0.00     0.010 A 
ATOM     49  C   UNL A   1      40.974  27.806  29.903  1.00  0.00    -0.014 A 
BRANCH  49  50
ATOM     50  C   UNL A   1      40.862  28.773  31.028  1.00  0.00     0.031 A 
ATOM     51  C   UNL A   1      41.743  28.636  32.242  1.00  0.00     0.074 A 
ATOM     52  C   UNL A   1      39.926  29.743  30.980  1.00  0.00     0.049 A 
ATOM     53  N   UNL A   1      41.740  29.341  33.343  1.00  0.00    -0.248 NA
ATOM     54  C   UNL A   1      42.744  27.557  32.224  1.00  0.00     0.031 C 
ATOM     55  C   UNL A   1      38.987  29.955  29.874  1.00  0.00     0.029 A 
ATOM     56  N   UNL A   1      39.601  30.729  31.880  1.00  0.00    -0.354 N 
ATOM     57  C   UNL A   1      42.731  28.791  34.149  1.00  0.00     0.074 A 
ATOM     58  C   UNL A   1      43.279  27.661  33.433  1.00  0.00     0.031 C 
ATOM     59  C   UNL A   1      38.214  31.017  30.149  1.00  0.00     0.029 A 
ATOM     60  C   UNL A   1      38.564  31.535  31.468  1.00  0.00     0.049 A 
ATOM     61  H   UNL A   1      40.066  30.847  32.739  1.00  0.00     0.167 HD
ATOM     62  C   UNL A   1      43.159  29.208  35.363  1.00  0.00     0.037 A 
ATOM     63  C   UNL A   1      37.953  32.566  32.086  1.00  0.00     0.037 A 
ATOM     64  C   UNL A   1      42.625  30.349  36.061  1.00  0.00     0.049 A 
ATOM     65  C   UNL A   1      38.429  32.989  33.450  1.00  0.00     0.074 A 
ATOM     66  C   UNL A   1      43.030  30.879  37.273  1.00  0.00     0.029 A 
ATOM     67  N   UNL A   1      41.573  31.135  35.613  1.00  0.00    -0.354 N 
ATOM     68  N   UNL A   1      39.404  32.489  34.172  1.00  0.00    -0.248 NA
ATOM     69  C   UNL A   1      37.726  34.112  34.086  1.00  0.00     0.031 C 
ATOM     70  C   UNL A   1      42.188  31.949  37.586  1.00  0.00     0.029 A 
ATOM     71  C   UNL A   1      41.298  32.127  36.540  1.00  0.00     0.049 A 
ATOM     72  H   UNL A   1      41.094  31.008  34.763  1.00  0.00     0.167 HD
ATOM     73  C   UNL A   1      39.444  33.251  35.335  1.00  0.00     0.074 A 
ATOM     74  C   UNL A   1      38.408  34.254  35.214  1.00  0.00     0.031 C 
ATOM     75  C   UNL A   1      40.265  33.126  36.406  1.00  0.00     0.037 A 
BRANCH  62  76
ATOM     76  C   UNL A   1      44.276  28.446  36.025  1.00  0.00     0.058 A 
ATOM     77  C   UNL A   1      43.996  27.370  36.883  1.00  0.00     0.135 A 
ATOM     78  C   UNL A   1      45.615  28.844  35.891  1.00  0.00     0.135 A 
ATOM     79  F   UNL A   1      42.734  26.943  37.045  1.00  0.00    -0.206 F 
ATOM     80  C   UNL A   1      45.001  26.735  37.606  1.00  0.00     0.059 A 
ATOM     81  C   UNL A   1      46.640  28.205  36.582  1.00  0.00     0.059 A 
ATOM     82  F   UNL A   1      45.941  29.853  35.066  1.00  0.00    -0.206 F 
ATOM     83  C   UNL A   1      46.321  27.164  37.453  1.00  0.00     0.060 A 
BRANCH  83  84
ATOM     84  S   UNL A   1      47.611  26.331  38.401  1.00  0.00     0.124 S 
ATOM     85  O   UNL A   1      47.727  25.058  37.699  1.00  0.00    -0.237 OA
ATOM     86  O   UNL A   1      48.738  27.247  38.249  1.00  0.00    -0.237 OA
ATOM     87  O   UNL A   1      47.050  26.260  39.747  1.00  0.00    -0.744 OA
ENDBRANCH  83  84
ENDBRANCH  62  76
BRANCH  63  88
ATOM     88  C   UNL A   1      36.830  33.273  31.413  1.00  0.00     0.058 A 
ATOM     89  C   UNL A   1      35.494  33.021  31.762  1.00  0.00     0.135 A 
ATOM     90  C   UNL A   1      37.070  34.202  30.388  1.00  0.00     0.135 A 
ATOM     91  F   UNL A   1      35.205  32.136  32.729  1.00  0.00    -0.206 F 
ATOM     92  C   UNL A   1      34.437  33.644  31.107  1.00  0.00     0.059 A 
ATOM     93  C   UNL A   1      36.030  34.862  29.737  1.00  0.00     0.059 A 
ATOM     94  F   UNL A   1      38.330  34.489  30.025  1.00  0.00    -0.206 F 
ATOM     95  C   UNL A   1      34.716  34.562  30.094  1.00  0.00     0.060 A 
BRANCH  95  96
ATOM     96  S   UNL A   1      33.326  35.361  29.262  1.00  0.00     0.124 S 
ATOM     97  O   UNL A   1      33.986  35.964  28.109  1.00  0.00    -0.237 OA
ATOM     98  O   UNL A   1      32.454  34.227  28.973  1.00  0.00    -0.237 OA
ATOM     99  O   UNL A   1      32.826  36.297  30.263  1.00  0.00    -0.744 OA
ENDBRANCH  95  96
ENDBRANCH  63  88
BRANCH  75 100
ATOM    100  C   UNL A   1      40.102  34.103  37.538  1.00  0.00     0.058 A 
ATOM    101  C   UNL A   1      39.259  33.804  38.621  1.00  0.00     0.135 A 
ATOM    102  C   UNL A   1      40.701  35.372  37.505  1.00  0.00     0.135 A 
ATOM    103  F   UNL A   1      38.656  32.607  38.700  1.00  0.00    -0.206 F 
ATOM    104  C   UNL A   1      38.994  34.738  39.616  1.00  0.00     0.059 A 
ATOM    105  C   UNL A   1      40.474  36.311  38.506  1.00  0.00     0.059 A 
ATOM    106  F   UNL A   1      41.525  35.703  36.498  1.00  0.00    -0.206 F 
ATOM    107  C   UNL A   1      39.603  35.992  39.548  1.00  0.00     0.060 A 
BRANCH 107 108
ATOM    108  S   UNL A   1      39.243  37.193  40.846  1.00  0.00     0.124 S 
ATOM    109  O   UNL A   1      38.368  38.132  40.152  1.00  0.00    -0.237 OA
ATOM    110  O   UNL A   1      38.605  36.363  41.863  1.00  0.00    -0.237 OA
ATOM    111  O   UNL A   1      40.561  37.711  41.204  1.00  0.00    -0.744 OA
ENDBRANCH 107 108
ENDBRANCH  75 100
ENDBRANCH  49  50
ENDBRANCH  41  44
ENDBRANCH  39  40
ENDBRANCH  38  39
ENDBRANCH  37  38
ENDBRANCH  36  37
ENDBRANCH   1  36
TORSDOF 22
ENDMDL
MODEL 2
REMARK VINA RESULT:     -11.3      2.039      8.429
REMARK SMILES O=C(CCN1C(=O)S/C(=C\c2ccccc2F)C1=O)Nc1ccc(C(=O)NCCCCCCNC(=O)c2ccc(-c3c4nc(c(-c5c(F)cc(S(=O)(=O)[O-])cc5F)c5ccc([nH]5)c(-c5c(F)cc(S(=O)(=O)[O-])cc5F)c5nc(c(-c6c(F)cc(S(=O)(=O)[O-])cc6F)c6ccc3[nH]6)C=C5)C=C4)cc2)c(O)c1
REMARK SMILES IDX 29 1 28 2 27 3 25 4 26 5 24 7 21 8 22 9 105 10 23 11 103 12
REMARK SMILES IDX 20 13 1 14 2 15 3 17 4 18 5 19 6 20 18 21 7 22 8 23 9 24
REMARK SMILES IDX 19 25 10 26 11 27 12 28 16 29 13 30 15 31 17 32 14 33 104 34
REMARK SMILES IDX 30 36 31 37 32 38 33 39 34 40 35 41 36 43 37 44 38 45 102 46
REMARK SMILES IDX 39 47 101 48 40 49 41 50 42 51 95 52 43 53 100 54 94 55
REMARK SMILES IDX 96 56 44 57 99 58 93 59 92 60 45 62 79 63 58 64 78 65 59 66
REMARK SMILES IDX 62 67 77 68 97 69 60 70 61 71 76 73 98 74 63 75 46 76 47 77
REMARK SMILES IDX 56 78 48 79 49 80 55 81 57 82 50 83 51 84 52 85 53 86 54 87
REMARK SMILES IDX 80 88 81 89 90 90 82 91 83 92 89 93 91 94 84 95 85 96 86 97
REMARK SMILES IDX 87 98 88 99 64 100 65 101 74 102 66 103 67 104 73 105 75 106
REMARK SMILES IDX 68 107 69 108 70 109 71 110 72 111
REMARK H PARENT 27 6 20 16 104 35 34 42 96 61 62 72
REMARK Flexibility Score: inf
ROOT
ATOM      1  C   UNL A   1      40.511  24.959  28.298  1.00  0.00     0.021 C 
ENDROOT
BRANCH   1   2
ATOM      2  C   UNL A   1      39.819  23.709  27.754  1.00  0.00     0.116 C 
BRANCH   2   3
ATOM      3  N   UNL A   1      40.707  22.814  27.024  1.00  0.00    -0.352 N 
ATOM      4  C   UNL A   1      40.427  21.811  26.127  1.00  0.00     0.255 C 
ATOM      5  O   UNL A   1      41.354  21.134  25.686  1.00  0.00    -0.269 OA
ATOM      6  H   UNL A   1      41.666  22.951  27.203  1.00  0.00     0.163 HD
BRANCH   4   7
ATOM      7  C   UNL A   1      39.041  21.503  25.690  1.00  0.00     0.081 A 
ATOM      8  C   UNL A   1      36.426  20.730  24.961  1.00  0.00     0.044 A 
ATOM      9  C   UNL A   1      37.409  19.763  25.162  1.00  0.00     0.027 A 
ATOM     10  C   UNL A   1      36.777  22.080  25.050  1.00  0.00     0.073 A 
ATOM     11  C   UNL A   1      38.712  20.149  25.514  1.00  0.00     0.020 A 
ATOM     12  C   UNL A   1      38.075  22.465  25.394  1.00  0.00     0.130 A 
BRANCH   8  13
ATOM     13  N   UNL A   1      35.078  20.442  24.667  1.00  0.00    -0.326 N 
ATOM     14  O   UNL A   1      33.993  21.144  26.605  1.00  0.00    -0.275 OA
ATOM     15  C   UNL A   1      33.977  20.702  25.461  1.00  0.00     0.226 C 
ATOM     16  H   UNL A   1      34.901  20.008  23.801  1.00  0.00     0.169 HD
BRANCH  15  17
ATOM     17  C   UNL A   1      32.660  20.411  24.756  1.00  0.00     0.122 C 
BRANCH  17  18
ATOM     18  C   UNL A   1      32.296  21.451  23.686  1.00  0.00     0.140 C 
BRANCH  18  19
ATOM     19  N   UNL A   1      32.478  22.834  24.123  1.00  0.00    -0.268 N 
ATOM     20  C   UNL A   1      33.551  23.578  23.704  1.00  0.00     0.293 C 
ATOM     21  C   UNL A   1      31.631  23.432  25.032  1.00  0.00     0.268 C 
ATOM     22  O   UNL A   1      34.472  23.203  23.003  1.00  0.00    -0.261 OA
ATOM     23  S   UNL A   1      33.393  25.228  24.265  1.00  0.00    -0.022 SA
ATOM     24  C   UNL A   1      31.985  24.872  25.184  1.00  0.00     0.083 C 
ATOM     25  O   UNL A   1      30.692  22.891  25.598  1.00  0.00    -0.268 OA
ATOM     26  C   UNL A   1      31.221  25.731  25.872  1.00  0.00     0.032 C 
BRANCH  26  27
ATOM     27  C   UNL A   1      31.362  27.192  25.805  1.00  0.00     0.012 A 
ATOM     28  C   UNL A   1      32.008  27.927  26.801  1.00  0.00     0.011 A 
ATOM     29  C   UNL A   1      30.844  27.869  24.692  1.00  0.00     0.130 A 
ATOM     30  C   UNL A   1      32.131  29.317  26.672  1.00  0.00     0.001 A 
ATOM     31  C   UNL A   1      30.964  29.249  24.560  1.00  0.00     0.040 A 
ATOM     32  F   UNL A   1      30.224  27.182  23.719  1.00  0.00    -0.206 F 
ATOM     33  C   UNL A   1      31.610  29.976  25.556  1.00  0.00     0.003 A 
ENDBRANCH  26  27
ENDBRANCH  18  19
ENDBRANCH  17  18
ENDBRANCH  15  17
ENDBRANCH   8  13
BRANCH  12  34
ATOM     34  O   UNL A   1      38.307  23.812  25.375  1.00  0.00    -0.507 OA
ATOM     35  H   UNL A   1      37.708  24.384  24.939  1.00  0.00     0.293 HD
ENDBRANCH  12  34
ENDBRANCH   4   7
ENDBRANCH   2   3
ENDBRANCH   1   2
BRANCH   1  36
ATOM     36  C   UNL A   1      39.892  26.308  27.914  1.00  0.00     0.002 C 
BRANCH  36  37
ATOM     37  C   UNL A   1      40.567  27.081  26.779  1.00  0.00     0.002 C 
BRANCH  37  38
ATOM     38  C   UNL A   1      41.291  26.246  25.721  1.00  0.00     0.021 C 
BRANCH  38  39
ATOM     39  C   UNL A   1      42.634  26.790  25.243  1.00  0.00     0.116 C 
BRANCH  39  40
ATOM     40  N   UNL A   1      43.748  25.908  25.552  1.00  0.00    -0.352 N 
ATOM     41  C   UNL A   1      44.530  25.847  26.680  1.00  0.00     0.251 C 
ATOM     42  H   UNL A   1      43.975  25.257  24.849  1.00  0.00     0.163 HD
ATOM     43  O   UNL A   1      45.519  25.118  26.697  1.00  0.00    -0.269 OA
BRANCH  41  44
ATOM     44  C   UNL A   1      44.203  26.677  27.861  1.00  0.00     0.039 A 
ATOM     45  C   UNL A   1      44.537  28.035  27.842  1.00  0.00     0.014 A 
ATOM     46  C   UNL A   1      43.572  26.130  28.982  1.00  0.00     0.014 A 
ATOM     47  C   UNL A   1      44.173  28.855  28.913  1.00  0.00     0.010 A 
ATOM     48  C   UNL A   1      43.146  26.963  30.016  1.00  0.00     0.010 A 
ATOM     49  C   UNL A   1      43.437  28.335  29.990  1.00  0.00    -0.014 A 
BRANCH  49  50
ATOM     50  C   UNL A   1      42.941  29.217  31.080  1.00  0.00     0.031 A 
ATOM     51  C   UNL A   1      41.646  29.970  30.923  1.00  0.00     0.074 A 
ATOM     52  C   UNL A   1      43.686  29.382  32.193  1.00  0.00     0.049 A 
ATOM     53  N   UNL A   1      41.093  30.833  31.735  1.00  0.00    -0.248 NA
ATOM     54  C   UNL A   1      40.884  29.739  29.685  1.00  0.00     0.031 C 
ATOM     55  C   UNL A   1      44.977  28.735  32.446  1.00  0.00     0.029 A 
ATOM     56  N   UNL A   1      43.475  30.145  33.314  1.00  0.00    -0.354 N 
ATOM     57  C   UNL A   1      39.924  31.250  31.108  1.00  0.00     0.074 A 
ATOM     58  C   UNL A   1      39.873  30.586  29.825  1.00  0.00     0.031 C 
ATOM     59  C   UNL A   1      45.427  29.108  33.655  1.00  0.00     0.029 A 
ATOM     60  C   UNL A   1      44.486  30.055  34.244  1.00  0.00     0.049 A 
ATOM     61  H   UNL A   1      42.676  30.705  33.442  1.00  0.00     0.167 HD
ATOM     62  C   UNL A   1      38.970  32.090  31.573  1.00  0.00     0.037 A 
ATOM     63  C   UNL A   1      44.647  30.674  35.431  1.00  0.00     0.037 A 
ATOM     64  C   UNL A   1      39.016  32.729  32.862  1.00  0.00     0.049 A 
ATOM     65  C   UNL A   1      43.586  31.628  35.910  1.00  0.00     0.074 A 
ATOM     66  C   UNL A   1      38.070  33.557  33.442  1.00  0.00     0.029 A 
ATOM     67  N   UNL A   1      40.058  32.616  33.771  1.00  0.00    -0.354 N 
ATOM     68  N   UNL A   1      42.461  31.967  35.326  1.00  0.00    -0.248 NA
ATOM     69  C   UNL A   1      43.811  32.283  37.206  1.00  0.00     0.031 C 
ATOM     70  C   UNL A   1      38.564  33.989  34.675  1.00  0.00     0.029 A 
ATOM     71  C   UNL A   1      39.790  33.383  34.893  1.00  0.00     0.049 A 
ATOM     72  H   UNL A   1      40.867  32.072  33.639  1.00  0.00     0.167 HD
ATOM     73  C   UNL A   1      41.836  32.857  36.193  1.00  0.00     0.074 A 
ATOM     74  C   UNL A   1      42.698  32.992  37.348  1.00  0.00     0.031 C 
ATOM     75  C   UNL A   1      40.655  33.505  36.042  1.00  0.00     0.037 A 
BRANCH  62  76
ATOM     76  C   UNL A   1      37.775  32.364  30.700  1.00  0.00     0.058 A 
ATOM     77  C   UNL A   1      37.843  33.324  29.677  1.00  0.00     0.135 A 
ATOM     78  C   UNL A   1      36.535  31.752  30.941  1.00  0.00     0.135 A 
ATOM     79  F   UNL A   1      39.004  33.936  29.398  1.00  0.00    -0.206 F 
ATOM     80  C   UNL A   1      36.717  33.687  28.944  1.00  0.00     0.059 A 
ATOM     81  C   UNL A   1      35.403  32.078  30.202  1.00  0.00     0.059 A 
ATOM     82  F   UNL A   1      36.419  30.812  31.894  1.00  0.00    -0.206 F 
ATOM     83  C   UNL A   1      35.499  33.062  29.217  1.00  0.00     0.060 A 
BRANCH  83  84
ATOM     84  S   UNL A   1      34.049  33.548  28.259  1.00  0.00     0.124 S 
ATOM     85  O   UNL A   1      33.616  32.273  27.699  1.00  0.00    -0.237 OA
ATOM     86  O   UNL A   1      33.185  34.120  29.287  1.00  0.00    -0.237 OA
ATOM     87  O   UNL A   1      34.585  34.508  27.298  1.00  0.00    -0.744 OA
ENDBRANCH  83  84
ENDBRANCH  62  76
BRANCH  63  88
ATOM     88  C   UNL A   1      45.859  30.402  36.251  1.00  0.00     0.058 A 
ATOM     89  C   UNL A   1      47.043  31.134  36.069  1.00  0.00     0.135 A 
ATOM     90  C   UNL A   1      45.865  29.386  37.219  1.00  0.00     0.135 A 
ATOM     91  F   UNL A   1      47.097  32.112  35.151  1.00  0.00    -0.206 F 
ATOM     92  C   UNL A   1      48.193  30.856  36.799  1.00  0.00     0.059 A 
ATOM     93  C   UNL A   1      46.996  29.108  37.984  1.00  0.00     0.059 A 
ATOM     94  F   UNL A   1      44.755  28.665  37.441  1.00  0.00    -0.206 F 
ATOM     95  C   UNL A   1      48.160  29.839  37.754  1.00  0.00     0.060 A 
BRANCH  95  96
ATOM     96  S   UNL A   1      49.666  29.501  38.691  1.00  0.00     0.124 S 
ATOM     97  O   UNL A   1      49.755  30.688  39.535  1.00  0.00    -0.237 OA
ATOM     98  O   UNL A   1      49.325  28.260  39.377  1.00  0.00    -0.237 OA
ATOM     99  O   UNL A   1      50.689  29.386  37.657  1.00  0.00    -0.744 OA
ENDBRANCH  95  96
ENDBRANCH  63  88
BRANCH  75 100
ATOM    100  C   UNL A   1      40.201  34.412  37.153  1.00  0.00     0.058 A 
ATOM    101  C   UNL A   1      40.514  35.781  37.127  1.00  0.00     0.135 A 
ATOM    102  C   UNL A   1      39.541  33.912  38.286  1.00  0.00     0.135 A 
ATOM    103  F   UNL A   1      41.149  36.312  36.070  1.00  0.00    -0.206 F 
ATOM    104  C   UNL A   1      40.216  36.616  38.198  1.00  0.00     0.059 A 
ATOM    105  C   UNL A   1      39.205  34.735  39.356  1.00  0.00     0.059 A 
ATOM    106  F   UNL A   1      39.208  32.613  38.354  1.00  0.00    -0.206 F 
ATOM    107  C   UNL A   1      39.564  36.082  39.312  1.00  0.00     0.060 A 
BRANCH 107 108
ATOM    108  S   UNL A   1      39.189  37.180  40.694  1.00  0.00     0.124 S 
ATOM    109  O   UNL A   1      38.293  38.150  40.073  1.00  0.00    -0.237 OA
ATOM    110  O   UNL A   1      38.571  36.268  41.651  1.00  0.00    -0.237 OA
ATOM    111  O   UNL A   1      40.499  37.694  41.084  1.00  0.00    -0.744 OA
ENDBRANCH 107 108
ENDBRANCH  75 100
ENDBRANCH  49  50
ENDBRANCH  41  44
ENDBRANCH  39  40
ENDBRANCH  38  39
ENDBRANCH  37  38
ENDBRANCH  36  37
ENDBRANCH   1  36
TORSDOF 22
ENDMDL
MODEL 3
REMARK VINA RESULT:     -11.3      6.120     12.204
REMARK SMILES O=C(CCN1C(=O)S/C(=C\c2ccccc2F)C1=O)Nc1ccc(C(=O)NCCCCCCNC(=O)c2ccc(-c3c4nc(c(-c5c(F)cc(S(=O)(=O)[O-])cc5F)c5ccc([nH]5)c(-c5c(F)cc(S(=O)(=O)[O-])cc5F)c5nc(c(-c6c(F)cc(S(=O)(=O)[O-])cc6F)c6ccc3[nH]6)C=C5)C=C4)cc2)c(O)c1
REMARK SMILES IDX 29 1 28 2 27 3 25 4 26 5 24 7 21 8 22 9 105 10 23 11 103 12
REMARK SMILES IDX 20 13 1 14 2 15 3 17 4 18 5 19 6 20 18 21 7 22 8 23 9 24
REMARK SMILES IDX 19 25 10 26 11 27 12 28 16 29 13 30 15 31 17 32 14 33 104 34
REMARK SMILES IDX 30 36 31 37 32 38 33 39 34 40 35 41 36 43 37 44 38 45 102 46
REMARK SMILES IDX 39 47 101 48 40 49 41 50 42 51 95 52 43 53 100 54 94 55
REMARK SMILES IDX 96 56 44 57 99 58 93 59 92 60 45 62 79 63 58 64 78 65 59 66
REMARK SMILES IDX 62 67 77 68 97 69 60 70 61 71 76 73 98 74 63 75 46 76 47 77
REMARK SMILES IDX 56 78 48 79 49 80 55 81 57 82 50 83 51 84 52 85 53 86 54 87
REMARK SMILES IDX 80 88 81 89 90 90 82 91 83 92 89 93 91 94 84 95 85 96 86 97
REMARK SMILES IDX 87 98 88 99 64 100 65 101 74 102 66 103 67 104 73 105 75 106
REMARK SMILES IDX 68 107 69 108 70 109 71 110 72 111
REMARK H PARENT 27 6 20 16 104 35 34 42 96 61 62 72
REMARK Flexibility Score: inf
ROOT
ATOM      1  C   UNL A   1      34.649  33.312  31.629  1.00  0.00     0.021 C 
ENDROOT
BRANCH   1   2
ATOM      2  C   UNL A   1      34.274  32.965  30.189  1.00  0.00     0.116 C 
BRANCH   2   3
ATOM      3  N   UNL A   1      35.417  32.844  29.295  1.00  0.00    -0.352 N 
ATOM      4  C   UNL A   1      35.616  32.035  28.201  1.00  0.00     0.255 C 
ATOM      5  O   UNL A   1      36.708  32.061  27.636  1.00  0.00    -0.269 OA
ATOM      6  H   UNL A   1      36.171  33.440  29.509  1.00  0.00     0.163 HD
BRANCH   4   7
ATOM      7  C   UNL A   1      34.565  31.117  27.693  1.00  0.00     0.081 A 
ATOM      8  C   UNL A   1      32.485  29.537  26.621  1.00  0.00     0.044 A 
ATOM      9  C   UNL A   1      32.292  30.902  26.821  1.00  0.00     0.027 A 
ATOM     10  C   UNL A   1      33.690  28.957  27.031  1.00  0.00     0.073 A 
ATOM     11  C   UNL A   1      33.323  31.685  27.365  1.00  0.00     0.020 A 
ATOM     12  C   UNL A   1      34.713  29.734  27.577  1.00  0.00     0.130 A 
BRANCH   8  13
ATOM     13  N   UNL A   1      31.538  28.681  26.025  1.00  0.00    -0.326 N 
ATOM     14  O   UNL A   1      31.964  28.981  23.755  1.00  0.00    -0.275 OA
ATOM     15  C   UNL A   1      31.373  28.428  24.677  1.00  0.00     0.226 C 
ATOM     16  H   UNL A   1      30.926  28.211  26.638  1.00  0.00     0.169 HD
BRANCH  15  17
ATOM     17  C   UNL A   1      30.365  27.321  24.403  1.00  0.00     0.122 C 
BRANCH  17  18
ATOM     18  C   UNL A   1      30.410  26.184  25.434  1.00  0.00     0.140 C 
BRANCH  18  19
ATOM     19  N   UNL A   1      31.419  25.167  25.146  1.00  0.00    -0.268 N 
ATOM     20  C   UNL A   1      31.756  24.842  23.856  1.00  0.00     0.293 C 
ATOM     21  C   UNL A   1      32.024  24.433  26.144  1.00  0.00     0.268 C 
ATOM     22  O   UNL A   1      31.257  25.283  22.838  1.00  0.00    -0.261 OA
ATOM     23  S   UNL A   1      33.100  23.722  23.851  1.00  0.00    -0.022 SA
ATOM     24  C   UNL A   1      33.094  23.573  25.564  1.00  0.00     0.083 C 
ATOM     25  O   UNL A   1      31.769  24.501  27.338  1.00  0.00    -0.268 OA
ATOM     26  C   UNL A   1      33.956  22.885  26.325  1.00  0.00     0.032 C 
BRANCH  26  27
ATOM     27  C   UNL A   1      35.192  22.272  25.820  1.00  0.00     0.012 A 
ATOM     28  C   UNL A   1      35.268  20.922  25.470  1.00  0.00     0.011 A 
ATOM     29  C   UNL A   1      36.330  23.077  25.667  1.00  0.00     0.130 A 
ATOM     30  C   UNL A   1      36.469  20.397  24.973  1.00  0.00     0.001 A 
ATOM     31  C   UNL A   1      37.524  22.560  25.174  1.00  0.00     0.040 A 
ATOM     32  F   UNL A   1      36.278  24.379  25.991  1.00  0.00    -0.206 F 
ATOM     33  C   UNL A   1      37.594  21.214  24.826  1.00  0.00     0.003 A 
ENDBRANCH  26  27
ENDBRANCH  18  19
ENDBRANCH  17  18
ENDBRANCH  15  17
ENDBRANCH   8  13
BRANCH  12  34
ATOM     34  O   UNL A   1      35.809  29.038  28.004  1.00  0.00    -0.507 OA
ATOM     35  H   UNL A   1      36.539  28.917  27.431  1.00  0.00     0.293 HD
ENDBRANCH  12  34
ENDBRANCH   4   7
ENDBRANCH   2   3
ENDBRANCH   1   2
BRANCH   1  36
ATOM     36  C   UNL A   1      35.636  34.470  31.822  1.00  0.00     0.002 C 
BRANCH  36  37
ATOM     37  C   UNL A   1      37.117  34.163  31.584  1.00  0.00     0.002 C 
BRANCH  37  38
ATOM     38  C   UNL A   1      37.953  33.836  32.822  1.00  0.00     0.021 C 
BRANCH  38  39
ATOM     39  C   UNL A   1      38.203  32.354  33.089  1.00  0.00     0.116 C 
BRANCH  39  40
ATOM     40  N   UNL A   1      37.070  31.514  32.737  1.00  0.00    -0.352 N 
ATOM     41  C   UNL A   1      37.000  30.462  31.856  1.00  0.00     0.251 C 
ATOM     42  H   UNL A   1      36.228  31.731  33.199  1.00  0.00     0.163 HD
ATOM     43  O   UNL A   1      35.910  29.961  31.591  1.00  0.00    -0.269 OA
BRANCH  41  44
ATOM     44  C   UNL A   1      38.227  29.952  31.203  1.00  0.00     0.039 A 
ATOM     45  C   UNL A   1      38.481  30.309  29.876  1.00  0.00     0.014 A 
ATOM     46  C   UNL A   1      39.125  29.127  31.888  1.00  0.00     0.014 A 
ATOM     47  C   UNL A   1      39.667  29.901  29.261  1.00  0.00     0.010 A 
ATOM     48  C   UNL A   1      40.340  28.783  31.298  1.00  0.00     0.010 A 
ATOM     49  C   UNL A   1      40.627  29.171  29.981  1.00  0.00    -0.014 A 
BRANCH  49  50
ATOM     50  C   UNL A   1      41.945  28.830  29.379  1.00  0.00     0.031 A 
ATOM     51  C   UNL A   1      43.020  29.876  29.255  1.00  0.00     0.074 A 
ATOM     52  C   UNL A   1      42.152  27.588  28.895  1.00  0.00     0.049 A 
ATOM     53  N   UNL A   1      44.200  29.781  28.700  1.00  0.00    -0.248 NA
ATOM     54  C   UNL A   1      42.725  31.208  29.808  1.00  0.00     0.031 C 
ATOM     55  C   UNL A   1      41.174  26.497  28.924  1.00  0.00     0.029 A 
ATOM     56  N   UNL A   1      43.247  27.032  28.279  1.00  0.00    -0.354 N 
ATOM     57  C   UNL A   1      44.786  31.035  28.831  1.00  0.00     0.074 A 
ATOM     58  C   UNL A   1      43.812  31.890  29.473  1.00  0.00     0.031 C 
ATOM     59  C   UNL A   1      41.721  25.400  28.377  1.00  0.00     0.029 A 
ATOM     60  C   UNL A   1      43.068  25.716  27.915  1.00  0.00     0.049 A 
ATOM     61  H   UNL A   1      44.080  27.527  28.113  1.00  0.00     0.167 HD
ATOM     62  C   UNL A   1      46.030  31.427  28.474  1.00  0.00     0.037 A 
ATOM     63  C   UNL A   1      43.889  24.864  27.269  1.00  0.00     0.037 A 
ATOM     64  C   UNL A   1      47.004  30.564  27.857  1.00  0.00     0.049 A 
ATOM     65  C   UNL A   1      45.257  25.336  26.854  1.00  0.00     0.074 A 
ATOM     66  C   UNL A   1      48.309  30.858  27.505  1.00  0.00     0.029 A 
ATOM     67  N   UNL A   1      46.783  29.241  27.501  1.00  0.00    -0.354 N 
ATOM     68  N   UNL A   1      45.811  26.510  27.037  1.00  0.00    -0.248 NA
ATOM     69  C   UNL A   1      46.111  24.372  26.146  1.00  0.00     0.031 C 
ATOM     70  C   UNL A   1      48.859  29.734  26.885  1.00  0.00     0.029 A 
ATOM     71  C   UNL A   1      47.918  28.717  26.905  1.00  0.00     0.049 A 
ATOM     72  H   UNL A   1      45.943  28.748  27.648  1.00  0.00     0.167 HD
ATOM     73  C   UNL A   1      47.086  26.419  26.487  1.00  0.00     0.074 A 
ATOM     74  C   UNL A   1      47.226  25.070  25.979  1.00  0.00     0.031 C 
ATOM     75  C   UNL A   1      48.049  27.369  26.408  1.00  0.00     0.037 A 
BRANCH  62  76
ATOM     76  C   UNL A   1      46.435  32.851  28.750  1.00  0.00     0.058 A 
ATOM     77  C   UNL A   1      46.852  33.237  30.034  1.00  0.00     0.135 A 
ATOM     78  C   UNL A   1      46.313  33.851  27.773  1.00  0.00     0.135 A 
ATOM     79  F   UNL A   1      46.992  32.323  31.006  1.00  0.00    -0.206 F 
ATOM     80  C   UNL A   1      47.107  34.570  30.346  1.00  0.00     0.059 A 
ATOM     81  C   UNL A   1      46.590  35.185  28.054  1.00  0.00     0.059 A 
ATOM     82  F   UNL A   1      45.939  33.532  26.523  1.00  0.00    -0.206 F 
ATOM     83  C   UNL A   1      46.967  35.537  29.350  1.00  0.00     0.060 A 
BRANCH  83  84
ATOM     84  S   UNL A   1      47.298  37.261  29.773  1.00  0.00     0.124 S 
ATOM     85  O   UNL A   1      45.953  37.782  29.989  1.00  0.00    -0.237 OA
ATOM     86  O   UNL A   1      48.129  37.125  30.966  1.00  0.00    -0.237 OA
ATOM     87  O   UNL A   1      47.991  37.772  28.593  1.00  0.00    -0.744 OA
ENDBRANCH  83  84
ENDBRANCH  62  76
BRANCH  63  88
ATOM     88  C   UNL A   1      43.439  23.474  26.985  1.00  0.00     0.058 A 
ATOM     89  C   UNL A   1      43.335  22.516  28.006  1.00  0.00     0.135 A 
ATOM     90  C   UNL A   1      43.124  23.068  25.678  1.00  0.00     0.135 A 
ATOM     91  F   UNL A   1      43.631  22.846  29.273  1.00  0.00    -0.206 F 
ATOM     92  C   UNL A   1      42.958  21.204  27.742  1.00  0.00     0.059 A 
ATOM     93  C   UNL A   1      42.715  21.767  25.393  1.00  0.00     0.059 A 
ATOM     94  F   UNL A   1      43.195  23.948  24.668  1.00  0.00    -0.206 F 
ATOM     95  C   UNL A   1      42.651  20.839  26.430  1.00  0.00     0.060 A 
BRANCH  95  96
ATOM     96  S   UNL A   1      42.161  19.130  26.115  1.00  0.00     0.124 S 
ATOM     97  O   UNL A   1      42.387  18.518  27.420  1.00  0.00    -0.237 OA
ATOM     98  O   UNL A   1      40.765  19.282  25.720  1.00  0.00    -0.237 OA
ATOM     99  O   UNL A   1      43.070  18.707  25.055  1.00  0.00    -0.744 OA
ENDBRANCH  95  96
ENDBRANCH  63  88
BRANCH  75 100
ATOM    100  C   UNL A   1      49.357  26.995  25.766  1.00  0.00     0.058 A 
ATOM    101  C   UNL A   1      50.446  26.587  26.554  1.00  0.00     0.135 A 
ATOM    102  C   UNL A   1      49.563  27.133  24.385  1.00  0.00     0.135 A 
ATOM    103  F   UNL A   1      50.306  26.444  27.882  1.00  0.00    -0.206 F 
ATOM    104  C   UNL A   1      51.700  26.356  26.000  1.00  0.00     0.059 A 
ATOM    105  C   UNL A   1      50.802  26.878  23.804  1.00  0.00     0.059 A 
ATOM    106  F   UNL A   1      48.551  27.508  23.586  1.00  0.00    -0.206 F 
ATOM    107  C   UNL A   1      51.869  26.509  24.622  1.00  0.00     0.060 A 
BRANCH 107 108
ATOM    108  S   UNL A   1      53.505  26.210  23.920  1.00  0.00     0.124 S 
ATOM    109  O   UNL A   1      53.917  25.000  24.623  1.00  0.00    -0.237 OA
ATOM    110  O   UNL A   1      53.205  26.049  22.501  1.00  0.00    -0.237 OA
ATOM    111  O   UNL A   1      54.247  27.420  24.264  1.00  0.00    -0.744 OA
ENDBRANCH 107 108
ENDBRANCH  75 100
ENDBRANCH  49  50
ENDBRANCH  41  44
ENDBRANCH  39  40
ENDBRANCH  38  39
ENDBRANCH  37  38
ENDBRANCH  36  37
ENDBRANCH   1  36
TORSDOF 22
ENDMDL
