MODEL 1
REMARK VINA RESULT:     -13.1      0.000      0.000
REMARK SMILES O=C(CCC(=O)N1CCC(c2nnc3ccccn23)CC1)NCCCCCCNC(=O)c1ccc(-c2c3nc(c(-c4c(F)cc(S(=O)(=O)[O-])cc4F)c4ccc([nH]4)c(-c4c(F)cc(S(=O)(=O)[O-])cc4F)c4nc(c(-c5c(F)cc(S(=O)(=O)[O-])cc5F)c5ccc2[nH]5)C=C4)C=C3)cc1
REMARK SMILES IDX 25 1 24 2 23 3 22 4 1 5 2 6 3 8 4 9 5 10 6 11 7 12 8 13
REMARK SMILES IDX 21 14 9 15 20 16 10 17 11 18 12 19 19 20 13 21 14 22 18 23
REMARK SMILES IDX 15 24 17 25 16 26 26 27 27 28 28 29 29 30 30 31 31 33 32 34
REMARK SMILES IDX 33 35 97 36 34 37 96 38 35 39 36 40 37 41 90 42 38 43 95 44
REMARK SMILES IDX 89 45 91 46 39 47 94 48 88 49 87 50 40 52 74 53 53 54 73 55
REMARK SMILES IDX 54 56 57 57 72 58 92 59 55 60 56 61 71 63 93 64 58 65 41 66
REMARK SMILES IDX 42 67 51 68 43 69 44 70 50 71 52 72 45 73 46 74 47 75 48 76
REMARK SMILES IDX 49 77 75 78 76 79 85 80 77 81 78 82 84 83 86 84 79 85 80 86
REMARK SMILES IDX 81 87 82 88 83 89 59 90 60 91 69 92 61 93 62 94 68 95 70 96
REMARK SMILES IDX 63 97 64 98 65 99 66 100 67 101
REMARK H PARENT 22 7 29 32 91 51 57 62
REMARK Flexibility Score: inf
ROOT
ATOM      1  C   UNL A   1      42.727  21.535  25.959  1.00  0.00     0.002 C 
ENDROOT
BRANCH   1   2
ATOM      2  C   UNL A   1      41.183  22.191  25.930  1.00  0.00     0.021 C 
BRANCH   2   3
ATOM      3  C   UNL A   1      40.005  22.334  27.011  1.00  0.00     0.116 C 
BRANCH   3   4
ATOM      4  N   UNL A   1      38.679  21.973  26.472  1.00  0.00    -0.356 N 
ATOM      5  O   UNL A   1      37.842  24.008  25.752  1.00  0.00    -0.275 OA
ATOM      6  C   UNL A   1      37.831  22.782  25.726  1.00  0.00     0.220 C 
ATOM      7  H   UNL A   1      38.362  21.059  26.660  1.00  0.00     0.163 HD
BRANCH   6   8
ATOM      8  C   UNL A   1      36.898  21.981  24.803  1.00  0.00     0.110 C 
BRANCH   8   9
ATOM      9  C   UNL A   1      35.789  21.117  25.451  1.00  0.00     0.110 C 
BRANCH   9  10
ATOM     10  C   UNL A   1      34.299  21.469  25.197  1.00  0.00     0.223 C 
ATOM     11  O   UNL A   1      33.716  21.008  24.213  1.00  0.00    -0.275 OA
ATOM     12  N   UNL A   1      33.656  22.298  26.128  1.00  0.00    -0.343 N 
ATOM     13  C   UNL A   1      32.261  22.708  26.025  1.00  0.00     0.120 C 
ATOM     14  C   UNL A   1      34.418  23.292  26.797  1.00  0.00     0.120 C 
ATOM     15  C   UNL A   1      32.007  24.289  26.092  1.00  0.00     0.033 C 
ATOM     16  C   UNL A   1      34.384  24.418  25.787  1.00  0.00     0.033 C 
ATOM     17  C   UNL A   1      33.266  25.357  26.101  1.00  0.00     0.062 C 
BRANCH  17  18
ATOM     18  C   UNL A   1      33.602  27.011  25.514  1.00  0.00     0.140 A 
ATOM     19  N   UNL A   1      34.082  27.875  26.422  1.00  0.00    -0.134 NA
ATOM     20  N   UNL A   1      33.420  27.948  24.131  1.00  0.00    -0.286 N 
ATOM     21  N   UNL A   1      33.609  29.168  26.270  1.00  0.00    -0.130 NA
ATOM     22  C   UNL A   1      32.810  29.211  25.232  1.00  0.00     0.160 A 
ATOM     23  C   UNL A   1      32.510  27.695  22.504  1.00  0.00     0.095 A 
ATOM     24  C   UNL A   1      31.167  29.872  24.956  1.00  0.00     0.050 A 
ATOM     25  C   UNL A   1      30.945  28.265  22.352  1.00  0.00     0.019 A 
ATOM     26  C   UNL A   1      30.277  29.437  23.721  1.00  0.00     0.005 A 
ENDBRANCH  17  18
ENDBRANCH   9  10
ENDBRANCH   8   9
ENDBRANCH   6   8
ENDBRANCH   3   4
ENDBRANCH   2   3
ENDBRANCH   1   2
BRANCH   1  27
ATOM     27  C   UNL A   1      44.453  21.942  25.981  1.00  0.00     0.002 C 
BRANCH  27  28
ATOM     28  C   UNL A   1      45.559  23.371  26.389  1.00  0.00     0.021 C 
BRANCH  28  29
ATOM     29  C   UNL A   1      45.054  25.066  26.999  1.00  0.00     0.116 C 
BRANCH  29  30
ATOM     30  N   UNL A   1      43.438  26.088  26.110  1.00  0.00    -0.352 N 
ATOM     31  C   UNL A   1      41.930  25.991  26.006  1.00  0.00     0.251 C 
ATOM     32  H   UNL A   1      43.765  26.870  25.608  1.00  0.00     0.163 HD
ATOM     33  O   UNL A   1      41.367  25.507  25.026  1.00  0.00    -0.269 OA
BRANCH  31  34
ATOM     34  C   UNL A   1      41.120  26.712  27.017  1.00  0.00     0.039 A 
ATOM     35  C   UNL A   1      40.337  26.077  28.002  1.00  0.00     0.014 A 
ATOM     36  C   UNL A   1      41.488  28.041  27.125  1.00  0.00     0.014 A 
ATOM     37  C   UNL A   1      40.084  26.758  29.203  1.00  0.00     0.010 A 
ATOM     38  C   UNL A   1      41.328  28.658  28.344  1.00  0.00     0.010 A 
ATOM     39  C   UNL A   1      40.640  28.030  29.401  1.00  0.00    -0.014 A 
BRANCH  39  40
ATOM     40  C   UNL A   1      40.526  28.803  30.665  1.00  0.00     0.031 A 
ATOM     41  C   UNL A   1      39.477  29.882  30.730  1.00  0.00     0.074 A 
ATOM     42  C   UNL A   1      41.455  28.696  31.638  1.00  0.00     0.049 A 
ATOM     43  N   UNL A   1      39.312  30.829  31.613  1.00  0.00    -0.248 NA
ATOM     44  C   UNL A   1      38.550  29.965  29.584  1.00  0.00     0.031 C 
ATOM     45  C   UNL A   1      42.602  27.784  31.636  1.00  0.00     0.029 A 
ATOM     46  N   UNL A   1      41.598  29.393  32.813  1.00  0.00    -0.354 N 
ATOM     47  C   UNL A   1      38.298  31.628  31.103  1.00  0.00     0.074 A 
ATOM     48  C   UNL A   1      38.004  31.152  29.774  1.00  0.00     0.031 C 
ATOM     49  C   UNL A   1      43.317  27.967  32.761  1.00  0.00     0.029 A 
ATOM     50  C   UNL A   1      42.689  29.012  33.563  1.00  0.00     0.049 A 
ATOM     51  H   UNL A   1      40.977  30.103  33.094  1.00  0.00     0.167 HD
ATOM     52  C   UNL A   1      37.605  32.615  31.716  1.00  0.00     0.037 A 
ATOM     53  C   UNL A   1      43.112  29.446  34.768  1.00  0.00     0.037 A 
ATOM     54  C   UNL A   1      37.862  33.025  33.065  1.00  0.00     0.049 A 
ATOM     55  C   UNL A   1      42.294  30.496  35.479  1.00  0.00     0.074 A 
ATOM     56  C   UNL A   1      37.168  33.931  33.842  1.00  0.00     0.029 A 
ATOM     57  N   UNL A   1      38.900  32.532  33.845  1.00  0.00    -0.354 N 
ATOM     58  N   UNL A   1      41.240  31.151  35.047  1.00  0.00    -0.248 NA
ATOM     59  C   UNL A   1      42.699  30.847  36.846  1.00  0.00     0.031 C 
ATOM     60  C   UNL A   1      37.811  34.012  35.083  1.00  0.00     0.029 A 
ATOM     61  C   UNL A   1      38.875  33.122  35.092  1.00  0.00     0.049 A 
ATOM     62  H   UNL A   1      39.558  31.862  33.550  1.00  0.00     0.167 HD
ATOM     63  C   UNL A   1      40.835  31.963  36.101  1.00  0.00     0.074 A 
ATOM     64  C   UNL A   1      41.753  31.710  37.194  1.00  0.00     0.031 C 
ATOM     65  C   UNL A   1      39.797  32.834  36.164  1.00  0.00     0.037 A 
BRANCH  52  66
ATOM     66  C   UNL A   1      36.487  33.247  30.932  1.00  0.00     0.058 A 
ATOM     67  C   UNL A   1      36.750  34.134  29.871  1.00  0.00     0.135 A 
ATOM     68  C   UNL A   1      35.146  33.024  31.277  1.00  0.00     0.135 A 
ATOM     69  F   UNL A   1      38.015  34.399  29.506  1.00  0.00    -0.206 F 
ATOM     70  C   UNL A   1      35.731  34.837  29.238  1.00  0.00     0.059 A 
ATOM     71  C   UNL A   1      34.107  33.685  30.625  1.00  0.00     0.059 A 
ATOM     72  F   UNL A   1      34.834  32.184  32.276  1.00  0.00    -0.206 F 
ATOM     73  C   UNL A   1      34.413  34.611  29.630  1.00  0.00     0.060 A 
BRANCH  73  74
ATOM     74  S   UNL A   1      33.108  35.563  28.824  1.00  0.00     0.124 S 
ATOM     75  O   UNL A   1      33.882  36.586  28.128  1.00  0.00    -0.237 OA
ATOM     76  O   UNL A   1      32.472  34.562  27.974  1.00  0.00    -0.237 OA
ATOM     77  O   UNL A   1      32.298  36.039  29.941  1.00  0.00    -0.744 OA
ENDBRANCH  73  74
ENDBRANCH  52  66
BRANCH  53  78
ATOM     78  C   UNL A   1      44.298  28.821  35.421  1.00  0.00     0.058 A 
ATOM     79  C   UNL A   1      44.175  27.609  36.119  1.00  0.00     0.135 A 
ATOM     80  C   UNL A   1      45.577  29.394  35.340  1.00  0.00     0.135 A 
ATOM     81  F   UNL A   1      42.975  27.021  36.232  1.00  0.00    -0.206 F 
ATOM     82  C   UNL A   1      45.270  26.993  36.721  1.00  0.00     0.059 A 
ATOM     83  C   UNL A   1      46.691  28.786  35.918  1.00  0.00     0.059 A 
ATOM     84  F   UNL A   1      45.757  30.544  34.672  1.00  0.00    -0.206 F 
ATOM     85  C   UNL A   1      46.527  27.586  36.609  1.00  0.00     0.060 A 
BRANCH  85  86
ATOM     86  S   UNL A   1      47.951  26.734  37.328  1.00  0.00     0.124 S 
ATOM     87  O   UNL A   1      48.967  26.935  36.302  1.00  0.00    -0.237 OA
ATOM     88  O   UNL A   1      48.148  27.470  38.573  1.00  0.00    -0.237 OA
ATOM     89  O   UNL A   1      47.476  25.363  37.488  1.00  0.00    -0.744 OA
ENDBRANCH  85  86
ENDBRANCH  53  78
BRANCH  65  90
ATOM     90  C   UNL A   1      39.570  33.556  37.462  1.00  0.00     0.058 A 
ATOM     91  C   UNL A   1      38.697  33.055  38.438  1.00  0.00     0.135 A 
ATOM     92  C   UNL A   1      40.312  34.709  37.767  1.00  0.00     0.135 A 
ATOM     93  F   UNL A   1      37.964  31.958  38.192  1.00  0.00    -0.206 F 
ATOM     94  C   UNL A   1      38.556  33.682  39.671  1.00  0.00     0.059 A 
ATOM     95  C   UNL A   1      40.210  35.334  39.004  1.00  0.00     0.059 A 
ATOM     96  F   UNL A   1      41.173  35.218  36.871  1.00  0.00    -0.206 F 
ATOM     97  C   UNL A   1      39.322  34.817  39.947  1.00  0.00     0.060 A 
BRANCH  97  98
ATOM     98  S   UNL A   1      39.170  35.586  41.572  1.00  0.00     0.124 S 
ATOM     99  O   UNL A   1      38.064  34.832  42.151  1.00  0.00    -0.237 OA
ATOM    100  O   UNL A   1      40.483  35.337  42.159  1.00  0.00    -0.237 OA
ATOM    101  O   UNL A   1      38.884  36.983  41.261  1.00  0.00    -0.744 OA
ENDBRANCH  97  98
ENDBRANCH  65  90
ENDBRANCH  39  40
ENDBRANCH  31  34
ENDBRANCH  29  30
ENDBRANCH  28  29
ENDBRANCH  27  28
ENDBRANCH   1  27
TORSDOF 19
ENDMDL
MODEL 2
REMARK VINA RESULT:     -12.9      0.974      8.085
REMARK SMILES O=C(CCC(=O)N1CCC(c2nnc3ccccn23)CC1)NCCCCCCNC(=O)c1ccc(-c2c3nc(c(-c4c(F)cc(S(=O)(=O)[O-])cc4F)c4ccc([nH]4)c(-c4c(F)cc(S(=O)(=O)[O-])cc4F)c4nc(c(-c5c(F)cc(S(=O)(=O)[O-])cc5F)c5ccc2[nH]5)C=C4)C=C3)cc1
REMARK SMILES IDX 25 1 24 2 23 3 22 4 1 5 2 6 3 8 4 9 5 10 6 11 7 12 8 13
REMARK SMILES IDX 21 14 9 15 20 16 10 17 11 18 12 19 19 20 13 21 14 22 18 23
REMARK SMILES IDX 15 24 17 25 16 26 26 27 27 28 28 29 29 30 30 31 31 33 32 34
REMARK SMILES IDX 33 35 97 36 34 37 96 38 35 39 36 40 37 41 90 42 38 43 95 44
REMARK SMILES IDX 89 45 91 46 39 47 94 48 88 49 87 50 40 52 74 53 53 54 73 55
REMARK SMILES IDX 54 56 57 57 72 58 92 59 55 60 56 61 71 63 93 64 58 65 41 66
REMARK SMILES IDX 42 67 51 68 43 69 44 70 50 71 52 72 45 73 46 74 47 75 48 76
REMARK SMILES IDX 49 77 75 78 76 79 85 80 77 81 78 82 84 83 86 84 79 85 80 86
REMARK SMILES IDX 81 87 82 88 83 89 59 90 60 91 69 92 61 93 62 94 68 95 70 96
REMARK SMILES IDX 63 97 64 98 65 99 66 100 67 101
REMARK H PARENT 22 7 29 32 91 51 57 62
REMARK Flexibility Score: inf
ROOT
ATOM      1  C   UNL A   1      42.728  21.353  26.097  1.00  0.00     0.002 C 
ENDROOT
BRANCH   1   2
ATOM      2  C   UNL A   1      41.169  21.953  25.949  1.00  0.00     0.021 C 
BRANCH   2   3
ATOM      3  C   UNL A   1      39.966  22.218  26.979  1.00  0.00     0.116 C 
BRANCH   3   4
ATOM      4  N   UNL A   1      38.642  21.880  26.420  1.00  0.00    -0.356 N 
ATOM      5  O   UNL A   1      37.952  23.880  25.478  1.00  0.00    -0.275 OA
ATOM      6  C   UNL A   1      37.871  22.659  25.568  1.00  0.00     0.220 C 
ATOM      7  H   UNL A   1      38.266  21.008  26.680  1.00  0.00     0.163 HD
BRANCH   6   8
ATOM      8  C   UNL A   1      36.927  21.826  24.685  1.00  0.00     0.110 C 
BRANCH   8   9
ATOM      9  C   UNL A   1      35.825  20.987  25.377  1.00  0.00     0.110 C 
BRANCH   9  10
ATOM     10  C   UNL A   1      34.333  21.349  25.151  1.00  0.00     0.223 C 
ATOM     11  O   UNL A   1      33.727  20.889  24.181  1.00  0.00    -0.275 OA
ATOM     12  N   UNL A   1      33.715  22.189  26.089  1.00  0.00    -0.343 N 
ATOM     13  C   UNL A   1      32.322  22.609  26.013  1.00  0.00     0.120 C 
ATOM     14  C   UNL A   1      34.498  23.179  26.738  1.00  0.00     0.120 C 
ATOM     15  C   UNL A   1      32.081  24.193  26.076  1.00  0.00     0.033 C 
ATOM     16  C   UNL A   1      34.453  24.301  25.723  1.00  0.00     0.033 C 
ATOM     17  C   UNL A   1      33.349  25.250  26.055  1.00  0.00     0.062 C 
BRANCH  17  18
ATOM     18  C   UNL A   1      33.686  26.899  25.453  1.00  0.00     0.140 A 
ATOM     19  N   UNL A   1      34.220  27.755  26.338  1.00  0.00    -0.134 NA
ATOM     20  N   UNL A   1      33.459  27.839  24.078  1.00  0.00    -0.286 N 
ATOM     21  N   UNL A   1      33.762  29.055  26.206  1.00  0.00    -0.130 NA
ATOM     22  C   UNL A   1      32.919  29.111  25.204  1.00  0.00     0.160 A 
ATOM     23  C   UNL A   1      32.475  27.601  22.493  1.00  0.00     0.095 A 
ATOM     24  C   UNL A   1      31.277  29.800  25.000  1.00  0.00     0.050 A 
ATOM     25  C   UNL A   1      30.915  28.197  22.409  1.00  0.00     0.019 A 
ATOM     26  C   UNL A   1      30.327  29.380  23.805  1.00  0.00     0.005 A 
ENDBRANCH  17  18
ENDBRANCH   9  10
ENDBRANCH   8   9
ENDBRANCH   6   8
ENDBRANCH   3   4
ENDBRANCH   2   3
ENDBRANCH   1   2
BRANCH   1  27
ATOM     27  C   UNL A   1      44.440  21.815  26.140  1.00  0.00     0.002 C 
BRANCH  27  28
ATOM     28  C   UNL A   1      45.634  22.887  25.214  1.00  0.00     0.021 C 
BRANCH  28  29
ATOM     29  C   UNL A   1      45.433  24.691  24.763  1.00  0.00     0.116 C 
BRANCH  29  30
ATOM     30  N   UNL A   1      43.726  25.766  25.377  1.00  0.00    -0.352 N 
ATOM     31  C   UNL A   1      42.605  25.669  26.390  1.00  0.00     0.251 C 
ATOM     32  H   UNL A   1      43.628  26.585  24.838  1.00  0.00     0.163 HD
ATOM     33  O   UNL A   1      41.485  25.256  26.095  1.00  0.00    -0.269 OA
BRANCH  31  34
ATOM     34  C   UNL A   1      42.811  26.309  27.711  1.00  0.00     0.039 A 
ATOM     35  C   UNL A   1      43.756  27.324  27.960  1.00  0.00     0.014 A 
ATOM     36  C   UNL A   1      41.756  26.071  28.573  1.00  0.00     0.014 A 
ATOM     37  C   UNL A   1      43.513  28.230  29.004  1.00  0.00     0.010 A 
ATOM     38  C   UNL A   1      41.470  27.023  29.523  1.00  0.00     0.010 A 
ATOM     39  C   UNL A   1      42.329  28.118  29.748  1.00  0.00    -0.014 A 
BRANCH  39  40
ATOM     40  C   UNL A   1      41.916  29.074  30.807  1.00  0.00     0.031 A 
ATOM     41  C   UNL A   1      42.625  28.994  32.134  1.00  0.00     0.074 A 
ATOM     42  C   UNL A   1      40.813  29.839  30.670  1.00  0.00     0.049 A 
ATOM     43  N   UNL A   1      42.321  29.551  33.274  1.00  0.00    -0.248 NA
ATOM     44  C   UNL A   1      43.778  28.074  32.206  1.00  0.00     0.031 C 
ATOM     45  C   UNL A   1      39.955  29.907  29.483  1.00  0.00     0.029 A 
ATOM     46  N   UNL A   1      40.201  30.688  31.560  1.00  0.00    -0.354 N 
ATOM     47  C   UNL A   1      43.217  29.016  34.190  1.00  0.00     0.074 A 
ATOM     48  C   UNL A   1      43.959  27.982  33.511  1.00  0.00     0.031 C 
ATOM     49  C   UNL A   1      38.943  30.763  29.714  1.00  0.00     0.029 A 
ATOM     50  C   UNL A   1      39.071  31.300  31.065  1.00  0.00     0.049 A 
ATOM     51  H   UNL A   1      40.540  30.844  32.471  1.00  0.00     0.167 HD
ATOM     52  C   UNL A   1      43.469  29.407  35.460  1.00  0.00     0.037 A 
ATOM     53  C   UNL A   1      38.251  32.207  31.636  1.00  0.00     0.037 A 
ATOM     54  C   UNL A   1      42.772  30.487  36.094  1.00  0.00     0.049 A 
ATOM     55  C   UNL A   1      38.578  32.694  33.027  1.00  0.00     0.074 A 
ATOM     56  C   UNL A   1      43.000  31.057  37.331  1.00  0.00     0.029 A 
ATOM     57  N   UNL A   1      41.708  31.172  35.520  1.00  0.00    -0.354 N 
ATOM     58  N   UNL A   1      39.526  32.285  33.840  1.00  0.00    -0.248 NA
ATOM     59  C   UNL A   1      37.752  33.781  33.567  1.00  0.00     0.031 C 
ATOM     60  C   UNL A   1      42.048  32.066  37.520  1.00  0.00     0.029 A 
ATOM     61  C   UNL A   1      41.260  32.154  36.381  1.00  0.00     0.049 A 
ATOM     62  H   UNL A   1      41.330  30.984  34.631  1.00  0.00     0.167 HD
ATOM     63  C   UNL A   1      39.431  33.087  34.972  1.00  0.00     0.074 A 
ATOM     64  C   UNL A   1      38.340  34.012  34.734  1.00  0.00     0.031 C 
ATOM     65  C   UNL A   1      40.179  33.069  36.104  1.00  0.00     0.037 A 
BRANCH  52  66
ATOM     66  C   UNL A   1      44.575  28.690  36.185  1.00  0.00     0.058 A 
ATOM     67  C   UNL A   1      44.305  27.593  37.026  1.00  0.00     0.135 A 
ATOM     68  C   UNL A   1      45.903  29.133  36.098  1.00  0.00     0.135 A 
ATOM     69  F   UNL A   1      43.050  27.134  37.161  1.00  0.00    -0.206 F 
ATOM     70  C   UNL A   1      45.295  27.017  37.814  1.00  0.00     0.059 A 
ATOM     71  C   UNL A   1      46.918  28.541  36.846  1.00  0.00     0.059 A 
ATOM     72  F   UNL A   1      46.221  30.169  35.308  1.00  0.00    -0.206 F 
ATOM     73  C   UNL A   1      46.597  27.505  37.723  1.00  0.00     0.060 A 
BRANCH  73  74
ATOM     74  S   UNL A   1      47.859  26.772  38.784  1.00  0.00     0.124 S 
ATOM     75  O   UNL A   1      49.008  26.734  37.885  1.00  0.00    -0.237 OA
ATOM     76  O   UNL A   1      47.944  27.735  39.878  1.00  0.00    -0.237 OA
ATOM     77  O   UNL A   1      47.293  25.474  39.137  1.00  0.00    -0.744 OA
ENDBRANCH  73  74
ENDBRANCH  52  66
BRANCH  53  78
ATOM     78  C   UNL A   1      37.115  32.788  30.864  1.00  0.00     0.058 A 
ATOM     79  C   UNL A   1      35.794  32.392  31.128  1.00  0.00     0.135 A 
ATOM     80  C   UNL A   1      37.313  33.764  29.875  1.00  0.00     0.135 A 
ATOM     81  F   UNL A   1      35.548  31.459  32.058  1.00  0.00    -0.206 F 
ATOM     82  C   UNL A   1      34.712  32.933  30.436  1.00  0.00     0.059 A 
ATOM     83  C   UNL A   1      36.245  34.334  29.183  1.00  0.00     0.059 A 
ATOM     84  F   UNL A   1      38.553  34.191  29.592  1.00  0.00    -0.206 F 
ATOM     85  C   UNL A   1      34.948  33.910  29.469  1.00  0.00     0.060 A 
BRANCH  85  86
ATOM     86  S   UNL A   1      33.528  34.659  28.636  1.00  0.00     0.124 S 
ATOM     87  O   UNL A   1      33.201  33.647  27.638  1.00  0.00    -0.237 OA
ATOM     88  O   UNL A   1      32.575  34.804  29.733  1.00  0.00    -0.237 OA
ATOM     89  O   UNL A   1      34.066  35.912  28.114  1.00  0.00    -0.744 OA
ENDBRANCH  85  86
ENDBRANCH  53  78
BRANCH  65  90
ATOM     90  C   UNL A   1      39.874  34.094  37.159  1.00  0.00     0.058 A 
ATOM     91  C   UNL A   1      39.070  33.791  38.267  1.00  0.00     0.135 A 
ATOM     92  C   UNL A   1      40.475  35.362  37.104  1.00  0.00     0.135 A 
ATOM     93  F   UNL A   1      38.472  32.593  38.362  1.00  0.00    -0.206 F 
ATOM     94  C   UNL A   1      38.862  34.717  39.282  1.00  0.00     0.059 A 
ATOM     95  C   UNL A   1      40.305  36.292  38.123  1.00  0.00     0.059 A 
ATOM     96  F   UNL A   1      41.265  35.694  36.071  1.00  0.00    -0.206 F 
ATOM     97  C   UNL A   1      39.488  35.963  39.205  1.00  0.00     0.060 A 
BRANCH  97  98
ATOM     98  S   UNL A   1      39.254  37.133  40.556  1.00  0.00     0.124 S 
ATOM     99  O   UNL A   1      38.488  38.188  39.901  1.00  0.00    -0.237 OA
ATOM    100  O   UNL A   1      38.524  36.336  41.537  1.00  0.00    -0.237 OA
ATOM    101  O   UNL A   1      40.616  37.491  40.937  1.00  0.00    -0.744 OA
ENDBRANCH  97  98
ENDBRANCH  65  90
ENDBRANCH  39  40
ENDBRANCH  31  34
ENDBRANCH  29  30
ENDBRANCH  28  29
ENDBRANCH  27  28
ENDBRANCH   1  27
TORSDOF 19
ENDMDL
MODEL 3
REMARK VINA RESULT:     -12.9      2.204      4.366
REMARK SMILES O=C(CCC(=O)N1CCC(c2nnc3ccccn23)CC1)NCCCCCCNC(=O)c1ccc(-c2c3nc(c(-c4c(F)cc(S(=O)(=O)[O-])cc4F)c4ccc([nH]4)c(-c4c(F)cc(S(=O)(=O)[O-])cc4F)c4nc(c(-c5c(F)cc(S(=O)(=O)[O-])cc5F)c5ccc2[nH]5)C=C4)C=C3)cc1
REMARK SMILES IDX 25 1 24 2 23 3 22 4 1 5 2 6 3 8 4 9 5 10 6 11 7 12 8 13
REMARK SMILES IDX 21 14 9 15 20 16 10 17 11 18 12 19 19 20 13 21 14 22 18 23
REMARK SMILES IDX 15 24 17 25 16 26 26 27 27 28 28 29 29 30 30 31 31 33 32 34
REMARK SMILES IDX 33 35 97 36 34 37 96 38 35 39 36 40 37 41 90 42 38 43 95 44
REMARK SMILES IDX 89 45 91 46 39 47 94 48 88 49 87 50 40 52 74 53 53 54 73 55
REMARK SMILES IDX 54 56 57 57 72 58 92 59 55 60 56 61 71 63 93 64 58 65 41 66
REMARK SMILES IDX 42 67 51 68 43 69 44 70 50 71 52 72 45 73 46 74 47 75 48 76
REMARK SMILES IDX 49 77 75 78 76 79 85 80 77 81 78 82 84 83 86 84 79 85 80 86
REMARK SMILES IDX 81 87 82 88 83 89 59 90 60 91 69 92 61 93 62 94 68 95 70 96
REMARK SMILES IDX 63 97 64 98 65 99 66 100 67 101
REMARK H PARENT 22 7 29 32 91 51 57 62
REMARK Flexibility Score: inf
ROOT
ATOM      1  C   UNL A   1      38.702  28.664  28.002  1.00  0.00     0.002 C 
ENDROOT
BRANCH   1   2
ATOM      2  C   UNL A   1      37.439  29.743  27.770  1.00  0.00     0.021 C 
BRANCH   2   3
ATOM      3  C   UNL A   1      35.858  29.695  28.045  1.00  0.00     0.116 C 
BRANCH   3   4
ATOM      4  N   UNL A   1      35.054  29.924  26.828  1.00  0.00    -0.356 N 
ATOM      5  O   UNL A   1      34.223  27.815  26.353  1.00  0.00    -0.275 OA
ATOM      6  C   UNL A   1      34.170  29.035  26.231  1.00  0.00     0.220 C 
ATOM      7  H   UNL A   1      35.154  30.802  26.395  1.00  0.00     0.163 HD
BRANCH   6   8
ATOM      8  C   UNL A   1      33.059  29.739  25.434  1.00  0.00     0.110 C 
BRANCH   8   9
ATOM      9  C   UNL A   1      32.381  28.963  24.279  1.00  0.00     0.110 C 
BRANCH   9  10
ATOM     10  C   UNL A   1      31.233  27.968  24.596  1.00  0.00     0.223 C 
ATOM     11  O   UNL A   1      30.710  27.966  25.712  1.00  0.00    -0.275 OA
ATOM     12  N   UNL A   1      30.815  27.106  23.572  1.00  0.00    -0.343 N 
ATOM     13  C   UNL A   1      29.747  26.124  23.719  1.00  0.00     0.120 C 
ATOM     14  C   UNL A   1      31.771  26.660  22.622  1.00  0.00     0.120 C 
ATOM     15  C   UNL A   1      30.141  24.621  23.323  1.00  0.00     0.033 C 
ATOM     16  C   UNL A   1      32.382  25.482  23.349  1.00  0.00     0.033 C 
ATOM     17  C   UNL A   1      31.696  24.218  22.945  1.00  0.00     0.062 C 
BRANCH  17  18
ATOM     18  C   UNL A   1      32.772  22.799  23.105  1.00  0.00     0.140 A 
ATOM     19  N   UNL A   1      32.231  21.609  22.803  1.00  0.00    -0.134 NA
ATOM     20  N   UNL A   1      34.318  22.410  23.635  1.00  0.00    -0.286 N 
ATOM     21  N   UNL A   1      32.667  20.573  23.612  1.00  0.00    -0.130 NA
ATOM     22  C   UNL A   1      33.540  21.041  24.471  1.00  0.00     0.160 A 
ATOM     23  C   UNL A   1      35.647  23.360  24.567  1.00  0.00     0.095 A 
ATOM     24  C   UNL A   1      33.736  20.894  26.247  1.00  0.00     0.050 A 
ATOM     25  C   UNL A   1      35.713  23.240  26.234  1.00  0.00     0.019 A 
ATOM     26  C   UNL A   1      34.645  21.885  27.082  1.00  0.00     0.005 A 
ENDBRANCH  17  18
ENDBRANCH   9  10
ENDBRANCH   8   9
ENDBRANCH   6   8
ENDBRANCH   3   4
ENDBRANCH   2   3
ENDBRANCH   1   2
BRANCH   1  27
ATOM     27  C   UNL A   1      39.094  27.001  28.478  1.00  0.00     0.002 C 
BRANCH  27  28
ATOM     28  C   UNL A   1      39.616  25.399  27.707  1.00  0.00     0.021 C 
BRANCH  28  29
ATOM     29  C   UNL A   1      40.888  25.144  26.359  1.00  0.00     0.116 C 
BRANCH  29  30
ATOM     30  N   UNL A   1      42.763  26.104  26.459  1.00  0.00    -0.352 N 
ATOM     31  C   UNL A   1      43.342  27.503  26.493  1.00  0.00     0.251 C 
ATOM     32  H   UNL A   1      43.486  25.436  26.495  1.00  0.00     0.163 HD
ATOM     33  O   UNL A   1      43.801  28.051  25.493  1.00  0.00    -0.269 OA
BRANCH  31  34
ATOM     34  C   UNL A   1      43.564  28.126  27.820  1.00  0.00     0.039 A 
ATOM     35  C   UNL A   1      43.847  29.493  28.014  1.00  0.00     0.014 A 
ATOM     36  C   UNL A   1      43.116  27.323  28.853  1.00  0.00     0.014 A 
ATOM     37  C   UNL A   1      43.490  30.089  29.233  1.00  0.00     0.010 A 
ATOM     38  C   UNL A   1      42.672  27.935  30.001  1.00  0.00     0.010 A 
ATOM     39  C   UNL A   1      42.838  29.320  30.208  1.00  0.00    -0.014 A 
BRANCH  39  40
ATOM     40  C   UNL A   1      42.323  29.861  31.492  1.00  0.00     0.031 A 
ATOM     41  C   UNL A   1      40.993  30.569  31.466  1.00  0.00     0.074 A 
ATOM     42  C   UNL A   1      43.099  29.910  32.595  1.00  0.00     0.049 A 
ATOM     43  N   UNL A   1      40.427  31.307  32.382  1.00  0.00    -0.248 NA
ATOM     44  C   UNL A   1      40.249  30.519  30.192  1.00  0.00     0.031 C 
ATOM     45  C   UNL A   1      44.461  29.382  32.711  1.00  0.00     0.029 A 
ATOM     46  N   UNL A   1      42.861  30.466  33.828  1.00  0.00    -0.354 N 
ATOM     47  C   UNL A   1      39.293  31.832  31.774  1.00  0.00     0.074 A 
ATOM     48  C   UNL A   1      39.342  31.461  30.381  1.00  0.00     0.031 C 
ATOM     49  C   UNL A   1      44.927  29.624  33.950  1.00  0.00     0.029 A 
ATOM     50  C   UNL A   1      43.905  30.330  34.715  1.00  0.00     0.049 A 
ATOM     51  H   UNL A   1      42.019  30.922  34.057  1.00  0.00     0.167 HD
ATOM     52  C   UNL A   1      38.254  32.488  32.339  1.00  0.00     0.037 A 
ATOM     53  C   UNL A   1      44.008  30.716  36.004  1.00  0.00     0.037 A 
ATOM     54  C   UNL A   1      38.188  32.783  33.740  1.00  0.00     0.049 A 
ATOM     55  C   UNL A   1      42.818  31.383  36.650  1.00  0.00     0.074 A 
ATOM     56  C   UNL A   1      37.151  33.341  34.459  1.00  0.00     0.029 A 
ATOM     57  N   UNL A   1      39.214  32.522  34.640  1.00  0.00    -0.354 N 
ATOM     58  N   UNL A   1      41.681  31.748  36.102  1.00  0.00    -0.248 NA
ATOM     59  C   UNL A   1      42.907  31.663  38.089  1.00  0.00     0.031 C 
ATOM     60  C   UNL A   1      37.564  33.452  35.793  1.00  0.00     0.029 A 
ATOM     61  C   UNL A   1      38.840  32.919  35.909  1.00  0.00     0.049 A 
ATOM     62  H   UNL A   1      40.080  32.117  34.407  1.00  0.00     0.167 HD
ATOM     63  C   UNL A   1      40.908  32.268  37.134  1.00  0.00     0.074 A 
ATOM     64  C   UNL A   1      41.704  32.161  38.342  1.00  0.00     0.031 C 
ATOM     65  C   UNL A   1      39.653  32.782  37.093  1.00  0.00     0.037 A 
BRANCH  52  66
ATOM     66  C   UNL A   1      37.111  32.857  31.433  1.00  0.00     0.058 A 
ATOM     67  C   UNL A   1      35.981  32.027  31.308  1.00  0.00     0.135 A 
ATOM     68  C   UNL A   1      37.165  34.007  30.632  1.00  0.00     0.135 A 
ATOM     69  F   UNL A   1      35.880  30.903  32.037  1.00  0.00    -0.206 F 
ATOM     70  C   UNL A   1      34.989  32.280  30.367  1.00  0.00     0.059 A 
ATOM     71  C   UNL A   1      36.161  34.303  29.714  1.00  0.00     0.059 A 
ATOM     72  F   UNL A   1      38.215  34.839  30.713  1.00  0.00    -0.206 F 
ATOM     73  C   UNL A   1      35.094  33.416  29.568  1.00  0.00     0.060 A 
BRANCH  73  74
ATOM     74  S   UNL A   1      33.819  33.706  28.324  1.00  0.00     0.124 S 
ATOM     75  O   UNL A   1      33.485  32.342  27.927  1.00  0.00    -0.237 OA
ATOM     76  O   UNL A   1      32.794  34.412  29.087  1.00  0.00    -0.237 OA
ATOM     77  O   UNL A   1      34.507  34.505  27.314  1.00  0.00    -0.744 OA
ENDBRANCH  73  74
ENDBRANCH  52  66
BRANCH  53  78
ATOM     78  C   UNL A   1      45.230  30.389  36.794  1.00  0.00     0.058 A 
ATOM     79  C   UNL A   1      45.362  29.142  37.427  1.00  0.00     0.135 A 
ATOM     80  C   UNL A   1      46.300  31.290  36.911  1.00  0.00     0.135 A 
ATOM     81  F   UNL A   1      44.367  28.246  37.353  1.00  0.00    -0.206 F 
ATOM     82  C   UNL A   1      46.500  28.803  38.154  1.00  0.00     0.059 A 
ATOM     83  C   UNL A   1      47.458  30.966  37.617  1.00  0.00     0.059 A 
ATOM     84  F   UNL A   1      46.236  32.490  36.314  1.00  0.00    -0.206 F 
ATOM     85  C   UNL A   1      47.548  29.720  38.237  1.00  0.00     0.060 A 
BRANCH  85  86
ATOM     86  S   UNL A   1      49.051  29.234  39.118  1.00  0.00     0.124 S 
ATOM     87  O   UNL A   1      48.601  29.248  40.504  1.00  0.00    -0.237 OA
ATOM     88  O   UNL A   1      49.324  27.917  38.548  1.00  0.00    -0.237 OA
ATOM     89  O   UNL A   1      50.007  30.276  38.752  1.00  0.00    -0.744 OA
ENDBRANCH  85  86
ENDBRANCH  53  78
BRANCH  65  90
ATOM     90  C   UNL A   1      39.043  33.237  38.388  1.00  0.00     0.058 A 
ATOM     91  C   UNL A   1      38.109  32.450  39.077  1.00  0.00     0.135 A 
ATOM     92  C   UNL A   1      39.473  34.431  38.989  1.00  0.00     0.135 A 
ATOM     93  F   UNL A   1      37.664  31.303  38.541  1.00  0.00    -0.206 F 
ATOM     94  C   UNL A   1      37.612  32.837  40.316  1.00  0.00     0.059 A 
ATOM     95  C   UNL A   1      39.013  34.823  40.241  1.00  0.00     0.059 A 
ATOM     96  F   UNL A   1      40.377  35.211  38.375  1.00  0.00    -0.206 F 
ATOM     97  C   UNL A   1      38.075  34.022  40.893  1.00  0.00     0.060 A 
BRANCH  97  98
ATOM     98  S   UNL A   1      37.464  34.484  42.526  1.00  0.00     0.124 S 
ATOM     99  O   UNL A   1      36.021  34.387  42.337  1.00  0.00    -0.237 OA
ATOM    100  O   UNL A   1      38.061  33.464  43.382  1.00  0.00    -0.237 OA
ATOM    101  O   UNL A   1      37.984  35.835  42.715  1.00  0.00    -0.744 OA
ENDBRANCH  97  98
ENDBRANCH  65  90
ENDBRANCH  39  40
ENDBRANCH  31  34
ENDBRANCH  29  30
ENDBRANCH  28  29
ENDBRANCH  27  28
ENDBRANCH   1  27
TORSDOF 19
ENDMDL
