MODEL 1
REMARK VINA RESULT:     -11.0      0.000      0.000
REMARK SMILES CCOc1oc(C[C@H]2CCCCO2)nc1C(=O)NCCCCCCNC(=O)c1ccc(-c2c3nc(c(-c4c(F)cc(S(=O)(=O)[O-])cc4F)c4ccc([nH]4)c(-c4c(F)cc(S(=O)(=O)[O-])cc4F)c4nc(c(-c5c(F)cc(S(=O)(=O)[O-])cc5F)c5ccc2[nH]5)C=C4)C=C3)cc1
REMARK SMILES IDX 22 1 21 2 20 3 19 4 18 5 16 6 17 7 15 9 4 10 5 11 6 12 14 13
REMARK SMILES IDX 3 14 2 15 1 16 7 17 8 18 9 19 13 20 10 21 12 22 11 23 23 24
REMARK SMILES IDX 24 25 25 26 26 27 27 29 28 30 29 31 93 32 30 33 92 34 31 35
REMARK SMILES IDX 32 36 33 37 86 38 34 39 91 40 85 41 87 42 35 43 90 44 84 45
REMARK SMILES IDX 83 46 36 48 70 49 49 50 69 51 50 52 53 53 68 54 88 55 51 56
REMARK SMILES IDX 52 57 67 59 89 60 54 61 37 62 38 63 47 64 39 65 40 66 46 67
REMARK SMILES IDX 48 68 41 69 42 70 43 71 44 72 45 73 71 74 72 75 81 76 73 77
REMARK SMILES IDX 74 78 80 79 82 80 75 81 76 82 77 83 78 84 79 85 55 86 56 87
REMARK SMILES IDX 65 88 57 89 58 90 64 91 66 92 59 93 60 94 61 95 62 96 63 97
REMARK H PARENT 18 8 25 28 87 47 53 58
REMARK Flexibility Score: inf
ROOT
ATOM      1  C   UNL A   1      37.815  24.119  26.261  1.00  0.00     0.002 C 
ENDROOT
BRANCH   1   2
ATOM      2  C   UNL A   1      36.744  23.832  25.206  1.00  0.00     0.002 C 
BRANCH   2   3
ATOM      3  C   UNL A   1      35.328  23.612  25.742  1.00  0.00     0.021 C 
BRANCH   3   4
ATOM      4  C   UNL A   1      34.362  24.778  25.546  1.00  0.00     0.116 C 
BRANCH   4   5
ATOM      5  N   UNL A   1      33.090  24.574  26.216  1.00  0.00    -0.350 N 
ATOM      6  C   UNL A   1      31.960  25.356  26.245  1.00  0.00     0.277 C 
ATOM      7  O   UNL A   1      30.994  24.934  26.882  1.00  0.00    -0.267 OA
ATOM      8  H   UNL A   1      33.027  23.739  26.732  1.00  0.00     0.163 HD
BRANCH   6   9
ATOM      9  C   UNL A   1      31.954  26.644  25.572  1.00  0.00     0.212 A 
ATOM     10  C   UNL A   1      32.431  27.837  26.076  1.00  0.00     0.318 A 
ATOM     11  O   UNL A   1      32.255  28.809  25.129  1.00  0.00    -0.409 OA
ATOM     12  C   UNL A   1      31.637  28.158  24.098  1.00  0.00     0.202 A 
ATOM     13  N   UNL A   1      31.428  26.880  24.314  1.00  0.00    -0.204 NA
BRANCH  10  14
ATOM     14  O   UNL A   1      32.946  28.263  27.223  1.00  0.00    -0.464 OA
BRANCH  14  15
ATOM     15  C   UNL A   1      34.191  28.949  27.105  1.00  0.00     0.230 C 
ATOM     16  C   UNL A   1      34.050  30.432  27.411  1.00  0.00     0.049 C 
ENDBRANCH  14  15
ENDBRANCH  10  14
BRANCH  12  17
ATOM     17  C   UNL A   1      31.301  28.926  22.875  1.00  0.00     0.129 C 
BRANCH  17  18
ATOM     18  C   UNL A   1      29.859  29.437  22.861  1.00  0.00     0.127 C 
ATOM     19  C   UNL A   1      29.665  30.627  23.810  1.00  0.00     0.033 C 
ATOM     20  O   UNL A   1      29.566  29.851  21.515  1.00  0.00    -0.378 OA
ATOM     21  C   UNL A   1      28.269  31.222  23.670  1.00  0.00     0.005 C 
ATOM     22  C   UNL A   1      28.215  30.279  21.355  1.00  0.00     0.160 C 
ATOM     23  C   UNL A   1      27.951  31.510  22.208  1.00  0.00     0.029 C 
ENDBRANCH  17  18
ENDBRANCH  12  17
ENDBRANCH   6   9
ENDBRANCH   4   5
ENDBRANCH   3   4
ENDBRANCH   2   3
ENDBRANCH   1   2
BRANCH   1  24
ATOM     24  C   UNL A   1      38.902  23.054  26.413  1.00  0.00     0.021 C 
BRANCH  24  25
ATOM     25  C   UNL A   1      40.242  23.566  26.919  1.00  0.00     0.116 C 
BRANCH  25  26
ATOM     26  N   UNL A   1      40.949  24.341  25.913  1.00  0.00    -0.352 N 
ATOM     27  C   UNL A   1      41.335  25.658  25.951  1.00  0.00     0.251 C 
ATOM     28  H   UNL A   1      41.181  23.855  25.089  1.00  0.00     0.163 HD
ATOM     29  O   UNL A   1      41.754  26.204  24.935  1.00  0.00    -0.269 OA
BRANCH  27  30
ATOM     30  C   UNL A   1      41.228  26.419  27.215  1.00  0.00     0.039 A 
ATOM     31  C   UNL A   1      42.129  27.459  27.457  1.00  0.00     0.014 A 
ATOM     32  C   UNL A   1      40.244  26.110  28.159  1.00  0.00     0.014 A 
ATOM     33  C   UNL A   1      42.007  28.225  28.619  1.00  0.00     0.010 A 
ATOM     34  C   UNL A   1      40.077  26.919  29.279  1.00  0.00     0.010 A 
ATOM     35  C   UNL A   1      40.961  27.980  29.525  1.00  0.00    -0.014 A 
BRANCH  35  36
ATOM     36  C   UNL A   1      40.781  28.819  30.738  1.00  0.00     0.031 A 
ATOM     37  C   UNL A   1      39.720  29.888  30.764  1.00  0.00     0.074 A 
ATOM     38  C   UNL A   1      41.609  28.662  31.788  1.00  0.00     0.049 A 
ATOM     39  N   UNL A   1      39.455  30.765  31.697  1.00  0.00    -0.248 NA
ATOM     40  C   UNL A   1      38.862  30.001  29.573  1.00  0.00     0.031 C 
ATOM     41  C   UNL A   1      42.705  27.693  31.865  1.00  0.00     0.029 A 
ATOM     42  N   UNL A   1      41.669  29.323  32.991  1.00  0.00    -0.354 N 
ATOM     43  C   UNL A   1      38.413  31.542  31.202  1.00  0.00     0.074 A 
ATOM     44  C   UNL A   1      38.131  31.067  29.865  1.00  0.00     0.031 C 
ATOM     45  C   UNL A   1      43.313  27.808  33.057  1.00  0.00     0.029 A 
ATOM     46  C   UNL A   1      42.679  28.883  33.814  1.00  0.00     0.049 A 
ATOM     47  H   UNL A   1      41.045  30.043  33.241  1.00  0.00     0.167 HD
ATOM     48  C   UNL A   1      37.737  32.544  31.815  1.00  0.00     0.037 A 
ATOM     49  C   UNL A   1      43.058  29.304  35.037  1.00  0.00     0.037 A 
ATOM     50  C   UNL A   1      38.008  32.994  33.156  1.00  0.00     0.049 A 
ATOM     51  C   UNL A   1      42.295  30.421  35.697  1.00  0.00     0.074 A 
ATOM     52  C   UNL A   1      37.344  33.963  33.888  1.00  0.00     0.029 A 
ATOM     53  N   UNL A   1      39.025  32.510  33.965  1.00  0.00    -0.354 N 
ATOM     54  N   UNL A   1      41.271  31.103  35.239  1.00  0.00    -0.248 NA
ATOM     55  C   UNL A   1      42.731  30.822  37.040  1.00  0.00     0.031 C 
ATOM     56  C   UNL A   1      37.988  34.097  35.122  1.00  0.00     0.029 A 
ATOM     57  C   UNL A   1      39.021  33.174  35.181  1.00  0.00     0.049 A 
ATOM     58  H   UNL A   1      39.658  31.799  33.713  1.00  0.00     0.167 HD
ATOM     59  C   UNL A   1      40.923  31.992  36.249  1.00  0.00     0.074 A 
ATOM     60  C   UNL A   1      41.839  31.754  37.346  1.00  0.00     0.031 C 
ATOM     61  C   UNL A   1      39.934  32.920  36.267  1.00  0.00     0.037 A 
BRANCH  48  62
ATOM     62  C   UNL A   1      36.638  33.219  31.041  1.00  0.00     0.058 A 
ATOM     63  C   UNL A   1      36.914  34.090  29.975  1.00  0.00     0.135 A 
ATOM     64  C   UNL A   1      35.290  32.968  31.348  1.00  0.00     0.135 A 
ATOM     65  F   UNL A   1      38.183  34.378  29.647  1.00  0.00    -0.206 F 
ATOM     66  C   UNL A   1      35.895  34.713  29.260  1.00  0.00     0.059 A 
ATOM     67  C   UNL A   1      34.254  33.557  30.627  1.00  0.00     0.059 A 
ATOM     68  F   UNL A   1      34.968  32.144  32.356  1.00  0.00    -0.206 F 
ATOM     69  C   UNL A   1      34.568  34.441  29.595  1.00  0.00     0.060 A 
BRANCH  69  70
ATOM     70  S   UNL A   1      33.258  35.256  28.658  1.00  0.00     0.124 S 
ATOM     71  O   UNL A   1      34.032  36.101  27.753  1.00  0.00    -0.237 OA
ATOM     72  O   UNL A   1      32.569  34.129  28.038  1.00  0.00    -0.237 OA
ATOM     73  O   UNL A   1      32.498  35.966  29.682  1.00  0.00    -0.744 OA
ENDBRANCH  69  70
ENDBRANCH  48  62
BRANCH  49  74
ATOM     74  C   UNL A   1      44.204  28.652  35.725  1.00  0.00     0.058 A 
ATOM     75  C   UNL A   1      44.001  27.580  36.607  1.00  0.00     0.135 A 
ATOM     76  C   UNL A   1      45.524  29.074  35.505  1.00  0.00     0.135 A 
ATOM     77  F   UNL A   1      42.756  27.143  36.855  1.00  0.00    -0.206 F 
ATOM     78  C   UNL A   1      45.061  26.961  37.260  1.00  0.00     0.059 A 
ATOM     79  C   UNL A   1      46.604  28.453  36.125  1.00  0.00     0.059 A 
ATOM     80  F   UNL A   1      45.775  30.084  34.657  1.00  0.00    -0.206 F 
ATOM     81  C   UNL A   1      46.361  27.403  37.010  1.00  0.00     0.060 A 
BRANCH  81  82
ATOM     82  S   UNL A   1      47.735  26.562  37.825  1.00  0.00     0.124 S 
ATOM     83  O   UNL A   1      48.828  27.502  37.605  1.00  0.00    -0.237 OA
ATOM     84  O   UNL A   1      47.254  26.451  39.199  1.00  0.00    -0.237 OA
ATOM     85  O   UNL A   1      47.833  25.299  37.100  1.00  0.00    -0.744 OA
ENDBRANCH  81  82
ENDBRANCH  49  74
BRANCH  61  86
ATOM     86  C   UNL A   1      39.762  33.726  37.526  1.00  0.00     0.058 A 
ATOM     87  C   UNL A   1      40.398  34.964  37.705  1.00  0.00     0.135 A 
ATOM     88  C   UNL A   1      38.903  33.276  38.543  1.00  0.00     0.135 A 
ATOM     89  F   UNL A   1      41.235  35.436  36.767  1.00  0.00    -0.206 F 
ATOM     90  C   UNL A   1      40.206  35.718  38.858  1.00  0.00     0.059 A 
ATOM     91  C   UNL A   1      38.674  34.028  39.690  1.00  0.00     0.059 A 
ATOM     92  F   UNL A   1      38.261  32.104  38.417  1.00  0.00    -0.206 F 
ATOM     93  C   UNL A   1      39.339  35.243  39.844  1.00  0.00     0.060 A 
BRANCH  93  94
ATOM     94  S   UNL A   1      39.069  36.250  41.317  1.00  0.00     0.124 S 
ATOM     95  O   UNL A   1      40.328  36.067  42.033  1.00  0.00    -0.237 OA
ATOM     96  O   UNL A   1      38.849  37.578  40.752  1.00  0.00    -0.237 OA
ATOM     97  O   UNL A   1      37.899  35.638  41.939  1.00  0.00    -0.744 OA
ENDBRANCH  93  94
ENDBRANCH  61  86
ENDBRANCH  35  36
ENDBRANCH  27  30
ENDBRANCH  25  26
ENDBRANCH  24  25
ENDBRANCH   1  24
TORSDOF 20
ENDMDL
MODEL 2
REMARK VINA RESULT:     -11.0      5.121      9.612
REMARK SMILES CCOc1oc(C[C@H]2CCCCO2)nc1C(=O)NCCCCCCNC(=O)c1ccc(-c2c3nc(c(-c4c(F)cc(S(=O)(=O)[O-])cc4F)c4ccc([nH]4)c(-c4c(F)cc(S(=O)(=O)[O-])cc4F)c4nc(c(-c5c(F)cc(S(=O)(=O)[O-])cc5F)c5ccc2[nH]5)C=C4)C=C3)cc1
REMARK SMILES IDX 22 1 21 2 20 3 19 4 18 5 16 6 17 7 15 9 4 10 5 11 6 12 14 13
REMARK SMILES IDX 3 14 2 15 1 16 7 17 8 18 9 19 13 20 10 21 12 22 11 23 23 24
REMARK SMILES IDX 24 25 25 26 26 27 27 29 28 30 29 31 93 32 30 33 92 34 31 35
REMARK SMILES IDX 32 36 33 37 86 38 34 39 91 40 85 41 87 42 35 43 90 44 84 45
REMARK SMILES IDX 83 46 36 48 70 49 49 50 69 51 50 52 53 53 68 54 88 55 51 56
REMARK SMILES IDX 52 57 67 59 89 60 54 61 37 62 38 63 47 64 39 65 40 66 46 67
REMARK SMILES IDX 48 68 41 69 42 70 43 71 44 72 45 73 71 74 72 75 81 76 73 77
REMARK SMILES IDX 74 78 80 79 82 80 75 81 76 82 77 83 78 84 79 85 55 86 56 87
REMARK SMILES IDX 65 88 57 89 58 90 64 91 66 92 59 93 60 94 61 95 62 96 63 97
REMARK H PARENT 18 8 25 28 87 47 53 58
REMARK Flexibility Score: inf
ROOT
ATOM      1  C   UNL A   1      35.231  22.599  23.940  1.00  0.00     0.002 C 
ENDROOT
BRANCH   1   2
ATOM      2  C   UNL A   1      34.015  21.834  24.465  1.00  0.00     0.002 C 
BRANCH   2   3
ATOM      3  C   UNL A   1      32.772  21.871  23.575  1.00  0.00     0.021 C 
BRANCH   3   4
ATOM      4  C   UNL A   1      31.757  22.962  23.907  1.00  0.00     0.116 C 
BRANCH   4   5
ATOM      5  N   UNL A   1      31.337  22.934  25.297  1.00  0.00    -0.350 N 
ATOM      6  C   UNL A   1      31.271  23.940  26.231  1.00  0.00     0.277 C 
ATOM      7  O   UNL A   1      30.851  23.649  27.352  1.00  0.00    -0.267 OA
ATOM      8  H   UNL A   1      31.052  22.050  25.623  1.00  0.00     0.163 HD
BRANCH   6   9
ATOM      9  C   UNL A   1      31.726  25.277  25.887  1.00  0.00     0.212 A 
ATOM     10  C   UNL A   1      30.985  26.264  25.271  1.00  0.00     0.318 A 
ATOM     11  O   UNL A   1      31.770  27.377  25.138  1.00  0.00    -0.409 OA
ATOM     12  C   UNL A   1      32.977  26.993  25.653  1.00  0.00     0.202 A 
ATOM     13  N   UNL A   1      33.006  25.759  26.100  1.00  0.00    -0.204 NA
BRANCH  10  14
ATOM     14  O   UNL A   1      29.769  26.375  24.750  1.00  0.00    -0.464 OA
BRANCH  14  15
ATOM     15  C   UNL A   1      29.696  27.145  23.551  1.00  0.00     0.230 C 
ATOM     16  C   UNL A   1      28.318  27.760  23.358  1.00  0.00     0.049 C 
ENDBRANCH  14  15
ENDBRANCH  10  14
BRANCH  12  17
ATOM     17  C   UNL A   1      34.083  27.981  25.679  1.00  0.00     0.129 C 
BRANCH  17  18
ATOM     18  C   UNL A   1      33.959  28.995  26.817  1.00  0.00     0.127 C 
ATOM     19  C   UNL A   1      35.332  29.437  27.341  1.00  0.00     0.033 C 
ATOM     20  O   UNL A   1      33.260  30.139  26.295  1.00  0.00    -0.378 OA
ATOM     21  C   UNL A   1      35.197  30.559  28.364  1.00  0.00     0.005 C 
ATOM     22  C   UNL A   1      33.013  31.131  27.290  1.00  0.00     0.160 C 
ATOM     23  C   UNL A   1      34.328  31.684  27.816  1.00  0.00     0.029 C 
ENDBRANCH  17  18
ENDBRANCH  12  17
ENDBRANCH   6   9
ENDBRANCH   4   5
ENDBRANCH   3   4
ENDBRANCH   2   3
ENDBRANCH   1   2
BRANCH   1  24
ATOM     24  C   UNL A   1      35.451  23.991  24.537  1.00  0.00     0.021 C 
BRANCH  24  25
ATOM     25  C   UNL A   1      36.321  24.027  25.785  1.00  0.00     0.116 C 
BRANCH  25  26
ATOM     26  N   UNL A   1      37.132  22.829  25.923  1.00  0.00    -0.352 N 
ATOM     27  C   UNL A   1      38.462  22.719  26.244  1.00  0.00     0.251 C 
ATOM     28  H   UNL A   1      36.662  21.979  25.764  1.00  0.00     0.163 HD
ATOM     29  O   UNL A   1      39.032  21.638  26.130  1.00  0.00    -0.269 OA
BRANCH  27  30
ATOM     30  C   UNL A   1      39.207  23.909  26.708  1.00  0.00     0.039 A 
ATOM     31  C   UNL A   1      39.842  24.720  25.763  1.00  0.00     0.014 A 
ATOM     32  C   UNL A   1      39.281  24.227  28.067  1.00  0.00     0.014 A 
ATOM     33  C   UNL A   1      40.502  25.879  26.178  1.00  0.00     0.010 A 
ATOM     34  C   UNL A   1      39.875  25.419  28.471  1.00  0.00     0.010 A 
ATOM     35  C   UNL A   1      40.498  26.254  27.532  1.00  0.00    -0.014 A 
BRANCH  35  36
ATOM     36  C   UNL A   1      41.146  27.512  27.985  1.00  0.00     0.031 A 
ATOM     37  C   UNL A   1      42.642  27.660  27.904  1.00  0.00     0.074 A 
ATOM     38  C   UNL A   1      40.397  28.493  28.526  1.00  0.00     0.049 A 
ATOM     39  N   UNL A   1      43.398  28.647  28.311  1.00  0.00    -0.248 NA
ATOM     40  C   UNL A   1      43.390  26.540  27.309  1.00  0.00     0.031 C 
ATOM     41  C   UNL A   1      38.944  28.448  28.703  1.00  0.00     0.029 A 
ATOM     42  N   UNL A   1      40.754  29.715  29.039  1.00  0.00    -0.354 N 
ATOM     43  C   UNL A   1      44.705  28.263  28.037  1.00  0.00     0.074 A 
ATOM     44  C   UNL A   1      44.645  26.930  27.478  1.00  0.00     0.031 C 
ATOM     45  C   UNL A   1      38.532  29.597  29.262  1.00  0.00     0.029 A 
ATOM     46  C   UNL A   1      39.693  30.444  29.522  1.00  0.00     0.049 A 
ATOM     47  H   UNL A   1      41.684  30.040  29.058  1.00  0.00     0.167 HD
ATOM     48  C   UNL A   1      45.850  28.965  28.214  1.00  0.00     0.037 A 
ATOM     49  C   UNL A   1      39.658  31.654  30.115  1.00  0.00     0.037 A 
ATOM     50  C   UNL A   1      45.900  30.302  28.748  1.00  0.00     0.049 A 
ATOM     51  C   UNL A   1      40.943  32.414  30.304  1.00  0.00     0.074 A 
ATOM     52  C   UNL A   1      47.003  31.121  28.914  1.00  0.00     0.029 A 
ATOM     53  N   UNL A   1      44.802  31.014  29.207  1.00  0.00    -0.354 N 
ATOM     54  N   UNL A   1      42.166  32.061  29.980  1.00  0.00    -0.248 NA
ATOM     55  C   UNL A   1      40.847  33.739  30.930  1.00  0.00     0.031 C 
ATOM     56  C   UNL A   1      46.578  32.310  29.515  1.00  0.00     0.029 A 
ATOM     57  C   UNL A   1      45.203  32.254  29.675  1.00  0.00     0.049 A 
ATOM     58  H   UNL A   1      43.873  30.686  29.201  1.00  0.00     0.167 HD
ATOM     59  C   UNL A   1      42.978  33.131  30.337  1.00  0.00     0.074 A 
ATOM     60  C   UNL A   1      42.107  34.149  30.891  1.00  0.00     0.031 C 
ATOM     61  C   UNL A   1      44.323  33.261  30.216  1.00  0.00     0.037 A 
BRANCH  48  62
ATOM     62  C   UNL A   1      47.143  28.302  27.822  1.00  0.00     0.058 A 
ATOM     63  C   UNL A   1      47.872  27.514  28.727  1.00  0.00     0.135 A 
ATOM     64  C   UNL A   1      47.644  28.429  26.516  1.00  0.00     0.135 A 
ATOM     65  F   UNL A   1      47.448  27.370  29.993  1.00  0.00    -0.206 F 
ATOM     66  C   UNL A   1      49.068  26.902  28.362  1.00  0.00     0.059 A 
ATOM     67  C   UNL A   1      48.822  27.801  26.120  1.00  0.00     0.059 A 
ATOM     68  F   UNL A   1      46.988  29.169  25.609  1.00  0.00    -0.206 F 
ATOM     69  C   UNL A   1      49.535  27.052  27.056  1.00  0.00     0.060 A 
BRANCH  69  70
ATOM     70  S   UNL A   1      51.086  26.251  26.598  1.00  0.00     0.124 S 
ATOM     71  O   UNL A   1      50.899  26.056  25.163  1.00  0.00    -0.237 OA
ATOM     72  O   UNL A   1      52.079  27.252  26.976  1.00  0.00    -0.237 OA
ATOM     73  O   UNL A   1      51.090  25.033  27.401  1.00  0.00    -0.744 OA
ENDBRANCH  69  70
ENDBRANCH  48  62
BRANCH  49  74
ATOM     74  C   UNL A   1      38.359  32.228  30.555  1.00  0.00     0.058 A 
ATOM     75  C   UNL A   1      37.828  31.926  31.818  1.00  0.00     0.135 A 
ATOM     76  C   UNL A   1      37.629  33.100  29.732  1.00  0.00     0.135 A 
ATOM     77  F   UNL A   1      38.485  31.094  32.640  1.00  0.00    -0.206 F 
ATOM     78  C   UNL A   1      36.613  32.453  32.244  1.00  0.00     0.059 A 
ATOM     79  C   UNL A   1      36.425  33.661  30.145  1.00  0.00     0.059 A 
ATOM     80  F   UNL A   1      38.102  33.434  28.521  1.00  0.00    -0.206 F 
ATOM     81  C   UNL A   1      35.919  33.323  31.400  1.00  0.00     0.060 A 
BRANCH  81  82
ATOM     82  S   UNL A   1      34.367  34.039  31.981  1.00  0.00     0.124 S 
ATOM     83  O   UNL A   1      33.781  32.920  32.709  1.00  0.00    -0.237 OA
ATOM     84  O   UNL A   1      34.832  35.158  32.795  1.00  0.00    -0.237 OA
ATOM     85  O   UNL A   1      33.687  34.413  30.744  1.00  0.00    -0.744 OA
ENDBRANCH  81  82
ENDBRANCH  49  74
BRANCH  61  86
ATOM     86  C   UNL A   1      44.937  34.562  30.653  1.00  0.00     0.058 A 
ATOM     87  C   UNL A   1      45.046  35.658  29.783  1.00  0.00     0.135 A 
ATOM     88  C   UNL A   1      45.370  34.731  31.979  1.00  0.00     0.135 A 
ATOM     89  F   UNL A   1      44.653  35.547  28.504  1.00  0.00    -0.206 F 
ATOM     90  C   UNL A   1      45.584  36.869  30.206  1.00  0.00     0.059 A 
ATOM     91  C   UNL A   1      45.884  35.942  32.430  1.00  0.00     0.059 A 
ATOM     92  F   UNL A   1      45.278  33.718  32.855  1.00  0.00    -0.206 F 
ATOM     93  C   UNL A   1      45.998  37.003  31.533  1.00  0.00     0.060 A 
BRANCH  93  94
ATOM     94  S   UNL A   1      46.658  38.592  32.078  1.00  0.00     0.124 S 
ATOM     95  O   UNL A   1      46.769  38.385  33.518  1.00  0.00    -0.237 OA
ATOM     96  O   UNL A   1      47.920  38.672  31.349  1.00  0.00    -0.237 OA
ATOM     97  O   UNL A   1      45.636  39.546  31.658  1.00  0.00    -0.744 OA
ENDBRANCH  93  94
ENDBRANCH  61  86
ENDBRANCH  35  36
ENDBRANCH  27  30
ENDBRANCH  25  26
ENDBRANCH  24  25
ENDBRANCH   1  24
TORSDOF 20
ENDMDL
MODEL 3
REMARK VINA RESULT:     -10.8      1.406      2.671
REMARK SMILES CCOc1oc(C[C@H]2CCCCO2)nc1C(=O)NCCCCCCNC(=O)c1ccc(-c2c3nc(c(-c4c(F)cc(S(=O)(=O)[O-])cc4F)c4ccc([nH]4)c(-c4c(F)cc(S(=O)(=O)[O-])cc4F)c4nc(c(-c5c(F)cc(S(=O)(=O)[O-])cc5F)c5ccc2[nH]5)C=C4)C=C3)cc1
REMARK SMILES IDX 22 1 21 2 20 3 19 4 18 5 16 6 17 7 15 9 4 10 5 11 6 12 14 13
REMARK SMILES IDX 3 14 2 15 1 16 7 17 8 18 9 19 13 20 10 21 12 22 11 23 23 24
REMARK SMILES IDX 24 25 25 26 26 27 27 29 28 30 29 31 93 32 30 33 92 34 31 35
REMARK SMILES IDX 32 36 33 37 86 38 34 39 91 40 85 41 87 42 35 43 90 44 84 45
REMARK SMILES IDX 83 46 36 48 70 49 49 50 69 51 50 52 53 53 68 54 88 55 51 56
REMARK SMILES IDX 52 57 67 59 89 60 54 61 37 62 38 63 47 64 39 65 40 66 46 67
REMARK SMILES IDX 48 68 41 69 42 70 43 71 44 72 45 73 71 74 72 75 81 76 73 77
REMARK SMILES IDX 74 78 80 79 82 80 75 81 76 82 77 83 78 84 79 85 55 86 56 87
REMARK SMILES IDX 65 88 57 89 58 90 64 91 66 92 59 93 60 94 61 95 62 96 63 97
REMARK H PARENT 18 8 25 28 87 47 53 58
REMARK Flexibility Score: inf
ROOT
ATOM      1  C   UNL A   1      37.837  24.065  26.150  1.00  0.00     0.002 C 
ENDROOT
BRANCH   1   2
ATOM      2  C   UNL A   1      36.594  23.551  25.419  1.00  0.00     0.002 C 
BRANCH   2   3
ATOM      3  C   UNL A   1      35.396  23.210  26.306  1.00  0.00     0.021 C 
BRANCH   3   4
ATOM      4  C   UNL A   1      34.045  23.160  25.597  1.00  0.00     0.116 C 
BRANCH   4   5
ATOM      5  N   UNL A   1      32.929  23.054  26.519  1.00  0.00    -0.350 N 
ATOM      6  C   UNL A   1      31.858  23.891  26.726  1.00  0.00     0.277 C 
ATOM      7  O   UNL A   1      31.026  23.552  27.569  1.00  0.00    -0.267 OA
ATOM      8  H   UNL A   1      32.940  22.252  27.089  1.00  0.00     0.163 HD
BRANCH   6   9
ATOM      9  C   UNL A   1      31.764  25.140  25.989  1.00  0.00     0.212 A 
ATOM     10  C   UNL A   1      31.257  25.308  24.717  1.00  0.00     0.318 A 
ATOM     11  O   UNL A   1      31.333  26.635  24.392  1.00  0.00    -0.409 OA
ATOM     12  C   UNL A   1      31.924  27.210  25.482  1.00  0.00     0.202 A 
ATOM     13  N   UNL A   1      32.208  26.368  26.449  1.00  0.00    -0.204 NA
BRANCH  10  14
ATOM     14  O   UNL A   1      30.786  24.524  23.755  1.00  0.00    -0.464 OA
BRANCH  14  15
ATOM     15  C   UNL A   1      31.778  23.969  22.892  1.00  0.00     0.230 C 
ATOM     16  C   UNL A   1      31.805  22.451  22.966  1.00  0.00     0.049 C 
ENDBRANCH  14  15
ENDBRANCH  10  14
BRANCH  12  17
ATOM     17  C   UNL A   1      32.154  28.674  25.474  1.00  0.00     0.129 C 
BRANCH  17  18
ATOM     18  C   UNL A   1      33.013  29.156  26.645  1.00  0.00     0.127 C 
ATOM     19  C   UNL A   1      34.483  28.745  26.483  1.00  0.00     0.033 C 
ATOM     20  O   UNL A   1      32.923  30.592  26.679  1.00  0.00    -0.378 OA
ATOM     21  C   UNL A   1      35.351  29.363  27.572  1.00  0.00     0.005 C 
ATOM     22  C   UNL A   1      33.625  31.159  27.783  1.00  0.00     0.160 C 
ATOM     23  C   UNL A   1      35.113  30.865  27.664  1.00  0.00     0.029 C 
ENDBRANCH  17  18
ENDBRANCH  12  17
ENDBRANCH   6   9
ENDBRANCH   4   5
ENDBRANCH   3   4
ENDBRANCH   2   3
ENDBRANCH   1   2
BRANCH   1  24
ATOM     24  C   UNL A   1      38.871  23.004  26.532  1.00  0.00     0.021 C 
BRANCH  24  25
ATOM     25  C   UNL A   1      40.169  23.547  27.110  1.00  0.00     0.116 C 
BRANCH  25  26
ATOM     26  N   UNL A   1      40.982  24.209  26.104  1.00  0.00    -0.352 N 
ATOM     27  C   UNL A   1      41.372  25.524  26.036  1.00  0.00     0.251 C 
ATOM     28  H   UNL A   1      41.297  23.636  25.368  1.00  0.00     0.163 HD
ATOM     29  O   UNL A   1      41.899  25.956  25.016  1.00  0.00    -0.269 OA
BRANCH  27  30
ATOM     30  C   UNL A   1      41.137  26.420  27.190  1.00  0.00     0.039 A 
ATOM     31  C   UNL A   1      40.177  26.060  28.140  1.00  0.00     0.014 A 
ATOM     32  C   UNL A   1      41.857  27.608  27.337  1.00  0.00     0.014 A 
ATOM     33  C   UNL A   1      39.981  26.865  29.265  1.00  0.00     0.010 A 
ATOM     34  C   UNL A   1      41.715  28.369  28.493  1.00  0.00     0.010 A 
ATOM     35  C   UNL A   1      40.770  28.010  29.466  1.00  0.00    -0.014 A 
BRANCH  35  36
ATOM     36  C   UNL A   1      40.615  28.848  30.683  1.00  0.00     0.031 A 
ATOM     37  C   UNL A   1      39.570  29.931  30.725  1.00  0.00     0.074 A 
ATOM     38  C   UNL A   1      41.454  28.676  31.723  1.00  0.00     0.049 A 
ATOM     39  N   UNL A   1      39.329  30.809  31.664  1.00  0.00    -0.248 NA
ATOM     40  C   UNL A   1      38.701  30.061  29.544  1.00  0.00     0.031 C 
ATOM     41  C   UNL A   1      42.537  27.691  31.784  1.00  0.00     0.029 A 
ATOM     42  N   UNL A   1      41.537  29.331  32.927  1.00  0.00    -0.354 N 
ATOM     43  C   UNL A   1      38.292  31.602  31.184  1.00  0.00     0.074 A 
ATOM     44  C   UNL A   1      37.989  31.136  29.849  1.00  0.00     0.031 C 
ATOM     45  C   UNL A   1      43.159  27.793  32.969  1.00  0.00     0.029 A 
ATOM     46  C   UNL A   1      42.550  28.874  33.737  1.00  0.00     0.049 A 
ATOM     47  H   UNL A   1      40.927  30.059  33.187  1.00  0.00     0.167 HD
ATOM     48  C   UNL A   1      37.639  32.612  31.808  1.00  0.00     0.037 A 
ATOM     49  C   UNL A   1      42.949  29.286  34.957  1.00  0.00     0.037 A 
ATOM     50  C   UNL A   1      37.931  33.054  33.147  1.00  0.00     0.049 A 
ATOM     51  C   UNL A   1      42.210  30.411  35.629  1.00  0.00     0.074 A 
ATOM     52  C   UNL A   1      37.290  34.029  33.890  1.00  0.00     0.029 A 
ATOM     53  N   UNL A   1      38.951  32.552  33.942  1.00  0.00    -0.354 N 
ATOM     54  N   UNL A   1      41.190  31.109  35.185  1.00  0.00    -0.248 NA
ATOM     55  C   UNL A   1      42.667  30.802  36.969  1.00  0.00     0.031 C 
ATOM     56  C   UNL A   1      37.950  34.150  35.117  1.00  0.00     0.029 A 
ATOM     57  C   UNL A   1      38.970  33.212  35.160  1.00  0.00     0.049 A 
ATOM     58  H   UNL A   1      39.571  31.834  33.680  1.00  0.00     0.167 HD
ATOM     59  C   UNL A   1      40.868  32.000  36.203  1.00  0.00     0.074 A 
ATOM     60  C   UNL A   1      41.793  31.745  37.288  1.00  0.00     0.031 C 
ATOM     61  C   UNL A   1      39.892  32.942  36.235  1.00  0.00     0.037 A 
BRANCH  48  62
ATOM     62  C   UNL A   1      36.540  33.305  31.049  1.00  0.00     0.058 A 
ATOM     63  C   UNL A   1      36.814  34.153  29.964  1.00  0.00     0.135 A 
ATOM     64  C   UNL A   1      35.194  33.095  31.390  1.00  0.00     0.135 A 
ATOM     65  F   UNL A   1      38.083  34.402  29.603  1.00  0.00    -0.206 F 
ATOM     66  C   UNL A   1      35.796  34.793  29.263  1.00  0.00     0.059 A 
ATOM     67  C   UNL A   1      34.157  33.702  30.684  1.00  0.00     0.059 A 
ATOM     68  F   UNL A   1      34.873  32.294  32.417  1.00  0.00    -0.206 F 
ATOM     69  C   UNL A   1      34.470  34.562  29.632  1.00  0.00     0.060 A 
BRANCH  69  70
ATOM     70  S   UNL A   1      33.161  35.399  28.713  1.00  0.00     0.124 S 
ATOM     71  O   UNL A   1      33.930  36.344  27.908  1.00  0.00    -0.237 OA
ATOM     72  O   UNL A   1      32.543  34.299  27.978  1.00  0.00    -0.237 OA
ATOM     73  O   UNL A   1      32.336  35.992  29.759  1.00  0.00    -0.744 OA
ENDBRANCH  69  70
ENDBRANCH  48  62
BRANCH  49  74
ATOM     74  C   UNL A   1      44.094  28.615  35.629  1.00  0.00     0.058 A 
ATOM     75  C   UNL A   1      45.412  29.041  35.405  1.00  0.00     0.135 A 
ATOM     76  C   UNL A   1      43.896  27.546  36.517  1.00  0.00     0.135 A 
ATOM     77  F   UNL A   1      45.654  30.055  34.560  1.00  0.00    -0.206 F 
ATOM     78  C   UNL A   1      46.493  28.423  36.024  1.00  0.00     0.059 A 
ATOM     79  C   UNL A   1      44.959  26.929  37.169  1.00  0.00     0.059 A 
ATOM     80  F   UNL A   1      42.653  27.112  36.779  1.00  0.00    -0.206 F 
ATOM     81  C   UNL A   1      46.257  27.368  36.907  1.00  0.00     0.060 A 
BRANCH  81  82
ATOM     82  S   UNL A   1      47.663  26.604  37.741  1.00  0.00     0.124 S 
ATOM     83  O   UNL A   1      47.616  25.245  37.214  1.00  0.00    -0.237 OA
ATOM     84  O   UNL A   1      48.777  27.429  37.283  1.00  0.00    -0.237 OA
ATOM     85  O   UNL A   1      47.331  26.744  39.156  1.00  0.00    -0.744 OA
ENDBRANCH  81  82
ENDBRANCH  49  74
BRANCH  61  86
ATOM     86  C   UNL A   1      39.746  33.745  37.498  1.00  0.00     0.058 A 
ATOM     87  C   UNL A   1      40.503  34.905  37.729  1.00  0.00     0.135 A 
ATOM     88  C   UNL A   1      38.794  33.379  38.465  1.00  0.00     0.135 A 
ATOM     89  F   UNL A   1      41.431  35.294  36.841  1.00  0.00    -0.206 F 
ATOM     90  C   UNL A   1      40.337  35.661  38.885  1.00  0.00     0.059 A 
ATOM     91  C   UNL A   1      38.591  34.138  39.613  1.00  0.00     0.059 A 
ATOM     92  F   UNL A   1      38.036  32.286  38.288  1.00  0.00    -0.206 F 
ATOM     93  C   UNL A   1      39.376  35.271  39.821  1.00  0.00     0.060 A 
BRANCH  93  94
ATOM     94  S   UNL A   1      39.144  36.283  41.297  1.00  0.00     0.124 S 
ATOM     95  O   UNL A   1      38.828  37.583  40.715  1.00  0.00    -0.237 OA
ATOM     96  O   UNL A   1      38.042  35.604  41.971  1.00  0.00    -0.237 OA
ATOM     97  O   UNL A   1      40.435  36.196  41.974  1.00  0.00    -0.744 OA
ENDBRANCH  93  94
ENDBRANCH  61  86
ENDBRANCH  35  36
ENDBRANCH  27  30
ENDBRANCH  25  26
ENDBRANCH  24  25
ENDBRANCH   1  24
TORSDOF 20
ENDMDL
