MODEL 1
REMARK VINA RESULT:     -12.7      0.000      0.000
REMARK SMILES Cc1nc(-c2ccccc2Cl)nc2sc(C(=O)NCCCCCCNC(=O)c3ccc(-c4c5nc(c(-c6c(F)cc(S(=O)(=O)[O-])cc6F)c6ccc([nH]6)c(-c6c(F)cc(S(=O)(=O)[O-])cc6F)c6nc(c(-c7c(F)cc(S(=O)(=O)[O-])cc7F)c7ccc4[nH]7)C=C6)C=C5)cc3)c(N)c12
REMARK SMILES IDX 22 1 21 2 20 3 19 4 18 5 16 6 17 7 15 9 1 10 2 11 3 12 96 13
REMARK SMILES IDX 4 14 13 15 94 16 12 17 14 18 5 19 6 20 10 21 7 22 9 23 11 24
REMARK SMILES IDX 8 25 95 26 23 29 24 30 25 31 26 32 27 34 28 35 29 36 93 37
REMARK SMILES IDX 30 38 92 39 31 40 32 41 33 42 86 43 34 44 91 45 85 46 87 47
REMARK SMILES IDX 35 48 90 49 84 50 83 51 36 53 70 54 49 55 69 56 50 57 53 58
REMARK SMILES IDX 68 59 88 60 51 61 52 62 67 64 89 65 54 66 37 67 38 68 47 69
REMARK SMILES IDX 39 70 40 71 46 72 48 73 41 74 42 75 43 76 44 77 45 78 71 79
REMARK SMILES IDX 72 80 81 81 73 82 74 83 80 84 82 85 75 86 76 87 77 88 78 89
REMARK SMILES IDX 79 90 55 91 56 92 65 93 57 94 58 95 64 96 66 97 59 98 60 99
REMARK SMILES IDX 61 100 62 101 63 102
REMARK H PARENT 18 8 95 27 95 28 25 33 87 52 53 63
REMARK Flexibility Score: inf
ROOT
ATOM      1  C   UNL A   1      41.113  21.573  27.471  1.00  0.00     0.002 C 
ENDROOT
BRANCH   1   2
ATOM      2  C   UNL A   1      40.116  21.955  26.364  1.00  0.00     0.002 C 
BRANCH   2   3
ATOM      3  C   UNL A   1      38.975  20.955  26.132  1.00  0.00     0.021 C 
BRANCH   3   4
ATOM      4  C   UNL A   1      37.771  21.568  25.413  1.00  0.00     0.116 C 
BRANCH   4   5
ATOM      5  N   UNL A   1      36.769  20.561  25.096  1.00  0.00    -0.351 N 
ATOM      6  C   UNL A   1      35.388  20.578  25.121  1.00  0.00     0.263 C 
ATOM      7  O   UNL A   1      34.847  19.573  24.646  1.00  0.00    -0.268 OA
ATOM      8  H   UNL A   1      37.149  19.700  24.810  1.00  0.00     0.163 HD
BRANCH   6   9
ATOM      9  C   UNL A   1      34.615  21.722  25.594  1.00  0.00     0.118 A 
ATOM     10  C   UNL A   1      30.279  22.997  26.920  1.00  0.00     0.067 C 
ATOM     11  C   UNL A   1      31.527  23.697  26.480  1.00  0.00     0.052 A 
ATOM     12  N   UNL A   1      31.434  25.064  26.433  1.00  0.00    -0.233 NA
ATOM     13  C   UNL A   1      32.771  23.094  26.181  1.00  0.00     0.056 A 
ATOM     14  C   UNL A   1      32.529  25.794  26.161  1.00  0.00     0.162 A 
ATOM     15  C   UNL A   1      33.810  23.988  25.986  1.00  0.00     0.130 A 
ATOM     16  C   UNL A   1      33.279  21.749  25.994  1.00  0.00     0.067 A 
ATOM     17  N   UNL A   1      33.749  25.318  25.934  1.00  0.00    -0.217 NA
ATOM     18  S   UNL A   1      35.317  23.245  25.888  1.00  0.00    -0.108 S 
BRANCH  14  19
ATOM     19  C   UNL A   1      32.440  27.249  26.131  1.00  0.00     0.038 A 
ATOM     20  C   UNL A   1      32.075  27.947  27.302  1.00  0.00     0.013 A 
ATOM     21  C   UNL A   1      32.544  27.973  24.933  1.00  0.00     0.052 A 
ATOM     22  C   UNL A   1      31.809  29.317  27.274  1.00  0.00     0.001 A 
ATOM     23  C   UNL A   1      32.271  29.345  24.907  1.00  0.00     0.021 A 
ATOM     24  Cl  UNL A   1      32.942  27.209  23.433  1.00  0.00    -0.084 Cl
ATOM     25  C   UNL A   1      31.899  30.014  26.073  1.00  0.00     0.002 A 
ENDBRANCH  14  19
BRANCH  16  26
ATOM     26  N   UNL A   1      32.550  20.615  26.101  1.00  0.00    -0.397 N 
ATOM     27  H   UNL A   1      31.567  20.658  26.094  1.00  0.00     0.156 HD
ATOM     28  H   UNL A   1      33.004  19.745  26.185  1.00  0.00     0.156 HD
ENDBRANCH  16  26
ENDBRANCH   6   9
ENDBRANCH   4   5
ENDBRANCH   3   4
ENDBRANCH   2   3
ENDBRANCH   1   2
BRANCH   1  29
ATOM     29  C   UNL A   1      41.957  20.316  27.216  1.00  0.00     0.021 C 
BRANCH  29  30
ATOM     30  C   UNL A   1      42.019  19.930  25.747  1.00  0.00     0.116 C 
BRANCH  30  31
ATOM     31  N   UNL A   1      43.383  19.605  25.329  1.00  0.00    -0.352 N 
ATOM     32  C   UNL A   1      44.387  20.474  24.944  1.00  0.00     0.251 C 
ATOM     33  H   UNL A   1      43.615  18.648  25.322  1.00  0.00     0.163 HD
ATOM     34  O   UNL A   1      45.334  20.085  24.280  1.00  0.00    -0.269 OA
BRANCH  32  35
ATOM     35  C   UNL A   1      44.286  21.879  25.376  1.00  0.00     0.039 A 
ATOM     36  C   UNL A   1      43.442  22.787  24.733  1.00  0.00     0.014 A 
ATOM     37  C   UNL A   1      45.047  22.262  26.477  1.00  0.00     0.014 A 
ATOM     38  C   UNL A   1      43.321  24.071  25.261  1.00  0.00     0.010 A 
ATOM     39  C   UNL A   1      44.801  23.461  27.089  1.00  0.00     0.010 A 
ATOM     40  C   UNL A   1      43.993  24.393  26.453  1.00  0.00    -0.014 A 
BRANCH  40  41
ATOM     41  C   UNL A   1      43.758  25.657  27.142  1.00  0.00     0.031 A 
ATOM     42  C   UNL A   1      44.772  26.695  26.813  1.00  0.00     0.074 A 
ATOM     43  C   UNL A   1      42.610  25.921  27.809  1.00  0.00     0.049 A 
ATOM     44  N   UNL A   1      45.730  27.126  27.566  1.00  0.00    -0.248 NA
ATOM     45  C   UNL A   1      44.868  27.168  25.420  1.00  0.00     0.031 C 
ATOM     46  C   UNL A   1      41.409  25.079  27.919  1.00  0.00     0.029 A 
ATOM     47  N   UNL A   1      42.229  27.052  28.467  1.00  0.00    -0.354 N 
ATOM     48  C   UNL A   1      46.359  28.132  26.836  1.00  0.00     0.074 A 
ATOM     49  C   UNL A   1      45.954  27.945  25.470  1.00  0.00     0.031 C 
ATOM     50  C   UNL A   1      40.371  25.810  28.389  1.00  0.00     0.029 A 
ATOM     51  C   UNL A   1      40.872  27.109  28.795  1.00  0.00     0.049 A 
ATOM     52  H   UNL A   1      42.860  27.772  28.694  1.00  0.00     0.167 HD
ATOM     53  C   UNL A   1      46.897  29.211  27.469  1.00  0.00     0.037 A 
ATOM     54  C   UNL A   1      40.226  28.149  29.381  1.00  0.00     0.037 A 
ATOM     55  C   UNL A   1      46.958  28.975  28.890  1.00  0.00     0.049 A 
ATOM     56  C   UNL A   1      41.269  28.944  30.069  1.00  0.00     0.074 A 
ATOM     57  C   UNL A   1      47.709  28.197  29.744  1.00  0.00     0.029 A 
ATOM     58  N   UNL A   1      45.803  29.310  29.548  1.00  0.00    -0.354 N 
ATOM     59  N   UNL A   1      41.965  28.498  31.079  1.00  0.00    -0.248 NA
ATOM     60  C   UNL A   1      41.814  30.119  29.402  1.00  0.00     0.031 C 
ATOM     61  C   UNL A   1      46.857  27.894  30.848  1.00  0.00     0.029 A 
ATOM     62  C   UNL A   1      45.637  28.545  30.670  1.00  0.00     0.049 A 
ATOM     63  H   UNL A   1      45.175  30.008  29.251  1.00  0.00     0.167 HD
ATOM     64  C   UNL A   1      43.215  29.057  30.909  1.00  0.00     0.074 A 
ATOM     65  C   UNL A   1      43.018  30.163  29.977  1.00  0.00     0.031 C 
ATOM     66  C   UNL A   1      44.336  28.377  31.284  1.00  0.00     0.037 A 
BRANCH  53  67
ATOM     67  C   UNL A   1      46.903  30.630  26.926  1.00  0.00     0.058 A 
ATOM     68  C   UNL A   1      48.104  31.373  26.952  1.00  0.00     0.135 A 
ATOM     69  C   UNL A   1      45.738  31.383  26.656  1.00  0.00     0.135 A 
ATOM     70  F   UNL A   1      49.275  30.771  27.221  1.00  0.00    -0.206 F 
ATOM     71  C   UNL A   1      48.137  32.759  26.770  1.00  0.00     0.059 A 
ATOM     72  C   UNL A   1      45.754  32.754  26.423  1.00  0.00     0.059 A 
ATOM     73  F   UNL A   1      44.513  30.847  26.701  1.00  0.00    -0.206 F 
ATOM     74  C   UNL A   1      46.953  33.441  26.510  1.00  0.00     0.060 A 
BRANCH  74  75
ATOM     75  S   UNL A   1      46.982  35.233  26.321  1.00  0.00     0.124 S 
ATOM     76  O   UNL A   1      47.003  35.677  27.710  1.00  0.00    -0.237 OA
ATOM     77  O   UNL A   1      48.214  35.435  25.565  1.00  0.00    -0.237 OA
ATOM     78  O   UNL A   1      45.752  35.513  25.586  1.00  0.00    -0.744 OA
ENDBRANCH  74  75
ENDBRANCH  53  67
BRANCH  54  79
ATOM     79  C   UNL A   1      38.857  28.696  29.173  1.00  0.00     0.058 A 
ATOM     80  C   UNL A   1      37.980  28.852  30.266  1.00  0.00     0.135 A 
ATOM     81  C   UNL A   1      38.525  29.409  28.006  1.00  0.00     0.135 A 
ATOM     82  F   UNL A   1      38.214  28.201  31.416  1.00  0.00    -0.206 F 
ATOM     83  C   UNL A   1      36.906  29.746  30.244  1.00  0.00     0.059 A 
ATOM     84  C   UNL A   1      37.453  30.304  27.958  1.00  0.00     0.059 A 
ATOM     85  F   UNL A   1      39.300  29.331  26.913  1.00  0.00    -0.206 F 
ATOM     86  C   UNL A   1      36.674  30.500  29.096  1.00  0.00     0.060 A 
BRANCH  86  87
ATOM     87  S   UNL A   1      35.443  31.828  29.150  1.00  0.00     0.124 S 
ATOM     88  O   UNL A   1      35.218  31.976  30.584  1.00  0.00    -0.237 OA
ATOM     89  O   UNL A   1      36.150  32.927  28.500  1.00  0.00    -0.237 OA
ATOM     90  O   UNL A   1      34.320  31.279  28.395  1.00  0.00    -0.744 OA
ENDBRANCH  86  87
ENDBRANCH  54  79
BRANCH  66  91
ATOM     91  C   UNL A   1      44.184  27.295  32.316  1.00  0.00     0.058 A 
ATOM     92  C   UNL A   1      43.915  27.500  33.680  1.00  0.00     0.135 A 
ATOM     93  C   UNL A   1      44.220  25.970  31.860  1.00  0.00     0.135 A 
ATOM     94  F   UNL A   1      43.793  28.737  34.182  1.00  0.00    -0.206 F 
ATOM     95  C   UNL A   1      43.715  26.429  34.556  1.00  0.00     0.059 A 
ATOM     96  C   UNL A   1      43.996  24.890  32.706  1.00  0.00     0.059 A 
ATOM     97  F   UNL A   1      44.432  25.713  30.559  1.00  0.00    -0.206 F 
ATOM     98  C   UNL A   1      43.754  25.126  34.056  1.00  0.00     0.060 A 
BRANCH  98  99
ATOM     99  S   UNL A   1      43.432  23.740  35.168  1.00  0.00     0.124 S 
ATOM    100  O   UNL A   1      42.081  24.028  35.637  1.00  0.00    -0.237 OA
ATOM    101  O   UNL A   1      43.566  22.588  34.282  1.00  0.00    -0.237 OA
ATOM    102  O   UNL A   1      44.482  23.862  36.179  1.00  0.00    -0.744 OA
ENDBRANCH  98  99
ENDBRANCH  66  91
ENDBRANCH  40  41
ENDBRANCH  32  35
ENDBRANCH  30  31
ENDBRANCH  29  30
ENDBRANCH   1  29
TORSDOF 18
ENDMDL
MODEL 2
REMARK VINA RESULT:     -12.7      2.891      9.606
REMARK SMILES Cc1nc(-c2ccccc2Cl)nc2sc(C(=O)NCCCCCCNC(=O)c3ccc(-c4c5nc(c(-c6c(F)cc(S(=O)(=O)[O-])cc6F)c6ccc([nH]6)c(-c6c(F)cc(S(=O)(=O)[O-])cc6F)c6nc(c(-c7c(F)cc(S(=O)(=O)[O-])cc7F)c7ccc4[nH]7)C=C6)C=C5)cc3)c(N)c12
REMARK SMILES IDX 22 1 21 2 20 3 19 4 18 5 16 6 17 7 15 9 1 10 2 11 3 12 96 13
REMARK SMILES IDX 4 14 13 15 94 16 12 17 14 18 5 19 6 20 10 21 7 22 9 23 11 24
REMARK SMILES IDX 8 25 95 26 23 29 24 30 25 31 26 32 27 34 28 35 29 36 93 37
REMARK SMILES IDX 30 38 92 39 31 40 32 41 33 42 86 43 34 44 91 45 85 46 87 47
REMARK SMILES IDX 35 48 90 49 84 50 83 51 36 53 70 54 49 55 69 56 50 57 53 58
REMARK SMILES IDX 68 59 88 60 51 61 52 62 67 64 89 65 54 66 37 67 38 68 47 69
REMARK SMILES IDX 39 70 40 71 46 72 48 73 41 74 42 75 43 76 44 77 45 78 71 79
REMARK SMILES IDX 72 80 81 81 73 82 74 83 80 84 82 85 75 86 76 87 77 88 78 89
REMARK SMILES IDX 79 90 55 91 56 92 65 93 57 94 58 95 64 96 66 97 59 98 60 99
REMARK SMILES IDX 61 100 62 101 63 102
REMARK H PARENT 18 8 95 27 95 28 25 33 87 52 53 63
REMARK Flexibility Score: inf
ROOT
ATOM      1  C   UNL A   1      33.066  29.121  27.403  1.00  0.00     0.002 C 
ENDROOT
BRANCH   1   2
ATOM      2  C   UNL A   1      32.825  28.294  26.129  1.00  0.00     0.002 C 
BRANCH   2   3
ATOM      3  C   UNL A   1      33.890  28.445  25.035  1.00  0.00     0.021 C 
BRANCH   3   4
ATOM      4  C   UNL A   1      33.591  27.617  23.782  1.00  0.00     0.116 C 
BRANCH   4   5
ATOM      5  N   UNL A   1      32.243  27.858  23.291  1.00  0.00    -0.351 N 
ATOM      6  C   UNL A   1      31.135  27.044  23.170  1.00  0.00     0.263 C 
ATOM      7  O   UNL A   1      30.095  27.626  22.838  1.00  0.00    -0.268 OA
ATOM      8  H   UNL A   1      32.092  28.781  22.984  1.00  0.00     0.163 HD
BRANCH   6   9
ATOM      9  C   UNL A   1      31.155  25.619  23.484  1.00  0.00     0.118 A 
ATOM     10  C   UNL A   1      29.905  22.514  26.798  1.00  0.00     0.067 C 
ATOM     11  C   UNL A   1      30.836  22.531  25.624  1.00  0.00     0.052 A 
ATOM     12  N   UNL A   1      31.526  21.365  25.421  1.00  0.00    -0.233 NA
ATOM     13  C   UNL A   1      31.009  23.588  24.702  1.00  0.00     0.056 A 
ATOM     14  C   UNL A   1      32.301  21.234  24.331  1.00  0.00     0.162 A 
ATOM     15  C   UNL A   1      31.789  23.269  23.602  1.00  0.00     0.130 A 
ATOM     16  C   UNL A   1      30.599  24.974  24.589  1.00  0.00     0.067 A 
ATOM     17  N   UNL A   1      32.471  22.146  23.379  1.00  0.00    -0.217 NA
ATOM     18  S   UNL A   1      31.765  24.451  22.405  1.00  0.00    -0.108 S 
BRANCH  14  19
ATOM     19  C   UNL A   1      33.021  19.988  24.099  1.00  0.00     0.038 A 
ATOM     20  C   UNL A   1      32.385  18.937  23.405  1.00  0.00     0.013 A 
ATOM     21  C   UNL A   1      34.271  19.734  24.686  1.00  0.00     0.052 A 
ATOM     22  C   UNL A   1      32.970  17.672  23.314  1.00  0.00     0.001 A 
ATOM     23  C   UNL A   1      34.851  18.464  24.599  1.00  0.00     0.021 A 
ATOM     24  Cl  UNL A   1      35.116  20.938  25.596  1.00  0.00    -0.084 Cl
ATOM     25  C   UNL A   1      34.200  17.434  23.919  1.00  0.00     0.002 A 
ENDBRANCH  14  19
BRANCH  16  26
ATOM     26  N   UNL A   1      29.831  25.639  25.481  1.00  0.00    -0.397 N 
ATOM     27  H   UNL A   1      30.202  25.897  26.356  1.00  0.00     0.156 HD
ATOM     28  H   UNL A   1      28.900  25.866  25.257  1.00  0.00     0.156 HD
ENDBRANCH  16  26
ENDBRANCH   6   9
ENDBRANCH   4   5
ENDBRANCH   3   4
ENDBRANCH   2   3
ENDBRANCH   1   2
BRANCH   1  29
ATOM     29  C   UNL A   1      32.920  30.643  27.259  1.00  0.00     0.021 C 
BRANCH  29  30
ATOM     30  C   UNL A   1      34.208  31.393  27.557  1.00  0.00     0.116 C 
BRANCH  30  31
ATOM     31  N   UNL A   1      34.142  32.095  28.840  1.00  0.00    -0.352 N 
ATOM     32  C   UNL A   1      34.968  31.944  29.939  1.00  0.00     0.251 C 
ATOM     33  H   UNL A   1      33.421  32.760  28.932  1.00  0.00     0.163 HD
ATOM     34  O   UNL A   1      34.607  32.297  31.049  1.00  0.00    -0.269 OA
BRANCH  32  35
ATOM     35  C   UNL A   1      36.303  31.359  29.723  1.00  0.00     0.039 A 
ATOM     36  C   UNL A   1      37.441  32.157  29.578  1.00  0.00     0.014 A 
ATOM     37  C   UNL A   1      36.394  29.970  29.700  1.00  0.00     0.014 A 
ATOM     38  C   UNL A   1      38.682  31.533  29.481  1.00  0.00     0.010 A 
ATOM     39  C   UNL A   1      37.619  29.367  29.775  1.00  0.00     0.010 A 
ATOM     40  C   UNL A   1      38.763  30.135  29.598  1.00  0.00    -0.014 A 
BRANCH  40  41
ATOM     41  C   UNL A   1      40.048  29.451  29.686  1.00  0.00     0.031 A 
ATOM     42  C   UNL A   1      40.455  29.157  31.087  1.00  0.00     0.074 A 
ATOM     43  C   UNL A   1      40.674  28.932  28.603  1.00  0.00     0.049 A 
ATOM     44  N   UNL A   1      41.372  29.746  31.780  1.00  0.00    -0.248 NA
ATOM     45  C   UNL A   1      39.617  28.244  31.885  1.00  0.00     0.031 C 
ATOM     46  C   UNL A   1      40.195  28.887  27.213  1.00  0.00     0.029 A 
ATOM     47  N   UNL A   1      41.848  28.244  28.525  1.00  0.00    -0.354 N 
ATOM     48  C   UNL A   1      41.414  29.073  32.999  1.00  0.00     0.074 A 
ATOM     49  C   UNL A   1      40.179  28.344  33.093  1.00  0.00     0.031 C 
ATOM     50  C   UNL A   1      40.943  28.018  26.493  1.00  0.00     0.029 A 
ATOM     51  C   UNL A   1      42.065  27.594  27.308  1.00  0.00     0.049 A 
ATOM     52  H   UNL A   1      42.492  28.209  29.268  1.00  0.00     0.167 HD
ATOM     53  C   UNL A   1      42.593  28.925  33.667  1.00  0.00     0.037 A 
ATOM     54  C   UNL A   1      43.111  26.786  27.000  1.00  0.00     0.037 A 
ATOM     55  C   UNL A   1      43.602  29.777  33.088  1.00  0.00     0.049 A 
ATOM     56  C   UNL A   1      44.196  27.143  27.943  1.00  0.00     0.074 A 
ATOM     57  C   UNL A   1      43.876  31.126  33.059  1.00  0.00     0.029 A 
ATOM     58  N   UNL A   1      44.261  29.200  32.033  1.00  0.00    -0.354 N 
ATOM     59  N   UNL A   1      44.789  28.306  27.952  1.00  0.00    -0.248 NA
ATOM     60  C   UNL A   1      44.383  26.335  29.141  1.00  0.00     0.031 C 
ATOM     61  C   UNL A   1      44.537  31.364  31.817  1.00  0.00     0.029 A 
ATOM     62  C   UNL A   1      44.705  30.149  31.154  1.00  0.00     0.049 A 
ATOM     63  H   UNL A   1      44.396  28.231  31.922  1.00  0.00     0.167 HD
ATOM     64  C   UNL A   1      45.055  28.546  29.285  1.00  0.00     0.074 A 
ATOM     65  C   UNL A   1      44.943  27.247  29.939  1.00  0.00     0.031 C 
ATOM     66  C   UNL A   1      45.023  29.817  29.780  1.00  0.00     0.037 A 
BRANCH  53  67
ATOM     67  C   UNL A   1      42.991  27.703  34.477  1.00  0.00     0.058 A 
ATOM     68  C   UNL A   1      43.186  27.835  35.870  1.00  0.00     0.135 A 
ATOM     69  C   UNL A   1      43.467  26.497  33.916  1.00  0.00     0.135 A 
ATOM     70  F   UNL A   1      42.797  28.947  36.513  1.00  0.00    -0.206 F 
ATOM     71  C   UNL A   1      43.843  26.864  36.633  1.00  0.00     0.059 A 
ATOM     72  C   UNL A   1      44.078  25.497  34.665  1.00  0.00     0.059 A 
ATOM     73  F   UNL A   1      43.453  26.266  32.598  1.00  0.00    -0.206 F 
ATOM     74  C   UNL A   1      44.289  25.700  36.018  1.00  0.00     0.060 A 
BRANCH  74  75
ATOM     75  S   UNL A   1      45.178  24.467  36.987  1.00  0.00     0.124 S 
ATOM     76  O   UNL A   1      46.560  24.902  36.825  1.00  0.00    -0.237 OA
ATOM     77  O   UNL A   1      44.598  24.653  38.313  1.00  0.00    -0.237 OA
ATOM     78  O   UNL A   1      44.830  23.209  36.330  1.00  0.00    -0.744 OA
ENDBRANCH  74  75
ENDBRANCH  53  67
BRANCH  54  79
ATOM     79  C   UNL A   1      43.185  25.545  26.181  1.00  0.00     0.058 A 
ATOM     80  C   UNL A   1      44.233  25.365  25.255  1.00  0.00     0.135 A 
ATOM     81  C   UNL A   1      42.475  24.386  26.546  1.00  0.00     0.135 A 
ATOM     82  F   UNL A   1      44.956  26.418  24.842  1.00  0.00    -0.206 F 
ATOM     83  C   UNL A   1      44.629  24.101  24.807  1.00  0.00     0.059 A 
ATOM     84  C   UNL A   1      42.848  23.113  26.106  1.00  0.00     0.059 A 
ATOM     85  F   UNL A   1      41.464  24.452  27.426  1.00  0.00    -0.206 F 
ATOM     86  C   UNL A   1      43.955  22.975  25.271  1.00  0.00     0.060 A 
BRANCH  86  87
ATOM     87  S   UNL A   1      44.618  21.334  24.886  1.00  0.00     0.124 S 
ATOM     88  O   UNL A   1      43.580  20.454  25.414  1.00  0.00    -0.237 OA
ATOM     89  O   UNL A   1      44.731  21.384  23.432  1.00  0.00    -0.237 OA
ATOM     90  O   UNL A   1      45.887  21.305  25.607  1.00  0.00    -0.744 OA
ENDBRANCH  86  87
ENDBRANCH  54  79
BRANCH  66  91
ATOM     91  C   UNL A   1      45.208  30.949  28.810  1.00  0.00     0.058 A 
ATOM     92  C   UNL A   1      46.430  31.337  28.232  1.00  0.00     0.135 A 
ATOM     93  C   UNL A   1      44.052  31.612  28.377  1.00  0.00     0.135 A 
ATOM     94  F   UNL A   1      47.571  30.705  28.539  1.00  0.00    -0.206 F 
ATOM     95  C   UNL A   1      46.497  32.359  27.280  1.00  0.00     0.059 A 
ATOM     96  C   UNL A   1      44.090  32.611  27.410  1.00  0.00     0.059 A 
ATOM     97  F   UNL A   1      42.852  31.257  28.863  1.00  0.00    -0.206 F 
ATOM     98  C   UNL A   1      45.318  32.987  26.873  1.00  0.00     0.060 A 
BRANCH  98  99
ATOM     99  S   UNL A   1      45.389  34.262  25.597  1.00  0.00     0.124 S 
ATOM    100  O   UNL A   1      46.825  34.419  25.396  1.00  0.00    -0.237 OA
ATOM    101  O   UNL A   1      44.656  33.646  24.494  1.00  0.00    -0.237 OA
ATOM    102  O   UNL A   1      44.719  35.404  26.217  1.00  0.00    -0.744 OA
ENDBRANCH  98  99
ENDBRANCH  66  91
ENDBRANCH  40  41
ENDBRANCH  32  35
ENDBRANCH  30  31
ENDBRANCH  29  30
ENDBRANCH   1  29
TORSDOF 18
ENDMDL
MODEL 3
REMARK VINA RESULT:     -12.6      2.694      9.442
REMARK SMILES Cc1nc(-c2ccccc2Cl)nc2sc(C(=O)NCCCCCCNC(=O)c3ccc(-c4c5nc(c(-c6c(F)cc(S(=O)(=O)[O-])cc6F)c6ccc([nH]6)c(-c6c(F)cc(S(=O)(=O)[O-])cc6F)c6nc(c(-c7c(F)cc(S(=O)(=O)[O-])cc7F)c7ccc4[nH]7)C=C6)C=C5)cc3)c(N)c12
REMARK SMILES IDX 22 1 21 2 20 3 19 4 18 5 16 6 17 7 15 9 1 10 2 11 3 12 96 13
REMARK SMILES IDX 4 14 13 15 94 16 12 17 14 18 5 19 6 20 10 21 7 22 9 23 11 24
REMARK SMILES IDX 8 25 95 26 23 29 24 30 25 31 26 32 27 34 28 35 29 36 93 37
REMARK SMILES IDX 30 38 92 39 31 40 32 41 33 42 86 43 34 44 91 45 85 46 87 47
REMARK SMILES IDX 35 48 90 49 84 50 83 51 36 53 70 54 49 55 69 56 50 57 53 58
REMARK SMILES IDX 68 59 88 60 51 61 52 62 67 64 89 65 54 66 37 67 38 68 47 69
REMARK SMILES IDX 39 70 40 71 46 72 48 73 41 74 42 75 43 76 44 77 45 78 71 79
REMARK SMILES IDX 72 80 81 81 73 82 74 83 80 84 82 85 75 86 76 87 77 88 78 89
REMARK SMILES IDX 79 90 55 91 56 92 65 93 57 94 58 95 64 96 66 97 59 98 60 99
REMARK SMILES IDX 61 100 62 101 63 102
REMARK H PARENT 18 8 95 27 95 28 25 33 87 52 53 63
REMARK Flexibility Score: inf
ROOT
ATOM      1  C   UNL A   1      34.690  29.063  26.925  1.00  0.00     0.002 C 
ENDROOT
BRANCH   1   2
ATOM      2  C   UNL A   1      33.742  28.432  25.890  1.00  0.00     0.002 C 
BRANCH   2   3
ATOM      3  C   UNL A   1      33.142  29.406  24.868  1.00  0.00     0.021 C 
BRANCH   3   4
ATOM      4  C   UNL A   1      31.611  29.397  24.849  1.00  0.00     0.116 C 
BRANCH   4   5
ATOM      5  N   UNL A   1      31.096  28.912  23.577  1.00  0.00    -0.351 N 
ATOM      6  C   UNL A   1      31.139  27.678  22.961  1.00  0.00     0.263 C 
ATOM      7  O   UNL A   1      30.463  27.586  21.930  1.00  0.00    -0.268 OA
ATOM      8  H   UNL A   1      30.625  29.600  23.053  1.00  0.00     0.163 HD
BRANCH   6   9
ATOM      9  C   UNL A   1      31.859  26.536  23.517  1.00  0.00     0.118 A 
ATOM     10  C   UNL A   1      31.468  23.061  26.672  1.00  0.00     0.067 C 
ATOM     11  C   UNL A   1      32.583  23.728  25.927  1.00  0.00     0.052 A 
ATOM     12  N   UNL A   1      33.832  23.236  26.201  1.00  0.00    -0.233 NA
ATOM     13  C   UNL A   1      32.455  24.743  24.951  1.00  0.00     0.056 A 
ATOM     14  C   UNL A   1      34.890  23.686  25.504  1.00  0.00     0.162 A 
ATOM     15  C   UNL A   1      33.629  25.047  24.281  1.00  0.00     0.130 A 
ATOM     16  C   UNL A   1      31.402  25.603  24.448  1.00  0.00     0.067 A 
ATOM     17  N   UNL A   1      34.855  24.586  24.527  1.00  0.00    -0.217 NA
ATOM     18  S   UNL A   1      33.397  26.063  22.960  1.00  0.00    -0.108 S 
BRANCH  14  19
ATOM     19  C   UNL A   1      36.218  23.151  25.777  1.00  0.00     0.038 A 
ATOM     20  C   UNL A   1      37.244  24.023  26.200  1.00  0.00     0.013 A 
ATOM     21  C   UNL A   1      36.558  21.823  25.478  1.00  0.00     0.052 A 
ATOM     22  C   UNL A   1      38.567  23.586  26.304  1.00  0.00     0.001 A 
ATOM     23  C   UNL A   1      37.885  21.390  25.578  1.00  0.00     0.021 A 
ATOM     24  Cl  UNL A   1      35.386  20.683  24.911  1.00  0.00    -0.084 Cl
ATOM     25  C   UNL A   1      38.887  22.271  25.984  1.00  0.00     0.002 A 
ENDBRANCH  14  19
BRANCH  16  26
ATOM     26  N   UNL A   1      30.117  25.596  24.868  1.00  0.00    -0.397 N 
ATOM     27  H   UNL A   1      29.648  24.741  25.006  1.00  0.00     0.156 HD
ATOM     28  H   UNL A   1      29.650  26.446  25.038  1.00  0.00     0.156 HD
ENDBRANCH  16  26
ENDBRANCH   6   9
ENDBRANCH   4   5
ENDBRANCH   3   4
ENDBRANCH   2   3
ENDBRANCH   1   2
BRANCH   1  29
ATOM     29  C   UNL A   1      34.140  30.269  27.699  1.00  0.00     0.021 C 
BRANCH  29  30
ATOM     30  C   UNL A   1      35.202  31.311  28.010  1.00  0.00     0.116 C 
BRANCH  30  31
ATOM     31  N   UNL A   1      34.900  32.045  29.239  1.00  0.00    -0.352 N 
ATOM     32  C   UNL A   1      35.395  31.819  30.511  1.00  0.00     0.251 C 
ATOM     33  H   UNL A   1      34.267  32.793  29.150  1.00  0.00     0.163 HD
ATOM     34  O   UNL A   1      34.810  32.239  31.495  1.00  0.00    -0.269 OA
BRANCH  32  35
ATOM     35  C   UNL A   1      36.659  31.072  30.637  1.00  0.00     0.039 A 
ATOM     36  C   UNL A   1      36.686  29.676  30.685  1.00  0.00     0.014 A 
ATOM     37  C   UNL A   1      37.835  31.815  30.675  1.00  0.00     0.014 A 
ATOM     38  C   UNL A   1      37.924  29.037  30.700  1.00  0.00     0.010 A 
ATOM     39  C   UNL A   1      39.041  31.187  30.521  1.00  0.00     0.010 A 
ATOM     40  C   UNL A   1      39.098  29.802  30.600  1.00  0.00    -0.014 A 
BRANCH  40  41
ATOM     41  C   UNL A   1      40.403  29.175  30.429  1.00  0.00     0.031 A 
ATOM     42  C   UNL A   1      41.123  28.972  31.716  1.00  0.00     0.074 A 
ATOM     43  C   UNL A   1      40.800  28.623  29.258  1.00  0.00     0.049 A 
ATOM     44  N   UNL A   1      42.140  29.632  32.162  1.00  0.00    -0.248 NA
ATOM     45  C   UNL A   1      40.527  28.071  32.720  1.00  0.00     0.031 C 
ATOM     46  C   UNL A   1      40.030  28.484  28.013  1.00  0.00     0.029 A 
ATOM     47  N   UNL A   1      41.961  27.977  28.952  1.00  0.00    -0.354 N 
ATOM     48  C   UNL A   1      42.482  29.027  33.369  1.00  0.00     0.074 A 
ATOM     49  C   UNL A   1      41.336  28.258  33.767  1.00  0.00     0.031 C 
ATOM     50  C   UNL A   1      40.642  27.607  27.184  1.00  0.00     0.029 A 
ATOM     51  C   UNL A   1      41.936  27.271  27.747  1.00  0.00     0.049 A 
ATOM     52  H   UNL A   1      42.753  28.007  29.534  1.00  0.00     0.167 HD
ATOM     53  C   UNL A   1      43.785  28.961  33.764  1.00  0.00     0.037 A 
ATOM     54  C   UNL A   1      42.928  26.488  27.250  1.00  0.00     0.037 A 
ATOM     55  C   UNL A   1      44.598  29.819  32.938  1.00  0.00     0.049 A 
ATOM     56  C   UNL A   1      44.175  26.937  27.911  1.00  0.00     0.074 A 
ATOM     57  C   UNL A   1      44.792  31.174  32.790  1.00  0.00     0.029 A 
ATOM     58  N   UNL A   1      45.036  29.212  31.790  1.00  0.00    -0.354 N 
ATOM     59  N   UNL A   1      44.697  28.121  27.736  1.00  0.00    -0.248 NA
ATOM     60  C   UNL A   1      44.660  26.203  29.072  1.00  0.00     0.031 C 
ATOM     61  C   UNL A   1      45.151  31.371  31.422  1.00  0.00     0.029 A 
ATOM     62  C   UNL A   1      45.229  30.129  30.793  1.00  0.00     0.049 A 
ATOM     63  H   UNL A   1      45.191  28.245  31.694  1.00  0.00     0.167 HD
ATOM     64  C   UNL A   1      45.238  28.443  28.965  1.00  0.00     0.074 A 
ATOM     65  C   UNL A   1      45.337  27.177  29.684  1.00  0.00     0.031 C 
ATOM     66  C   UNL A   1      45.253  29.736  29.399  1.00  0.00     0.037 A 
BRANCH  53  67
ATOM     67  C   UNL A   1      44.411  27.801  34.518  1.00  0.00     0.058 A 
ATOM     68  C   UNL A   1      44.325  26.500  33.977  1.00  0.00     0.135 A 
ATOM     69  C   UNL A   1      44.828  27.863  35.867  1.00  0.00     0.135 A 
ATOM     70  F   UNL A   1      43.918  26.312  32.710  1.00  0.00    -0.206 F 
ATOM     71  C   UNL A   1      44.588  25.352  34.729  1.00  0.00     0.059 A 
ATOM     72  C   UNL A   1      45.143  26.736  36.619  1.00  0.00     0.059 A 
ATOM     73  F   UNL A   1      44.858  29.009  36.556  1.00  0.00    -0.206 F 
ATOM     74  C   UNL A   1      44.992  25.482  36.054  1.00  0.00     0.060 A 
BRANCH  74  75
ATOM     75  S   UNL A   1      45.287  24.004  37.043  1.00  0.00     0.124 S 
ATOM     76  O   UNL A   1      44.613  24.344  38.290  1.00  0.00    -0.237 OA
ATOM     77  O   UNL A   1      44.653  22.969  36.233  1.00  0.00    -0.237 OA
ATOM     78  O   UNL A   1      46.744  23.931  37.111  1.00  0.00    -0.744 OA
ENDBRANCH  74  75
ENDBRANCH  53  67
BRANCH  54  79
ATOM     79  C   UNL A   1      42.880  25.209  26.490  1.00  0.00     0.058 A 
ATOM     80  C   UNL A   1      43.603  25.069  25.287  1.00  0.00     0.135 A 
ATOM     81  C   UNL A   1      42.451  24.015  27.097  1.00  0.00     0.135 A 
ATOM     82  F   UNL A   1      44.042  26.156  24.634  1.00  0.00    -0.206 F 
ATOM     83  C   UNL A   1      43.977  23.822  24.778  1.00  0.00     0.059 A 
ATOM     84  C   UNL A   1      42.808  22.757  26.604  1.00  0.00     0.059 A 
ATOM     85  F   UNL A   1      41.762  24.042  28.248  1.00  0.00    -0.206 F 
ATOM     86  C   UNL A   1      43.609  22.670  25.468  1.00  0.00     0.060 A 
BRANCH  86  87
ATOM     87  S   UNL A   1      44.297  21.077  24.947  1.00  0.00     0.124 S 
ATOM     88  O   UNL A   1      43.249  20.145  25.350  1.00  0.00    -0.237 OA
ATOM     89  O   UNL A   1      44.459  21.270  23.509  1.00  0.00    -0.237 OA
ATOM     90  O   UNL A   1      45.542  20.982  25.705  1.00  0.00    -0.744 OA
ENDBRANCH  86  87
ENDBRANCH  54  79
BRANCH  66  91
ATOM     91  C   UNL A   1      45.163  30.821  28.363  1.00  0.00     0.058 A 
ATOM     92  C   UNL A   1      46.213  31.238  27.526  1.00  0.00     0.135 A 
ATOM     93  C   UNL A   1      43.904  31.399  28.153  1.00  0.00     0.135 A 
ATOM     94  F   UNL A   1      47.430  30.683  27.615  1.00  0.00    -0.206 F 
ATOM     95  C   UNL A   1      46.019  32.207  26.537  1.00  0.00     0.059 A 
ATOM     96  C   UNL A   1      43.681  32.343  27.158  1.00  0.00     0.059 A 
ATOM     97  F   UNL A   1      42.855  31.010  28.895  1.00  0.00    -0.206 F 
ATOM     98  C   UNL A   1      44.745  32.751  26.359  1.00  0.00     0.060 A 
BRANCH  98  99
ATOM     99  S   UNL A   1      44.472  33.956  25.042  1.00  0.00     0.124 S 
ATOM    100  O   UNL A   1      43.382  34.761  25.582  1.00  0.00    -0.237 OA
ATOM    101  O   UNL A   1      45.768  34.621  24.950  1.00  0.00    -0.237 OA
ATOM    102  O   UNL A   1      44.124  33.128  23.889  1.00  0.00    -0.744 OA
ENDBRANCH  98  99
ENDBRANCH  66  91
ENDBRANCH  40  41
ENDBRANCH  32  35
ENDBRANCH  30  31
ENDBRANCH  29  30
ENDBRANCH   1  29
TORSDOF 18
ENDMDL
