MODEL 1
REMARK VINA RESULT:     -12.6      0.000      0.000
REMARK SMILES CCOc1ccc(C(=O)N2CCC(C(=O)NCCCCCCNC(=O)c3ccc(-c4c5nc(c(-c6c(F)cc(S(=O)(=O)[O-])cc6F)c6ccc([nH]6)c(-c6c(F)cc(S(=O)(=O)[O-])cc6F)c6nc(c(-c7c(F)cc(S(=O)(=O)[O-])cc7F)c7ccc4[nH]7)C=C6)C=C5)cc3)(c3ccccc3)CC2)cc1OC
REMARK SMILES IDX 19 1 18 2 17 3 16 4 14 5 15 6 13 8 8 9 9 10 10 11 11 12
REMARK SMILES IDX 99 13 12 14 98 15 7 16 4 17 5 18 101 19 6 20 100 21 3 22
REMARK SMILES IDX 2 23 1 24 102 25 103 26 92 27 93 28 97 29 94 30 96 31 95 32
REMARK SMILES IDX 20 33 21 34 22 35 23 36 24 37 25 39 26 40 27 41 91 42 28 43
REMARK SMILES IDX 90 44 29 45 30 46 31 47 84 48 32 49 89 50 83 51 85 52 33 53
REMARK SMILES IDX 88 54 82 55 81 56 34 58 68 59 47 60 67 61 48 62 51 63 66 64
REMARK SMILES IDX 86 65 49 66 50 67 65 69 87 70 52 71 35 72 36 73 45 74 37 75
REMARK SMILES IDX 38 76 44 77 46 78 39 79 40 80 41 81 42 82 43 83 69 84 70 85
REMARK SMILES IDX 79 86 71 87 72 88 78 89 80 90 73 91 74 92 75 93 76 94 77 95
REMARK SMILES IDX 53 96 54 97 63 98 55 99 56 100 62 101 64 102 57 103 58 104
REMARK SMILES IDX 59 105 60 106 61 107
REMARK H PARENT 16 7 23 38 85 57 51 68
REMARK Flexibility Score: inf
ROOT
ATOM      1  C   UNL A   1      38.193  22.872  26.127  1.00  0.00     0.002 C 
ENDROOT
BRANCH   1   2
ATOM      2  C   UNL A   1      37.427  22.646  24.818  1.00  0.00     0.021 C 
BRANCH   2   3
ATOM      3  C   UNL A   1      36.284  21.642  24.939  1.00  0.00     0.116 C 
BRANCH   3   4
ATOM      4  N   UNL A   1      35.696  21.700  26.268  1.00  0.00    -0.355 N 
ATOM      5  C   UNL A   1      34.506  22.179  26.740  1.00  0.00     0.230 C 
ATOM      6  O   UNL A   1      34.439  22.182  27.971  1.00  0.00    -0.274 OA
ATOM      7  H   UNL A   1      36.270  21.315  26.969  1.00  0.00     0.163 HD
BRANCH   5   8
ATOM      8  C   UNL A   1      33.362  22.649  25.771  1.00  0.00     0.077 C 
ATOM      9  C   UNL A   1      31.225  26.458  25.799  1.00  0.00     0.253 C 
ATOM     10  O   UNL A   1      30.794  26.807  26.898  1.00  0.00    -0.269 OA
ATOM     11  N   UNL A   1      31.892  25.226  25.641  1.00  0.00    -0.339 N 
ATOM     12  C   UNL A   1      31.229  24.091  26.258  1.00  0.00     0.121 C 
ATOM     13  C   UNL A   1      32.936  24.963  24.652  1.00  0.00     0.121 C 
ATOM     14  C   UNL A   1      32.124  22.933  26.668  1.00  0.00     0.043 C 
ATOM     15  C   UNL A   1      33.946  23.905  25.057  1.00  0.00     0.043 C 
BRANCH   9  16
ATOM     16  C   UNL A   1      30.868  27.298  24.607  1.00  0.00     0.043 A 
ATOM     17  C   UNL A   1      30.128  29.056  22.514  1.00  0.00     0.161 A 
ATOM     18  C   UNL A   1      31.452  29.015  22.984  1.00  0.00     0.051 A 
ATOM     19  C   UNL A   1      29.182  28.199  23.066  1.00  0.00     0.161 A 
ATOM     20  C   UNL A   1      31.823  28.131  24.013  1.00  0.00     0.018 A 
ATOM     21  C   UNL A   1      29.556  27.404  24.150  1.00  0.00     0.064 A 
BRANCH  17  22
ATOM     22  O   UNL A   1      29.803  29.887  21.480  1.00  0.00    -0.490 OA
BRANCH  22  23
ATOM     23  C   UNL A   1      29.116  31.074  21.896  1.00  0.00     0.226 C 
ATOM     24  C   UNL A   1      28.212  31.533  20.761  1.00  0.00     0.049 C 
ENDBRANCH  22  23
ENDBRANCH  17  22
BRANCH  19  25
ATOM     25  O   UNL A   1      27.876  27.977  22.742  1.00  0.00    -0.493 OA
ATOM     26  C   UNL A   1      26.841  28.538  23.521  1.00  0.00     0.278 C 
ENDBRANCH  19  25
ENDBRANCH   9  16
BRANCH   8  27
ATOM     27  C   UNL A   1      32.920  21.620  24.663  1.00  0.00    -0.032 A 
ATOM     28  C   UNL A   1      32.848  20.230  24.852  1.00  0.00     0.005 A 
ATOM     29  C   UNL A   1      32.558  22.070  23.371  1.00  0.00     0.005 A 
ATOM     30  C   UNL A   1      32.454  19.352  23.830  1.00  0.00     0.000 A 
ATOM     31  C   UNL A   1      32.177  21.199  22.343  1.00  0.00     0.000 A 
ATOM     32  C   UNL A   1      32.125  19.836  22.572  1.00  0.00     0.000 A 
ENDBRANCH   8  27
ENDBRANCH   5   8
ENDBRANCH   3   4
ENDBRANCH   2   3
ENDBRANCH   1   2
BRANCH   1  33
ATOM     33  C   UNL A   1      39.576  22.218  26.183  1.00  0.00     0.002 C 
BRANCH  33  34
ATOM     34  C   UNL A   1      40.325  22.418  27.503  1.00  0.00     0.021 C 
BRANCH  34  35
ATOM     35  C   UNL A   1      41.608  23.228  27.381  1.00  0.00     0.116 C 
BRANCH  35  36
ATOM     36  N   UNL A   1      41.617  24.051  26.183  1.00  0.00    -0.352 N 
ATOM     37  C   UNL A   1      41.345  25.391  26.055  1.00  0.00     0.251 C 
ATOM     38  H   UNL A   1      41.850  23.584  25.348  1.00  0.00     0.163 HD
ATOM     39  O   UNL A   1      41.194  25.885  24.945  1.00  0.00    -0.269 OA
BRANCH  37  40
ATOM     40  C   UNL A   1      41.219  26.224  27.270  1.00  0.00     0.039 A 
ATOM     41  C   UNL A   1      42.202  27.179  27.540  1.00  0.00     0.014 A 
ATOM     42  C   UNL A   1      40.130  26.069  28.133  1.00  0.00     0.014 A 
ATOM     43  C   UNL A   1      42.062  28.015  28.649  1.00  0.00     0.010 A 
ATOM     44  C   UNL A   1      39.951  26.957  29.188  1.00  0.00     0.010 A 
ATOM     45  C   UNL A   1      40.920  27.933  29.463  1.00  0.00    -0.014 A 
BRANCH  45  46
ATOM     46  C   UNL A   1      40.724  28.859  30.608  1.00  0.00     0.031 A 
ATOM     47  C   UNL A   1      41.569  28.723  31.845  1.00  0.00     0.074 A 
ATOM     48  C   UNL A   1      39.749  29.788  30.552  1.00  0.00     0.049 A 
ATOM     49  N   UNL A   1      41.521  29.409  32.958  1.00  0.00    -0.248 NA
ATOM     50  C   UNL A   1      42.583  27.657  31.841  1.00  0.00     0.031 C 
ATOM     51  C   UNL A   1      38.836  29.988  29.426  1.00  0.00     0.029 A 
ATOM     52  N   UNL A   1      39.361  30.736  31.465  1.00  0.00    -0.354 N 
ATOM     53  C   UNL A   1      42.490  28.856  33.787  1.00  0.00     0.074 A 
ATOM     54  C   UNL A   1      43.064  27.736  33.073  1.00  0.00     0.031 C 
ATOM     55  C   UNL A   1      38.017  31.017  29.699  1.00  0.00     0.029 A 
ATOM     56  C   UNL A   1      38.317  31.521  31.036  1.00  0.00     0.049 A 
ATOM     57  H   UNL A   1      39.790  30.844  32.345  1.00  0.00     0.167 HD
ATOM     58  C   UNL A   1      42.885  29.260  35.019  1.00  0.00     0.037 A 
ATOM     59  C   UNL A   1      37.671  32.530  31.651  1.00  0.00     0.037 A 
ATOM     60  C   UNL A   1      42.311  30.380  35.718  1.00  0.00     0.049 A 
ATOM     61  C   UNL A   1      38.107  32.946  33.030  1.00  0.00     0.074 A 
ATOM     62  C   UNL A   1      42.668  30.902  36.949  1.00  0.00     0.029 A 
ATOM     63  N   UNL A   1      41.252  31.148  35.253  1.00  0.00    -0.354 N 
ATOM     64  N   UNL A   1      39.068  32.454  33.774  1.00  0.00    -0.248 NA
ATOM     65  C   UNL A   1      37.375  34.058  33.650  1.00  0.00     0.031 C 
ATOM     66  C   UNL A   1      41.790  31.948  37.253  1.00  0.00     0.029 A 
ATOM     67  C   UNL A   1      40.924  32.121  36.184  1.00  0.00     0.049 A 
ATOM     68  H   UNL A   1      40.800  31.020  34.388  1.00  0.00     0.167 HD
ATOM     69  C   UNL A   1      39.076  33.215  34.938  1.00  0.00     0.074 A 
ATOM     70  C   UNL A   1      38.030  34.207  34.793  1.00  0.00     0.031 C 
ATOM     71  C   UNL A   1      39.880  33.104  36.027  1.00  0.00     0.037 A 
BRANCH  58  72
ATOM     72  C   UNL A   1      43.985  28.475  35.686  1.00  0.00     0.058 A 
ATOM     73  C   UNL A   1      43.710  27.425  36.577  1.00  0.00     0.135 A 
ATOM     74  C   UNL A   1      45.334  28.772  35.427  1.00  0.00     0.135 A 
ATOM     75  F   UNL A   1      42.440  27.103  36.872  1.00  0.00    -0.206 F 
ATOM     76  C   UNL A   1      44.728  26.730  37.224  1.00  0.00     0.059 A 
ATOM     77  C   UNL A   1      46.368  28.068  36.036  1.00  0.00     0.059 A 
ATOM     78  F   UNL A   1      45.659  29.763  34.582  1.00  0.00    -0.206 F 
ATOM     79  C   UNL A   1      46.055  27.063  36.949  1.00  0.00     0.060 A 
BRANCH  79  80
ATOM     80  S   UNL A   1      47.362  26.167  37.814  1.00  0.00     0.124 S 
ATOM     81  O   UNL A   1      48.178  25.695  36.700  1.00  0.00    -0.237 OA
ATOM     82  O   UNL A   1      47.960  27.210  38.640  1.00  0.00    -0.237 OA
ATOM     83  O   UNL A   1      46.639  25.130  38.544  1.00  0.00    -0.744 OA
ENDBRANCH  79  80
ENDBRANCH  58  72
BRANCH  59  84
ATOM     84  C   UNL A   1      36.568  33.238  30.947  1.00  0.00     0.058 A 
ATOM     85  C   UNL A   1      35.231  33.050  31.332  1.00  0.00     0.135 A 
ATOM     86  C   UNL A   1      36.825  34.141  29.903  1.00  0.00     0.135 A 
ATOM     87  F   UNL A   1      34.933  32.192  32.320  1.00  0.00    -0.206 F 
ATOM     88  C   UNL A   1      34.190  33.724  30.704  1.00  0.00     0.059 A 
ATOM     89  C   UNL A   1      35.803  34.847  29.277  1.00  0.00     0.059 A 
ATOM     90  F   UNL A   1      38.087  34.369  29.507  1.00  0.00    -0.206 F 
ATOM     91  C   UNL A   1      34.486  34.627  29.682  1.00  0.00     0.060 A 
BRANCH  91  92
ATOM     92  S   UNL A   1      33.130  35.545  28.920  1.00  0.00     0.124 S 
ATOM     93  O   UNL A   1      33.851  36.504  28.092  1.00  0.00    -0.237 OA
ATOM     94  O   UNL A   1      32.414  34.493  28.205  1.00  0.00    -0.237 OA
ATOM     95  O   UNL A   1      32.421  36.108  30.066  1.00  0.00    -0.744 OA
ENDBRANCH  91  92
ENDBRANCH  59  84
BRANCH  71  96
ATOM     96  C   UNL A   1      39.684  34.103  37.136  1.00  0.00     0.058 A 
ATOM     97  C   UNL A   1      38.855  33.836  38.237  1.00  0.00     0.135 A 
ATOM     98  C   UNL A   1      40.376  35.326  37.118  1.00  0.00     0.135 A 
ATOM     99  F   UNL A   1      38.165  32.687  38.302  1.00  0.00    -0.206 F 
ATOM    100  C   UNL A   1      38.697  34.758  39.268  1.00  0.00     0.059 A 
ATOM    101  C   UNL A   1      40.258  36.247  38.154  1.00  0.00     0.059 A 
ATOM    102  F   UNL A   1      41.191  35.627  36.094  1.00  0.00    -0.206 F 
ATOM    103  C   UNL A   1      39.406  35.960  39.218  1.00  0.00     0.060 A 
BRANCH 103 104
ATOM    104  S   UNL A   1      39.216  37.133  40.577  1.00  0.00     0.124 S 
ATOM    105  O   UNL A   1      38.251  38.075  40.021  1.00  0.00    -0.237 OA
ATOM    106  O   UNL A   1      38.721  36.282  41.655  1.00  0.00    -0.237 OA
ATOM    107  O   UNL A   1      40.566  37.655  40.768  1.00  0.00    -0.744 OA
ENDBRANCH 103 104
ENDBRANCH  71  96
ENDBRANCH  45  46
ENDBRANCH  37  40
ENDBRANCH  35  36
ENDBRANCH  34  35
ENDBRANCH  33  34
ENDBRANCH   1  33
TORSDOF 21
ENDMDL
MODEL 2
REMARK VINA RESULT:     -12.1      0.447      7.883
REMARK SMILES CCOc1ccc(C(=O)N2CCC(C(=O)NCCCCCCNC(=O)c3ccc(-c4c5nc(c(-c6c(F)cc(S(=O)(=O)[O-])cc6F)c6ccc([nH]6)c(-c6c(F)cc(S(=O)(=O)[O-])cc6F)c6nc(c(-c7c(F)cc(S(=O)(=O)[O-])cc7F)c7ccc4[nH]7)C=C6)C=C5)cc3)(c3ccccc3)CC2)cc1OC
REMARK SMILES IDX 19 1 18 2 17 3 16 4 14 5 15 6 13 8 8 9 9 10 10 11 11 12
REMARK SMILES IDX 99 13 12 14 98 15 7 16 4 17 5 18 101 19 6 20 100 21 3 22
REMARK SMILES IDX 2 23 1 24 102 25 103 26 92 27 93 28 97 29 94 30 96 31 95 32
REMARK SMILES IDX 20 33 21 34 22 35 23 36 24 37 25 39 26 40 27 41 91 42 28 43
REMARK SMILES IDX 90 44 29 45 30 46 31 47 84 48 32 49 89 50 83 51 85 52 33 53
REMARK SMILES IDX 88 54 82 55 81 56 34 58 68 59 47 60 67 61 48 62 51 63 66 64
REMARK SMILES IDX 86 65 49 66 50 67 65 69 87 70 52 71 35 72 36 73 45 74 37 75
REMARK SMILES IDX 38 76 44 77 46 78 39 79 40 80 41 81 42 82 43 83 69 84 70 85
REMARK SMILES IDX 79 86 71 87 72 88 78 89 80 90 73 91 74 92 75 93 76 94 77 95
REMARK SMILES IDX 53 96 54 97 63 98 55 99 56 100 62 101 64 102 57 103 58 104
REMARK SMILES IDX 59 105 60 106 61 107
REMARK H PARENT 16 7 23 38 85 57 51 68
REMARK Flexibility Score: inf
ROOT
ATOM      1  C   UNL A   1      38.273  23.146  26.171  1.00  0.00     0.002 C 
ENDROOT
BRANCH   1   2
ATOM      2  C   UNL A   1      37.401  22.893  24.936  1.00  0.00     0.021 C 
BRANCH   2   3
ATOM      3  C   UNL A   1      36.349  21.806  25.138  1.00  0.00     0.116 C 
BRANCH   3   4
ATOM      4  N   UNL A   1      35.766  21.904  26.467  1.00  0.00    -0.355 N 
ATOM      5  C   UNL A   1      34.577  22.396  26.928  1.00  0.00     0.230 C 
ATOM      6  O   UNL A   1      34.515  22.436  28.159  1.00  0.00    -0.274 OA
ATOM      7  H   UNL A   1      36.343  21.542  27.177  1.00  0.00     0.163 HD
BRANCH   5   8
ATOM      8  C   UNL A   1      33.429  22.835  25.950  1.00  0.00     0.077 C 
ATOM      9  C   UNL A   1      31.274  26.633  25.882  1.00  0.00     0.253 C 
ATOM     10  O   UNL A   1      30.844  27.010  26.973  1.00  0.00    -0.269 OA
ATOM     11  N   UNL A   1      31.946  25.401  25.755  1.00  0.00    -0.339 N 
ATOM     12  C   UNL A   1      31.290  24.279  26.404  1.00  0.00     0.121 C 
ATOM     13  C   UNL A   1      32.989  25.116  24.772  1.00  0.00     0.121 C 
ATOM     14  C   UNL A   1      32.192  23.136  26.842  1.00  0.00     0.043 C 
ATOM     15  C   UNL A   1      34.005  24.074  25.202  1.00  0.00     0.043 C 
BRANCH   9  16
ATOM     16  C   UNL A   1      30.910  27.439  24.669  1.00  0.00     0.043 A 
ATOM     17  C   UNL A   1      30.144  29.133  22.532  1.00  0.00     0.161 A 
ATOM     18  C   UNL A   1      31.453  29.167  23.043  1.00  0.00     0.051 A 
ATOM     19  C   UNL A   1      29.228  28.233  23.066  1.00  0.00     0.161 A 
ATOM     20  C   UNL A   1      31.838  28.315  24.094  1.00  0.00     0.018 A 
ATOM     21  C   UNL A   1      29.610  27.471  24.172  1.00  0.00     0.064 A 
BRANCH  17  22
ATOM     22  O   UNL A   1      29.808  29.934  21.479  1.00  0.00    -0.490 OA
BRANCH  22  23
ATOM     23  C   UNL A   1      28.759  30.862  21.779  1.00  0.00     0.226 C 
ATOM     24  C   UNL A   1      29.065  31.524  23.115  1.00  0.00     0.049 C 
ENDBRANCH  22  23
ENDBRANCH  17  22
BRANCH  19  25
ATOM     25  O   UNL A   1      27.946  27.939  22.705  1.00  0.00    -0.493 OA
ATOM     26  C   UNL A   1      26.860  28.434  23.458  1.00  0.00     0.278 C 
ENDBRANCH  19  25
ENDBRANCH   9  16
BRANCH   8  27
ATOM     27  C   UNL A   1      32.989  21.775  24.870  1.00  0.00    -0.032 A 
ATOM     28  C   UNL A   1      32.617  22.090  23.554  1.00  0.00     0.005 A 
ATOM     29  C   UNL A   1      32.951  20.398  25.193  1.00  0.00     0.005 A 
ATOM     30  C   UNL A   1      32.226  21.109  22.628  1.00  0.00     0.000 A 
ATOM     31  C   UNL A   1      32.549  19.415  24.279  1.00  0.00     0.000 A 
ATOM     32  C   UNL A   1      32.185  19.771  22.992  1.00  0.00     0.000 A 
ENDBRANCH   8  27
ENDBRANCH   5   8
ENDBRANCH   3   4
ENDBRANCH   2   3
ENDBRANCH   1   2
BRANCH   1  33
ATOM     33  C   UNL A   1      39.539  22.287  26.251  1.00  0.00     0.002 C 
BRANCH  33  34
ATOM     34  C   UNL A   1      40.346  22.456  27.540  1.00  0.00     0.021 C 
BRANCH  34  35
ATOM     35  C   UNL A   1      41.639  23.244  27.371  1.00  0.00     0.116 C 
BRANCH  35  36
ATOM     36  N   UNL A   1      41.596  24.112  26.206  1.00  0.00    -0.352 N 
ATOM     37  C   UNL A   1      41.302  25.451  26.139  1.00  0.00     0.251 C 
ATOM     38  H   UNL A   1      41.808  23.680  25.347  1.00  0.00     0.163 HD
ATOM     39  O   UNL A   1      41.106  25.984  25.053  1.00  0.00    -0.269 OA
BRANCH  37  40
ATOM     40  C   UNL A   1      41.203  26.236  27.388  1.00  0.00     0.039 A 
ATOM     41  C   UNL A   1      42.199  27.170  27.679  1.00  0.00     0.014 A 
ATOM     42  C   UNL A   1      40.127  26.056  28.262  1.00  0.00     0.014 A 
ATOM     43  C   UNL A   1      42.086  27.962  28.823  1.00  0.00     0.010 A 
ATOM     44  C   UNL A   1      39.974  26.902  29.355  1.00  0.00     0.010 A 
ATOM     45  C   UNL A   1      40.956  27.858  29.652  1.00  0.00    -0.014 A 
BRANCH  45  46
ATOM     46  C   UNL A   1      40.788  28.738  30.836  1.00  0.00     0.031 A 
ATOM     47  C   UNL A   1      39.738  29.815  30.836  1.00  0.00     0.074 A 
ATOM     48  C   UNL A   1      41.618  28.601  31.890  1.00  0.00     0.049 A 
ATOM     49  N   UNL A   1      39.466  30.704  31.757  1.00  0.00    -0.248 NA
ATOM     50  C   UNL A   1      38.901  29.925  29.632  1.00  0.00     0.031 C 
ATOM     51  C   UNL A   1      42.703  27.624  31.989  1.00  0.00     0.029 A 
ATOM     52  N   UNL A   1      41.680  29.286  33.077  1.00  0.00    -0.354 N 
ATOM     53  C   UNL A   1      38.435  31.481  31.241  1.00  0.00     0.074 A 
ATOM     54  C   UNL A   1      38.176  31.000  29.902  1.00  0.00     0.031 C 
ATOM     55  C   UNL A   1      43.301  27.749  33.185  1.00  0.00     0.029 A 
ATOM     56  C   UNL A   1      42.672  28.842  33.920  1.00  0.00     0.049 A 
ATOM     57  H   UNL A   1      41.072  30.027  33.304  1.00  0.00     0.167 HD
ATOM     58  C   UNL A   1      37.748  32.485  31.839  1.00  0.00     0.037 A 
ATOM     59  C   UNL A   1      43.036  29.270  35.144  1.00  0.00     0.037 A 
ATOM     60  C   UNL A   1      38.010  32.952  33.176  1.00  0.00     0.049 A 
ATOM     61  C   UNL A   1      42.278  30.404  35.778  1.00  0.00     0.074 A 
ATOM     62  C   UNL A   1      37.345  33.931  33.892  1.00  0.00     0.029 A 
ATOM     63  N   UNL A   1      39.026  32.481  33.996  1.00  0.00    -0.354 N 
ATOM     64  N   UNL A   1      41.263  31.086  35.303  1.00  0.00    -0.248 NA
ATOM     65  C   UNL A   1      42.711  30.824  37.118  1.00  0.00     0.031 C 
ATOM     66  C   UNL A   1      37.992  34.090  35.122  1.00  0.00     0.029 A 
ATOM     67  C   UNL A   1      39.023  33.167  35.200  1.00  0.00     0.049 A 
ATOM     68  H   UNL A   1      39.656  31.763  33.758  1.00  0.00     0.167 HD
ATOM     69  C   UNL A   1      40.916  31.995  36.297  1.00  0.00     0.074 A 
ATOM     70  C   UNL A   1      41.824  31.767  37.403  1.00  0.00     0.031 C 
ATOM     71  C   UNL A   1      39.933  32.931  36.294  1.00  0.00     0.037 A 
BRANCH  58  72
ATOM     72  C   UNL A   1      36.654  33.146  31.041  1.00  0.00     0.058 A 
ATOM     73  C   UNL A   1      36.937  34.047  30.000  1.00  0.00     0.135 A 
ATOM     74  C   UNL A   1      35.304  32.873  31.315  1.00  0.00     0.135 A 
ATOM     75  F   UNL A   1      38.209  34.356  29.701  1.00  0.00    -0.206 F 
ATOM     76  C   UNL A   1      35.925  34.688  29.294  1.00  0.00     0.059 A 
ATOM     77  C   UNL A   1      34.274  33.477  30.598  1.00  0.00     0.059 A 
ATOM     78  F   UNL A   1      34.971  32.019  32.295  1.00  0.00    -0.206 F 
ATOM     79  C   UNL A   1      34.595  34.399  29.604  1.00  0.00     0.060 A 
BRANCH  79  80
ATOM     80  S   UNL A   1      33.294  35.257  28.693  1.00  0.00     0.124 S 
ATOM     81  O   UNL A   1      32.626  34.146  28.023  1.00  0.00    -0.237 OA
ATOM     82  O   UNL A   1      32.537  35.900  29.762  1.00  0.00    -0.237 OA
ATOM     83  O   UNL A   1      34.032  36.163  27.817  1.00  0.00    -0.744 OA
ENDBRANCH  79  80
ENDBRANCH  58  72
BRANCH  59  84
ATOM     84  C   UNL A   1      44.151  28.594  35.860  1.00  0.00     0.058 A 
ATOM     85  C   UNL A   1      45.479  29.011  35.682  1.00  0.00     0.135 A 
ATOM     86  C   UNL A   1      43.913  27.544  36.762  1.00  0.00     0.135 A 
ATOM     87  F   UNL A   1      45.759  30.005  34.826  1.00  0.00    -0.206 F 
ATOM     88  C   UNL A   1      46.531  28.409  36.364  1.00  0.00     0.059 A 
ATOM     89  C   UNL A   1      44.945  26.944  37.476  1.00  0.00     0.059 A 
ATOM     90  F   UNL A   1      42.659  27.117  36.981  1.00  0.00    -0.206 F 
ATOM     91  C   UNL A   1      46.252  27.381  37.266  1.00  0.00     0.060 A 
BRANCH  91  92
ATOM     92  S   UNL A   1      47.620  26.653  38.194  1.00  0.00     0.124 S 
ATOM     93  O   UNL A   1      48.683  26.644  37.196  1.00  0.00    -0.237 OA
ATOM     94  O   UNL A   1      47.782  27.601  39.292  1.00  0.00    -0.237 OA
ATOM     95  O   UNL A   1      47.104  25.342  38.579  1.00  0.00    -0.744 OA
ENDBRANCH  91  92
ENDBRANCH  59  84
BRANCH  71  96
ATOM     96  C   UNL A   1      39.762  33.758  37.540  1.00  0.00     0.058 A 
ATOM     97  C   UNL A   1      40.409  34.994  37.704  1.00  0.00     0.135 A 
ATOM     98  C   UNL A   1      38.900  33.330  38.564  1.00  0.00     0.135 A 
ATOM     99  F   UNL A   1      41.248  35.449  36.762  1.00  0.00    -0.206 F 
ATOM    100  C   UNL A   1      40.227  35.762  38.851  1.00  0.00     0.059 A 
ATOM    101  C   UNL A   1      38.679  34.096  39.703  1.00  0.00     0.059 A 
ATOM    102  F   UNL A   1      38.248  32.161  38.453  1.00  0.00    -0.206 F 
ATOM    103  C   UNL A   1      39.358  35.305  39.844  1.00  0.00     0.060 A 
BRANCH 103 104
ATOM    104  S   UNL A   1      39.108  36.326  41.311  1.00  0.00     0.124 S 
ATOM    105  O   UNL A   1      37.910  35.726  41.888  1.00  0.00    -0.237 OA
ATOM    106  O   UNL A   1      40.346  36.109  42.055  1.00  0.00    -0.237 OA
ATOM    107  O   UNL A   1      38.938  37.670  40.767  1.00  0.00    -0.744 OA
ENDBRANCH 103 104
ENDBRANCH  71  96
ENDBRANCH  45  46
ENDBRANCH  37  40
ENDBRANCH  35  36
ENDBRANCH  34  35
ENDBRANCH  33  34
ENDBRANCH   1  33
TORSDOF 21
ENDMDL
MODEL 3
REMARK VINA RESULT:     -11.9      6.229     12.049
REMARK SMILES CCOc1ccc(C(=O)N2CCC(C(=O)NCCCCCCNC(=O)c3ccc(-c4c5nc(c(-c6c(F)cc(S(=O)(=O)[O-])cc6F)c6ccc([nH]6)c(-c6c(F)cc(S(=O)(=O)[O-])cc6F)c6nc(c(-c7c(F)cc(S(=O)(=O)[O-])cc7F)c7ccc4[nH]7)C=C6)C=C5)cc3)(c3ccccc3)CC2)cc1OC
REMARK SMILES IDX 19 1 18 2 17 3 16 4 14 5 15 6 13 8 8 9 9 10 10 11 11 12
REMARK SMILES IDX 99 13 12 14 98 15 7 16 4 17 5 18 101 19 6 20 100 21 3 22
REMARK SMILES IDX 2 23 1 24 102 25 103 26 92 27 93 28 97 29 94 30 96 31 95 32
REMARK SMILES IDX 20 33 21 34 22 35 23 36 24 37 25 39 26 40 27 41 91 42 28 43
REMARK SMILES IDX 90 44 29 45 30 46 31 47 84 48 32 49 89 50 83 51 85 52 33 53
REMARK SMILES IDX 88 54 82 55 81 56 34 58 68 59 47 60 67 61 48 62 51 63 66 64
REMARK SMILES IDX 86 65 49 66 50 67 65 69 87 70 52 71 35 72 36 73 45 74 37 75
REMARK SMILES IDX 38 76 44 77 46 78 39 79 40 80 41 81 42 82 43 83 69 84 70 85
REMARK SMILES IDX 79 86 71 87 72 88 78 89 80 90 73 91 74 92 75 93 76 94 77 95
REMARK SMILES IDX 53 96 54 97 63 98 55 99 56 100 62 101 64 102 57 103 58 104
REMARK SMILES IDX 59 105 60 106 61 107
REMARK H PARENT 16 7 23 38 85 57 51 68
REMARK Flexibility Score: inf
ROOT
ATOM      1  C   UNL A   1      32.972  31.404  27.090  1.00  0.00     0.002 C 
ENDROOT
BRANCH   1   2
ATOM      2  C   UNL A   1      32.056  30.186  27.253  1.00  0.00     0.021 C 
BRANCH   2   3
ATOM      3  C   UNL A   1      31.534  29.627  25.932  1.00  0.00     0.116 C 
BRANCH   3   4
ATOM      4  N   UNL A   1      32.548  29.745  24.895  1.00  0.00    -0.355 N 
ATOM      5  C   UNL A   1      33.021  28.875  23.953  1.00  0.00     0.230 C 
ATOM      6  O   UNL A   1      34.003  29.307  23.346  1.00  0.00    -0.274 OA
ATOM      7  H   UNL A   1      32.979  30.629  24.865  1.00  0.00     0.163 HD
BRANCH   5   8
ATOM      8  C   UNL A   1      32.338  27.485  23.694  1.00  0.00     0.077 C 
ATOM      9  C   UNL A   1      34.273  23.604  23.177  1.00  0.00     0.253 C 
ATOM     10  O   UNL A   1      35.206  23.588  22.373  1.00  0.00    -0.269 OA
ATOM     11  N   UNL A   1      33.532  24.781  23.402  1.00  0.00    -0.339 N 
ATOM     12  C   UNL A   1      33.115  25.479  22.198  1.00  0.00     0.121 C 
ATOM     13  C   UNL A   1      32.877  25.127  24.662  1.00  0.00     0.121 C 
ATOM     14  C   UNL A   1      32.893  26.976  22.333  1.00  0.00     0.043 C 
ATOM     15  C   UNL A   1      32.741  26.616  24.923  1.00  0.00     0.043 C 
BRANCH   9  16
ATOM     16  C   UNL A   1      33.841  22.296  23.775  1.00  0.00     0.043 A 
ATOM     17  C   UNL A   1      33.047  19.934  25.122  1.00  0.00     0.161 A 
ATOM     18  C   UNL A   1      32.091  20.859  24.666  1.00  0.00     0.051 A 
ATOM     19  C   UNL A   1      34.395  20.173  24.878  1.00  0.00     0.161 A 
ATOM     20  C   UNL A   1      32.484  22.024  23.984  1.00  0.00     0.018 A 
ATOM     21  C   UNL A   1      34.761  21.383  24.286  1.00  0.00     0.064 A 
BRANCH  17  22
ATOM     22  O   UNL A   1      32.638  18.786  25.736  1.00  0.00    -0.490 OA
BRANCH  22  23
ATOM     23  C   UNL A   1      32.437  17.694  24.831  1.00  0.00     0.226 C 
ATOM     24  C   UNL A   1      32.868  16.407  25.520  1.00  0.00     0.049 C 
ENDBRANCH  22  23
ENDBRANCH  17  22
BRANCH  19  25
ATOM     25  O   UNL A   1      35.500  19.413  25.128  1.00  0.00    -0.493 OA
ATOM     26  C   UNL A   1      36.792  19.965  24.993  1.00  0.00     0.278 C 
ENDBRANCH  19  25
ENDBRANCH   9  16
BRANCH   8  27
ATOM     27  C   UNL A   1      30.765  27.488  23.594  1.00  0.00    -0.032 A 
ATOM     28  C   UNL A   1      30.017  28.439  22.882  1.00  0.00     0.005 A 
ATOM     29  C   UNL A   1      30.005  26.489  24.245  1.00  0.00     0.005 A 
ATOM     30  C   UNL A   1      28.614  28.404  22.828  1.00  0.00     0.000 A 
ATOM     31  C   UNL A   1      28.605  26.455  24.208  1.00  0.00     0.000 A 
ATOM     32  C   UNL A   1      27.906  27.415  23.496  1.00  0.00     0.000 A 
ENDBRANCH   8  27
ENDBRANCH   5   8
ENDBRANCH   3   4
ENDBRANCH   2   3
ENDBRANCH   1   2
BRANCH   1  33
ATOM     33  C   UNL A   1      34.410  31.197  27.573  1.00  0.00     0.002 C 
BRANCH  33  34
ATOM     34  C   UNL A   1      34.869  29.737  27.608  1.00  0.00     0.021 C 
BRANCH  34  35
ATOM     35  C   UNL A   1      35.579  29.333  28.893  1.00  0.00     0.116 C 
BRANCH  35  36
ATOM     36  N   UNL A   1      35.571  30.404  29.875  1.00  0.00    -0.352 N 
ATOM     37  C   UNL A   1      36.626  30.956  30.559  1.00  0.00     0.251 C 
ATOM     38  H   UNL A   1      34.687  30.788  30.078  1.00  0.00     0.163 HD
ATOM     39  O   UNL A   1      36.422  31.709  31.504  1.00  0.00    -0.269 OA
BRANCH  37  40
ATOM     40  C   UNL A   1      38.008  30.618  30.155  1.00  0.00     0.039 A 
ATOM     41  C   UNL A   1      38.892  30.126  31.119  1.00  0.00     0.014 A 
ATOM     42  C   UNL A   1      38.425  30.775  28.831  1.00  0.00     0.014 A 
ATOM     43  C   UNL A   1      40.179  29.743  30.740  1.00  0.00     0.010 A 
ATOM     44  C   UNL A   1      39.678  30.316  28.440  1.00  0.00     0.010 A 
ATOM     45  C   UNL A   1      40.572  29.804  29.392  1.00  0.00    -0.014 A 
BRANCH  45  46
ATOM     46  C   UNL A   1      41.915  29.338  28.962  1.00  0.00     0.031 A 
ATOM     47  C   UNL A   1      43.072  30.298  28.921  1.00  0.00     0.074 A 
ATOM     48  C   UNL A   1      42.078  28.062  28.557  1.00  0.00     0.049 A 
ATOM     49  N   UNL A   1      44.307  30.089  28.539  1.00  0.00    -0.248 NA
ATOM     50  C   UNL A   1      42.801  31.681  29.341  1.00  0.00     0.031 C 
ATOM     51  C   UNL A   1      41.022  27.050  28.508  1.00  0.00     0.029 A 
ATOM     52  N   UNL A   1      43.192  27.401  28.106  1.00  0.00    -0.354 N 
ATOM     53  C   UNL A   1      44.954  31.312  28.665  1.00  0.00     0.074 A 
ATOM     54  C   UNL A   1      43.961  32.272  29.095  1.00  0.00     0.031 C 
ATOM     55  C   UNL A   1      41.546  25.887  28.087  1.00  0.00     0.029 A 
ATOM     56  C   UNL A   1      42.962  26.081  27.794  1.00  0.00     0.049 A 
ATOM     57  H   UNL A   1      44.074  27.830  28.015  1.00  0.00     0.167 HD
ATOM     58  C   UNL A   1      46.263  31.604  28.466  1.00  0.00     0.037 A 
ATOM     59  C   UNL A   1      43.797  25.136  27.321  1.00  0.00     0.037 A 
ATOM     60  C   UNL A   1      47.245  30.639  28.043  1.00  0.00     0.049 A 
ATOM     61  C   UNL A   1      45.240  25.488  27.081  1.00  0.00     0.074 A 
ATOM     62  C   UNL A   1      48.604  30.819  27.855  1.00  0.00     0.029 A 
ATOM     63  N   UNL A   1      46.973  29.314  27.731  1.00  0.00    -0.354 N 
ATOM     64  N   UNL A   1      45.851  26.633  27.265  1.00  0.00    -0.248 NA
ATOM     65  C   UNL A   1      46.108  24.417  26.573  1.00  0.00     0.031 C 
ATOM     66  C   UNL A   1      49.143  29.619  27.378  1.00  0.00     0.029 A 
ATOM     67  C   UNL A   1      48.132  28.672  27.327  1.00  0.00     0.049 A 
ATOM     68  H   UNL A   1      46.085  28.892  27.790  1.00  0.00     0.167 HD
ATOM     69  C   UNL A   1      47.182  26.414  26.926  1.00  0.00     0.074 A 
ATOM     70  C   UNL A   1      47.287  25.022  26.535  1.00  0.00     0.031 C 
ATOM     71  C   UNL A   1      48.223  27.285  26.940  1.00  0.00     0.037 A 
BRANCH  58  72
ATOM     72  C   UNL A   1      46.698  33.028  28.697  1.00  0.00     0.058 A 
ATOM     73  C   UNL A   1      46.698  33.980  27.664  1.00  0.00     0.135 A 
ATOM     74  C   UNL A   1      47.116  33.450  29.970  1.00  0.00     0.135 A 
ATOM     75  F   UNL A   1      46.319  33.631  26.424  1.00  0.00    -0.206 F 
ATOM     76  C   UNL A   1      47.140  35.283  27.871  1.00  0.00     0.059 A 
ATOM     77  C   UNL A   1      47.531  34.757  30.208  1.00  0.00     0.059 A 
ATOM     78  F   UNL A   1      47.136  32.586  30.998  1.00  0.00    -0.206 F 
ATOM     79  C   UNL A   1      47.559  35.661  29.147  1.00  0.00     0.060 A 
BRANCH  79  80
ATOM     80  S   UNL A   1      48.152  37.348  29.393  1.00  0.00     0.124 S 
ATOM     81  O   UNL A   1      49.566  37.211  29.060  1.00  0.00    -0.237 OA
ATOM     82  O   UNL A   1      47.347  38.103  28.439  1.00  0.00    -0.237 OA
ATOM     83  O   UNL A   1      47.863  37.608  30.800  1.00  0.00    -0.744 OA
ENDBRANCH  79  80
ENDBRANCH  58  72
BRANCH  59  84
ATOM     84  C   UNL A   1      43.291  23.758  27.079  1.00  0.00     0.058 A 
ATOM     85  C   UNL A   1      43.059  23.295  25.775  1.00  0.00     0.135 A 
ATOM     86  C   UNL A   1      43.061  22.866  28.139  1.00  0.00     0.135 A 
ATOM     87  F   UNL A   1      43.257  24.112  24.729  1.00  0.00    -0.206 F 
ATOM     88  C   UNL A   1      42.612  22.001  25.529  1.00  0.00     0.059 A 
ATOM     89  C   UNL A   1      42.639  21.559  27.917  1.00  0.00     0.059 A 
ATOM     90  F   UNL A   1      43.281  23.254  29.405  1.00  0.00    -0.206 F 
ATOM     91  C   UNL A   1      42.413  21.137  26.607  1.00  0.00     0.060 A 
BRANCH  91  92
ATOM     92  S   UNL A   1      41.896  19.440  26.269  1.00  0.00     0.124 S 
ATOM     93  O   UNL A   1      42.675  19.127  25.076  1.00  0.00    -0.237 OA
ATOM     94  O   UNL A   1      42.296  18.751  27.492  1.00  0.00    -0.237 OA
ATOM     95  O   UNL A   1      40.455  19.561  26.069  1.00  0.00    -0.744 OA
ENDBRANCH  91  92
ENDBRANCH  59  84
BRANCH  71  96
ATOM     96  C   UNL A   1      49.577  26.751  26.554  1.00  0.00     0.058 A 
ATOM     97  C   UNL A   1      50.413  26.109  27.481  1.00  0.00     0.135 A 
ATOM     98  C   UNL A   1      50.022  26.843  25.224  1.00  0.00     0.135 A 
ATOM     99  F   UNL A   1      50.041  26.000  28.765  1.00  0.00    -0.206 F 
ATOM    100  C   UNL A   1      51.654  25.600  27.109  1.00  0.00     0.059 A 
ATOM    101  C   UNL A   1      51.244  26.312  24.824  1.00  0.00     0.059 A 
ATOM    102  F   UNL A   1      49.257  27.438  24.294  1.00  0.00    -0.206 F 
ATOM    103  C   UNL A   1      52.059  25.704  25.776  1.00  0.00     0.060 A 
BRANCH 103 104
ATOM    104  S   UNL A   1      53.658  25.012  25.302  1.00  0.00     0.124 S 
ATOM    105  O   UNL A   1      53.340  23.593  25.181  1.00  0.00    -0.237 OA
ATOM    106  O   UNL A   1      53.938  25.707  24.049  1.00  0.00    -0.237 OA
ATOM    107  O   UNL A   1      54.528  25.368  26.419  1.00  0.00    -0.744 OA
ENDBRANCH 103 104
ENDBRANCH  71  96
ENDBRANCH  45  46
ENDBRANCH  37  40
ENDBRANCH  35  36
ENDBRANCH  34  35
ENDBRANCH  33  34
ENDBRANCH   1  33
TORSDOF 21
ENDMDL
