MODEL 1
REMARK VINA RESULT:     -12.2      0.000      0.000
REMARK SMILES O=C(CCC(=O)N1CCCn2nc(-c3ccccc3)cc21)NCCCCCCNC(=O)c1ccc(-c2c3nc(c(-c4c(F)cc(S(=O)(=O)[O-])cc4F)c4ccc([nH]4)c(-c4c(F)cc(S(=O)(=O)[O-])cc4F)c4nc(c(-c5c(F)cc(S(=O)(=O)[O-])cc5F)c5ccc2[nH]5)C=C4)C=C3)cc1
REMARK SMILES IDX 25 1 24 2 23 3 22 4 1 5 2 6 3 8 4 9 5 10 6 11 7 12 8 13
REMARK SMILES IDX 21 14 9 15 11 16 20 17 10 18 12 19 13 20 14 21 15 22 19 23
REMARK SMILES IDX 16 24 18 25 17 26 26 27 27 28 28 29 29 30 30 31 31 33 32 34
REMARK SMILES IDX 33 35 97 36 34 37 96 38 35 39 36 40 37 41 90 42 38 43 95 44
REMARK SMILES IDX 89 45 91 46 39 47 94 48 88 49 87 50 40 52 74 53 53 54 73 55
REMARK SMILES IDX 54 56 57 57 72 58 92 59 55 60 56 61 71 63 93 64 58 65 41 66
REMARK SMILES IDX 42 67 51 68 43 69 44 70 50 71 52 72 45 73 46 74 47 75 48 76
REMARK SMILES IDX 49 77 75 78 76 79 85 80 77 81 78 82 84 83 86 84 79 85 80 86
REMARK SMILES IDX 81 87 82 88 83 89 59 90 60 91 69 92 61 93 62 94 68 95 70 96
REMARK SMILES IDX 63 97 64 98 65 99 66 100 67 101
REMARK H PARENT 22 7 29 32 91 51 57 62
REMARK Flexibility Score: inf
ROOT
ATOM      1  C   UNL A   1      32.584  29.579  25.224  1.00  0.00     0.002 C 
ENDROOT
BRANCH   1   2
ATOM      2  C   UNL A   1      31.160  29.668  24.652  1.00  0.00     0.021 C 
BRANCH   2   3
ATOM      3  C   UNL A   1      30.513  28.443  23.988  1.00  0.00     0.116 C 
BRANCH   3   4
ATOM      4  N   UNL A   1      31.310  27.231  23.962  1.00  0.00    -0.356 N 
ATOM      5  O   UNL A   1      31.070  26.876  21.709  1.00  0.00    -0.275 OA
ATOM      6  C   UNL A   1      31.608  26.600  22.776  1.00  0.00     0.220 C 
ATOM      7  H   UNL A   1      31.644  26.854  24.809  1.00  0.00     0.163 HD
BRANCH   6   8
ATOM      8  C   UNL A   1      32.791  25.656  22.851  1.00  0.00     0.110 C 
BRANCH   8   9
ATOM      9  C   UNL A   1      33.744  26.078  23.978  1.00  0.00     0.110 C 
BRANCH   9  10
ATOM     10  C   UNL A   1      34.052  24.973  24.973  1.00  0.00     0.228 C 
ATOM     11  O   UNL A   1      35.216  24.738  25.315  1.00  0.00    -0.274 OA
BRANCH  10  12
ATOM     12  N   UNL A   1      32.979  24.172  25.529  1.00  0.00    -0.297 N 
ATOM     13  C   UNL A   1      32.010  24.730  26.507  1.00  0.00     0.129 C 
ATOM     14  C   UNL A   1      32.790  22.817  25.203  1.00  0.00     0.134 A 
ATOM     15  C   UNL A   1      30.606  24.233  26.187  1.00  0.00     0.046 C 
ATOM     16  N   UNL A   1      31.653  22.144  25.559  1.00  0.00    -0.249 N 
ATOM     17  C   UNL A   1      33.578  21.870  24.580  1.00  0.00     0.077 A 
ATOM     18  C   UNL A   1      30.552  22.725  26.293  1.00  0.00     0.148 C 
ATOM     19  N   UNL A   1      31.623  20.867  25.215  1.00  0.00    -0.171 NA
ATOM     20  C   UNL A   1      32.817  20.658  24.646  1.00  0.00     0.095 A 
BRANCH  20  21
ATOM     21  C   UNL A   1      33.136  19.291  24.269  1.00  0.00     0.002 A 
ATOM     22  C   UNL A   1      34.318  18.702  24.739  1.00  0.00     0.010 A 
ATOM     23  C   UNL A   1      32.423  18.676  23.231  1.00  0.00     0.010 A 
ATOM     24  C   UNL A   1      34.794  17.526  24.159  1.00  0.00     0.001 A 
ATOM     25  C   UNL A   1      32.907  17.501  22.650  1.00  0.00     0.001 A 
ATOM     26  C   UNL A   1      34.096  16.933  23.107  1.00  0.00     0.000 A 
ENDBRANCH  20  21
ENDBRANCH  10  12
ENDBRANCH   9  10
ENDBRANCH   8   9
ENDBRANCH   6   8
ENDBRANCH   3   4
ENDBRANCH   2   3
ENDBRANCH   1   2
BRANCH   1  27
ATOM     27  C   UNL A   1      32.835  29.292  26.713  1.00  0.00     0.002 C 
BRANCH  27  28
ATOM     28  C   UNL A   1      34.141  28.605  27.130  1.00  0.00     0.021 C 
BRANCH  28  29
ATOM     29  C   UNL A   1      35.304  29.541  27.455  1.00  0.00     0.116 C 
BRANCH  29  30
ATOM     30  N   UNL A   1      35.191  30.133  28.783  1.00  0.00    -0.352 N 
ATOM     31  C   UNL A   1      36.155  30.353  29.740  1.00  0.00     0.251 C 
ATOM     32  H   UNL A   1      34.283  30.422  29.033  1.00  0.00     0.163 HD
ATOM     33  O   UNL A   1      35.814  30.753  30.853  1.00  0.00    -0.269 OA
BRANCH  31  34
ATOM     34  C   UNL A   1      37.586  30.083  29.460  1.00  0.00     0.039 A 
ATOM     35  C   UNL A   1      38.452  29.838  30.533  1.00  0.00     0.014 A 
ATOM     36  C   UNL A   1      38.082  30.081  28.155  1.00  0.00     0.014 A 
ATOM     37  C   UNL A   1      39.791  29.516  30.291  1.00  0.00     0.010 A 
ATOM     38  C   UNL A   1      39.397  29.691  27.912  1.00  0.00     0.010 A 
ATOM     39  C   UNL A   1      40.264  29.401  28.975  1.00  0.00    -0.014 A 
BRANCH  39  40
ATOM     40  C   UNL A   1      41.653  28.966  28.679  1.00  0.00     0.031 A 
ATOM     41  C   UNL A   1      42.767  29.975  28.638  1.00  0.00     0.074 A 
ATOM     42  C   UNL A   1      41.890  27.681  28.348  1.00  0.00     0.049 A 
ATOM     43  N   UNL A   1      44.013  29.818  28.272  1.00  0.00    -0.248 NA
ATOM     44  C   UNL A   1      42.423  31.353  29.023  1.00  0.00     0.031 C 
ATOM     45  C   UNL A   1      40.880  26.623  28.291  1.00  0.00     0.029 A 
ATOM     46  N   UNL A   1      43.050  27.052  27.971  1.00  0.00    -0.354 N 
ATOM     47  C   UNL A   1      44.595  31.077  28.362  1.00  0.00     0.074 A 
ATOM     48  C   UNL A   1      43.552  31.995  28.764  1.00  0.00     0.031 C 
ATOM     49  C   UNL A   1      41.463  25.477  27.907  1.00  0.00     0.029 A 
ATOM     50  C   UNL A   1      42.880  25.724  27.659  1.00  0.00     0.049 A 
ATOM     51  H   UNL A   1      43.922  27.508  27.929  1.00  0.00     0.167 HD
ATOM     52  C   UNL A   1      45.886  31.432  28.152  1.00  0.00     0.037 A 
ATOM     53  C   UNL A   1      43.763  24.810  27.209  1.00  0.00     0.037 A 
ATOM     54  C   UNL A   1      46.923  30.505  27.780  1.00  0.00     0.049 A 
ATOM     55  C   UNL A   1      45.195  25.213  27.011  1.00  0.00     0.074 A 
ATOM     56  C   UNL A   1      48.275  30.745  27.607  1.00  0.00     0.029 A 
ATOM     57  N   UNL A   1      46.722  29.155  27.524  1.00  0.00    -0.354 N 
ATOM     58  N   UNL A   1      45.743  26.396  27.162  1.00  0.00    -0.248 NA
ATOM     59  C   UNL A   1      46.132  24.162  26.593  1.00  0.00     0.031 C 
ATOM     60  C   UNL A   1      48.884  29.548  27.214  1.00  0.00     0.029 A 
ATOM     61  C   UNL A   1      47.920  28.553  27.178  1.00  0.00     0.049 A 
ATOM     62  H   UNL A   1      45.853  28.693  27.581  1.00  0.00     0.167 HD
ATOM     63  C   UNL A   1      47.090  26.232  26.862  1.00  0.00     0.074 A 
ATOM     64  C   UNL A   1      47.278  24.831  26.541  1.00  0.00     0.031 C 
ATOM     65  C   UNL A   1      48.081  27.158  26.851  1.00  0.00     0.037 A 
BRANCH  52  66
ATOM     66  C   UNL A   1      46.237  32.884  28.326  1.00  0.00     0.058 A 
ATOM     67  C   UNL A   1      46.630  33.401  29.572  1.00  0.00     0.135 A 
ATOM     68  C   UNL A   1      46.162  33.775  27.244  1.00  0.00     0.135 A 
ATOM     69  F   UNL A   1      46.705  32.597  30.644  1.00  0.00    -0.206 F 
ATOM     70  C   UNL A   1      46.882  34.757  29.751  1.00  0.00     0.059 A 
ATOM     71  C   UNL A   1      46.438  35.131  27.394  1.00  0.00     0.059 A 
ATOM     72  F   UNL A   1      45.795  33.335  26.029  1.00  0.00    -0.206 F 
ATOM     73  C   UNL A   1      46.771  35.616  28.658  1.00  0.00     0.060 A 
BRANCH  73  74
ATOM     74  S   UNL A   1      47.051  37.381  28.914  1.00  0.00     0.124 S 
ATOM     75  O   UNL A   1      47.650  37.764  27.638  1.00  0.00    -0.237 OA
ATOM     76  O   UNL A   1      45.703  37.884  29.156  1.00  0.00    -0.237 OA
ATOM     77  O   UNL A   1      47.949  37.418  30.064  1.00  0.00    -0.744 OA
ENDBRANCH  73  74
ENDBRANCH  52  66
BRANCH  53  78
ATOM     78  C   UNL A   1      43.301  23.424  26.934  1.00  0.00     0.058 A 
ATOM     79  C   UNL A   1      43.110  22.975  25.620  1.00  0.00     0.135 A 
ATOM     80  C   UNL A   1      43.109  22.504  27.977  1.00  0.00     0.135 A 
ATOM     81  F   UNL A   1      43.276  23.819  24.592  1.00  0.00    -0.206 F 
ATOM     82  C   UNL A   1      42.753  21.658  25.346  1.00  0.00     0.059 A 
ATOM     83  C   UNL A   1      42.770  21.179  27.727  1.00  0.00     0.059 A 
ATOM     84  F   UNL A   1      43.300  22.882  29.250  1.00  0.00    -0.206 F 
ATOM     85  C   UNL A   1      42.594  20.764  26.408  1.00  0.00     0.060 A 
BRANCH  85  86
ATOM     86  S   UNL A   1      42.235  19.032  26.041  1.00  0.00     0.124 S 
ATOM     87  O   UNL A   1      43.147  18.770  24.935  1.00  0.00    -0.237 OA
ATOM     88  O   UNL A   1      42.555  18.377  27.305  1.00  0.00    -0.237 OA
ATOM     89  O   UNL A   1      40.815  19.052  25.700  1.00  0.00    -0.744 OA
ENDBRANCH  85  86
ENDBRANCH  53  78
BRANCH  65  90
ATOM     90  C   UNL A   1      49.457  26.686  26.478  1.00  0.00     0.058 A 
ATOM     91  C   UNL A   1      50.299  26.075  27.420  1.00  0.00     0.135 A 
ATOM     92  C   UNL A   1      49.914  26.791  25.155  1.00  0.00     0.135 A 
ATOM     93  F   UNL A   1      49.910  25.960  28.699  1.00  0.00    -0.206 F 
ATOM     94  C   UNL A   1      51.555  25.597  27.066  1.00  0.00     0.059 A 
ATOM     95  C   UNL A   1      51.158  26.299  24.773  1.00  0.00     0.059 A 
ATOM     96  F   UNL A   1      49.142  27.361  24.216  1.00  0.00    -0.206 F 
ATOM     97  C   UNL A   1      51.975  25.711  25.739  1.00  0.00     0.060 A 
BRANCH  97  98
ATOM     98  S   UNL A   1      53.589  25.044  25.282  1.00  0.00     0.124 S 
ATOM     99  O   UNL A   1      53.760  25.591  23.939  1.00  0.00    -0.237 OA
ATOM    100  O   UNL A   1      54.461  25.604  26.310  1.00  0.00    -0.237 OA
ATOM    101  O   UNL A   1      53.392  23.600  25.353  1.00  0.00    -0.744 OA
ENDBRANCH  97  98
ENDBRANCH  65  90
ENDBRANCH  39  40
ENDBRANCH  31  34
ENDBRANCH  29  30
ENDBRANCH  28  29
ENDBRANCH  27  28
ENDBRANCH   1  27
TORSDOF 20
ENDMDL
MODEL 2
REMARK VINA RESULT:     -11.4      1.426      2.816
REMARK SMILES O=C(CCC(=O)N1CCCn2nc(-c3ccccc3)cc21)NCCCCCCNC(=O)c1ccc(-c2c3nc(c(-c4c(F)cc(S(=O)(=O)[O-])cc4F)c4ccc([nH]4)c(-c4c(F)cc(S(=O)(=O)[O-])cc4F)c4nc(c(-c5c(F)cc(S(=O)(=O)[O-])cc5F)c5ccc2[nH]5)C=C4)C=C3)cc1
REMARK SMILES IDX 25 1 24 2 23 3 22 4 1 5 2 6 3 8 4 9 5 10 6 11 7 12 8 13
REMARK SMILES IDX 21 14 9 15 11 16 20 17 10 18 12 19 13 20 14 21 15 22 19 23
REMARK SMILES IDX 16 24 18 25 17 26 26 27 27 28 28 29 29 30 30 31 31 33 32 34
REMARK SMILES IDX 33 35 97 36 34 37 96 38 35 39 36 40 37 41 90 42 38 43 95 44
REMARK SMILES IDX 89 45 91 46 39 47 94 48 88 49 87 50 40 52 74 53 53 54 73 55
REMARK SMILES IDX 54 56 57 57 72 58 92 59 55 60 56 61 71 63 93 64 58 65 41 66
REMARK SMILES IDX 42 67 51 68 43 69 44 70 50 71 52 72 45 73 46 74 47 75 48 76
REMARK SMILES IDX 49 77 75 78 76 79 85 80 77 81 78 82 84 83 86 84 79 85 80 86
REMARK SMILES IDX 81 87 82 88 83 89 59 90 60 91 69 92 61 93 62 94 68 95 70 96
REMARK SMILES IDX 63 97 64 98 65 99 66 100 67 101
REMARK H PARENT 22 7 29 32 91 51 57 62
REMARK Flexibility Score: inf
ROOT
ATOM      1  C   UNL A   1      32.514  28.969  26.284  1.00  0.00     0.002 C 
ENDROOT
BRANCH   1   2
ATOM      2  C   UNL A   1      32.413  27.473  25.942  1.00  0.00     0.021 C 
BRANCH   2   3
ATOM      3  C   UNL A   1      33.186  26.896  24.747  1.00  0.00     0.116 C 
BRANCH   3   4
ATOM      4  N   UNL A   1      32.414  26.113  23.801  1.00  0.00    -0.356 N 
ATOM      5  O   UNL A   1      34.239  25.168  22.781  1.00  0.00    -0.275 OA
ATOM      6  C   UNL A   1      33.025  25.219  22.950  1.00  0.00     0.220 C 
ATOM      7  H   UNL A   1      31.436  26.222  23.767  1.00  0.00     0.163 HD
BRANCH   6   8
ATOM      8  C   UNL A   1      32.095  24.171  22.373  1.00  0.00     0.110 C 
BRANCH   8   9
ATOM      9  C   UNL A   1      31.846  23.054  23.396  1.00  0.00     0.110 C 
BRANCH   9  10
ATOM     10  C   UNL A   1      32.087  21.656  22.854  1.00  0.00     0.228 C 
ATOM     11  O   UNL A   1      31.667  21.331  21.738  1.00  0.00    -0.274 OA
BRANCH  10  12
ATOM     12  N   UNL A   1      32.810  20.680  23.646  1.00  0.00    -0.297 N 
ATOM     13  C   UNL A   1      32.199  19.386  24.044  1.00  0.00     0.129 C 
ATOM     14  C   UNL A   1      34.121  20.893  24.107  1.00  0.00     0.134 A 
ATOM     15  C   UNL A   1      33.223  18.266  23.909  1.00  0.00     0.046 C 
ATOM     16  N   UNL A   1      34.863  19.882  24.656  1.00  0.00    -0.249 N 
ATOM     17  C   UNL A   1      34.928  22.009  24.199  1.00  0.00     0.077 A 
ATOM     18  C   UNL A   1      34.398  18.524  24.827  1.00  0.00     0.148 C 
ATOM     19  N   UNL A   1      36.067  20.231  25.077  1.00  0.00    -0.171 NA
ATOM     20  C   UNL A   1      36.120  21.548  24.846  1.00  0.00     0.095 A 
BRANCH  20  21
ATOM     21  C   UNL A   1      37.298  22.254  25.324  1.00  0.00     0.002 A 
ATOM     22  C   UNL A   1      38.468  21.535  25.606  1.00  0.00     0.010 A 
ATOM     23  C   UNL A   1      37.179  23.579  25.764  1.00  0.00     0.010 A 
ATOM     24  C   UNL A   1      39.495  22.126  26.342  1.00  0.00     0.001 A 
ATOM     25  C   UNL A   1      38.207  24.165  26.506  1.00  0.00     0.001 A 
ATOM     26  C   UNL A   1      39.359  23.436  26.803  1.00  0.00     0.000 A 
ENDBRANCH  20  21
ENDBRANCH  10  12
ENDBRANCH   9  10
ENDBRANCH   8   9
ENDBRANCH   6   8
ENDBRANCH   3   4
ENDBRANCH   2   3
ENDBRANCH   1   2
BRANCH   1  27
ATOM     27  C   UNL A   1      33.409  29.472  27.427  1.00  0.00     0.002 C 
BRANCH  27  28
ATOM     28  C   UNL A   1      34.926  29.541  27.212  1.00  0.00     0.021 C 
BRANCH  28  29
ATOM     29  C   UNL A   1      35.603  30.821  27.697  1.00  0.00     0.116 C 
BRANCH  29  30
ATOM     30  N   UNL A   1      35.495  30.999  29.140  1.00  0.00    -0.352 N 
ATOM     31  C   UNL A   1      36.365  30.643  30.145  1.00  0.00     0.251 C 
ATOM     32  H   UNL A   1      34.670  31.444  29.443  1.00  0.00     0.163 HD
ATOM     33  O   UNL A   1      36.013  30.774  31.317  1.00  0.00    -0.269 OA
BRANCH  31  34
ATOM     34  C   UNL A   1      37.699  30.076  29.835  1.00  0.00     0.039 A 
ATOM     35  C   UNL A   1      38.034  29.824  28.498  1.00  0.00     0.014 A 
ATOM     36  C   UNL A   1      38.615  29.778  30.845  1.00  0.00     0.014 A 
ATOM     37  C   UNL A   1      39.309  29.351  28.174  1.00  0.00     0.010 A 
ATOM     38  C   UNL A   1      39.907  29.375  30.517  1.00  0.00     0.010 A 
ATOM     39  C   UNL A   1      40.269  29.161  29.179  1.00  0.00    -0.014 A 
BRANCH  39  40
ATOM     40  C   UNL A   1      41.663  28.754  28.862  1.00  0.00     0.031 A 
ATOM     41  C   UNL A   1      42.759  29.783  28.823  1.00  0.00     0.074 A 
ATOM     42  C   UNL A   1      41.918  27.479  28.510  1.00  0.00     0.049 A 
ATOM     43  N   UNL A   1      44.003  29.652  28.442  1.00  0.00    -0.248 NA
ATOM     44  C   UNL A   1      42.395  31.149  29.232  1.00  0.00     0.031 C 
ATOM     45  C   UNL A   1      40.925  26.404  28.448  1.00  0.00     0.029 A 
ATOM     46  N   UNL A   1      43.084  26.875  28.113  1.00  0.00    -0.354 N 
ATOM     47  C   UNL A   1      44.565  30.919  28.545  1.00  0.00     0.074 A 
ATOM     48  C   UNL A   1      43.511  31.814  28.970  1.00  0.00     0.031 C 
ATOM     49  C   UNL A   1      41.523  25.273  28.042  1.00  0.00     0.029 A 
ATOM     50  C   UNL A   1      42.933  25.549  27.783  1.00  0.00     0.049 A 
ATOM     51  H   UNL A   1      43.948  27.346  28.068  1.00  0.00     0.167 HD
ATOM     52  C   UNL A   1      45.848  31.299  28.326  1.00  0.00     0.037 A 
ATOM     53  C   UNL A   1      43.826  24.656  27.311  1.00  0.00     0.037 A 
ATOM     54  C   UNL A   1      46.896  30.396  27.930  1.00  0.00     0.049 A 
ATOM     55  C   UNL A   1      45.250  25.087  27.104  1.00  0.00     0.074 A 
ATOM     56  C   UNL A   1      48.242  30.662  27.746  1.00  0.00     0.029 A 
ATOM     57  N   UNL A   1      46.715  29.046  27.657  1.00  0.00    -0.354 N 
ATOM     58  N   UNL A   1      45.779  26.277  27.266  1.00  0.00    -0.248 NA
ATOM     59  C   UNL A   1      46.200  24.058  26.661  1.00  0.00     0.031 C 
ATOM     60  C   UNL A   1      48.867  29.480  27.330  1.00  0.00     0.029 A 
ATOM     61  C   UNL A   1      47.919  28.470  27.290  1.00  0.00     0.049 A 
ATOM     62  H   UNL A   1      45.855  28.569  27.716  1.00  0.00     0.167 HD
ATOM     63  C   UNL A   1      47.126  26.140  26.950  1.00  0.00     0.074 A 
ATOM     64  C   UNL A   1      47.333  24.746  26.607  1.00  0.00     0.031 C 
ATOM     65  C   UNL A   1      48.101  27.082  26.942  1.00  0.00     0.037 A 
BRANCH  52  66
ATOM     66  C   UNL A   1      46.175  32.755  28.517  1.00  0.00     0.058 A 
ATOM     67  C   UNL A   1      46.101  33.670  27.454  1.00  0.00     0.135 A 
ATOM     68  C   UNL A   1      46.586  33.240  29.769  1.00  0.00     0.135 A 
ATOM     69  F   UNL A   1      45.727  33.258  26.233  1.00  0.00    -0.206 F 
ATOM     70  C   UNL A   1      46.475  35.000  27.611  1.00  0.00     0.059 A 
ATOM     71  C   UNL A   1      46.937  34.574  29.956  1.00  0.00     0.059 A 
ATOM     72  F   UNL A   1      46.671  32.411  30.822  1.00  0.00    -0.206 F 
ATOM     73  C   UNL A   1      46.904  35.440  28.863  1.00  0.00     0.060 A 
BRANCH  73  74
ATOM     74  S   UNL A   1      47.435  37.156  29.042  1.00  0.00     0.124 S 
ATOM     75  O   UNL A   1      48.007  37.140  30.386  1.00  0.00    -0.237 OA
ATOM     76  O   UNL A   1      48.390  37.307  27.950  1.00  0.00    -0.237 OA
ATOM     77  O   UNL A   1      46.194  37.911  28.898  1.00  0.00    -0.744 OA
ENDBRANCH  73  74
ENDBRANCH  52  66
BRANCH  53  78
ATOM     78  C   UNL A   1      43.385  23.267  27.021  1.00  0.00     0.058 A 
ATOM     79  C   UNL A   1      43.287  22.801  25.703  1.00  0.00     0.135 A 
ATOM     80  C   UNL A   1      43.121  22.359  28.059  1.00  0.00     0.135 A 
ATOM     81  F   UNL A   1      43.525  23.633  24.679  1.00  0.00    -0.206 F 
ATOM     82  C   UNL A   1      42.950  21.480  25.421  1.00  0.00     0.059 A 
ATOM     83  C   UNL A   1      42.800  21.030  27.802  1.00  0.00     0.059 A 
ATOM     84  F   UNL A   1      43.222  22.752  29.338  1.00  0.00    -0.206 F 
ATOM     85  C   UNL A   1      42.718  20.600  26.479  1.00  0.00     0.060 A 
BRANCH  85  86
ATOM     86  S   UNL A   1      42.385  18.862  26.109  1.00  0.00     0.124 S 
ATOM     87  O   UNL A   1      42.636  18.234  27.400  1.00  0.00    -0.237 OA
ATOM     88  O   UNL A   1      40.993  18.902  25.674  1.00  0.00    -0.237 OA
ATOM     89  O   UNL A   1      43.351  18.556  25.057  1.00  0.00    -0.744 OA
ENDBRANCH  85  86
ENDBRANCH  53  78
BRANCH  65  90
ATOM     90  C   UNL A   1      49.480  26.639  26.548  1.00  0.00     0.058 A 
ATOM     91  C   UNL A   1      50.360  26.073  27.483  1.00  0.00     0.135 A 
ATOM     92  C   UNL A   1      49.904  26.726  25.212  1.00  0.00     0.135 A 
ATOM     93  F   UNL A   1      50.002  25.977  28.774  1.00  0.00    -0.206 F 
ATOM     94  C   UNL A   1      51.620  25.621  27.111  1.00  0.00     0.059 A 
ATOM     95  C   UNL A   1      51.152  26.259  24.813  1.00  0.00     0.059 A 
ATOM     96  F   UNL A   1      49.096  27.253  24.279  1.00  0.00    -0.206 F 
ATOM     97  C   UNL A   1      52.007  25.716  25.773  1.00  0.00     0.060 A 
BRANCH  97  98
ATOM     98  S   UNL A   1      53.628  25.083  25.293  1.00  0.00     0.124 S 
ATOM     99  O   UNL A   1      53.815  25.717  23.992  1.00  0.00    -0.237 OA
ATOM    100  O   UNL A   1      54.486  25.574  26.367  1.00  0.00    -0.237 OA
ATOM    101  O   UNL A   1      53.433  23.637  25.267  1.00  0.00    -0.744 OA
ENDBRANCH  97  98
ENDBRANCH  65  90
ENDBRANCH  39  40
ENDBRANCH  31  34
ENDBRANCH  29  30
ENDBRANCH  28  29
ENDBRANCH  27  28
ENDBRANCH   1  27
TORSDOF 20
ENDMDL
MODEL 3
REMARK VINA RESULT:     -11.3      1.705      8.531
REMARK SMILES O=C(CCC(=O)N1CCCn2nc(-c3ccccc3)cc21)NCCCCCCNC(=O)c1ccc(-c2c3nc(c(-c4c(F)cc(S(=O)(=O)[O-])cc4F)c4ccc([nH]4)c(-c4c(F)cc(S(=O)(=O)[O-])cc4F)c4nc(c(-c5c(F)cc(S(=O)(=O)[O-])cc5F)c5ccc2[nH]5)C=C4)C=C3)cc1
REMARK SMILES IDX 25 1 24 2 23 3 22 4 1 5 2 6 3 8 4 9 5 10 6 11 7 12 8 13
REMARK SMILES IDX 21 14 9 15 11 16 20 17 10 18 12 19 13 20 14 21 15 22 19 23
REMARK SMILES IDX 16 24 18 25 17 26 26 27 27 28 28 29 29 30 30 31 31 33 32 34
REMARK SMILES IDX 33 35 97 36 34 37 96 38 35 39 36 40 37 41 90 42 38 43 95 44
REMARK SMILES IDX 89 45 91 46 39 47 94 48 88 49 87 50 40 52 74 53 53 54 73 55
REMARK SMILES IDX 54 56 57 57 72 58 92 59 55 60 56 61 71 63 93 64 58 65 41 66
REMARK SMILES IDX 42 67 51 68 43 69 44 70 50 71 52 72 45 73 46 74 47 75 48 76
REMARK SMILES IDX 49 77 75 78 76 79 85 80 77 81 78 82 84 83 86 84 79 85 80 86
REMARK SMILES IDX 81 87 82 88 83 89 59 90 60 91 69 92 61 93 62 94 68 95 70 96
REMARK SMILES IDX 63 97 64 98 65 99 66 100 67 101
REMARK H PARENT 22 7 29 32 91 51 57 62
REMARK Flexibility Score: inf
ROOT
ATOM      1  C   UNL A   1      35.341  33.973  28.473  1.00  0.00     0.002 C 
ENDROOT
BRANCH   1   2
ATOM      2  C   UNL A   1      34.191  33.025  28.096  1.00  0.00     0.021 C 
BRANCH   2   3
ATOM      3  C   UNL A   1      34.267  31.532  28.450  1.00  0.00     0.116 C 
BRANCH   3   4
ATOM      4  N   UNL A   1      33.985  30.602  27.374  1.00  0.00    -0.356 N 
ATOM      5  O   UNL A   1      35.772  29.233  27.814  1.00  0.00    -0.275 OA
ATOM      6  C   UNL A   1      34.723  29.452  27.214  1.00  0.00     0.220 C 
ATOM      7  H   UNL A   1      33.252  30.797  26.745  1.00  0.00     0.163 HD
BRANCH   6   8
ATOM      8  C   UNL A   1      34.048  28.386  26.376  1.00  0.00     0.110 C 
BRANCH   8   9
ATOM      9  C   UNL A   1      32.627  28.118  26.894  1.00  0.00     0.110 C 
BRANCH   9  10
ATOM     10  C   UNL A   1      31.947  26.928  26.241  1.00  0.00     0.228 C 
ATOM     11  O   UNL A   1      31.146  26.232  26.875  1.00  0.00    -0.274 OA
BRANCH  10  12
ATOM     12  N   UNL A   1      32.235  26.590  24.860  1.00  0.00    -0.297 N 
ATOM     13  C   UNL A   1      31.565  27.279  23.728  1.00  0.00     0.129 C 
ATOM     14  C   UNL A   1      33.145  25.583  24.496  1.00  0.00     0.134 A 
ATOM     15  C   UNL A   1      32.572  27.556  22.620  1.00  0.00     0.046 C 
ATOM     16  N   UNL A   1      33.569  25.430  23.203  1.00  0.00    -0.249 N 
ATOM     17  C   UNL A   1      33.756  24.557  25.188  1.00  0.00     0.077 A 
ATOM     18  C   UNL A   1      33.140  26.255  22.097  1.00  0.00     0.148 C 
ATOM     19  N   UNL A   1      34.401  24.422  22.999  1.00  0.00    -0.171 NA
ATOM     20  C   UNL A   1      34.502  23.838  24.199  1.00  0.00     0.095 A 
BRANCH  20  21
ATOM     21  C   UNL A   1      35.267  22.603  24.268  1.00  0.00     0.002 A 
ATOM     22  C   UNL A   1      34.622  21.410  24.623  1.00  0.00     0.010 A 
ATOM     23  C   UNL A   1      36.667  22.655  24.257  1.00  0.00     0.010 A 
ATOM     24  C   UNL A   1      35.370  20.291  24.989  1.00  0.00     0.001 A 
ATOM     25  C   UNL A   1      37.411  21.534  24.630  1.00  0.00     0.001 A 
ATOM     26  C   UNL A   1      36.763  20.357  25.005  1.00  0.00     0.000 A 
ENDBRANCH  20  21
ENDBRANCH  10  12
ENDBRANCH   9  10
ENDBRANCH   8   9
ENDBRANCH   6   8
ENDBRANCH   3   4
ENDBRANCH   2   3
ENDBRANCH   1   2
BRANCH   1  27
ATOM     27  C   UNL A   1      36.673  33.439  29.022  1.00  0.00     0.002 C 
BRANCH  27  28
ATOM     28  C   UNL A   1      37.203  33.984  30.354  1.00  0.00     0.021 C 
BRANCH  28  29
ATOM     29  C   UNL A   1      37.783  32.942  31.309  1.00  0.00     0.116 C 
BRANCH  29  30
ATOM     30  N   UNL A   1      36.897  31.798  31.493  1.00  0.00    -0.352 N 
ATOM     31  C   UNL A   1      37.046  30.489  31.095  1.00  0.00     0.251 C 
ATOM     32  H   UNL A   1      36.063  31.992  31.979  1.00  0.00     0.163 HD
ATOM     33  O   UNL A   1      36.108  29.707  31.243  1.00  0.00    -0.269 OA
BRANCH  31  34
ATOM     34  C   UNL A   1      38.303  30.021  30.461  1.00  0.00     0.039 A 
ATOM     35  C   UNL A   1      38.440  30.125  29.071  1.00  0.00     0.014 A 
ATOM     36  C   UNL A   1      39.338  29.472  31.219  1.00  0.00     0.014 A 
ATOM     37  C   UNL A   1      39.640  29.752  28.457  1.00  0.00     0.010 A 
ATOM     38  C   UNL A   1      40.556  29.168  30.617  1.00  0.00     0.010 A 
ATOM     39  C   UNL A   1      40.722  29.308  29.231  1.00  0.00    -0.014 A 
BRANCH  39  40
ATOM     40  C   UNL A   1      42.042  28.997  28.624  1.00  0.00     0.031 A 
ATOM     41  C   UNL A   1      42.341  27.604  28.144  1.00  0.00     0.074 A 
ATOM     42  C   UNL A   1      43.002  29.942  28.602  1.00  0.00     0.049 A 
ATOM     43  N   UNL A   1      43.469  27.103  27.709  1.00  0.00    -0.248 NA
ATOM     44  C   UNL A   1      41.234  26.637  28.195  1.00  0.00     0.031 C 
ATOM     45  C   UNL A   1      42.851  31.312  29.098  1.00  0.00     0.029 A 
ATOM     46  N   UNL A   1      44.302  29.889  28.168  1.00  0.00    -0.354 N 
ATOM     47  C   UNL A   1      43.213  25.761  27.456  1.00  0.00     0.074 A 
ATOM     48  C   UNL A   1      41.839  25.514  27.837  1.00  0.00     0.031 C 
ATOM     49  C   UNL A   1      44.010  31.969  28.938  1.00  0.00     0.029 A 
ATOM     50  C   UNL A   1      44.995  31.061  28.359  1.00  0.00     0.049 A 
ATOM     51  H   UNL A   1      44.702  29.087  27.759  1.00  0.00     0.167 HD
ATOM     52  C   UNL A   1      44.040  24.823  26.931  1.00  0.00     0.037 A 
ATOM     53  C   UNL A   1      46.284  31.367  28.108  1.00  0.00     0.037 A 
ATOM     54  C   UNL A   1      45.396  25.086  26.527  1.00  0.00     0.049 A 
ATOM     55  C   UNL A   1      47.177  30.326  27.498  1.00  0.00     0.074 A 
ATOM     56  C   UNL A   1      46.299  24.227  25.925  1.00  0.00     0.029 A 
ATOM     57  N   UNL A   1      46.047  26.302  26.687  1.00  0.00    -0.354 N 
ATOM     58  N   UNL A   1      46.901  29.077  27.206  1.00  0.00    -0.248 NA
ATOM     59  C   UNL A   1      48.551  30.733  27.175  1.00  0.00     0.031 C 
ATOM     60  C   UNL A   1      47.506  24.916  25.750  1.00  0.00     0.029 A 
ATOM     61  C   UNL A   1      47.344  26.213  26.210  1.00  0.00     0.049 A 
ATOM     62  H   UNL A   1      45.644  27.110  27.081  1.00  0.00     0.167 HD
ATOM     63  C   UNL A   1      48.064  28.549  26.659  1.00  0.00     0.074 A 
ATOM     64  C   UNL A   1      49.041  29.620  26.643  1.00  0.00     0.031 C 
ATOM     65  C   UNL A   1      48.303  27.290  26.214  1.00  0.00     0.037 A 
BRANCH  52  66
ATOM     66  C   UNL A   1      43.487  23.434  26.765  1.00  0.00     0.058 A 
ATOM     67  C   UNL A   1      43.249  22.602  27.871  1.00  0.00     0.135 A 
ATOM     68  C   UNL A   1      43.209  22.920  25.489  1.00  0.00     0.135 A 
ATOM     69  F   UNL A   1      43.510  23.038  29.114  1.00  0.00    -0.206 F 
ATOM     70  C   UNL A   1      42.809  21.292  27.716  1.00  0.00     0.059 A 
ATOM     71  C   UNL A   1      42.740  21.621  25.311  1.00  0.00     0.059 A 
ATOM     72  F   UNL A   1      43.413  23.673  24.396  1.00  0.00    -0.206 F 
ATOM     73  C   UNL A   1      42.569  20.806  26.430  1.00  0.00     0.060 A 
BRANCH  73  74
ATOM     74  S   UNL A   1      42.046  19.089  26.237  1.00  0.00     0.124 S 
ATOM     75  O   UNL A   1      40.613  19.250  26.006  1.00  0.00    -0.237 OA
ATOM     76  O   UNL A   1      42.827  18.648  25.086  1.00  0.00    -0.237 OA
ATOM     77  O   UNL A   1      42.412  18.480  27.512  1.00  0.00    -0.744 OA
ENDBRANCH  73  74
ENDBRANCH  52  66
BRANCH  53  78
ATOM     78  C   UNL A   1      46.784  32.730  28.428  1.00  0.00     0.058 A 
ATOM     79  C   UNL A   1      47.367  33.012  29.671  1.00  0.00     0.135 A 
ATOM     80  C   UNL A   1      46.752  33.756  27.470  1.00  0.00     0.135 A 
ATOM     81  F   UNL A   1      47.415  32.064  30.618  1.00  0.00    -0.206 F 
ATOM     82  C   UNL A   1      47.909  34.262  29.954  1.00  0.00     0.059 A 
ATOM     83  C   UNL A   1      47.304  35.008  27.723  1.00  0.00     0.059 A 
ATOM     84  F   UNL A   1      46.224  33.529  26.258  1.00  0.00    -0.206 F 
ATOM     85  C   UNL A   1      47.881  35.251  28.969  1.00  0.00     0.060 A 
BRANCH  85  86
ATOM     86  S   UNL A   1      48.680  36.837  29.304  1.00  0.00     0.124 S 
ATOM     87  O   UNL A   1      49.320  36.577  30.588  1.00  0.00    -0.237 OA
ATOM     88  O   UNL A   1      49.574  36.979  28.160  1.00  0.00    -0.237 OA
ATOM     89  O   UNL A   1      47.560  37.774  29.332  1.00  0.00    -0.744 OA
ENDBRANCH  85  86
ENDBRANCH  53  78
BRANCH  65  90
ATOM     90  C   UNL A   1      49.674  27.002  25.673  1.00  0.00     0.058 A 
ATOM     91  C   UNL A   1      49.986  27.220  24.322  1.00  0.00     0.135 A 
ATOM     92  C   UNL A   1      50.700  26.562  26.524  1.00  0.00     0.135 A 
ATOM     93  F   UNL A   1      49.036  27.632  23.468  1.00  0.00    -0.206 F 
ATOM     94  C   UNL A   1      51.266  26.997  23.829  1.00  0.00     0.059 A 
ATOM     95  C   UNL A   1      51.994  26.354  26.057  1.00  0.00     0.059 A 
ATOM     96  F   UNL A   1      50.453  26.347  27.825  1.00  0.00    -0.206 F 
ATOM     97  C   UNL A   1      52.264  26.567  24.705  1.00  0.00     0.060 A 
BRANCH  97  98
ATOM     98  S   UNL A   1      53.934  26.325  24.063  1.00  0.00     0.124 S 
ATOM     99  O   UNL A   1      53.696  26.330  22.623  1.00  0.00    -0.237 OA
ATOM    100  O   UNL A   1      54.644  27.486  24.591  1.00  0.00    -0.237 OA
ATOM    101  O   UNL A   1      54.334  25.042  24.630  1.00  0.00    -0.744 OA
ENDBRANCH  97  98
ENDBRANCH  65  90
ENDBRANCH  39  40
ENDBRANCH  31  34
ENDBRANCH  29  30
ENDBRANCH  28  29
ENDBRANCH  27  28
ENDBRANCH   1  27
TORSDOF 20
ENDMDL
