MODEL 1
REMARK VINA RESULT:     -11.6      0.000      0.000
REMARK SMILES O=C(NCCCCCCNC(=O)C1(Cc2ccncc2)Cc2ccccc2C1)c1ccc(-c2c3nc(c(-c4c(F)cc(S(=O)(=O)[O-])cc4F)c4ccc([nH]4)c(-c4c(F)cc(S(=O)(=O)[O-])cc4F)c4nc(c(-c5c(F)cc(S(=O)(=O)[O-])cc5F)c5ccc2[nH]5)C=C4)C=C3)cc1
REMARK SMILES IDX 6 1 5 2 4 3 3 4 1 5 2 6 29 8 30 9 94 10 31 11 93 12 32 13
REMARK SMILES IDX 33 14 34 15 87 16 35 17 92 18 86 19 88 20 36 21 91 22 85 23
REMARK SMILES IDX 84 24 37 26 71 27 50 28 70 29 51 30 54 31 69 32 89 33 52 34
REMARK SMILES IDX 53 35 68 37 90 38 55 39 38 40 39 41 48 42 40 43 41 44 47 45
REMARK SMILES IDX 49 46 42 47 43 48 44 49 45 50 46 51 72 52 73 53 82 54 74 55
REMARK SMILES IDX 75 56 81 57 83 58 76 59 77 60 78 61 79 62 80 63 56 64 57 65
REMARK SMILES IDX 66 66 58 67 59 68 65 69 67 70 60 71 61 72 62 73 63 74 64 75
REMARK SMILES IDX 7 76 8 77 9 78 10 79 11 80 12 82 13 83 21 84 28 85 22 86
REMARK SMILES IDX 27 87 23 88 26 89 24 90 25 91 14 92 15 93 16 94 20 95 17 96
REMARK SMILES IDX 19 97 18 98
REMARK H PARENT 3 7 88 25 54 36 10 81
REMARK Flexibility Score: inf
ROOT
ATOM      1  C   UNL A   1      32.661  29.093  25.052  1.00  0.00     0.002 C 
ENDROOT
BRANCH   1   2
ATOM      2  C   UNL A   1      32.968  28.001  26.075  1.00  0.00     0.021 C 
BRANCH   2   3
ATOM      3  C   UNL A   1      34.032  28.376  27.098  1.00  0.00     0.116 C 
BRANCH   3   4
ATOM      4  N   UNL A   1      33.857  29.729  27.605  1.00  0.00    -0.352 N 
ATOM      5  O   UNL A   1      34.374  31.551  28.836  1.00  0.00    -0.269 OA
ATOM      6  C   UNL A   1      34.742  30.498  28.322  1.00  0.00     0.251 C 
ATOM      7  H   UNL A   1      32.989  30.148  27.408  1.00  0.00     0.163 HD
BRANCH   6   8
ATOM      8  C   UNL A   1      36.137  30.033  28.491  1.00  0.00     0.039 A 
ATOM      9  C   UNL A   1      36.572  29.543  29.723  1.00  0.00     0.014 A 
ATOM     10  C   UNL A   1      37.024  30.112  27.413  1.00  0.00     0.014 A 
ATOM     11  C   UNL A   1      37.923  29.285  29.924  1.00  0.00     0.010 A 
ATOM     12  C   UNL A   1      38.367  29.764  27.594  1.00  0.00     0.010 A 
ATOM     13  C   UNL A   1      38.837  29.385  28.861  1.00  0.00    -0.014 A 
BRANCH  13  14
ATOM     14  C   UNL A   1      40.266  29.051  29.102  1.00  0.00     0.031 A 
ATOM     15  C   UNL A   1      40.835  27.717  28.702  1.00  0.00     0.074 A 
ATOM     16  C   UNL A   1      41.063  29.990  29.648  1.00  0.00     0.049 A 
ATOM     17  N   UNL A   1      42.069  27.288  28.794  1.00  0.00    -0.248 NA
ATOM     18  C   UNL A   1      39.903  26.731  28.132  1.00  0.00     0.031 C 
ATOM     19  C   UNL A   1      40.621  31.314  30.093  1.00  0.00     0.029 A 
ATOM     20  N   UNL A   1      42.411  29.992  29.899  1.00  0.00    -0.354 N 
ATOM     21  C   UNL A   1      42.059  25.980  28.323  1.00  0.00     0.074 A 
ATOM     22  C   UNL A   1      40.690  25.676  27.963  1.00  0.00     0.031 C 
ATOM     23  C   UNL A   1      41.684  32.020  30.505  1.00  0.00     0.029 A 
ATOM     24  C   UNL A   1      42.873  31.181  30.412  1.00  0.00     0.049 A 
ATOM     25  H   UNL A   1      42.992  29.216  29.730  1.00  0.00     0.167 HD
ATOM     26  C   UNL A   1      43.095  25.115  28.198  1.00  0.00     0.037 A 
ATOM     27  C   UNL A   1      44.114  31.556  30.773  1.00  0.00     0.037 A 
ATOM     28  C   UNL A   1      44.460  25.434  28.534  1.00  0.00     0.049 A 
ATOM     29  C   UNL A   1      45.245  30.584  30.612  1.00  0.00     0.074 A 
ATOM     30  C   UNL A   1      45.587  24.641  28.405  1.00  0.00     0.029 A 
ATOM     31  N   UNL A   1      44.884  26.644  29.066  1.00  0.00    -0.354 N 
ATOM     32  N   UNL A   1      45.219  29.362  30.136  1.00  0.00    -0.248 NA
ATOM     33  C   UNL A   1      46.575  31.039  31.038  1.00  0.00     0.031 C 
ATOM     34  C   UNL A   1      46.686  25.356  28.894  1.00  0.00     0.029 A 
ATOM     35  C   UNL A   1      46.252  26.613  29.285  1.00  0.00     0.049 A 
ATOM     36  H   UNL A   1      44.300  27.411  29.260  1.00  0.00     0.167 HD
ATOM     37  C   UNL A   1      46.532  28.908  30.185  1.00  0.00     0.074 A 
ATOM     38  C   UNL A   1      47.328  29.994  30.722  1.00  0.00     0.031 C 
ATOM     39  C   UNL A   1      47.031  27.703  29.817  1.00  0.00     0.037 A 
BRANCH  26  40
ATOM     40  C   UNL A   1      42.795  23.729  27.693  1.00  0.00     0.058 A 
ATOM     41  C   UNL A   1      42.499  22.669  28.563  1.00  0.00     0.135 A 
ATOM     42  C   UNL A   1      42.766  23.468  26.312  1.00  0.00     0.135 A 
ATOM     43  F   UNL A   1      42.526  22.857  29.892  1.00  0.00    -0.206 F 
ATOM     44  C   UNL A   1      42.209  21.393  28.085  1.00  0.00     0.059 A 
ATOM     45  C   UNL A   1      42.456  22.206  25.811  1.00  0.00     0.059 A 
ATOM     46  F   UNL A   1      43.040  24.445  25.434  1.00  0.00    -0.206 F 
ATOM     47  C   UNL A   1      42.195  21.171  26.707  1.00  0.00     0.060 A 
BRANCH  47  48
ATOM     48  S   UNL A   1      41.822  19.510  26.102  1.00  0.00     0.124 S 
ATOM     49  O   UNL A   1      42.197  18.693  27.253  1.00  0.00    -0.237 OA
ATOM     50  O   UNL A   1      40.393  19.591  25.823  1.00  0.00    -0.237 OA
ATOM     51  O   UNL A   1      42.681  19.375  24.930  1.00  0.00    -0.744 OA
ENDBRANCH  47  48
ENDBRANCH  26  40
BRANCH  27  52
ATOM     52  C   UNL A   1      44.345  32.925  31.306  1.00  0.00     0.058 A 
ATOM     53  C   UNL A   1      44.580  34.004  30.444  1.00  0.00     0.135 A 
ATOM     54  C   UNL A   1      44.303  33.183  32.686  1.00  0.00     0.135 A 
ATOM     55  F   UNL A   1      44.632  33.807  29.118  1.00  0.00    -0.206 F 
ATOM     56  C   UNL A   1      44.780  35.292  30.930  1.00  0.00     0.059 A 
ATOM     57  C   UNL A   1      44.471  34.466  33.193  1.00  0.00     0.059 A 
ATOM     58  F   UNL A   1      44.060  32.185  33.549  1.00  0.00    -0.206 F 
ATOM     59  C   UNL A   1      44.719  35.514  32.308  1.00  0.00     0.060 A 
BRANCH  59  60
ATOM     60  S   UNL A   1      44.922  37.197  32.926  1.00  0.00     0.124 S 
ATOM     61  O   UNL A   1      45.593  37.842  31.803  1.00  0.00    -0.237 OA
ATOM     62  O   UNL A   1      43.542  37.606  33.166  1.00  0.00    -0.237 OA
ATOM     63  O   UNL A   1      45.732  37.016  34.127  1.00  0.00    -0.744 OA
ENDBRANCH  59  60
ENDBRANCH  27  52
BRANCH  39  64
ATOM     64  C   UNL A   1      48.516  27.512  29.949  1.00  0.00     0.058 A 
ATOM     65  C   UNL A   1      49.405  27.910  28.938  1.00  0.00     0.135 A 
ATOM     66  C   UNL A   1      49.056  26.942  31.112  1.00  0.00     0.135 A 
ATOM     67  F   UNL A   1      48.938  28.453  27.802  1.00  0.00    -0.206 F 
ATOM     68  C   UNL A   1      50.778  27.717  29.061  1.00  0.00     0.059 A 
ATOM     69  C   UNL A   1      50.427  26.764  31.268  1.00  0.00     0.059 A 
ATOM     70  F   UNL A   1      48.250  26.555  32.113  1.00  0.00    -0.206 F 
ATOM     71  C   UNL A   1      51.278  27.139  30.229  1.00  0.00     0.060 A 
BRANCH  71  72
ATOM     72  S   UNL A   1      53.060  26.903  30.386  1.00  0.00     0.124 S 
ATOM     73  O   UNL A   1      53.399  26.352  29.077  1.00  0.00    -0.237 OA
ATOM     74  O   UNL A   1      53.538  28.257  30.646  1.00  0.00    -0.237 OA
ATOM     75  O   UNL A   1      53.182  25.976  31.507  1.00  0.00    -0.744 OA
ENDBRANCH  71  72
ENDBRANCH  39  64
ENDBRANCH  13  14
ENDBRANCH   6   8
ENDBRANCH   3   4
ENDBRANCH   2   3
ENDBRANCH   1   2
BRANCH   1  76
ATOM     76  C   UNL A   1      31.305  28.961  24.351  1.00  0.00     0.002 C 
BRANCH  76  77
ATOM     77  C   UNL A   1      31.362  28.719  22.832  1.00  0.00     0.021 C 
BRANCH  77  78
ATOM     78  C   UNL A   1      30.702  27.412  22.371  1.00  0.00     0.116 C 
BRANCH  78  79
ATOM     79  N   UNL A   1      31.541  26.754  21.391  1.00  0.00    -0.356 N 
ATOM     80  C   UNL A   1      32.529  25.834  21.470  1.00  0.00     0.227 C 
ATOM     81  H   UNL A   1      31.351  27.039  20.468  1.00  0.00     0.163 HD
ATOM     82  O   UNL A   1      33.224  25.795  20.448  1.00  0.00    -0.274 OA
BRANCH  80  83
ATOM     83  C   UNL A   1      32.709  24.801  22.607  1.00  0.00     0.061 C 
ATOM     84  C   UNL A   1      33.572  23.543  22.259  1.00  0.00     0.053 C 
ATOM     85  C   UNL A   1      33.447  25.536  23.766  1.00  0.00     0.053 C 
ATOM     86  C   UNL A   1      34.556  23.456  23.383  1.00  0.00    -0.044 A 
ATOM     87  C   UNL A   1      34.459  24.545  24.243  1.00  0.00    -0.044 A 
ATOM     88  C   UNL A   1      35.492  22.456  23.609  1.00  0.00     0.004 A 
ATOM     89  C   UNL A   1      35.281  24.658  25.354  1.00  0.00     0.004 A 
ATOM     90  C   UNL A   1      36.326  22.559  24.726  1.00  0.00     0.000 A 
ATOM     91  C   UNL A   1      36.216  23.651  25.598  1.00  0.00     0.000 A 
BRANCH  83  92
ATOM     92  C   UNL A   1      31.311  24.222  23.042  1.00  0.00     0.053 C 
BRANCH  92  93
ATOM     93  C   UNL A   1      30.924  24.081  24.499  1.00  0.00    -0.044 A 
ATOM     94  C   UNL A   1      30.275  25.113  25.182  1.00  0.00     0.024 A 
ATOM     95  C   UNL A   1      31.129  22.879  25.180  1.00  0.00     0.024 A 
ATOM     96  C   UNL A   1      29.911  24.924  26.506  1.00  0.00     0.111 A 
ATOM     97  C   UNL A   1      30.706  22.776  26.499  1.00  0.00     0.111 A 
ATOM     98  N   UNL A   1      30.107  23.773  27.183  1.00  0.00    -0.265 NA
ENDBRANCH  92  93
ENDBRANCH  83  92
ENDBRANCH  80  83
ENDBRANCH  78  79
ENDBRANCH  77  78
ENDBRANCH  76  77
ENDBRANCH   1  76
TORSDOF 18
ENDMDL
MODEL 2
REMARK VINA RESULT:     -11.5      0.398      1.714
REMARK SMILES O=C(NCCCCCCNC(=O)C1(Cc2ccncc2)Cc2ccccc2C1)c1ccc(-c2c3nc(c(-c4c(F)cc(S(=O)(=O)[O-])cc4F)c4ccc([nH]4)c(-c4c(F)cc(S(=O)(=O)[O-])cc4F)c4nc(c(-c5c(F)cc(S(=O)(=O)[O-])cc5F)c5ccc2[nH]5)C=C4)C=C3)cc1
REMARK SMILES IDX 6 1 5 2 4 3 3 4 1 5 2 6 29 8 30 9 94 10 31 11 93 12 32 13
REMARK SMILES IDX 33 14 34 15 87 16 35 17 92 18 86 19 88 20 36 21 91 22 85 23
REMARK SMILES IDX 84 24 37 26 71 27 50 28 70 29 51 30 54 31 69 32 89 33 52 34
REMARK SMILES IDX 53 35 68 37 90 38 55 39 38 40 39 41 48 42 40 43 41 44 47 45
REMARK SMILES IDX 49 46 42 47 43 48 44 49 45 50 46 51 72 52 73 53 82 54 74 55
REMARK SMILES IDX 75 56 81 57 83 58 76 59 77 60 78 61 79 62 80 63 56 64 57 65
REMARK SMILES IDX 66 66 58 67 59 68 65 69 67 70 60 71 61 72 62 73 63 74 64 75
REMARK SMILES IDX 7 76 8 77 9 78 10 79 11 80 12 82 13 83 21 84 28 85 22 86
REMARK SMILES IDX 27 87 23 88 26 89 24 90 25 91 14 92 15 93 16 94 20 95 17 96
REMARK SMILES IDX 19 97 18 98
REMARK H PARENT 3 7 88 25 54 36 10 81
REMARK Flexibility Score: inf
ROOT
ATOM      1  C   UNL A   1      33.172  28.730  24.803  1.00  0.00     0.002 C 
ENDROOT
BRANCH   1   2
ATOM      2  C   UNL A   1      32.932  27.824  26.010  1.00  0.00     0.021 C 
BRANCH   2   3
ATOM      3  C   UNL A   1      33.713  28.217  27.258  1.00  0.00     0.116 C 
BRANCH   3   4
ATOM      4  N   UNL A   1      33.548  29.624  27.591  1.00  0.00    -0.352 N 
ATOM      5  O   UNL A   1      34.095  31.589  28.560  1.00  0.00    -0.269 OA
ATOM      6  C   UNL A   1      34.451  30.479  28.176  1.00  0.00     0.251 C 
ATOM      7  H   UNL A   1      32.673  30.015  27.367  1.00  0.00     0.163 HD
BRANCH   6   8
ATOM      8  C   UNL A   1      35.852  30.038  28.362  1.00  0.00     0.039 A 
ATOM      9  C   UNL A   1      36.294  29.607  29.615  1.00  0.00     0.014 A 
ATOM     10  C   UNL A   1      36.737  30.082  27.281  1.00  0.00     0.014 A 
ATOM     11  C   UNL A   1      37.648  29.375  29.824  1.00  0.00     0.010 A 
ATOM     12  C   UNL A   1      38.084  29.759  27.474  1.00  0.00     0.010 A 
ATOM     13  C   UNL A   1      38.560  29.440  28.756  1.00  0.00    -0.014 A 
BRANCH  13  14
ATOM     14  C   UNL A   1      39.993  29.135  29.009  1.00  0.00     0.031 A 
ATOM     15  C   UNL A   1      40.592  27.812  28.613  1.00  0.00     0.074 A 
ATOM     16  C   UNL A   1      40.767  30.089  29.562  1.00  0.00     0.049 A 
ATOM     17  N   UNL A   1      41.833  27.407  28.716  1.00  0.00    -0.248 NA
ATOM     18  C   UNL A   1      39.685  26.809  28.036  1.00  0.00     0.031 C 
ATOM     19  C   UNL A   1      40.295  31.404  30.004  1.00  0.00     0.029 A 
ATOM     20  N   UNL A   1      42.113  30.117  29.824  1.00  0.00    -0.354 N 
ATOM     21  C   UNL A   1      41.852  26.100  28.244  1.00  0.00     0.074 A 
ATOM     22  C   UNL A   1      40.493  25.769  27.873  1.00  0.00     0.031 C 
ATOM     23  C   UNL A   1      41.340  32.131  30.425  1.00  0.00     0.029 A 
ATOM     24  C   UNL A   1      42.546  31.315  30.341  1.00  0.00     0.049 A 
ATOM     25  H   UNL A   1      42.710  29.353  29.660  1.00  0.00     0.167 HD
ATOM     26  C   UNL A   1      42.907  25.256  28.128  1.00  0.00     0.037 A 
ATOM     27  C   UNL A   1      43.777  31.715  30.713  1.00  0.00     0.037 A 
ATOM     28  C   UNL A   1      44.262  25.602  28.475  1.00  0.00     0.049 A 
ATOM     29  C   UNL A   1      44.928  30.765  30.561  1.00  0.00     0.074 A 
ATOM     30  C   UNL A   1      45.406  24.831  28.356  1.00  0.00     0.029 A 
ATOM     31  N   UNL A   1      44.658  26.819  29.012  1.00  0.00    -0.354 N 
ATOM     32  N   UNL A   1      44.930  29.543  30.085  1.00  0.00    -0.248 NA
ATOM     33  C   UNL A   1      46.245  31.246  30.998  1.00  0.00     0.031 C 
ATOM     34  C   UNL A   1      46.487  25.568  28.854  1.00  0.00     0.029 A 
ATOM     35  C   UNL A   1      46.025  26.815  29.242  1.00  0.00     0.049 A 
ATOM     36  H   UNL A   1      44.057  27.575  29.201  1.00  0.00     0.167 HD
ATOM     37  C   UNL A   1      46.251  29.115  30.144  1.00  0.00     0.074 A 
ATOM     38  C   UNL A   1      47.021  30.216  30.689  1.00  0.00     0.031 C 
ATOM     39  C   UNL A   1      46.778  27.920  29.780  1.00  0.00     0.037 A 
BRANCH  26  40
ATOM     40  C   UNL A   1      42.639  23.864  27.620  1.00  0.00     0.058 A 
ATOM     41  C   UNL A   1      42.593  23.570  26.249  1.00  0.00     0.135 A 
ATOM     42  C   UNL A   1      42.465  22.800  28.522  1.00  0.00     0.135 A 
ATOM     43  F   UNL A   1      42.739  24.549  25.342  1.00  0.00    -0.206 F 
ATOM     44  C   UNL A   1      42.357  22.277  25.788  1.00  0.00     0.059 A 
ATOM     45  C   UNL A   1      42.251  21.496  28.084  1.00  0.00     0.059 A 
ATOM     46  F   UNL A   1      42.501  23.024  29.844  1.00  0.00    -0.206 F 
ATOM     47  C   UNL A   1      42.184  21.247  26.714  1.00  0.00     0.060 A 
BRANCH  47  48
ATOM     48  S   UNL A   1      41.874  19.576  26.102  1.00  0.00     0.124 S 
ATOM     49  O   UNL A   1      42.769  19.520  24.950  1.00  0.00    -0.237 OA
ATOM     50  O   UNL A   1      42.257  18.749  27.241  1.00  0.00    -0.237 OA
ATOM     51  O   UNL A   1      40.449  19.587  25.790  1.00  0.00    -0.744 OA
ENDBRANCH  47  48
ENDBRANCH  26  40
BRANCH  27  52
ATOM     52  C   UNL A   1      43.976  33.088  31.248  1.00  0.00     0.058 A 
ATOM     53  C   UNL A   1      43.897  33.344  32.624  1.00  0.00     0.135 A 
ATOM     54  C   UNL A   1      44.279  34.161  30.396  1.00  0.00     0.135 A 
ATOM     55  F   UNL A   1      43.608  32.350  33.477  1.00  0.00    -0.206 F 
ATOM     56  C   UNL A   1      44.099  34.621  33.138  1.00  0.00     0.059 A 
ATOM     57  C   UNL A   1      44.512  35.439  30.889  1.00  0.00     0.059 A 
ATOM     58  F   UNL A   1      44.385  33.961  29.074  1.00  0.00    -0.206 F 
ATOM     59  C   UNL A   1      44.410  35.662  32.261  1.00  0.00     0.060 A 
BRANCH  59  60
ATOM     60  S   UNL A   1      44.727  37.304  32.941  1.00  0.00     0.124 S 
ATOM     61  O   UNL A   1      46.161  37.241  33.203  1.00  0.00    -0.237 OA
ATOM     62  O   UNL A   1      44.315  38.176  31.847  1.00  0.00    -0.237 OA
ATOM     63  O   UNL A   1      43.870  37.347  34.123  1.00  0.00    -0.744 OA
ENDBRANCH  59  60
ENDBRANCH  27  52
BRANCH  39  64
ATOM     64  C   UNL A   1      48.265  27.759  29.925  1.00  0.00     0.058 A 
ATOM     65  C   UNL A   1      48.840  27.201  31.078  1.00  0.00     0.135 A 
ATOM     66  C   UNL A   1      49.123  28.150  28.885  1.00  0.00     0.135 A 
ATOM     67  F   UNL A   1      48.062  26.820  32.103  1.00  0.00    -0.206 F 
ATOM     68  C   UNL A   1      50.218  27.069  31.210  1.00  0.00     0.059 A 
ATOM     69  C   UNL A   1      50.503  28.001  28.984  1.00  0.00     0.059 A 
ATOM     70  F   UNL A   1      48.623  28.678  27.757  1.00  0.00    -0.206 F 
ATOM     71  C   UNL A   1      51.042  27.475  30.158  1.00  0.00     0.060 A 
BRANCH  71  72
ATOM     72  S   UNL A   1      52.828  27.290  30.333  1.00  0.00     0.124 S 
ATOM     73  O   UNL A   1      53.304  28.590  29.871  1.00  0.00    -0.237 OA
ATOM     74  O   UNL A   1      52.981  27.030  31.761  1.00  0.00    -0.237 OA
ATOM     75  O   UNL A   1      53.139  26.162  29.461  1.00  0.00    -0.744 OA
ENDBRANCH  71  72
ENDBRANCH  39  64
ENDBRANCH  13  14
ENDBRANCH   6   8
ENDBRANCH   3   4
ENDBRANCH   2   3
ENDBRANCH   1   2
BRANCH   1  76
ATOM     76  C   UNL A   1      31.907  29.158  24.053  1.00  0.00     0.002 C 
BRANCH  76  77
ATOM     77  C   UNL A   1      31.814  28.694  22.588  1.00  0.00     0.021 C 
BRANCH  77  78
ATOM     78  C   UNL A   1      31.051  27.378  22.384  1.00  0.00     0.116 C 
BRANCH  78  79
ATOM     79  N   UNL A   1      31.692  26.592  21.351  1.00  0.00    -0.356 N 
ATOM     80  C   UNL A   1      32.585  25.576  21.364  1.00  0.00     0.227 C 
ATOM     81  H   UNL A   1      31.420  26.854  20.442  1.00  0.00     0.163 HD
ATOM     82  O   UNL A   1      33.141  25.417  20.272  1.00  0.00    -0.274 OA
BRANCH  80  83
ATOM     83  C   UNL A   1      32.799  24.580  22.529  1.00  0.00     0.061 C 
ATOM     84  C   UNL A   1      33.715  23.350  22.219  1.00  0.00     0.053 C 
ATOM     85  C   UNL A   1      33.498  25.374  23.673  1.00  0.00     0.053 C 
ATOM     86  C   UNL A   1      34.694  23.332  23.351  1.00  0.00    -0.044 A 
ATOM     87  C   UNL A   1      34.546  24.438  24.181  1.00  0.00    -0.044 A 
ATOM     88  C   UNL A   1      35.668  22.377  23.608  1.00  0.00     0.004 A 
ATOM     89  C   UNL A   1      35.355  24.612  25.294  1.00  0.00     0.004 A 
ATOM     90  C   UNL A   1      36.489  22.543  24.727  1.00  0.00     0.000 A 
ATOM     91  C   UNL A   1      36.328  23.652  25.570  1.00  0.00     0.000 A 
BRANCH  83  92
ATOM     92  C   UNL A   1      31.423  23.955  22.970  1.00  0.00     0.053 C 
BRANCH  92  93
ATOM     93  C   UNL A   1      30.984  23.935  24.418  1.00  0.00    -0.044 A 
ATOM     94  C   UNL A   1      31.219  22.827  25.236  1.00  0.00     0.024 A 
ATOM     95  C   UNL A   1      30.404  25.063  25.006  1.00  0.00     0.024 A 
ATOM     96  C   UNL A   1      30.828  22.869  26.565  1.00  0.00     0.111 A 
ATOM     97  C   UNL A   1      30.069  25.020  26.353  1.00  0.00     0.111 A 
ATOM     98  N   UNL A   1      30.261  23.946  27.147  1.00  0.00    -0.265 NA
ENDBRANCH  92  93
ENDBRANCH  83  92
ENDBRANCH  80  83
ENDBRANCH  78  79
ENDBRANCH  77  78
ENDBRANCH  76  77
ENDBRANCH   1  76
TORSDOF 18
ENDMDL
MODEL 3
REMARK VINA RESULT:     -11.3      2.250      8.522
REMARK SMILES O=C(NCCCCCCNC(=O)C1(Cc2ccncc2)Cc2ccccc2C1)c1ccc(-c2c3nc(c(-c4c(F)cc(S(=O)(=O)[O-])cc4F)c4ccc([nH]4)c(-c4c(F)cc(S(=O)(=O)[O-])cc4F)c4nc(c(-c5c(F)cc(S(=O)(=O)[O-])cc5F)c5ccc2[nH]5)C=C4)C=C3)cc1
REMARK SMILES IDX 6 1 5 2 4 3 3 4 1 5 2 6 29 8 30 9 94 10 31 11 93 12 32 13
REMARK SMILES IDX 33 14 34 15 87 16 35 17 92 18 86 19 88 20 36 21 91 22 85 23
REMARK SMILES IDX 84 24 37 26 71 27 50 28 70 29 51 30 54 31 69 32 89 33 52 34
REMARK SMILES IDX 53 35 68 37 90 38 55 39 38 40 39 41 48 42 40 43 41 44 47 45
REMARK SMILES IDX 49 46 42 47 43 48 44 49 45 50 46 51 72 52 73 53 82 54 74 55
REMARK SMILES IDX 75 56 81 57 83 58 76 59 77 60 78 61 79 62 80 63 56 64 57 65
REMARK SMILES IDX 66 66 58 67 59 68 65 69 67 70 60 71 61 72 62 73 63 74 64 75
REMARK SMILES IDX 7 76 8 77 9 78 10 79 11 80 12 82 13 83 21 84 28 85 22 86
REMARK SMILES IDX 27 87 23 88 26 89 24 90 25 91 14 92 15 93 16 94 20 95 17 96
REMARK SMILES IDX 19 97 18 98
REMARK H PARENT 3 7 88 25 54 36 10 81
REMARK Flexibility Score: inf
ROOT
ATOM      1  C   UNL A   1      33.865  28.720  25.768  1.00  0.00     0.002 C 
ENDROOT
BRANCH   1   2
ATOM      2  C   UNL A   1      34.188  29.723  26.874  1.00  0.00     0.021 C 
BRANCH   2   3
ATOM      3  C   UNL A   1      35.433  29.388  27.686  1.00  0.00     0.116 C 
BRANCH   3   4
ATOM      4  N   UNL A   1      35.305  29.784  29.080  1.00  0.00    -0.352 N 
ATOM      5  O   UNL A   1      35.970  30.011  31.227  1.00  0.00    -0.269 OA
ATOM      6  C   UNL A   1      36.277  29.832  30.052  1.00  0.00     0.251 C 
ATOM      7  H   UNL A   1      34.402  30.054  29.365  1.00  0.00     0.163 HD
BRANCH   6   8
ATOM      8  C   UNL A   1      37.694  29.641  29.670  1.00  0.00     0.039 A 
ATOM      9  C   UNL A   1      38.108  29.879  28.359  1.00  0.00     0.014 A 
ATOM     10  C   UNL A   1      38.610  29.193  30.627  1.00  0.00     0.014 A 
ATOM     11  C   UNL A   1      39.392  29.520  27.966  1.00  0.00     0.010 A 
ATOM     12  C   UNL A   1      39.929  28.919  30.248  1.00  0.00     0.010 A 
ATOM     13  C   UNL A   1      40.321  29.042  28.906  1.00  0.00    -0.014 A 
BRANCH  13  14
ATOM     14  C   UNL A   1      41.701  28.717  28.458  1.00  0.00     0.031 A 
ATOM     15  C   UNL A   1      42.796  29.750  28.485  1.00  0.00     0.074 A 
ATOM     16  C   UNL A   1      41.971  27.456  28.067  1.00  0.00     0.049 A 
ATOM     17  N   UNL A   1      44.062  29.614  28.178  1.00  0.00    -0.248 NA
ATOM     18  C   UNL A   1      42.426  31.111  28.901  1.00  0.00     0.031 C 
ATOM     19  C   UNL A   1      40.987  26.372  27.983  1.00  0.00     0.029 A 
ATOM     20  N   UNL A   1      43.149  26.861  27.694  1.00  0.00    -0.354 N 
ATOM     21  C   UNL A   1      44.633  30.872  28.335  1.00  0.00     0.074 A 
ATOM     22  C   UNL A   1      43.570  31.765  28.746  1.00  0.00     0.031 C 
ATOM     23  C   UNL A   1      41.611  25.235  27.643  1.00  0.00     0.029 A 
ATOM     24  C   UNL A   1      43.025  25.518  27.426  1.00  0.00     0.049 A 
ATOM     25  H   UNL A   1      44.001  27.348  27.624  1.00  0.00     0.167 HD
ATOM     26  C   UNL A   1      45.924  31.245  28.157  1.00  0.00     0.037 A 
ATOM     27  C   UNL A   1      43.944  24.613  27.042  1.00  0.00     0.037 A 
ATOM     28  C   UNL A   1      46.981  30.345  27.773  1.00  0.00     0.049 A 
ATOM     29  C   UNL A   1      45.368  25.050  26.865  1.00  0.00     0.074 A 
ATOM     30  C   UNL A   1      48.328  30.618  27.607  1.00  0.00     0.029 A 
ATOM     31  N   UNL A   1      46.812  28.995  27.494  1.00  0.00    -0.354 N 
ATOM     32  N   UNL A   1      45.893  26.239  27.048  1.00  0.00    -0.248 NA
ATOM     33  C   UNL A   1      46.326  24.027  26.428  1.00  0.00     0.031 C 
ATOM     34  C   UNL A   1      48.967  29.444  27.191  1.00  0.00     0.029 A 
ATOM     35  C   UNL A   1      48.026  28.427  27.142  1.00  0.00     0.049 A 
ATOM     36  H   UNL A   1      45.956  28.513  27.538  1.00  0.00     0.167 HD
ATOM     37  C   UNL A   1      47.248  26.101  26.771  1.00  0.00     0.074 A 
ATOM     38  C   UNL A   1      47.462  24.710  26.422  1.00  0.00     0.031 C 
ATOM     39  C   UNL A   1      48.224  27.041  26.802  1.00  0.00     0.037 A 
BRANCH  26  40
ATOM     40  C   UNL A   1      46.268  32.698  28.358  1.00  0.00     0.058 A 
ATOM     41  C   UNL A   1      46.178  33.633  27.316  1.00  0.00     0.135 A 
ATOM     42  C   UNL A   1      46.656  33.166  29.625  1.00  0.00     0.135 A 
ATOM     43  F   UNL A   1      45.825  33.239  26.082  1.00  0.00    -0.206 F 
ATOM     44  C   UNL A   1      46.485  34.977  27.514  1.00  0.00     0.059 A 
ATOM     45  C   UNL A   1      46.946  34.509  29.851  1.00  0.00     0.059 A 
ATOM     46  F   UNL A   1      46.757  32.316  30.657  1.00  0.00    -0.206 F 
ATOM     47  C   UNL A   1      46.872  35.404  28.786  1.00  0.00     0.060 A 
BRANCH  47  48
ATOM     48  S   UNL A   1      47.273  37.149  29.028  1.00  0.00     0.124 S 
ATOM     49  O   UNL A   1      47.212  37.261  30.482  1.00  0.00    -0.237 OA
ATOM     50  O   UNL A   1      48.604  37.249  28.441  1.00  0.00    -0.237 OA
ATOM     51  O   UNL A   1      46.216  37.844  28.300  1.00  0.00    -0.744 OA
ENDBRANCH  47  48
ENDBRANCH  26  40
BRANCH  27  52
ATOM     52  C   UNL A   1      43.539  23.200  26.817  1.00  0.00     0.058 A 
ATOM     53  C   UNL A   1      43.474  22.665  25.523  1.00  0.00     0.135 A 
ATOM     54  C   UNL A   1      43.239  22.352  27.895  1.00  0.00     0.135 A 
ATOM     55  F   UNL A   1      43.749  23.438  24.462  1.00  0.00    -0.206 F 
ATOM     56  C   UNL A   1      43.113  21.340  25.302  1.00  0.00     0.059 A 
ATOM     57  C   UNL A   1      42.904  21.017  27.700  1.00  0.00     0.059 A 
ATOM     58  F   UNL A   1      43.307  22.812  29.153  1.00  0.00    -0.206 F 
ATOM     59  C   UNL A   1      42.833  20.522  26.399  1.00  0.00     0.060 A 
BRANCH  59  60
ATOM     60  S   UNL A   1      42.422  18.789  26.106  1.00  0.00     0.124 S 
ATOM     61  O   UNL A   1      41.022  18.884  25.708  1.00  0.00    -0.237 OA
ATOM     62  O   UNL A   1      43.362  18.422  25.053  1.00  0.00    -0.237 OA
ATOM     63  O   UNL A   1      42.670  18.164  27.403  1.00  0.00    -0.744 OA
ENDBRANCH  59  60
ENDBRANCH  27  52
BRANCH  39  64
ATOM     64  C   UNL A   1      49.621  26.583  26.487  1.00  0.00     0.058 A 
ATOM     65  C   UNL A   1      50.469  26.062  27.477  1.00  0.00     0.135 A 
ATOM     66  C   UNL A   1      50.108  26.649  25.172  1.00  0.00     0.135 A 
ATOM     67  F   UNL A   1      50.053  25.986  28.751  1.00  0.00    -0.206 F 
ATOM     68  C   UNL A   1      51.765  25.653  27.180  1.00  0.00     0.059 A 
ATOM     69  C   UNL A   1      51.391  26.220  24.848  1.00  0.00     0.059 A 
ATOM     70  F   UNL A   1      49.333  27.129  24.187  1.00  0.00    -0.206 F 
ATOM     71  C   UNL A   1      52.218  25.740  25.862  1.00  0.00     0.060 A 
BRANCH  71  72
ATOM     72  S   UNL A   1      53.897  25.198  25.484  1.00  0.00     0.124 S 
ATOM     73  O   UNL A   1      54.424  26.355  24.766  1.00  0.00    -0.237 OA
ATOM     74  O   UNL A   1      54.461  24.965  26.810  1.00  0.00    -0.237 OA
ATOM     75  O   UNL A   1      53.692  23.999  24.677  1.00  0.00    -0.744 OA
ENDBRANCH  71  72
ENDBRANCH  39  64
ENDBRANCH  13  14
ENDBRANCH   6   8
ENDBRANCH   3   4
ENDBRANCH   2   3
ENDBRANCH   1   2
BRANCH   1  76
ATOM     76  C   UNL A   1      32.439  28.802  25.216  1.00  0.00     0.002 C 
BRANCH  76  77
ATOM     77  C   UNL A   1      32.315  28.740  23.683  1.00  0.00     0.021 C 
BRANCH  77  78
ATOM     78  C   UNL A   1      33.572  28.233  22.962  1.00  0.00     0.116 C 
BRANCH  78  79
ATOM     79  N   UNL A   1      33.194  27.392  21.846  1.00  0.00    -0.356 N 
ATOM     80  C   UNL A   1      33.178  26.055  21.642  1.00  0.00     0.227 C 
ATOM     81  H   UNL A   1      32.883  27.906  21.065  1.00  0.00     0.163 HD
ATOM     82  O   UNL A   1      33.122  25.758  20.444  1.00  0.00    -0.274 OA
BRANCH  80  83
ATOM     83  C   UNL A   1      33.062  24.978  22.746  1.00  0.00     0.061 C 
ATOM     84  C   UNL A   1      33.684  23.582  22.409  1.00  0.00     0.053 C 
ATOM     85  C   UNL A   1      33.838  25.520  23.984  1.00  0.00     0.053 C 
ATOM     86  C   UNL A   1      34.542  23.271  23.595  1.00  0.00    -0.044 A 
ATOM     87  C   UNL A   1      34.595  24.335  24.489  1.00  0.00    -0.044 A 
ATOM     88  C   UNL A   1      35.242  22.099  23.846  1.00  0.00     0.004 A 
ATOM     89  C   UNL A   1      35.334  24.252  25.660  1.00  0.00     0.004 A 
ATOM     90  C   UNL A   1      35.990  22.005  25.022  1.00  0.00     0.000 A 
ATOM     91  C   UNL A   1      36.031  23.074  25.928  1.00  0.00     0.000 A 
BRANCH  83  92
ATOM     92  C   UNL A   1      31.548  24.678  23.057  1.00  0.00     0.053 C 
BRANCH  92  93
ATOM     93  C   UNL A   1      31.053  24.453  24.470  1.00  0.00    -0.044 A 
ATOM     94  C   UNL A   1      30.437  25.476  25.196  1.00  0.00     0.024 A 
ATOM     95  C   UNL A   1      31.121  23.188  25.059  1.00  0.00     0.024 A 
ATOM     96  C   UNL A   1      29.970  25.212  26.474  1.00  0.00     0.111 A 
ATOM     97  C   UNL A   1      30.603  23.014  26.335  1.00  0.00     0.111 A 
ATOM     98  N   UNL A   1      30.034  23.999  27.063  1.00  0.00    -0.265 NA
ENDBRANCH  92  93
ENDBRANCH  83  92
ENDBRANCH  80  83
ENDBRANCH  78  79
ENDBRANCH  77  78
ENDBRANCH  76  77
ENDBRANCH   1  76
TORSDOF 18
ENDMDL
