MODEL 1
REMARK VINA RESULT:     -11.4      0.000      0.000
REMARK SMILES NS(=O)(=O)c1ccc(-c2cc(Cl)cc3c2O[C@H](C(F)(F)F)C(C(=O)NCCCCCCNC(=O)c2ccc(-c4c5nc(c(-c6c(F)cc(S(=O)(=O)[O-])cc6F)c6ccc([nH]6)c(-c6c(F)cc(S(=O)(=O)[O-])cc6F)c6nc(c(-c7c(F)cc(S(=O)(=O)[O-])cc7F)c7ccc4[nH]7)C=C6)C=C5)cc2)=C3)cc1
REMARK SMILES IDX 28 1 27 2 26 3 25 4 23 5 24 6 22 8 9 9 10 10 15 11 11 12
REMARK SMILES IDX 14 13 16 14 12 15 13 16 101 17 17 18 8 19 5 20 6 21 103 22
REMARK SMILES IDX 7 23 102 24 2 25 3 26 4 27 1 28 18 31 19 32 20 33 21 34
REMARK SMILES IDX 29 35 30 36 31 37 32 38 33 39 34 41 35 42 36 43 100 44 37 45
REMARK SMILES IDX 99 46 38 47 39 48 40 49 93 50 41 51 98 52 92 53 94 54 42 55
REMARK SMILES IDX 97 56 91 57 90 58 43 60 77 61 56 62 76 63 57 64 60 65 75 66
REMARK SMILES IDX 95 67 58 68 59 69 74 71 96 72 61 73 44 74 45 75 54 76 46 77
REMARK SMILES IDX 47 78 53 79 55 80 48 81 49 82 50 83 51 84 52 85 78 86 79 87
REMARK SMILES IDX 88 88 80 89 81 90 87 91 89 92 82 93 83 94 84 95 85 96 86 97
REMARK SMILES IDX 62 98 63 99 72 100 64 101 65 102 71 103 73 104 66 105 67 106
REMARK SMILES IDX 68 107 69 108 70 109
REMARK H PARENT 25 7 1 29 1 30 32 40 94 59 60 70
REMARK Flexibility Score: inf
ROOT
ATOM      1  C   UNL A   1      45.975  25.215  28.619  1.00  0.00     0.002 C 
ENDROOT
BRANCH   1   2
ATOM      2  C   UNL A   1      45.019  24.376  29.484  1.00  0.00     0.021 C 
BRANCH   2   3
ATOM      3  C   UNL A   1      44.421  23.150  28.776  1.00  0.00     0.116 C 
BRANCH   3   4
ATOM      4  N   UNL A   1      43.519  23.580  27.726  1.00  0.00    -0.352 N 
ATOM      5  C   UNL A   1      43.039  22.777  26.744  1.00  0.00     0.251 C 
ATOM      6  O   UNL A   1      43.137  23.108  25.569  1.00  0.00    -0.270 OA
ATOM      7  H   UNL A   1      43.236  24.523  27.726  1.00  0.00     0.163 HD
BRANCH   5   8
ATOM      8  C   UNL A   1      42.250  21.591  27.194  1.00  0.00     0.067 C 
ATOM      9  C   UNL A   1      38.615  22.705  25.776  1.00  0.00     0.026 A 
ATOM     10  C   UNL A   1      38.486  24.086  26.079  1.00  0.00     0.033 A 
ATOM     11  C   UNL A   1      39.661  22.023  26.422  1.00  0.00     0.135 A 
ATOM     12  C   UNL A   1      39.201  24.697  27.106  1.00  0.00     0.042 A 
ATOM     13  C   UNL A   1      40.286  22.627  27.542  1.00  0.00     0.019 A 
ATOM     14  O   UNL A   1      40.176  20.810  25.979  1.00  0.00    -0.475 OA
ATOM     15  Cl  UNL A   1      38.998  26.377  27.405  1.00  0.00    -0.084 Cl
ATOM     16  C   UNL A   1      40.044  23.949  27.902  1.00  0.00     0.032 A 
ATOM     17  C   UNL A   1      41.393  21.890  28.189  1.00  0.00     0.025 C 
ATOM     18  C   UNL A   1      41.672  20.742  26.071  1.00  0.00     0.314 C 
BRANCH   9  19
ATOM     19  C   UNL A   1      37.453  22.132  25.040  1.00  0.00    -0.015 A 
ATOM     20  C   UNL A   1      34.700  21.922  24.413  1.00  0.00     0.082 A 
ATOM     21  C   UNL A   1      35.533  22.733  23.638  1.00  0.00     0.022 A 
ATOM     22  C   UNL A   1      35.246  21.120  25.414  1.00  0.00     0.022 A 
ATOM     23  C   UNL A   1      36.902  22.814  23.934  1.00  0.00     0.010 A 
ATOM     24  C   UNL A   1      36.618  21.216  25.713  1.00  0.00     0.010 A 
BRANCH  20  25
ATOM     25  S   UNL A   1      32.951  22.054  24.158  1.00  0.00     0.238 S 
ATOM     26  O   UNL A   1      32.717  22.522  22.810  1.00  0.00    -0.207 OA
ATOM     27  O   UNL A   1      32.368  22.694  25.312  1.00  0.00    -0.207 OA
BRANCH  25  28
ATOM     28  N   UNL A   1      32.364  20.478  24.190  1.00  0.00    -0.225 NA
ATOM     29  H   UNL A   1      32.389  20.125  25.147  1.00  0.00     0.137 HD
ATOM     30  H   UNL A   1      32.944  19.887  23.595  1.00  0.00     0.137 HD
ENDBRANCH  25  28
ENDBRANCH  20  25
ENDBRANCH   9  19
BRANCH  18  31
ATOM     31  C   UNL A   1      42.187  19.296  26.260  1.00  0.00     0.429 C 
ATOM     32  F   UNL A   1      41.329  18.372  25.776  1.00  0.00    -0.167 F 
ATOM     33  F   UNL A   1      43.379  19.116  25.643  1.00  0.00    -0.167 F 
ATOM     34  F   UNL A   1      42.391  18.987  27.569  1.00  0.00    -0.167 F 
ENDBRANCH  18  31
ENDBRANCH   5   8
ENDBRANCH   3   4
ENDBRANCH   2   3
ENDBRANCH   1   2
BRANCH   1  35
ATOM     35  C   UNL A   1      46.678  24.443  27.501  1.00  0.00     0.002 C 
BRANCH  35  36
ATOM     36  C   UNL A   1      46.303  24.892  26.090  1.00  0.00     0.021 C 
BRANCH  36  37
ATOM     37  C   UNL A   1      45.567  26.226  26.024  1.00  0.00     0.116 C 
BRANCH  37  38
ATOM     38  N   UNL A   1      44.331  26.141  25.263  1.00  0.00    -0.352 N 
ATOM     39  C   UNL A   1      43.055  26.466  25.653  1.00  0.00     0.251 C 
ATOM     40  H   UNL A   1      44.420  25.805  24.342  1.00  0.00     0.163 HD
ATOM     41  O   UNL A   1      42.099  26.173  24.943  1.00  0.00    -0.269 OA
BRANCH  39  42
ATOM     42  C   UNL A   1      42.845  27.146  26.949  1.00  0.00     0.039 A 
ATOM     43  C   UNL A   1      43.120  28.511  27.049  1.00  0.00     0.014 A 
ATOM     44  C   UNL A   1      42.358  26.441  28.052  1.00  0.00     0.014 A 
ATOM     45  C   UNL A   1      42.849  29.182  28.243  1.00  0.00     0.010 A 
ATOM     46  C   UNL A   1      42.014  27.126  29.213  1.00  0.00     0.010 A 
ATOM     47  C   UNL A   1      42.263  28.502  29.324  1.00  0.00    -0.014 A 
BRANCH  47  48
ATOM     48  C   UNL A   1      41.900  29.215  30.575  1.00  0.00     0.031 A 
ATOM     49  C   UNL A   1      40.680  30.092  30.620  1.00  0.00     0.074 A 
ATOM     50  C   UNL A   1      42.707  29.126  31.650  1.00  0.00     0.049 A 
ATOM     51  N   UNL A   1      40.232  30.837  31.599  1.00  0.00    -0.248 NA
ATOM     52  C   UNL A   1      39.873  30.168  29.391  1.00  0.00     0.031 C 
ATOM     53  C   UNL A   1      43.954  28.359  31.708  1.00  0.00     0.029 A 
ATOM     54  N   UNL A   1      42.612  29.699  32.893  1.00  0.00    -0.354 N 
ATOM     55  C   UNL A   1      39.102  31.474  31.102  1.00  0.00     0.074 A 
ATOM     56  C   UNL A   1      38.972  31.081  29.716  1.00  0.00     0.031 C 
ATOM     57  C   UNL A   1      44.498  28.498  32.926  1.00  0.00     0.029 A 
ATOM     58  C   UNL A   1      43.664  29.394  33.723  1.00  0.00     0.049 A 
ATOM     59  H   UNL A   1      41.861  30.275  33.165  1.00  0.00     0.167 HD
ATOM     60  C   UNL A   1      38.236  32.292  31.748  1.00  0.00     0.037 A 
ATOM     61  C   UNL A   1      43.938  29.800  34.978  1.00  0.00     0.037 A 
ATOM     62  C   UNL A   1      38.373  32.675  33.131  1.00  0.00     0.049 A 
ATOM     63  C   UNL A   1      42.966  30.705  35.683  1.00  0.00     0.074 A 
ATOM     64  C   UNL A   1      37.523  33.451  33.898  1.00  0.00     0.029 A 
ATOM     65  N   UNL A   1      39.436  32.318  33.950  1.00  0.00    -0.354 N 
ATOM     66  N   UNL A   1      41.857  31.236  35.226  1.00  0.00    -0.248 NA
ATOM     67  C   UNL A   1      43.274  31.057  37.076  1.00  0.00     0.031 C 
ATOM     68  C   UNL A   1      38.098  33.609  35.163  1.00  0.00     0.029 A 
ATOM     69  C   UNL A   1      39.277  32.882  35.206  1.00  0.00     0.049 A 
ATOM     70  H   UNL A   1      40.192  31.748  33.678  1.00  0.00     0.167 HD
ATOM     71  C   UNL A   1      41.323  31.970  36.279  1.00  0.00     0.074 A 
ATOM     72  C   UNL A   1      42.225  31.802  37.401  1.00  0.00     0.031 C 
ATOM     73  C   UNL A   1      40.188  32.714  36.314  1.00  0.00     0.037 A 
BRANCH  60  74
ATOM     74  C   UNL A   1      37.075  32.834  30.955  1.00  0.00     0.058 A 
ATOM     75  C   UNL A   1      37.239  33.870  30.019  1.00  0.00     0.135 A 
ATOM     76  C   UNL A   1      35.781  32.323  31.139  1.00  0.00     0.135 A 
ATOM     77  F   UNL A   1      38.452  34.407  29.807  1.00  0.00    -0.206 F 
ATOM     78  C   UNL A   1      36.155  34.419  29.340  1.00  0.00     0.059 A 
ATOM     79  C   UNL A   1      34.687  32.832  30.444  1.00  0.00     0.059 A 
ATOM     80  F   UNL A   1      35.564  31.329  32.014  1.00  0.00    -0.206 F 
ATOM     81  C   UNL A   1      34.880  33.898  29.567  1.00  0.00     0.060 A 
BRANCH  81  82
ATOM     82  S   UNL A   1      33.479  34.648  28.712  1.00  0.00     0.124 S 
ATOM     83  O   UNL A   1      33.097  33.582  27.791  1.00  0.00    -0.237 OA
ATOM     84  O   UNL A   1      32.547  34.906  29.805  1.00  0.00    -0.237 OA
ATOM     85  O   UNL A   1      34.056  35.836  28.091  1.00  0.00    -0.744 OA
ENDBRANCH  81  82
ENDBRANCH  60  74
BRANCH  61  86
ATOM     86  C   UNL A   1      45.185  29.330  35.640  1.00  0.00     0.058 A 
ATOM     87  C   UNL A   1      46.393  30.026  35.492  1.00  0.00     0.135 A 
ATOM     88  C   UNL A   1      45.173  28.211  36.487  1.00  0.00     0.135 A 
ATOM     89  F   UNL A   1      46.457  31.096  34.687  1.00  0.00    -0.206 F 
ATOM     90  C   UNL A   1      47.546  29.632  36.165  1.00  0.00     0.059 A 
ATOM     91  C   UNL A   1      46.305  27.814  37.191  1.00  0.00     0.059 A 
ATOM     92  F   UNL A   1      44.036  27.522  36.676  1.00  0.00    -0.206 F 
ATOM     93  C   UNL A   1      47.489  28.531  37.022  1.00  0.00     0.060 A 
BRANCH  93  94
ATOM     94  S   UNL A   1      48.965  28.087  37.963  1.00  0.00     0.124 S 
ATOM     95  O   UNL A   1      49.935  27.856  36.900  1.00  0.00    -0.237 OA
ATOM     96  O   UNL A   1      49.179  29.282  38.774  1.00  0.00    -0.237 OA
ATOM     97  O   UNL A   1      48.546  26.903  38.706  1.00  0.00    -0.744 OA
ENDBRANCH  93  94
ENDBRANCH  61  86
BRANCH  73  98
ATOM     98  C   UNL A   1      39.841  33.388  37.613  1.00  0.00     0.058 A 
ATOM     99  C   UNL A   1      40.477  34.568  38.030  1.00  0.00     0.135 A 
ATOM    100  C   UNL A   1      38.815  32.877  38.427  1.00  0.00     0.135 A 
ATOM    101  F   UNL A   1      41.468  35.097  37.295  1.00  0.00    -0.206 F 
ATOM    102  C   UNL A   1      40.126  35.204  39.217  1.00  0.00     0.059 A 
ATOM    103  C   UNL A   1      38.427  33.513  39.602  1.00  0.00     0.059 A 
ATOM    104  F   UNL A   1      38.167  31.757  38.072  1.00  0.00    -0.206 F 
ATOM    105  C   UNL A   1      39.096  34.670  39.994  1.00  0.00     0.060 A 
BRANCH 105 106
ATOM    106  S   UNL A   1      38.628  35.525  41.514  1.00  0.00     0.124 S 
ATOM    107  O   UNL A   1      39.710  35.141  42.414  1.00  0.00    -0.237 OA
ATOM    108  O   UNL A   1      38.616  36.923  41.094  1.00  0.00    -0.237 OA
ATOM    109  O   UNL A   1      37.318  34.961  41.831  1.00  0.00    -0.744 OA
ENDBRANCH 105 106
ENDBRANCH  73  98
ENDBRANCH  47  48
ENDBRANCH  39  42
ENDBRANCH  37  38
ENDBRANCH  36  37
ENDBRANCH  35  36
ENDBRANCH   1  35
TORSDOF 20
ENDMDL
MODEL 2
REMARK VINA RESULT:     -11.2      0.901      7.867
REMARK SMILES NS(=O)(=O)c1ccc(-c2cc(Cl)cc3c2O[C@H](C(F)(F)F)C(C(=O)NCCCCCCNC(=O)c2ccc(-c4c5nc(c(-c6c(F)cc(S(=O)(=O)[O-])cc6F)c6ccc([nH]6)c(-c6c(F)cc(S(=O)(=O)[O-])cc6F)c6nc(c(-c7c(F)cc(S(=O)(=O)[O-])cc7F)c7ccc4[nH]7)C=C6)C=C5)cc2)=C3)cc1
REMARK SMILES IDX 28 1 27 2 26 3 25 4 23 5 24 6 22 8 9 9 10 10 15 11 11 12
REMARK SMILES IDX 14 13 16 14 12 15 13 16 101 17 17 18 8 19 5 20 6 21 103 22
REMARK SMILES IDX 7 23 102 24 2 25 3 26 4 27 1 28 18 31 19 32 20 33 21 34
REMARK SMILES IDX 29 35 30 36 31 37 32 38 33 39 34 41 35 42 36 43 100 44 37 45
REMARK SMILES IDX 99 46 38 47 39 48 40 49 93 50 41 51 98 52 92 53 94 54 42 55
REMARK SMILES IDX 97 56 91 57 90 58 43 60 77 61 56 62 76 63 57 64 60 65 75 66
REMARK SMILES IDX 95 67 58 68 59 69 74 71 96 72 61 73 44 74 45 75 54 76 46 77
REMARK SMILES IDX 47 78 53 79 55 80 48 81 49 82 50 83 51 84 52 85 78 86 79 87
REMARK SMILES IDX 88 88 80 89 81 90 87 91 89 92 82 93 83 94 84 95 85 96 86 97
REMARK SMILES IDX 62 98 63 99 72 100 64 101 65 102 71 103 73 104 66 105 67 106
REMARK SMILES IDX 68 107 69 108 70 109
REMARK H PARENT 25 7 1 29 1 30 32 40 94 59 60 70
REMARK Flexibility Score: inf
ROOT
ATOM      1  C   UNL A   1      45.781  25.219  28.315  1.00  0.00     0.002 C 
ENDROOT
BRANCH   1   2
ATOM      2  C   UNL A   1      45.190  24.287  29.386  1.00  0.00     0.021 C 
BRANCH   2   3
ATOM      3  C   UNL A   1      44.412  23.083  28.834  1.00  0.00     0.116 C 
BRANCH   3   4
ATOM      4  N   UNL A   1      43.525  23.516  27.773  1.00  0.00    -0.352 N 
ATOM      5  C   UNL A   1      43.050  22.713  26.789  1.00  0.00     0.251 C 
ATOM      6  O   UNL A   1      43.162  23.039  25.613  1.00  0.00    -0.270 OA
ATOM      7  H   UNL A   1      43.248  24.461  27.766  1.00  0.00     0.163 HD
BRANCH   5   8
ATOM      8  C   UNL A   1      42.247  21.534  27.233  1.00  0.00     0.067 C 
ATOM      9  C   UNL A   1      38.632  22.676  25.788  1.00  0.00     0.026 A 
ATOM     10  C   UNL A   1      38.513  24.059  26.088  1.00  0.00     0.033 A 
ATOM     11  C   UNL A   1      39.667  21.987  26.442  1.00  0.00     0.135 A 
ATOM     12  C   UNL A   1      39.225  24.665  27.120  1.00  0.00     0.042 A 
ATOM     13  C   UNL A   1      40.290  22.586  27.565  1.00  0.00     0.019 A 
ATOM     14  O   UNL A   1      40.176  20.769  26.004  1.00  0.00    -0.475 OA
ATOM     15  Cl  UNL A   1      39.033  26.347  27.416  1.00  0.00    -0.084 Cl
ATOM     16  C   UNL A   1      40.056  23.911  27.922  1.00  0.00     0.032 A 
ATOM     17  C   UNL A   1      41.385  21.842  28.222  1.00  0.00     0.025 C 
ATOM     18  C   UNL A   1      41.671  20.688  26.107  1.00  0.00     0.314 C 
BRANCH   9  19
ATOM     19  C   UNL A   1      37.471  22.112  25.044  1.00  0.00    -0.015 A 
ATOM     20  C   UNL A   1      34.819  21.140  24.838  1.00  0.00     0.082 A 
ATOM     21  C   UNL A   1      35.097  22.478  24.548  1.00  0.00     0.022 A 
ATOM     22  C   UNL A   1      35.864  20.255  25.104  1.00  0.00     0.022 A 
ATOM     23  C   UNL A   1      36.415  22.951  24.625  1.00  0.00     0.010 A 
ATOM     24  C   UNL A   1      37.182  20.740  25.191  1.00  0.00     0.010 A 
BRANCH  20  25
ATOM     25  S   UNL A   1      33.118  20.660  24.973  1.00  0.00     0.238 S 
ATOM     26  O   UNL A   1      32.710  20.055  23.725  1.00  0.00    -0.207 OA
ATOM     27  O   UNL A   1      32.387  21.743  25.585  1.00  0.00    -0.207 OA
BRANCH  25  28
ATOM     28  N   UNL A   1      33.083  19.416  26.104  1.00  0.00    -0.225 NA
ATOM     29  H   UNL A   1      33.160  18.519  25.625  1.00  0.00     0.137 HD
ATOM     30  H   UNL A   1      32.203  19.450  26.620  1.00  0.00     0.137 HD
ENDBRANCH  25  28
ENDBRANCH  20  25
ENDBRANCH   9  19
BRANCH  18  31
ATOM     31  C   UNL A   1      42.172  19.239  26.302  1.00  0.00     0.429 C 
ATOM     32  F   UNL A   1      43.390  19.032  25.754  1.00  0.00    -0.167 F 
ATOM     33  F   UNL A   1      42.252  18.922  27.616  1.00  0.00    -0.167 F 
ATOM     34  F   UNL A   1      41.337  18.322  25.744  1.00  0.00    -0.167 F 
ENDBRANCH  18  31
ENDBRANCH   5   8
ENDBRANCH   3   4
ENDBRANCH   2   3
ENDBRANCH   1   2
BRANCH   1  35
ATOM     35  C   UNL A   1      46.552  24.510  27.200  1.00  0.00     0.002 C 
BRANCH  35  36
ATOM     36  C   UNL A   1      46.169  24.950  25.788  1.00  0.00     0.021 C 
BRANCH  36  37
ATOM     37  C   UNL A   1      45.319  26.214  25.727  1.00  0.00     0.116 C 
BRANCH  37  38
ATOM     38  N   UNL A   1      44.022  25.982  25.114  1.00  0.00    -0.352 N 
ATOM     39  C   UNL A   1      42.775  26.319  25.582  1.00  0.00     0.251 C 
ATOM     40  H   UNL A   1      44.038  25.522  24.244  1.00  0.00     0.163 HD
ATOM     41  O   UNL A   1      41.770  25.896  25.020  1.00  0.00    -0.269 OA
BRANCH  39  42
ATOM     42  C   UNL A   1      42.659  27.169  26.785  1.00  0.00     0.039 A 
ATOM     43  C   UNL A   1      42.898  28.539  26.671  1.00  0.00     0.014 A 
ATOM     44  C   UNL A   1      42.294  26.616  28.016  1.00  0.00     0.014 A 
ATOM     45  C   UNL A   1      42.713  29.366  27.781  1.00  0.00     0.010 A 
ATOM     46  C   UNL A   1      42.032  27.450  29.097  1.00  0.00     0.010 A 
ATOM     47  C   UNL A   1      42.246  28.833  28.995  1.00  0.00    -0.014 A 
BRANCH  47  48
ATOM     48  C   UNL A   1      41.973  29.708  30.163  1.00  0.00     0.031 A 
ATOM     49  C   UNL A   1      42.882  29.676  31.360  1.00  0.00     0.074 A 
ATOM     50  C   UNL A   1      40.869  30.480  30.174  1.00  0.00     0.049 A 
ATOM     51  N   UNL A   1      42.778  30.322  32.494  1.00  0.00    -0.248 NA
ATOM     52  C   UNL A   1      44.044  28.776  31.286  1.00  0.00     0.031 C 
ATOM     53  C   UNL A   1      39.876  30.547  29.099  1.00  0.00     0.029 A 
ATOM     54  N   UNL A   1      40.385  31.340  31.127  1.00  0.00    -0.354 N 
ATOM     55  C   UNL A   1      43.852  29.899  33.269  1.00  0.00     0.074 A 
ATOM     56  C   UNL A   1      44.554  28.893  32.502  1.00  0.00     0.031 C 
ATOM     57  C   UNL A   1      38.911  31.412  29.447  1.00  0.00     0.029 A 
ATOM     58  C   UNL A   1      39.193  31.930  30.782  1.00  0.00     0.049 A 
ATOM     59  H   UNL A   1      40.849  31.519  31.977  1.00  0.00     0.167 HD
ATOM     60  C   UNL A   1      44.233  30.328  34.497  1.00  0.00     0.037 A 
ATOM     61  C   UNL A   1      38.405  32.781  31.469  1.00  0.00     0.037 A 
ATOM     62  C   UNL A   1      43.528  31.334  35.251  1.00  0.00     0.049 A 
ATOM     63  C   UNL A   1      38.843  33.250  32.828  1.00  0.00     0.074 A 
ATOM     64  C   UNL A   1      43.860  31.881  36.477  1.00  0.00     0.029 A 
ATOM     65  N   UNL A   1      42.341  31.934  34.854  1.00  0.00    -0.354 N 
ATOM     66  N   UNL A   1      39.905  32.902  33.515  1.00  0.00    -0.248 NA
ATOM     67  C   UNL A   1      37.985  34.234  33.501  1.00  0.00     0.031 C 
ATOM     68  C   UNL A   1      42.846  32.771  36.847  1.00  0.00     0.029 A 
ATOM     69  C   UNL A   1      41.911  32.825  35.824  1.00  0.00     0.049 A 
ATOM     70  H   UNL A   1      41.871  31.752  34.007  1.00  0.00     0.167 HD
ATOM     71  C   UNL A   1      39.855  33.638  34.694  1.00  0.00     0.074 A 
ATOM     72  C   UNL A   1      38.664  34.461  34.619  1.00  0.00     0.031 C 
ATOM     73  C   UNL A   1      40.718  33.633  35.742  1.00  0.00     0.037 A 
BRANCH  60  74
ATOM     74  C   UNL A   1      45.461  29.695  35.098  1.00  0.00     0.058 A 
ATOM     75  C   UNL A   1      45.382  28.553  35.914  1.00  0.00     0.135 A 
ATOM     76  C   UNL A   1      46.734  30.242  34.868  1.00  0.00     0.135 A 
ATOM     77  F   UNL A   1      44.190  27.991  36.178  1.00  0.00    -0.206 F 
ATOM     78  C   UNL A   1      46.508  28.014  36.527  1.00  0.00     0.059 A 
ATOM     79  C   UNL A   1      47.880  29.697  35.442  1.00  0.00     0.059 A 
ATOM     80  F   UNL A   1      46.874  31.328  34.092  1.00  0.00    -0.206 F 
ATOM     81  C   UNL A   1      47.753  28.599  36.291  1.00  0.00     0.060 A 
BRANCH  81  82
ATOM     82  S   UNL A   1      49.199  27.915  37.127  1.00  0.00     0.124 S 
ATOM     83  O   UNL A   1      50.037  27.536  35.994  1.00  0.00    -0.237 OA
ATOM     84  O   UNL A   1      49.671  29.049  37.914  1.00  0.00    -0.237 OA
ATOM     85  O   UNL A   1      48.650  26.804  37.899  1.00  0.00    -0.744 OA
ENDBRANCH  81  82
ENDBRANCH  60  74
BRANCH  61  86
ATOM     86  C   UNL A   1      37.131  33.246  30.857  1.00  0.00     0.058 A 
ATOM     87  C   UNL A   1      35.890  32.805  31.338  1.00  0.00     0.135 A 
ATOM     88  C   UNL A   1      37.133  34.195  29.823  1.00  0.00     0.135 A 
ATOM     89  F   UNL A   1      35.836  31.893  32.320  1.00  0.00    -0.206 F 
ATOM     90  C   UNL A   1      34.694  33.291  30.817  1.00  0.00     0.059 A 
ATOM     91  C   UNL A   1      35.951  34.715  29.305  1.00  0.00     0.059 A 
ATOM     92  F   UNL A   1      38.295  34.663  29.341  1.00  0.00    -0.206 F 
ATOM     93  C   UNL A   1      34.735  34.256  29.808  1.00  0.00     0.060 A 
BRANCH  93  94
ATOM     94  S   UNL A   1      33.180  34.949  29.208  1.00  0.00     0.124 S 
ATOM     95  O   UNL A   1      33.621  36.213  28.633  1.00  0.00    -0.237 OA
ATOM     96  O   UNL A   1      32.740  33.932  28.257  1.00  0.00    -0.237 OA
ATOM     97  O   UNL A   1      32.370  35.053  30.418  1.00  0.00    -0.744 OA
ENDBRANCH  93  94
ENDBRANCH  61  86
BRANCH  73  98
ATOM     98  C   UNL A   1      40.422  34.563  36.888  1.00  0.00     0.058 A 
ATOM     99  C   UNL A   1      40.895  35.884  36.911  1.00  0.00     0.135 A 
ATOM    100  C   UNL A   1      39.606  34.142  37.951  1.00  0.00     0.135 A 
ATOM    101  F   UNL A   1      41.684  36.337  35.924  1.00  0.00    -0.206 F 
ATOM    102  C   UNL A   1      40.589  36.748  37.958  1.00  0.00     0.059 A 
ATOM    103  C   UNL A   1      39.262  34.997  38.993  1.00  0.00     0.059 A 
ATOM    104  F   UNL A   1      39.119  32.891  37.975  1.00  0.00    -0.206 F 
ATOM    105  C   UNL A   1      39.767  36.295  38.994  1.00  0.00     0.060 A 
BRANCH 105 106
ATOM    106  S   UNL A   1      39.350  37.438  40.328  1.00  0.00     0.124 S 
ATOM    107  O   UNL A   1      40.460  38.382  40.266  1.00  0.00    -0.237 OA
ATOM    108  O   UNL A   1      38.052  37.953  39.902  1.00  0.00    -0.237 OA
ATOM    109  O   UNL A   1      39.319  36.581  41.511  1.00  0.00    -0.744 OA
ENDBRANCH 105 106
ENDBRANCH  73  98
ENDBRANCH  47  48
ENDBRANCH  39  42
ENDBRANCH  37  38
ENDBRANCH  36  37
ENDBRANCH  35  36
ENDBRANCH   1  35
TORSDOF 20
ENDMDL
MODEL 3
REMARK VINA RESULT:     -10.6      4.277     10.529
REMARK SMILES NS(=O)(=O)c1ccc(-c2cc(Cl)cc3c2O[C@H](C(F)(F)F)C(C(=O)NCCCCCCNC(=O)c2ccc(-c4c5nc(c(-c6c(F)cc(S(=O)(=O)[O-])cc6F)c6ccc([nH]6)c(-c6c(F)cc(S(=O)(=O)[O-])cc6F)c6nc(c(-c7c(F)cc(S(=O)(=O)[O-])cc7F)c7ccc4[nH]7)C=C6)C=C5)cc2)=C3)cc1
REMARK SMILES IDX 28 1 27 2 26 3 25 4 23 5 24 6 22 8 9 9 10 10 15 11 11 12
REMARK SMILES IDX 14 13 16 14 12 15 13 16 101 17 17 18 8 19 5 20 6 21 103 22
REMARK SMILES IDX 7 23 102 24 2 25 3 26 4 27 1 28 18 31 19 32 20 33 21 34
REMARK SMILES IDX 29 35 30 36 31 37 32 38 33 39 34 41 35 42 36 43 100 44 37 45
REMARK SMILES IDX 99 46 38 47 39 48 40 49 93 50 41 51 98 52 92 53 94 54 42 55
REMARK SMILES IDX 97 56 91 57 90 58 43 60 77 61 56 62 76 63 57 64 60 65 75 66
REMARK SMILES IDX 95 67 58 68 59 69 74 71 96 72 61 73 44 74 45 75 54 76 46 77
REMARK SMILES IDX 47 78 53 79 55 80 48 81 49 82 50 83 51 84 52 85 78 86 79 87
REMARK SMILES IDX 88 88 80 89 81 90 87 91 89 92 82 93 83 94 84 95 85 96 86 97
REMARK SMILES IDX 62 98 63 99 72 100 64 101 65 102 71 103 73 104 66 105 67 106
REMARK SMILES IDX 68 107 69 108 70 109
REMARK H PARENT 25 7 1 29 1 30 32 40 94 59 60 70
REMARK Flexibility Score: inf
ROOT
ATOM      1  C   UNL A   1      44.553  20.799  24.959  1.00  0.00     0.002 C 
ENDROOT
BRANCH   1   2
ATOM      2  C   UNL A   1      45.657  21.621  25.645  1.00  0.00     0.021 C 
BRANCH   2   3
ATOM      3  C   UNL A   1      45.908  23.005  25.027  1.00  0.00     0.116 C 
BRANCH   3   4
ATOM      4  N   UNL A   1      45.265  24.026  25.830  1.00  0.00    -0.352 N 
ATOM      5  C   UNL A   1      45.909  24.840  26.702  1.00  0.00     0.251 C 
ATOM      6  O   UNL A   1      45.516  24.946  27.858  1.00  0.00    -0.270 OA
ATOM      7  H   UNL A   1      44.291  24.134  25.735  1.00  0.00     0.163 HD
BRANCH   5   8
ATOM      8  C   UNL A   1      46.980  25.706  26.124  1.00  0.00     0.067 C 
ATOM      9  C   UNL A   1      45.376  29.329  26.996  1.00  0.00     0.026 A 
ATOM     10  C   UNL A   1      43.992  29.224  26.696  1.00  0.00     0.033 A 
ATOM     11  C   UNL A   1      46.197  28.300  26.505  1.00  0.00     0.135 A 
ATOM     12  C   UNL A   1      43.490  28.287  25.796  1.00  0.00     0.042 A 
ATOM     13  C   UNL A   1      45.691  27.437  25.500  1.00  0.00     0.019 A 
ATOM     14  O   UNL A   1      47.465  28.024  27.004  1.00  0.00    -0.475 OA
ATOM     15  Cl  UNL A   1      41.800  28.215  25.492  1.00  0.00    -0.084 Cl
ATOM     16  C   UNL A   1      44.351  27.443  25.126  1.00  0.00     0.032 A 
ATOM     17  C   UNL A   1      46.575  26.356  25.015  1.00  0.00     0.025 C 
ATOM     18  C   UNL A   1      47.736  26.555  27.136  1.00  0.00     0.314 C 
BRANCH   9  19
ATOM     19  C   UNL A   1      45.781  30.655  27.541  1.00  0.00    -0.015 A 
ATOM     20  C   UNL A   1      45.679  33.481  27.679  1.00  0.00     0.082 A 
ATOM     21  C   UNL A   1      44.902  32.711  28.548  1.00  0.00     0.022 A 
ATOM     22  C   UNL A   1      46.598  32.861  26.833  1.00  0.00     0.022 A 
ATOM     23  C   UNL A   1      44.974  31.311  28.496  1.00  0.00     0.010 A 
ATOM     24  C   UNL A   1      46.656  31.456  26.778  1.00  0.00     0.010 A 
BRANCH  20  25
ATOM     25  S   UNL A   1      45.362  35.224  27.612  1.00  0.00     0.238 S 
ATOM     26  O   UNL A   1      46.298  35.895  28.486  1.00  0.00    -0.207 OA
ATOM     27  O   UNL A   1      43.936  35.431  27.698  1.00  0.00    -0.207 OA
BRANCH  25  28
ATOM     28  N   UNL A   1      45.781  35.706  26.057  1.00  0.00    -0.225 NA
ATOM     29  H   UNL A   1      45.119  36.410  25.729  1.00  0.00     0.137 HD
ATOM     30  H   UNL A   1      45.754  34.900  25.432  1.00  0.00     0.137 HD
ENDBRANCH  25  28
ENDBRANCH  20  25
ENDBRANCH   9  19
BRANCH  18  31
ATOM     31  C   UNL A   1      49.239  26.216  27.006  1.00  0.00     0.429 C 
ATOM     32  F   UNL A   1      49.944  26.553  28.109  1.00  0.00    -0.167 F 
ATOM     33  F   UNL A   1      49.425  24.893  26.785  1.00  0.00    -0.167 F 
ATOM     34  F   UNL A   1      49.826  26.859  25.961  1.00  0.00    -0.167 F 
ENDBRANCH  18  31
ENDBRANCH   5   8
ENDBRANCH   3   4
ENDBRANCH   2   3
ENDBRANCH   1   2
BRANCH   1  35
ATOM     35  C   UNL A   1      43.261  20.656  25.765  1.00  0.00     0.002 C 
BRANCH  35  36
ATOM     36  C   UNL A   1      42.386  21.908  25.786  1.00  0.00     0.021 C 
BRANCH  36  37
ATOM     37  C   UNL A   1      41.235  21.859  26.785  1.00  0.00     0.116 C 
BRANCH  37  38
ATOM     38  N   UNL A   1      39.935  21.914  26.136  1.00  0.00    -0.352 N 
ATOM     39  C   UNL A   1      38.986  22.905  26.194  1.00  0.00     0.251 C 
ATOM     40  H   UNL A   1      39.704  21.137  25.579  1.00  0.00     0.163 HD
ATOM     41  O   UNL A   1      37.868  22.718  25.723  1.00  0.00    -0.269 OA
BRANCH  39  42
ATOM     42  C   UNL A   1      39.314  24.186  26.855  1.00  0.00     0.039 A 
ATOM     43  C   UNL A   1      38.902  24.393  28.172  1.00  0.00     0.014 A 
ATOM     44  C   UNL A   1      40.043  25.169  26.179  1.00  0.00     0.014 A 
ATOM     45  C   UNL A   1      39.275  25.564  28.834  1.00  0.00     0.010 A 
ATOM     46  C   UNL A   1      40.481  26.297  26.865  1.00  0.00     0.010 A 
ATOM     47  C   UNL A   1      40.095  26.511  28.197  1.00  0.00    -0.014 A 
BRANCH  47  48
ATOM     48  C   UNL A   1      40.562  27.727  28.910  1.00  0.00     0.031 A 
ATOM     49  C   UNL A   1      41.923  27.755  29.547  1.00  0.00     0.074 A 
ATOM     50  C   UNL A   1      39.734  28.781  29.042  1.00  0.00     0.049 A 
ATOM     51  N   UNL A   1      42.485  28.700  30.258  1.00  0.00    -0.248 NA
ATOM     52  C   UNL A   1      42.752  26.548  29.393  1.00  0.00     0.031 C 
ATOM     53  C   UNL A   1      38.365  28.848  28.524  1.00  0.00     0.029 A 
ATOM     54  N   UNL A   1      39.911  29.990  29.666  1.00  0.00    -0.354 N 
ATOM     55  C   UNL A   1      43.723  28.200  30.642  1.00  0.00     0.074 A 
ATOM     56  C   UNL A   1      43.802  26.844  30.143  1.00  0.00     0.031 C 
ATOM     57  C   UNL A   1      37.834  30.039  28.840  1.00  0.00     0.029 A 
ATOM     58  C   UNL A   1      38.806  30.805  29.615  1.00  0.00     0.049 A 
ATOM     59  H   UNL A   1      40.752  30.249  30.109  1.00  0.00     0.167 HD
ATOM     60  C   UNL A   1      44.714  28.821  31.326  1.00  0.00     0.037 A 
ATOM     61  C   UNL A   1      38.591  32.025  30.145  1.00  0.00     0.037 A 
ATOM     62  C   UNL A   1      44.627  30.173  31.815  1.00  0.00     0.049 A 
ATOM     63  C   UNL A   1      39.701  32.702  30.898  1.00  0.00     0.074 A 
ATOM     64  C   UNL A   1      45.592  30.917  32.469  1.00  0.00     0.029 A 
ATOM     65  N   UNL A   1      43.502  30.981  31.715  1.00  0.00    -0.354 N 
ATOM     66  N   UNL A   1      40.898  32.247  31.184  1.00  0.00    -0.248 NA
ATOM     67  C   UNL A   1      39.440  34.061  31.391  1.00  0.00     0.031 C 
ATOM     68  C   UNL A   1      45.034  32.153  32.813  1.00  0.00     0.029 A 
ATOM     69  C   UNL A   1      43.739  32.204  32.320  1.00  0.00     0.049 A 
ATOM     70  H   UNL A   1      42.657  30.721  31.279  1.00  0.00     0.167 HD
ATOM     71  C   UNL A   1      41.541  33.270  31.874  1.00  0.00     0.074 A 
ATOM     72  C   UNL A   1      40.603  34.372  31.949  1.00  0.00     0.031 C 
ATOM     73  C   UNL A   1      42.794  33.293  32.396  1.00  0.00     0.037 A 
BRANCH  60  74
ATOM     74  C   UNL A   1      45.970  28.030  31.592  1.00  0.00     0.058 A 
ATOM     75  C   UNL A   1      47.120  28.178  30.797  1.00  0.00     0.135 A 
ATOM     76  C   UNL A   1      46.022  27.104  32.645  1.00  0.00     0.135 A 
ATOM     77  F   UNL A   1      47.126  29.043  29.769  1.00  0.00    -0.206 F 
ATOM     78  C   UNL A   1      48.252  27.396  30.999  1.00  0.00     0.059 A 
ATOM     79  C   UNL A   1      47.157  26.336  32.888  1.00  0.00     0.059 A 
ATOM     80  F   UNL A   1      44.957  26.924  33.442  1.00  0.00    -0.206 F 
ATOM     81  C   UNL A   1      48.258  26.470  32.043  1.00  0.00     0.060 A 
BRANCH  81  82
ATOM     82  S   UNL A   1      49.717  25.432  32.266  1.00  0.00     0.124 S 
ATOM     83  O   UNL A   1      49.958  24.974  30.901  1.00  0.00    -0.237 OA
ATOM     84  O   UNL A   1      50.694  26.375  32.799  1.00  0.00    -0.237 OA
ATOM     85  O   UNL A   1      49.265  24.406  33.200  1.00  0.00    -0.744 OA
ENDBRANCH  81  82
ENDBRANCH  60  74
BRANCH  61  86
ATOM     86  C   UNL A   1      37.267  32.676  29.958  1.00  0.00     0.058 A 
ATOM     87  C   UNL A   1      36.186  32.383  30.801  1.00  0.00     0.135 A 
ATOM     88  C   UNL A   1      37.079  33.656  28.970  1.00  0.00     0.135 A 
ATOM     89  F   UNL A   1      36.313  31.448  31.755  1.00  0.00    -0.206 F 
ATOM     90  C   UNL A   1      34.966  33.041  30.676  1.00  0.00     0.059 A 
ATOM     91  C   UNL A   1      35.878  34.346  28.842  1.00  0.00     0.059 A 
ATOM     92  F   UNL A   1      38.089  33.985  28.149  1.00  0.00    -0.206 F 
ATOM     93  C   UNL A   1      34.826  34.030  29.700  1.00  0.00     0.060 A 
BRANCH  93  94
ATOM     94  S   UNL A   1      33.271  34.943  29.609  1.00  0.00     0.124 S 
ATOM     95  O   UNL A   1      33.717  36.240  29.115  1.00  0.00    -0.237 OA
ATOM     96  O   UNL A   1      32.496  34.133  28.673  1.00  0.00    -0.237 OA
ATOM     97  O   UNL A   1      32.789  34.923  30.988  1.00  0.00    -0.744 OA
ENDBRANCH  93  94
ENDBRANCH  61  86
BRANCH  73  98
ATOM     98  C   UNL A   1      43.238  34.559  33.077  1.00  0.00     0.058 A 
ATOM     99  C   UNL A   1      43.127  34.732  34.465  1.00  0.00     0.135 A 
ATOM    100  C   UNL A   1      43.835  35.592  32.335  1.00  0.00     0.135 A 
ATOM    101  F   UNL A   1      42.559  33.780  35.222  1.00  0.00    -0.206 F 
ATOM    102  C   UNL A   1      43.571  35.892  35.091  1.00  0.00     0.059 A 
ATOM    103  C   UNL A   1      44.313  36.748  32.944  1.00  0.00     0.059 A 
ATOM    104  F   UNL A   1      43.975  35.476  31.005  1.00  0.00    -0.206 F 
ATOM    105  C   UNL A   1      44.167  36.894  34.321  1.00  0.00     0.060 A 
BRANCH 105 106
ATOM    106  S   UNL A   1      44.770  38.380  35.152  1.00  0.00     0.124 S 
ATOM    107  O   UNL A   1      44.731  37.971  36.552  1.00  0.00    -0.237 OA
ATOM    108  O   UNL A   1      46.101  38.541  34.574  1.00  0.00    -0.237 OA
ATOM    109  O   UNL A   1      43.799  39.401  34.769  1.00  0.00    -0.744 OA
ENDBRANCH 105 106
ENDBRANCH  73  98
ENDBRANCH  47  48
ENDBRANCH  39  42
ENDBRANCH  37  38
ENDBRANCH  36  37
ENDBRANCH  35  36
ENDBRANCH   1  35
TORSDOF 20
ENDMDL
