MODEL 1
REMARK VINA RESULT:     -13.2      0.000      0.000
REMARK SMILES Cc1cc2c(=O)cc(-c3ccc(F)cc3)oc2c(C(=O)NCCCCCCNC(=O)c2ccc(-c3c4nc(c(-c5c(F)cc(S(=O)(=O)[O-])cc5F)c5ccc([nH]5)c(-c5c(F)cc(S(=O)(=O)[O-])cc5F)c5nc(c(-c6c(F)cc(S(=O)(=O)[O-])cc6F)c6ccc3[nH]6)C=C5)C=C4)cc2)c1C
REMARK SMILES IDX 25 1 24 2 23 3 22 4 21 5 19 6 20 7 18 9 1 10 2 11 3 12 97 13
REMARK SMILES IDX 4 14 98 15 5 16 17 17 6 18 7 19 16 20 8 21 9 22 10 23 15 24
REMARK SMILES IDX 11 25 14 26 12 27 13 28 26 29 27 30 28 31 29 32 30 34 31 35
REMARK SMILES IDX 32 36 96 37 33 38 95 39 34 40 35 41 36 42 89 43 37 44 94 45
REMARK SMILES IDX 88 46 90 47 38 48 93 49 87 50 86 51 39 53 73 54 52 55 72 56
REMARK SMILES IDX 53 57 56 58 71 59 91 60 54 61 55 62 70 64 92 65 57 66 40 67
REMARK SMILES IDX 41 68 50 69 42 70 43 71 49 72 51 73 44 74 45 75 46 76 47 77
REMARK SMILES IDX 48 78 74 79 75 80 84 81 76 82 77 83 83 84 85 85 78 86 79 87
REMARK SMILES IDX 80 88 81 89 82 90 58 91 59 92 68 93 60 94 61 95 67 96 69 97
REMARK SMILES IDX 62 98 63 99 64 100 65 101 66 102
REMARK H PARENT 21 8 28 33 90 52 56 63
REMARK Flexibility Score: inf
ROOT
ATOM      1  C   UNL A   1      36.511  23.904  25.948  1.00  0.00     0.002 C 
ENDROOT
BRANCH   1   2
ATOM      2  C   UNL A   1      35.256  23.024  25.962  1.00  0.00     0.002 C 
BRANCH   2   3
ATOM      3  C   UNL A   1      34.223  23.209  27.082  1.00  0.00     0.021 C 
BRANCH   3   4
ATOM      4  C   UNL A   1      33.087  22.196  27.217  1.00  0.00     0.116 C 
BRANCH   4   5
ATOM      5  N   UNL A   1      31.769  22.727  27.499  1.00  0.00    -0.352 N 
ATOM      6  C   UNL A   1      30.940  23.590  26.801  1.00  0.00     0.255 C 
ATOM      7  O   UNL A   1      29.776  23.641  27.207  1.00  0.00    -0.269 OA
ATOM      8  H   UNL A   1      31.390  22.415  28.352  1.00  0.00     0.163 HD
BRANCH   6   9
ATOM      9  C   UNL A   1      31.353  24.489  25.652  1.00  0.00     0.086 A 
ATOM     10  C   UNL A   1      31.668  28.161  24.466  1.00  0.00     0.044 C 
ATOM     11  C   UNL A   1      31.727  26.654  24.519  1.00  0.00    -0.046 A 
ATOM     12  C   UNL A   1      32.165  25.989  23.376  1.00  0.00     0.019 A 
ATOM     13  C   UNL A   1      31.430  25.913  25.701  1.00  0.00    -0.032 A 
ATOM     14  C   UNL A   1      32.254  24.603  23.373  1.00  0.00     0.066 A 
ATOM     15  C   UNL A   1      31.334  26.712  26.975  1.00  0.00     0.045 C 
ATOM     16  C   UNL A   1      32.863  23.948  22.204  1.00  0.00     0.193 A 
ATOM     17  C   UNL A   1      31.815  23.844  24.466  1.00  0.00     0.151 A 
ATOM     18  O   UNL A   1      33.260  24.566  21.224  1.00  0.00    -0.289 OA
ATOM     19  C   UNL A   1      33.017  22.498  22.276  1.00  0.00     0.100 A 
ATOM     20  O   UNL A   1      31.852  22.459  24.394  1.00  0.00    -0.455 OA
ATOM     21  C   UNL A   1      32.525  21.853  23.341  1.00  0.00     0.138 A 
BRANCH  21  22
ATOM     22  C   UNL A   1      32.631  20.385  23.395  1.00  0.00     0.018 A 
ATOM     23  C   UNL A   1      32.188  19.606  22.317  1.00  0.00     0.015 A 
ATOM     24  C   UNL A   1      33.239  19.744  24.492  1.00  0.00     0.015 A 
ATOM     25  C   UNL A   1      32.377  18.221  22.320  1.00  0.00     0.040 A 
ATOM     26  C   UNL A   1      33.424  18.359  24.494  1.00  0.00     0.040 A 
ATOM     27  C   UNL A   1      32.998  17.612  23.404  1.00  0.00     0.123 A 
ATOM     28  F   UNL A   1      33.194  16.287  23.394  1.00  0.00    -0.207 F 
ENDBRANCH  21  22
ENDBRANCH   6   9
ENDBRANCH   4   5
ENDBRANCH   3   4
ENDBRANCH   2   3
ENDBRANCH   1   2
BRANCH   1  29
ATOM     29  C   UNL A   1      37.878  23.220  25.926  1.00  0.00     0.021 C 
BRANCH  29  30
ATOM     30  C   UNL A   1      39.013  23.910  26.676  1.00  0.00     0.116 C 
BRANCH  30  31
ATOM     31  N   UNL A   1      40.071  24.408  25.815  1.00  0.00    -0.352 N 
ATOM     32  C   UNL A   1      40.953  25.454  26.005  1.00  0.00     0.251 C 
ATOM     33  H   UNL A   1      40.177  23.924  24.964  1.00  0.00     0.163 HD
ATOM     34  O   UNL A   1      41.722  25.771  25.113  1.00  0.00    -0.269 OA
BRANCH  32  35
ATOM     35  C   UNL A   1      40.937  26.218  27.278  1.00  0.00     0.039 A 
ATOM     36  C   UNL A   1      40.088  25.861  28.326  1.00  0.00     0.014 A 
ATOM     37  C   UNL A   1      41.785  27.322  27.414  1.00  0.00     0.014 A 
ATOM     38  C   UNL A   1      39.959  26.702  29.429  1.00  0.00     0.010 A 
ATOM     39  C   UNL A   1      41.710  28.124  28.559  1.00  0.00     0.010 A 
ATOM     40  C   UNL A   1      40.757  27.852  29.552  1.00  0.00    -0.014 A 
BRANCH  40  41
ATOM     41  C   UNL A   1      40.556  28.765  30.711  1.00  0.00     0.031 A 
ATOM     42  C   UNL A   1      41.476  28.705  31.904  1.00  0.00     0.074 A 
ATOM     43  C   UNL A   1      39.585  29.698  30.659  1.00  0.00     0.049 A 
ATOM     44  N   UNL A   1      41.469  29.439  32.988  1.00  0.00    -0.248 NA
ATOM     45  C   UNL A   1      42.540  27.689  31.880  1.00  0.00     0.031 C 
ATOM     46  C   UNL A   1      38.640  29.867  29.553  1.00  0.00     0.029 A 
ATOM     47  N   UNL A   1      39.246  30.694  31.539  1.00  0.00    -0.354 N 
ATOM     48  C   UNL A   1      42.513  28.969  33.777  1.00  0.00     0.074 A 
ATOM     49  C   UNL A   1      43.114  27.864  33.063  1.00  0.00     0.031 C 
ATOM     50  C   UNL A   1      37.866  30.936  29.795  1.00  0.00     0.029 A 
ATOM     51  C   UNL A   1      38.218  31.493  31.097  1.00  0.00     0.049 A 
ATOM     52  H   UNL A   1      39.697  30.825  32.404  1.00  0.00     0.167 HD
ATOM     53  C   UNL A   1      42.941  29.424  34.980  1.00  0.00     0.037 A 
ATOM     54  C   UNL A   1      37.617  32.551  31.676  1.00  0.00     0.037 A 
ATOM     55  C   UNL A   1      42.353  30.537  35.680  1.00  0.00     0.049 A 
ATOM     56  C   UNL A   1      38.082  33.010  33.029  1.00  0.00     0.074 A 
ATOM     57  C   UNL A   1      42.726  31.081  36.896  1.00  0.00     0.029 A 
ATOM     58  N   UNL A   1      41.274  31.280  35.226  1.00  0.00    -0.354 N 
ATOM     59  N   UNL A   1      39.068  32.546  33.760  1.00  0.00    -0.248 NA
ATOM     60  C   UNL A   1      37.347  34.124  33.642  1.00  0.00     0.031 C 
ATOM     61  C   UNL A   1      41.850  32.130  37.196  1.00  0.00     0.029 A 
ATOM     62  C   UNL A   1      40.956  32.266  36.146  1.00  0.00     0.049 A 
ATOM     63  H   UNL A   1      40.802  31.130  34.374  1.00  0.00     0.167 HD
ATOM     64  C   UNL A   1      39.075  33.317  34.917  1.00  0.00     0.074 A 
ATOM     65  C   UNL A   1      38.009  34.288  34.779  1.00  0.00     0.031 C 
ATOM     66  C   UNL A   1      39.888  33.223  35.998  1.00  0.00     0.037 A 
BRANCH  53  67
ATOM     67  C   UNL A   1      44.102  28.718  35.624  1.00  0.00     0.058 A 
ATOM     68  C   UNL A   1      45.428  29.107  35.376  1.00  0.00     0.135 A 
ATOM     69  C   UNL A   1      43.887  27.680  36.545  1.00  0.00     0.135 A 
ATOM     70  F   UNL A   1      45.692  30.083  34.491  1.00  0.00    -0.206 F 
ATOM     71  C   UNL A   1      46.499  28.478  36.002  1.00  0.00     0.059 A 
ATOM     72  C   UNL A   1      44.941  27.053  37.201  1.00  0.00     0.059 A 
ATOM     73  F   UNL A   1      42.638  27.270  36.820  1.00  0.00    -0.206 F 
ATOM     74  C   UNL A   1      46.246  27.452  36.915  1.00  0.00     0.060 A 
BRANCH  74  75
ATOM     75  S   UNL A   1      47.650  26.657  37.725  1.00  0.00     0.124 S 
ATOM     76  O   UNL A   1      47.048  26.215  38.979  1.00  0.00    -0.237 OA
ATOM     77  O   UNL A   1      47.997  25.600  36.781  1.00  0.00    -0.237 OA
ATOM     78  O   UNL A   1      48.629  27.733  37.845  1.00  0.00    -0.744 OA
ENDBRANCH  74  75
ENDBRANCH  53  67
BRANCH  54  79
ATOM     79  C   UNL A   1      36.510  33.245  30.969  1.00  0.00     0.058 A 
ATOM     80  C   UNL A   1      35.183  33.108  31.396  1.00  0.00     0.135 A 
ATOM     81  C   UNL A   1      36.764  34.092  29.877  1.00  0.00     0.135 A 
ATOM     82  F   UNL A   1      34.890  32.303  32.430  1.00  0.00    -0.206 F 
ATOM     83  C   UNL A   1      34.143  33.787  30.769  1.00  0.00     0.059 A 
ATOM     84  C   UNL A   1      35.744  34.799  29.250  1.00  0.00     0.059 A 
ATOM     85  F   UNL A   1      38.020  34.265  29.438  1.00  0.00    -0.206 F 
ATOM     86  C   UNL A   1      34.435  34.637  29.700  1.00  0.00     0.060 A 
BRANCH  86  87
ATOM     87  S   UNL A   1      33.087  35.570  28.943  1.00  0.00     0.124 S 
ATOM     88  O   UNL A   1      32.411  34.535  28.171  1.00  0.00    -0.237 OA
ATOM     89  O   UNL A   1      32.368  36.070  30.111  1.00  0.00    -0.237 OA
ATOM     90  O   UNL A   1      33.783  36.588  28.162  1.00  0.00    -0.744 OA
ENDBRANCH  86  87
ENDBRANCH  54  79
BRANCH  66  91
ATOM     91  C   UNL A   1      39.664  34.197  37.119  1.00  0.00     0.058 A 
ATOM     92  C   UNL A   1      38.945  33.835  38.268  1.00  0.00     0.135 A 
ATOM     93  C   UNL A   1      40.227  35.482  37.072  1.00  0.00     0.135 A 
ATOM     94  F   UNL A   1      38.380  32.620  38.356  1.00  0.00    -0.206 F 
ATOM     95  C   UNL A   1      38.780  34.718  39.328  1.00  0.00     0.059 A 
ATOM     96  C   UNL A   1      40.093  36.374  38.131  1.00  0.00     0.059 A 
ATOM     97  F   UNL A   1      40.929  35.873  35.998  1.00  0.00    -0.206 F 
ATOM     98  C   UNL A   1      39.362  35.986  39.253  1.00  0.00     0.060 A 
BRANCH  98  99
ATOM     99  S   UNL A   1      39.177  37.106  40.656  1.00  0.00     0.124 S 
ATOM    100  O   UNL A   1      40.556  37.522  40.885  1.00  0.00    -0.237 OA
ATOM    101  O   UNL A   1      38.285  38.130  40.122  1.00  0.00    -0.237 OA
ATOM    102  O   UNL A   1      38.597  36.258  41.693  1.00  0.00    -0.744 OA
ENDBRANCH  98  99
ENDBRANCH  66  91
ENDBRANCH  40  41
ENDBRANCH  32  35
ENDBRANCH  30  31
ENDBRANCH  29  30
ENDBRANCH   1  29
TORSDOF 17
ENDMDL
MODEL 2
REMARK VINA RESULT:     -13.2      1.118      2.485
REMARK SMILES Cc1cc2c(=O)cc(-c3ccc(F)cc3)oc2c(C(=O)NCCCCCCNC(=O)c2ccc(-c3c4nc(c(-c5c(F)cc(S(=O)(=O)[O-])cc5F)c5ccc([nH]5)c(-c5c(F)cc(S(=O)(=O)[O-])cc5F)c5nc(c(-c6c(F)cc(S(=O)(=O)[O-])cc6F)c6ccc3[nH]6)C=C5)C=C4)cc2)c1C
REMARK SMILES IDX 25 1 24 2 23 3 22 4 21 5 19 6 20 7 18 9 1 10 2 11 3 12 97 13
REMARK SMILES IDX 4 14 98 15 5 16 17 17 6 18 7 19 16 20 8 21 9 22 10 23 15 24
REMARK SMILES IDX 11 25 14 26 12 27 13 28 26 29 27 30 28 31 29 32 30 34 31 35
REMARK SMILES IDX 32 36 96 37 33 38 95 39 34 40 35 41 36 42 89 43 37 44 94 45
REMARK SMILES IDX 88 46 90 47 38 48 93 49 87 50 86 51 39 53 73 54 52 55 72 56
REMARK SMILES IDX 53 57 56 58 71 59 91 60 54 61 55 62 70 64 92 65 57 66 40 67
REMARK SMILES IDX 41 68 50 69 42 70 43 71 49 72 51 73 44 74 45 75 46 76 47 77
REMARK SMILES IDX 48 78 74 79 75 80 84 81 76 82 77 83 83 84 85 85 78 86 79 87
REMARK SMILES IDX 80 88 81 89 82 90 58 91 59 92 68 93 60 94 61 95 67 96 69 97
REMARK SMILES IDX 62 98 63 99 64 100 65 101 66 102
REMARK H PARENT 21 8 28 33 90 52 56 63
REMARK Flexibility Score: inf
ROOT
ATOM      1  C   UNL A   1      39.917  21.444  26.402  1.00  0.00     0.002 C 
ENDROOT
BRANCH   1   2
ATOM      2  C   UNL A   1      38.559  21.915  25.868  1.00  0.00     0.002 C 
BRANCH   2   3
ATOM      3  C   UNL A   1      38.161  23.389  26.028  1.00  0.00     0.021 C 
BRANCH   3   4
ATOM      4  C   UNL A   1      36.681  23.767  25.969  1.00  0.00     0.116 C 
BRANCH   4   5
ATOM      5  N   UNL A   1      36.095  23.899  24.651  1.00  0.00    -0.352 N 
ATOM      6  C   UNL A   1      34.934  24.507  24.202  1.00  0.00     0.255 C 
ATOM      7  O   UNL A   1      34.858  24.650  22.979  1.00  0.00    -0.269 OA
ATOM      8  H   UNL A   1      36.623  23.475  23.937  1.00  0.00     0.163 HD
BRANCH   6   9
ATOM      9  C   UNL A   1      33.764  24.941  25.062  1.00  0.00     0.086 A 
ATOM     10  C   UNL A   1      32.061  27.953  26.799  1.00  0.00     0.044 C 
ATOM     11  C   UNL A   1      32.363  26.563  26.294  1.00  0.00    -0.046 A 
ATOM     12  C   UNL A   1      31.508  25.538  26.688  1.00  0.00     0.019 A 
ATOM     13  C   UNL A   1      33.427  26.290  25.385  1.00  0.00    -0.032 A 
ATOM     14  C   UNL A   1      31.729  24.242  26.242  1.00  0.00     0.066 A 
ATOM     15  C   UNL A   1      34.057  27.489  24.725  1.00  0.00     0.045 C 
ATOM     16  C   UNL A   1      30.720  23.217  26.555  1.00  0.00     0.193 A 
ATOM     17  C   UNL A   1      32.859  23.918  25.479  1.00  0.00     0.151 A 
ATOM     18  O   UNL A   1      29.718  23.447  27.219  1.00  0.00    -0.289 OA
ATOM     19  C   UNL A   1      30.946  21.887  25.995  1.00  0.00     0.100 A 
ATOM     20  O   UNL A   1      33.083  22.598  25.116  1.00  0.00    -0.455 OA
ATOM     21  C   UNL A   1      32.078  21.661  25.317  1.00  0.00     0.138 A 
BRANCH  21  22
ATOM     22  C   UNL A   1      32.336  20.308  24.794  1.00  0.00     0.018 A 
ATOM     23  C   UNL A   1      32.136  20.029  23.435  1.00  0.00     0.015 A 
ATOM     24  C   UNL A   1      32.850  19.296  25.627  1.00  0.00     0.015 A 
ATOM     25  C   UNL A   1      32.473  18.777  22.913  1.00  0.00     0.040 A 
ATOM     26  C   UNL A   1      33.184  18.045  25.104  1.00  0.00     0.040 A 
ATOM     27  C   UNL A   1      32.999  17.800  23.750  1.00  0.00     0.123 A 
ATOM     28  F   UNL A   1      33.339  16.608  23.242  1.00  0.00    -0.207 F 
ENDBRANCH  21  22
ENDBRANCH   6   9
ENDBRANCH   4   5
ENDBRANCH   3   4
ENDBRANCH   2   3
ENDBRANCH   1   2
BRANCH   1  29
ATOM     29  C   UNL A   1      40.572  22.246  27.526  1.00  0.00     0.021 C 
BRANCH  29  30
ATOM     30  C   UNL A   1      41.835  23.028  27.176  1.00  0.00     0.116 C 
BRANCH  30  31
ATOM     31  N   UNL A   1      41.663  23.966  26.082  1.00  0.00    -0.352 N 
ATOM     32  C   UNL A   1      41.394  25.322  26.107  1.00  0.00     0.251 C 
ATOM     33  H   UNL A   1      41.753  23.577  25.182  1.00  0.00     0.163 HD
ATOM     34  O   UNL A   1      41.199  25.923  25.064  1.00  0.00    -0.269 OA
BRANCH  32  35
ATOM     35  C   UNL A   1      41.303  26.037  27.405  1.00  0.00     0.039 A 
ATOM     36  C   UNL A   1      40.176  25.919  28.219  1.00  0.00     0.014 A 
ATOM     37  C   UNL A   1      42.368  26.852  27.803  1.00  0.00     0.014 A 
ATOM     38  C   UNL A   1      40.039  26.744  29.333  1.00  0.00     0.010 A 
ATOM     39  C   UNL A   1      42.261  27.622  28.967  1.00  0.00     0.010 A 
ATOM     40  C   UNL A   1      41.072  27.616  29.712  1.00  0.00    -0.014 A 
BRANCH  40  41
ATOM     41  C   UNL A   1      40.875  28.529  30.872  1.00  0.00     0.031 A 
ATOM     42  C   UNL A   1      41.794  28.464  32.065  1.00  0.00     0.074 A 
ATOM     43  C   UNL A   1      39.908  29.467  30.820  1.00  0.00     0.049 A 
ATOM     44  N   UNL A   1      41.790  29.197  33.151  1.00  0.00    -0.248 NA
ATOM     45  C   UNL A   1      42.853  27.443  32.041  1.00  0.00     0.031 C 
ATOM     46  C   UNL A   1      38.965  29.642  29.714  1.00  0.00     0.029 A 
ATOM     47  N   UNL A   1      39.574  30.464  31.701  1.00  0.00    -0.354 N 
ATOM     48  C   UNL A   1      42.830  28.722  33.940  1.00  0.00     0.074 A 
ATOM     49  C   UNL A   1      43.427  27.614  33.225  1.00  0.00     0.031 C 
ATOM     50  C   UNL A   1      38.196  30.714  29.956  1.00  0.00     0.029 A 
ATOM     51  C   UNL A   1      38.549  31.269  31.259  1.00  0.00     0.049 A 
ATOM     52  H   UNL A   1      40.024  30.592  32.567  1.00  0.00     0.167 HD
ATOM     53  C   UNL A   1      43.260  29.174  35.143  1.00  0.00     0.037 A 
ATOM     54  C   UNL A   1      37.953  32.328  31.839  1.00  0.00     0.037 A 
ATOM     55  C   UNL A   1      42.677  30.289  35.844  1.00  0.00     0.049 A 
ATOM     56  C   UNL A   1      38.419  32.784  33.193  1.00  0.00     0.074 A 
ATOM     57  C   UNL A   1      43.052  30.830  37.061  1.00  0.00     0.029 A 
ATOM     58  N   UNL A   1      41.601  31.037  35.390  1.00  0.00    -0.354 N 
ATOM     59  N   UNL A   1      39.402  32.315  33.924  1.00  0.00    -0.248 NA
ATOM     60  C   UNL A   1      37.689  33.901  33.806  1.00  0.00     0.031 C 
ATOM     61  C   UNL A   1      42.180  31.882  37.361  1.00  0.00     0.029 A 
ATOM     62  C   UNL A   1      41.288  32.023  36.310  1.00  0.00     0.049 A 
ATOM     63  H   UNL A   1      41.130  30.890  34.537  1.00  0.00     0.167 HD
ATOM     64  C   UNL A   1      39.412  33.085  35.081  1.00  0.00     0.074 A 
ATOM     65  C   UNL A   1      38.351  34.061  34.944  1.00  0.00     0.031 C 
ATOM     66  C   UNL A   1      40.224  32.986  36.162  1.00  0.00     0.037 A 
BRANCH  53  67
ATOM     67  C   UNL A   1      44.418  28.462  35.788  1.00  0.00     0.058 A 
ATOM     68  C   UNL A   1      44.221  27.396  36.680  1.00  0.00     0.135 A 
ATOM     69  C   UNL A   1      45.740  28.810  35.465  1.00  0.00     0.135 A 
ATOM     70  F   UNL A   1      42.978  27.033  37.035  1.00  0.00    -0.206 F 
ATOM     71  C   UNL A   1      45.293  26.714  37.245  1.00  0.00     0.059 A 
ATOM     72  C   UNL A   1      46.828  28.126  36.001  1.00  0.00     0.059 A 
ATOM     73  F   UNL A   1      45.985  29.821  34.617  1.00  0.00    -0.206 F 
ATOM     74  C   UNL A   1      46.594  27.086  36.899  1.00  0.00     0.060 A 
BRANCH  74  75
ATOM     75  S   UNL A   1      47.971  26.180  37.635  1.00  0.00     0.124 S 
ATOM     76  O   UNL A   1      49.016  26.377  36.635  1.00  0.00    -0.237 OA
ATOM     77  O   UNL A   1      48.165  26.882  38.900  1.00  0.00    -0.237 OA
ATOM     78  O   UNL A   1      47.462  24.817  37.750  1.00  0.00    -0.744 OA
ENDBRANCH  74  75
ENDBRANCH  53  67
BRANCH  54  79
ATOM     79  C   UNL A   1      36.850  33.028  31.131  1.00  0.00     0.058 A 
ATOM     80  C   UNL A   1      37.113  33.878  30.048  1.00  0.00     0.135 A 
ATOM     81  C   UNL A   1      35.509  32.829  31.497  1.00  0.00     0.135 A 
ATOM     82  F   UNL A   1      38.379  34.107  29.665  1.00  0.00    -0.206 F 
ATOM     83  C   UNL A   1      36.087  34.505  29.349  1.00  0.00     0.059 A 
ATOM     84  C   UNL A   1      34.465  33.426  30.800  1.00  0.00     0.059 A 
ATOM     85  F   UNL A   1      35.206  32.016  32.520  1.00  0.00    -0.206 F 
ATOM     86  C   UNL A   1      34.764  34.266  29.729  1.00  0.00     0.060 A 
BRANCH  86  87
ATOM     87  S   UNL A   1      33.437  35.026  28.767  1.00  0.00     0.124 S 
ATOM     88  O   UNL A   1      32.531  35.472  29.819  1.00  0.00    -0.237 OA
ATOM     89  O   UNL A   1      34.147  36.078  28.046  1.00  0.00    -0.237 OA
ATOM     90  O   UNL A   1      32.952  33.926  27.939  1.00  0.00    -0.744 OA
ENDBRANCH  86  87
ENDBRANCH  54  79
BRANCH  66  91
ATOM     91  C   UNL A   1      40.004  33.959  37.284  1.00  0.00     0.058 A 
ATOM     92  C   UNL A   1      40.640  35.211  37.300  1.00  0.00     0.135 A 
ATOM     93  C   UNL A   1      39.102  33.666  38.320  1.00  0.00     0.135 A 
ATOM     94  F   UNL A   1      41.517  35.534  36.337  1.00  0.00    -0.206 F 
ATOM     95  C   UNL A   1      40.398  36.134  38.311  1.00  0.00     0.059 A 
ATOM     96  C   UNL A   1      38.829  34.584  39.329  1.00  0.00     0.059 A 
ATOM     97  F   UNL A   1      38.464  32.486  38.345  1.00  0.00    -0.206 F 
ATOM     98  C   UNL A   1      39.487  35.813  39.320  1.00  0.00     0.060 A 
BRANCH  98  99
ATOM     99  S   UNL A   1      39.151  37.039  40.601  1.00  0.00     0.124 S 
ATOM    100  O   UNL A   1      40.488  37.555  40.873  1.00  0.00    -0.237 OA
ATOM    101  O   UNL A   1      38.241  37.957  39.923  1.00  0.00    -0.237 OA
ATOM    102  O   UNL A   1      38.552  36.252  41.675  1.00  0.00    -0.744 OA
ENDBRANCH  98  99
ENDBRANCH  66  91
ENDBRANCH  40  41
ENDBRANCH  32  35
ENDBRANCH  30  31
ENDBRANCH  29  30
ENDBRANCH   1  29
TORSDOF 17
ENDMDL
MODEL 3
REMARK VINA RESULT:     -13.2      3.469      5.078
REMARK SMILES Cc1cc2c(=O)cc(-c3ccc(F)cc3)oc2c(C(=O)NCCCCCCNC(=O)c2ccc(-c3c4nc(c(-c5c(F)cc(S(=O)(=O)[O-])cc5F)c5ccc([nH]5)c(-c5c(F)cc(S(=O)(=O)[O-])cc5F)c5nc(c(-c6c(F)cc(S(=O)(=O)[O-])cc6F)c6ccc3[nH]6)C=C5)C=C4)cc2)c1C
REMARK SMILES IDX 25 1 24 2 23 3 22 4 21 5 19 6 20 7 18 9 1 10 2 11 3 12 97 13
REMARK SMILES IDX 4 14 98 15 5 16 17 17 6 18 7 19 16 20 8 21 9 22 10 23 15 24
REMARK SMILES IDX 11 25 14 26 12 27 13 28 26 29 27 30 28 31 29 32 30 34 31 35
REMARK SMILES IDX 32 36 96 37 33 38 95 39 34 40 35 41 36 42 89 43 37 44 94 45
REMARK SMILES IDX 88 46 90 47 38 48 93 49 87 50 86 51 39 53 73 54 52 55 72 56
REMARK SMILES IDX 53 57 56 58 71 59 91 60 54 61 55 62 70 64 92 65 57 66 40 67
REMARK SMILES IDX 41 68 50 69 42 70 43 71 49 72 51 73 44 74 45 75 46 76 47 77
REMARK SMILES IDX 48 78 74 79 75 80 84 81 76 82 77 83 83 84 85 85 78 86 79 87
REMARK SMILES IDX 80 88 81 89 82 90 58 91 59 92 68 93 60 94 61 95 67 96 69 97
REMARK SMILES IDX 62 98 63 99 64 100 65 101 66 102
REMARK H PARENT 21 8 28 33 90 52 56 63
REMARK Flexibility Score: inf
ROOT
ATOM      1  C   UNL A   1      35.898  21.744  24.349  1.00  0.00     0.002 C 
ENDROOT
BRANCH   1   2
ATOM      2  C   UNL A   1      35.050  21.105  25.454  1.00  0.00     0.002 C 
BRANCH   2   3
ATOM      3  C   UNL A   1      34.924  21.815  26.809  1.00  0.00     0.021 C 
BRANCH   3   4
ATOM      4  C   UNL A   1      33.632  21.659  27.610  1.00  0.00     0.116 C 
BRANCH   4   5
ATOM      5  N   UNL A   1      32.790  22.832  27.725  1.00  0.00    -0.352 N 
ATOM      6  C   UNL A   1      32.124  23.600  26.783  1.00  0.00     0.255 C 
ATOM      7  O   UNL A   1      31.291  24.385  27.242  1.00  0.00    -0.269 OA
ATOM      8  H   UNL A   1      32.668  23.144  28.650  1.00  0.00     0.163 HD
BRANCH   6   9
ATOM      9  C   UNL A   1      32.374  23.592  25.288  1.00  0.00     0.086 A 
ATOM     10  C   UNL A   1      32.323  21.420  22.083  1.00  0.00     0.044 C 
ATOM     11  C   UNL A   1      32.461  22.586  23.031  1.00  0.00    -0.046 A 
ATOM     12  C   UNL A   1      32.912  23.793  22.502  1.00  0.00     0.019 A 
ATOM     13  C   UNL A   1      32.079  22.512  24.403  1.00  0.00    -0.032 A 
ATOM     14  C   UNL A   1      33.044  24.903  23.325  1.00  0.00     0.066 A 
ATOM     15  C   UNL A   1      31.263  21.308  24.798  1.00  0.00     0.045 C 
ATOM     16  C   UNL A   1      33.376  26.195  22.702  1.00  0.00     0.193 A 
ATOM     17  C   UNL A   1      32.829  24.814  24.707  1.00  0.00     0.151 A 
ATOM     18  O   UNL A   1      33.575  26.325  21.501  1.00  0.00    -0.289 OA
ATOM     19  C   UNL A   1      33.421  27.354  23.589  1.00  0.00     0.100 A 
ATOM     20  O   UNL A   1      33.044  25.929  25.504  1.00  0.00    -0.455 OA
ATOM     21  C   UNL A   1      33.247  27.163  24.902  1.00  0.00     0.138 A 
BRANCH  21  22
ATOM     22  C   UNL A   1      33.343  28.321  25.808  1.00  0.00     0.018 A 
ATOM     23  C   UNL A   1      34.486  28.504  26.599  1.00  0.00     0.015 A 
ATOM     24  C   UNL A   1      32.327  29.296  25.845  1.00  0.00     0.015 A 
ATOM     25  C   UNL A   1      34.626  29.652  27.385  1.00  0.00     0.040 A 
ATOM     26  C   UNL A   1      32.467  30.441  26.633  1.00  0.00     0.040 A 
ATOM     27  C   UNL A   1      33.619  30.611  27.390  1.00  0.00     0.123 A 
ATOM     28  F   UNL A   1      33.765  31.718  28.130  1.00  0.00    -0.207 F 
ENDBRANCH  21  22
ENDBRANCH   6   9
ENDBRANCH   4   5
ENDBRANCH   3   4
ENDBRANCH   2   3
ENDBRANCH   1   2
BRANCH   1  29
ATOM     29  C   UNL A   1      36.017  23.268  24.316  1.00  0.00     0.021 C 
BRANCH  29  30
ATOM     30  C   UNL A   1      37.143  23.895  25.133  1.00  0.00     0.116 C 
BRANCH  30  31
ATOM     31  N   UNL A   1      38.218  22.975  25.457  1.00  0.00    -0.352 N 
ATOM     32  C   UNL A   1      39.341  23.160  26.241  1.00  0.00     0.251 C 
ATOM     33  H   UNL A   1      38.134  22.079  25.058  1.00  0.00     0.163 HD
ATOM     34  O   UNL A   1      40.180  22.279  26.321  1.00  0.00    -0.269 OA
BRANCH  32  35
ATOM     35  C   UNL A   1      39.546  24.448  26.953  1.00  0.00     0.039 A 
ATOM     36  C   UNL A   1      40.258  25.495  26.365  1.00  0.00     0.014 A 
ATOM     37  C   UNL A   1      39.023  24.598  28.240  1.00  0.00     0.014 A 
ATOM     38  C   UNL A   1      40.594  26.613  27.124  1.00  0.00     0.010 A 
ATOM     39  C   UNL A   1      39.296  25.758  28.975  1.00  0.00     0.010 A 
ATOM     40  C   UNL A   1      40.130  26.752  28.442  1.00  0.00    -0.014 A 
BRANCH  40  41
ATOM     41  C   UNL A   1      40.554  27.929  29.250  1.00  0.00     0.031 A 
ATOM     42  C   UNL A   1      41.954  28.016  29.804  1.00  0.00     0.074 A 
ATOM     43  C   UNL A   1      39.698  28.954  29.429  1.00  0.00     0.049 A 
ATOM     44  N   UNL A   1      42.506  28.975  30.504  1.00  0.00    -0.248 NA
ATOM     45  C   UNL A   1      42.852  26.880  29.539  1.00  0.00     0.031 C 
ATOM     46  C   UNL A   1      38.321  28.996  28.931  1.00  0.00     0.029 A 
ATOM     47  N   UNL A   1      39.861  30.165  30.051  1.00  0.00    -0.354 N 
ATOM     48  C   UNL A   1      43.804  28.556  30.774  1.00  0.00     0.074 A 
ATOM     49  C   UNL A   1      43.950  27.241  30.190  1.00  0.00     0.031 C 
ATOM     50  C   UNL A   1      37.785  30.191  29.218  1.00  0.00     0.029 A 
ATOM     51  C   UNL A   1      38.755  30.979  29.972  1.00  0.00     0.049 A 
ATOM     52  H   UNL A   1      40.691  30.427  30.511  1.00  0.00     0.167 HD
ATOM     53  C   UNL A   1      44.788  29.212  31.435  1.00  0.00     0.037 A 
ATOM     54  C   UNL A   1      38.540  32.217  30.457  1.00  0.00     0.037 A 
ATOM     55  C   UNL A   1      44.646  30.530  31.999  1.00  0.00     0.049 A 
ATOM     56  C   UNL A   1      39.633  32.906  31.223  1.00  0.00     0.074 A 
ATOM     57  C   UNL A   1      45.591  31.282  32.674  1.00  0.00     0.029 A 
ATOM     58  N   UNL A   1      43.490  31.294  31.949  1.00  0.00    -0.354 N 
ATOM     59  N   UNL A   1      40.851  32.489  31.472  1.00  0.00    -0.248 NA
ATOM     60  C   UNL A   1      39.320  34.226  31.786  1.00  0.00     0.031 C 
ATOM     61  C   UNL A   1      44.996  32.486  33.065  1.00  0.00     0.029 A 
ATOM     62  C   UNL A   1      43.692  32.502  32.597  1.00  0.00     0.049 A 
ATOM     63  H   UNL A   1      42.649  31.019  31.516  1.00  0.00     0.167 HD
ATOM     64  C   UNL A   1      41.452  33.498  32.215  1.00  0.00     0.074 A 
ATOM     65  C   UNL A   1      40.471  34.553  32.358  1.00  0.00     0.031 C 
ATOM     66  C   UNL A   1      42.703  33.541  32.737  1.00  0.00     0.037 A 
BRANCH  53  67
ATOM     67  C   UNL A   1      46.112  28.516  31.592  1.00  0.00     0.058 A 
ATOM     68  C   UNL A   1      46.376  27.676  32.685  1.00  0.00     0.135 A 
ATOM     69  C   UNL A   1      47.108  28.643  30.609  1.00  0.00     0.135 A 
ATOM     70  F   UNL A   1      45.466  27.531  33.662  1.00  0.00    -0.206 F 
ATOM     71  C   UNL A   1      47.587  27.002  32.808  1.00  0.00     0.059 A 
ATOM     72  C   UNL A   1      48.318  27.961  30.700  1.00  0.00     0.059 A 
ATOM     73  F   UNL A   1      46.907  29.434  29.543  1.00  0.00    -0.206 F 
ATOM     74  C   UNL A   1      48.552  27.151  31.810  1.00  0.00     0.060 A 
BRANCH  74  75
ATOM     75  S   UNL A   1      50.112  26.259  31.984  1.00  0.00     0.124 S 
ATOM     76  O   UNL A   1      51.077  27.285  31.599  1.00  0.00    -0.237 OA
ATOM     77  O   UNL A   1      50.107  25.893  33.397  1.00  0.00    -0.237 OA
ATOM     78  O   UNL A   1      49.975  25.146  31.050  1.00  0.00    -0.744 OA
ENDBRANCH  74  75
ENDBRANCH  53  67
BRANCH  54  79
ATOM     79  C   UNL A   1      37.231  32.880  30.224  1.00  0.00     0.058 A 
ATOM     80  C   UNL A   1      36.238  32.883  31.213  1.00  0.00     0.135 A 
ATOM     81  C   UNL A   1      36.962  33.557  29.023  1.00  0.00     0.135 A 
ATOM     82  F   UNL A   1      36.445  32.242  32.374  1.00  0.00    -0.206 F 
ATOM     83  C   UNL A   1      35.024  33.537  31.024  1.00  0.00     0.059 A 
ATOM     84  C   UNL A   1      35.767  34.238  28.821  1.00  0.00     0.059 A 
ATOM     85  F   UNL A   1      37.885  33.593  28.050  1.00  0.00    -0.206 F 
ATOM     86  C   UNL A   1      34.801  34.219  29.826  1.00  0.00     0.060 A 
BRANCH  86  87
ATOM     87  S   UNL A   1      33.253  35.126  29.621  1.00  0.00     0.124 S 
ATOM     88  O   UNL A   1      32.641  34.414  28.506  1.00  0.00    -0.237 OA
ATOM     89  O   UNL A   1      32.618  34.943  30.924  1.00  0.00    -0.237 OA
ATOM     90  O   UNL A   1      33.698  36.486  29.336  1.00  0.00    -0.744 OA
ENDBRANCH  86  87
ENDBRANCH  54  79
BRANCH  66  91
ATOM     91  C   UNL A   1      43.088  34.771  33.508  1.00  0.00     0.058 A 
ATOM     92  C   UNL A   1      42.967  34.824  34.906  1.00  0.00     0.135 A 
ATOM     93  C   UNL A   1      43.641  35.882  32.853  1.00  0.00     0.135 A 
ATOM     94  F   UNL A   1      42.435  33.790  35.577  1.00  0.00    -0.206 F 
ATOM     95  C   UNL A   1      43.370  35.942  35.626  1.00  0.00     0.059 A 
ATOM     96  C   UNL A   1      44.072  37.002  33.557  1.00  0.00     0.059 A 
ATOM     97  F   UNL A   1      43.784  35.877  31.519  1.00  0.00    -0.206 F 
ATOM     98  C   UNL A   1      43.926  37.026  34.943  1.00  0.00     0.060 A 
BRANCH  98  99
ATOM     99  S   UNL A   1      44.486  38.452  35.897  1.00  0.00     0.124 S 
ATOM    100  O   UNL A   1      43.811  38.238  37.172  1.00  0.00    -0.237 OA
ATOM    101  O   UNL A   1      45.935  38.271  35.907  1.00  0.00    -0.237 OA
ATOM    102  O   UNL A   1      44.009  39.590  35.117  1.00  0.00    -0.744 OA
ENDBRANCH  98  99
ENDBRANCH  66  91
ENDBRANCH  40  41
ENDBRANCH  32  35
ENDBRANCH  30  31
ENDBRANCH  29  30
ENDBRANCH   1  29
TORSDOF 17
ENDMDL
