MODEL 1
REMARK VINA RESULT:     -11.7      0.000      0.000
REMARK SMILES Cc1nn(C)c(=O)c(C(=O)N[C@H]2C=C[C@H](C(=O)NCCCCCCNC(=O)c3ccc(-c4c5nc(c(-c6c(F)cc(S(=O)(=O)[O-])cc6F)c6ccc([nH]6)c(-c6c(F)cc(S(=O)(=O)[O-])cc6F)c6nc(c(-c7c(F)cc(S(=O)(=O)[O-])cc7F)c7ccc4[nH]7)C=C6)C=C5)cc3)C2)c1C
REMARK SMILES IDX 22 1 21 2 20 3 19 4 18 5 16 6 17 7 15 9 12 10 13 11 94 12
REMARK SMILES IDX 14 13 11 14 9 15 10 16 8 18 1 19 2 20 3 21 95 22 4 23 96 24
REMARK SMILES IDX 5 25 6 26 7 27 23 28 24 29 25 30 26 31 27 33 28 34 29 35
REMARK SMILES IDX 93 36 30 37 92 38 31 39 32 40 33 41 86 42 34 43 91 44 85 45
REMARK SMILES IDX 87 46 35 47 90 48 84 49 83 50 36 52 70 53 49 54 69 55 50 56
REMARK SMILES IDX 53 57 68 58 88 59 51 60 52 61 67 63 89 64 54 65 37 66 38 67
REMARK SMILES IDX 47 68 39 69 40 70 46 71 48 72 41 73 42 74 43 75 44 76 45 77
REMARK SMILES IDX 71 78 72 79 81 80 73 81 74 82 80 83 82 84 75 85 76 86 77 87
REMARK SMILES IDX 78 88 79 89 55 90 56 91 65 92 57 93 58 94 64 95 66 96 59 97
REMARK SMILES IDX 60 98 61 99 62 100 63 101
REMARK H PARENT 18 8 11 17 25 32 87 51 53 62
REMARK Flexibility Score: inf
ROOT
ATOM      1  C   UNL A   1      42.175  22.777  28.541  1.00  0.00     0.002 C 
ENDROOT
BRANCH   1   2
ATOM      2  C   UNL A   1      40.808  22.277  28.062  1.00  0.00     0.002 C 
BRANCH   2   3
ATOM      3  C   UNL A   1      40.549  22.422  26.554  1.00  0.00     0.021 C 
BRANCH   3   4
ATOM      4  C   UNL A   1      39.188  21.893  26.103  1.00  0.00     0.116 C 
BRANCH   4   5
ATOM      5  N   UNL A   1      38.171  22.892  26.326  1.00  0.00    -0.356 N 
ATOM      6  C   UNL A   1      37.143  23.227  25.503  1.00  0.00     0.227 C 
ATOM      7  O   UNL A   1      36.549  24.280  25.747  1.00  0.00    -0.274 OA
ATOM      8  H   UNL A   1      38.229  23.389  27.173  1.00  0.00     0.163 HD
BRANCH   6   9
ATOM      9  C   UNL A   1      36.731  22.272  24.362  1.00  0.00     0.103 C 
ATOM     10  C   UNL A   1      34.400  22.719  24.301  1.00  0.00     0.106 C 
ATOM     11  C   UNL A   1      34.622  21.352  24.862  1.00  0.00    -0.006 C 
ATOM     12  C   UNL A   1      35.655  22.916  23.463  1.00  0.00     0.047 C 
ATOM     13  C   UNL A   1      35.941  21.116  24.936  1.00  0.00    -0.016 C 
BRANCH  10  14
ATOM     14  N   UNL A   1      33.125  22.841  23.666  1.00  0.00    -0.346 N 
ATOM     15  C   UNL A   1      32.336  23.961  23.577  1.00  0.00     0.257 C 
ATOM     16  O   UNL A   1      31.184  23.835  23.163  1.00  0.00    -0.269 OA
ATOM     17  H   UNL A   1      32.772  22.026  23.243  1.00  0.00     0.164 HD
BRANCH  15  18
ATOM     18  C   UNL A   1      32.867  25.314  23.947  1.00  0.00     0.111 A 
ATOM     19  C   UNL A   1      33.514  27.720  26.745  1.00  0.00     0.069 C 
ATOM     20  C   UNL A   1      33.293  27.238  25.328  1.00  0.00     0.062 A 
ATOM     21  N   UNL A   1      33.758  27.978  24.376  1.00  0.00    -0.175 NA
ATOM     22  C   UNL A   1      32.587  25.943  25.108  1.00  0.00    -0.010 A 
ATOM     23  N   UNL A   1      33.742  27.449  23.116  1.00  0.00    -0.232 N 
ATOM     24  C   UNL A   1      31.631  25.519  26.183  1.00  0.00     0.047 C 
ATOM     25  C   UNL A   1      34.118  28.360  22.052  1.00  0.00     0.178 C 
ATOM     26  C   UNL A   1      33.553  26.093  22.863  1.00  0.00     0.279 A 
ATOM     27  O   UNL A   1      33.868  25.562  21.800  1.00  0.00    -0.267 OA
ENDBRANCH  15  18
ENDBRANCH  10  14
ENDBRANCH   6   9
ENDBRANCH   4   5
ENDBRANCH   3   4
ENDBRANCH   2   3
ENDBRANCH   1   2
BRANCH   1  28
ATOM     28  C   UNL A   1      43.276  22.763  27.479  1.00  0.00     0.021 C 
BRANCH  28  29
ATOM     29  C   UNL A   1      43.841  24.137  27.135  1.00  0.00     0.116 C 
BRANCH  29  30
ATOM     30  N   UNL A   1      43.162  24.733  25.999  1.00  0.00    -0.352 N 
ATOM     31  C   UNL A   1      42.228  25.735  25.979  1.00  0.00     0.251 C 
ATOM     32  H   UNL A   1      43.407  24.365  25.118  1.00  0.00     0.163 HD
ATOM     33  O   UNL A   1      41.600  25.964  24.942  1.00  0.00    -0.269 OA
BRANCH  31  34
ATOM     34  C   UNL A   1      41.961  26.532  27.196  1.00  0.00     0.039 A 
ATOM     35  C   UNL A   1      40.933  26.133  28.053  1.00  0.00     0.014 A 
ATOM     36  C   UNL A   1      42.700  27.686  27.476  1.00  0.00     0.014 A 
ATOM     37  C   UNL A   1      40.670  26.869  29.211  1.00  0.00     0.010 A 
ATOM     38  C   UNL A   1      42.480  28.381  28.663  1.00  0.00     0.010 A 
ATOM     39  C   UNL A   1      41.453  27.989  29.535  1.00  0.00    -0.014 A 
BRANCH  39  40
ATOM     40  C   UNL A   1      41.182  28.792  30.754  1.00  0.00     0.031 A 
ATOM     41  C   UNL A   1      40.051  29.787  30.753  1.00  0.00     0.074 A 
ATOM     42  C   UNL A   1      41.972  28.662  31.838  1.00  0.00     0.049 A 
ATOM     43  N   UNL A   1      39.711  30.651  31.673  1.00  0.00    -0.248 NA
ATOM     44  C   UNL A   1      39.204  29.832  29.548  1.00  0.00     0.031 C 
ATOM     45  C   UNL A   1      43.112  27.750  31.952  1.00  0.00     0.029 A 
ATOM     46  N   UNL A   1      41.943  29.307  33.050  1.00  0.00    -0.354 N 
ATOM     47  C   UNL A   1      38.624  31.347  31.158  1.00  0.00     0.074 A 
ATOM     48  C   UNL A   1      38.387  30.837  29.825  1.00  0.00     0.031 C 
ATOM     49  C   UNL A   1      43.668  27.889  33.167  1.00  0.00     0.029 A 
ATOM     50  C   UNL A   1      42.950  28.924  33.906  1.00  0.00     0.049 A 
ATOM     51  H   UNL A   1      41.265  29.981  33.285  1.00  0.00     0.167 HD
ATOM     52  C   UNL A   1      37.877  32.306  31.752  1.00  0.00     0.037 A 
ATOM     53  C   UNL A   1      43.268  29.369  35.137  1.00  0.00     0.037 A 
ATOM     54  C   UNL A   1      38.092  32.780  33.094  1.00  0.00     0.049 A 
ATOM     55  C   UNL A   1      42.426  30.448  35.767  1.00  0.00     0.074 A 
ATOM     56  C   UNL A   1      37.349  33.709  33.804  1.00  0.00     0.029 A 
ATOM     57  N   UNL A   1      39.115  32.363  33.930  1.00  0.00    -0.354 N 
ATOM     58  N   UNL A   1      41.375  31.062  35.280  1.00  0.00    -0.248 NA
ATOM     59  C   UNL A   1      42.811  30.892  37.114  1.00  0.00     0.031 C 
ATOM     60  C   UNL A   1      37.952  33.886  35.053  1.00  0.00     0.029 A 
ATOM     61  C   UNL A   1      39.039  33.032  35.140  1.00  0.00     0.049 A 
ATOM     62  H   UNL A   1      39.795  31.690  33.698  1.00  0.00     0.167 HD
ATOM     63  C   UNL A   1      40.966  31.955  36.267  1.00  0.00     0.074 A 
ATOM     64  C   UNL A   1      41.864  31.778  37.387  1.00  0.00     0.031 C 
ATOM     65  C   UNL A   1      39.944  32.847  36.244  1.00  0.00     0.037 A 
BRANCH  52  66
ATOM     66  C   UNL A   1      36.737  32.903  30.975  1.00  0.00     0.058 A 
ATOM     67  C   UNL A   1      35.402  32.600  31.284  1.00  0.00     0.135 A 
ATOM     68  C   UNL A   1      36.980  33.868  29.984  1.00  0.00     0.135 A 
ATOM     69  F   UNL A   1      35.116  31.668  32.207  1.00  0.00    -0.206 F 
ATOM     70  C   UNL A   1      34.346  33.238  30.642  1.00  0.00     0.059 A 
ATOM     71  C   UNL A   1      35.938  34.537  29.347  1.00  0.00     0.059 A 
ATOM     72  F   UNL A   1      38.239  34.188  29.645  1.00  0.00    -0.206 F 
ATOM     73  C   UNL A   1      34.624  34.216  29.684  1.00  0.00     0.060 A 
BRANCH  73  74
ATOM     74  S   UNL A   1      33.240  35.083  28.918  1.00  0.00     0.124 S 
ATOM     75  O   UNL A   1      33.913  36.223  28.304  1.00  0.00    -0.237 OA
ATOM     76  O   UNL A   1      32.720  34.080  27.995  1.00  0.00    -0.237 OA
ATOM     77  O   UNL A   1      32.371  35.403  30.046  1.00  0.00    -0.744 OA
ENDBRANCH  73  74
ENDBRANCH  52  66
BRANCH  53  78
ATOM     78  C   UNL A   1      44.444  28.809  35.859  1.00  0.00     0.058 A 
ATOM     79  C   UNL A   1      45.732  29.330  35.661  1.00  0.00     0.135 A 
ATOM     80  C   UNL A   1      44.307  27.727  36.743  1.00  0.00     0.135 A 
ATOM     81  F   UNL A   1      45.917  30.358  34.820  1.00  0.00    -0.206 F 
ATOM     82  C   UNL A   1      46.845  28.782  36.292  1.00  0.00     0.059 A 
ATOM     83  C   UNL A   1      45.400  27.181  37.408  1.00  0.00     0.059 A 
ATOM     84  F   UNL A   1      43.095  27.201  36.980  1.00  0.00    -0.206 F 
ATOM     85  C   UNL A   1      46.668  27.706  37.163  1.00  0.00     0.060 A 
BRANCH  85  86
ATOM     86  S   UNL A   1      48.117  27.017  37.993  1.00  0.00     0.124 S 
ATOM     87  O   UNL A   1      49.146  27.988  37.642  1.00  0.00    -0.237 OA
ATOM     88  O   UNL A   1      47.693  27.008  39.389  1.00  0.00    -0.237 OA
ATOM     89  O   UNL A   1      48.258  25.699  37.381  1.00  0.00    -0.744 OA
ENDBRANCH  85  86
ENDBRANCH  53  78
BRANCH  65  90
ATOM     90  C   UNL A   1      39.740  33.693  37.470  1.00  0.00     0.058 A 
ATOM     91  C   UNL A   1      40.381  34.932  37.620  1.00  0.00     0.135 A 
ATOM     92  C   UNL A   1      38.861  33.282  38.485  1.00  0.00     0.135 A 
ATOM     93  F   UNL A   1      41.233  35.370  36.679  1.00  0.00    -0.206 F 
ATOM     94  C   UNL A   1      40.184  35.719  38.748  1.00  0.00     0.059 A 
ATOM     95  C   UNL A   1      38.625  34.068  39.609  1.00  0.00     0.059 A 
ATOM     96  F   UNL A   1      38.210  32.112  38.385  1.00  0.00    -0.206 F 
ATOM     97  C   UNL A   1      39.305  35.279  39.738  1.00  0.00     0.060 A 
BRANCH  97  98
ATOM     98  S   UNL A   1      39.051  36.318  41.192  1.00  0.00     0.124 S 
ATOM     99  O   UNL A   1      38.909  37.638  40.587  1.00  0.00    -0.237 OA
ATOM    100  O   UNL A   1      37.836  35.752  41.771  1.00  0.00    -0.237 OA
ATOM    101  O   UNL A   1      40.267  36.113  41.974  1.00  0.00    -0.744 OA
ENDBRANCH  97  98
ENDBRANCH  65  90
ENDBRANCH  39  40
ENDBRANCH  31  34
ENDBRANCH  29  30
ENDBRANCH  28  29
ENDBRANCH   1  28
TORSDOF 18
ENDMDL
MODEL 2
REMARK VINA RESULT:     -11.5      6.159     11.999
REMARK SMILES Cc1nn(C)c(=O)c(C(=O)N[C@H]2C=C[C@H](C(=O)NCCCCCCNC(=O)c3ccc(-c4c5nc(c(-c6c(F)cc(S(=O)(=O)[O-])cc6F)c6ccc([nH]6)c(-c6c(F)cc(S(=O)(=O)[O-])cc6F)c6nc(c(-c7c(F)cc(S(=O)(=O)[O-])cc7F)c7ccc4[nH]7)C=C6)C=C5)cc3)C2)c1C
REMARK SMILES IDX 22 1 21 2 20 3 19 4 18 5 16 6 17 7 15 9 12 10 13 11 94 12
REMARK SMILES IDX 14 13 11 14 9 15 10 16 8 18 1 19 2 20 3 21 95 22 4 23 96 24
REMARK SMILES IDX 5 25 6 26 7 27 23 28 24 29 25 30 26 31 27 33 28 34 29 35
REMARK SMILES IDX 93 36 30 37 92 38 31 39 32 40 33 41 86 42 34 43 91 44 85 45
REMARK SMILES IDX 87 46 35 47 90 48 84 49 83 50 36 52 70 53 49 54 69 55 50 56
REMARK SMILES IDX 53 57 68 58 88 59 51 60 52 61 67 63 89 64 54 65 37 66 38 67
REMARK SMILES IDX 47 68 39 69 40 70 46 71 48 72 41 73 42 74 43 75 44 76 45 77
REMARK SMILES IDX 71 78 72 79 81 80 73 81 74 82 80 83 82 84 75 85 76 86 77 87
REMARK SMILES IDX 78 88 79 89 55 90 56 91 65 92 57 93 58 94 64 95 66 96 59 97
REMARK SMILES IDX 60 98 61 99 62 100 63 101
REMARK H PARENT 18 8 11 17 25 32 87 51 53 62
REMARK Flexibility Score: inf
ROOT
ATOM      1  C   UNL A   1      36.881  33.413  28.824  1.00  0.00     0.002 C 
ENDROOT
BRANCH   1   2
ATOM      2  C   UNL A   1      35.639  33.050  28.004  1.00  0.00     0.002 C 
BRANCH   2   3
ATOM      3  C   UNL A   1      34.813  31.875  28.551  1.00  0.00     0.021 C 
BRANCH   3   4
ATOM      4  C   UNL A   1      33.675  31.433  27.630  1.00  0.00     0.116 C 
BRANCH   4   5
ATOM      5  N   UNL A   1      34.148  30.432  26.705  1.00  0.00    -0.356 N 
ATOM      6  C   UNL A   1      33.515  29.293  26.319  1.00  0.00     0.227 C 
ATOM      7  O   UNL A   1      34.194  28.445  25.736  1.00  0.00    -0.274 OA
ATOM      8  H   UNL A   1      35.034  30.593  26.307  1.00  0.00     0.163 HD
BRANCH   6   9
ATOM      9  C   UNL A   1      31.999  29.137  26.565  1.00  0.00     0.103 C 
ATOM     10  C   UNL A   1      31.795  26.791  26.262  1.00  0.00     0.106 C 
ATOM     11  C   UNL A   1      31.157  27.491  25.107  1.00  0.00    -0.006 C 
ATOM     12  C   UNL A   1      31.698  27.847  27.355  1.00  0.00     0.047 C 
ATOM     13  C   UNL A   1      31.309  28.816  25.256  1.00  0.00    -0.016 C 
BRANCH  10  14
ATOM     14  N   UNL A   1      31.218  25.505  26.499  1.00  0.00    -0.346 N 
ATOM     15  C   UNL A   1      31.335  24.378  25.724  1.00  0.00     0.257 C 
ATOM     16  O   UNL A   1      30.612  23.414  25.979  1.00  0.00    -0.269 OA
ATOM     17  H   UNL A   1      30.673  25.417  27.314  1.00  0.00     0.164 HD
BRANCH  15  18
ATOM     18  C   UNL A   1      32.335  24.304  24.610  1.00  0.00     0.111 A 
ATOM     19  C   UNL A   1      35.789  23.239  23.623  1.00  0.00     0.069 C 
ATOM     20  C   UNL A   1      34.474  23.984  23.555  1.00  0.00     0.062 A 
ATOM     21  N   UNL A   1      34.116  24.437  22.399  1.00  0.00    -0.175 NA
ATOM     22  C   UNL A   1      33.661  24.129  24.796  1.00  0.00    -0.010 A 
ATOM     23  N   UNL A   1      32.844  24.927  22.293  1.00  0.00    -0.232 N 
ATOM     24  C   UNL A   1      34.417  24.097  26.091  1.00  0.00     0.047 C 
ATOM     25  C   UNL A   1      32.527  25.573  21.034  1.00  0.00     0.178 C 
ATOM     26  C   UNL A   1      31.853  24.680  23.239  1.00  0.00     0.279 A 
ATOM     27  O   UNL A   1      30.655  24.814  23.002  1.00  0.00    -0.267 OA
ENDBRANCH  15  18
ENDBRANCH  10  14
ENDBRANCH   6   9
ENDBRANCH   4   5
ENDBRANCH   3   4
ENDBRANCH   2   3
ENDBRANCH   1   2
BRANCH   1  28
ATOM     28  C   UNL A   1      36.600  33.856  30.261  1.00  0.00     0.021 C 
BRANCH  28  29
ATOM     29  C   UNL A   1      37.298  33.021  31.329  1.00  0.00     0.116 C 
BRANCH  29  30
ATOM     30  N   UNL A   1      36.564  31.805  31.632  1.00  0.00    -0.352 N 
ATOM     31  C   UNL A   1      36.847  30.514  31.274  1.00  0.00     0.251 C 
ATOM     32  H   UNL A   1      35.748  31.927  32.171  1.00  0.00     0.163 HD
ATOM     33  O   UNL A   1      35.996  29.635  31.434  1.00  0.00    -0.269 OA
BRANCH  31  34
ATOM     34  C   UNL A   1      38.159  30.172  30.683  1.00  0.00     0.039 A 
ATOM     35  C   UNL A   1      38.297  30.179  29.293  1.00  0.00     0.014 A 
ATOM     36  C   UNL A   1      39.241  29.816  31.493  1.00  0.00     0.014 A 
ATOM     37  C   UNL A   1      39.531  29.866  28.716  1.00  0.00     0.010 A 
ATOM     38  C   UNL A   1      40.487  29.568  30.921  1.00  0.00     0.010 A 
ATOM     39  C   UNL A   1      40.640  29.575  29.526  1.00  0.00    -0.014 A 
BRANCH  39  40
ATOM     40  C   UNL A   1      41.956  29.227  28.933  1.00  0.00     0.031 A 
ATOM     41  C   UNL A   1      42.203  27.824  28.442  1.00  0.00     0.074 A 
ATOM     42  C   UNL A   1      42.937  30.149  28.876  1.00  0.00     0.049 A 
ATOM     43  N   UNL A   1      43.307  27.292  27.986  1.00  0.00    -0.248 NA
ATOM     44  C   UNL A   1      41.066  26.890  28.493  1.00  0.00     0.031 C 
ATOM     45  C   UNL A   1      42.826  31.534  29.342  1.00  0.00     0.029 A 
ATOM     46  N   UNL A   1      44.226  30.059  28.413  1.00  0.00    -0.354 N 
ATOM     47  C   UNL A   1      43.001  25.966  27.706  1.00  0.00     0.074 A 
ATOM     48  C   UNL A   1      41.622  25.758  28.086  1.00  0.00     0.031 C 
ATOM     49  C   UNL A   1      43.994  32.164  29.133  1.00  0.00     0.029 A 
ATOM     50  C   UNL A   1      44.949  31.222  28.554  1.00  0.00     0.049 A 
ATOM     51  H   UNL A   1      44.599  29.240  28.015  1.00  0.00     0.167 HD
ATOM     52  C   UNL A   1      43.793  25.014  27.160  1.00  0.00     0.037 A 
ATOM     53  C   UNL A   1      46.237  31.491  28.269  1.00  0.00     0.037 A 
ATOM     54  C   UNL A   1      45.154  25.237  26.745  1.00  0.00     0.049 A 
ATOM     55  C   UNL A   1      47.098  30.407  27.674  1.00  0.00     0.074 A 
ATOM     56  C   UNL A   1      46.018  24.349  26.126  1.00  0.00     0.029 A 
ATOM     57  N   UNL A   1      45.847  26.428  26.898  1.00  0.00    -0.354 N 
ATOM     58  N   UNL A   1      46.778  29.171  27.376  1.00  0.00    -0.248 NA
ATOM     59  C   UNL A   1      48.495  30.755  27.373  1.00  0.00     0.031 C 
ATOM     60  C   UNL A   1      47.247  24.989  25.947  1.00  0.00     0.029 A 
ATOM     61  C   UNL A   1      47.135  26.290  26.408  1.00  0.00     0.049 A 
ATOM     62  H   UNL A   1      45.477  27.249  27.296  1.00  0.00     0.167 HD
ATOM     63  C   UNL A   1      47.928  28.598  26.841  1.00  0.00     0.074 A 
ATOM     64  C   UNL A   1      48.941  29.632  26.829  1.00  0.00     0.031 C 
ATOM     65  C   UNL A   1      48.132  27.329  26.407  1.00  0.00     0.037 A 
BRANCH  52  66
ATOM     66  C   UNL A   1      43.216  23.642  26.951  1.00  0.00     0.058 A 
ATOM     67  C   UNL A   1      42.922  23.160  25.666  1.00  0.00     0.135 A 
ATOM     68  C   UNL A   1      43.057  22.764  28.035  1.00  0.00     0.135 A 
ATOM     69  F   UNL A   1      43.035  23.965  24.598  1.00  0.00    -0.206 F 
ATOM     70  C   UNL A   1      42.495  21.852  25.463  1.00  0.00     0.059 A 
ATOM     71  C   UNL A   1      42.656  21.444  27.852  1.00  0.00     0.059 A 
ATOM     72  F   UNL A   1      43.317  23.180  29.285  1.00  0.00    -0.206 F 
ATOM     73  C   UNL A   1      42.379  20.997  26.561  1.00  0.00     0.060 A 
BRANCH  73  74
ATOM     74  S   UNL A   1      41.896  19.283  26.265  1.00  0.00     0.124 S 
ATOM     75  O   UNL A   1      42.581  18.999  25.008  1.00  0.00    -0.237 OA
ATOM     76  O   UNL A   1      42.426  18.605  27.444  1.00  0.00    -0.237 OA
ATOM     77  O   UNL A   1      40.440  19.348  26.183  1.00  0.00    -0.744 OA
ENDBRANCH  73  74
ENDBRANCH  52  66
BRANCH  53  78
ATOM     78  C   UNL A   1      46.805  32.839  28.549  1.00  0.00     0.058 A 
ATOM     79  C   UNL A   1      47.344  33.152  29.806  1.00  0.00     0.135 A 
ATOM     80  C   UNL A   1      46.798  33.847  27.572  1.00  0.00     0.135 A 
ATOM     81  F   UNL A   1      47.366  32.225  30.775  1.00  0.00    -0.206 F 
ATOM     82  C   UNL A   1      47.830  34.423  30.094  1.00  0.00     0.059 A 
ATOM     83  C   UNL A   1      47.306  35.117  27.828  1.00  0.00     0.059 A 
ATOM     84  F   UNL A   1      46.308  33.597  26.348  1.00  0.00    -0.206 F 
ATOM     85  C   UNL A   1      47.805  35.400  29.098  1.00  0.00     0.060 A 
BRANCH  85  86
ATOM     86  S   UNL A   1      48.460  37.040  29.476  1.00  0.00     0.124 S 
ATOM     87  O   UNL A   1      49.383  37.252  28.368  1.00  0.00    -0.237 OA
ATOM     88  O   UNL A   1      47.253  37.860  29.470  1.00  0.00    -0.237 OA
ATOM     89  O   UNL A   1      49.077  36.860  30.787  1.00  0.00    -0.744 OA
ENDBRANCH  85  86
ENDBRANCH  53  78
BRANCH  65  90
ATOM     90  C   UNL A   1      49.497  26.992  25.876  1.00  0.00     0.058 A 
ATOM     91  C   UNL A   1      50.500  26.473  26.710  1.00  0.00     0.135 A 
ATOM     92  C   UNL A   1      49.793  27.147  24.512  1.00  0.00     0.135 A 
ATOM     93  F   UNL A   1      50.268  26.307  28.021  1.00  0.00    -0.206 F 
ATOM     94  C   UNL A   1      51.759  26.151  26.217  1.00  0.00     0.059 A 
ATOM     95  C   UNL A   1      51.037  26.803  23.991  1.00  0.00     0.059 A 
ATOM     96  F   UNL A   1      48.865  27.626  23.668  1.00  0.00    -0.206 F 
ATOM     97  C   UNL A   1      52.018  26.320  24.856  1.00  0.00     0.060 A 
BRANCH  97  98
ATOM     98  S   UNL A   1      53.655  25.886  24.229  1.00  0.00     0.124 S 
ATOM     99  O   UNL A   1      54.497  26.862  24.913  1.00  0.00    -0.237 OA
ATOM    100  O   UNL A   1      53.801  24.502  24.671  1.00  0.00    -0.237 OA
ATOM    101  O   UNL A   1      53.527  26.069  22.786  1.00  0.00    -0.744 OA
ENDBRANCH  97  98
ENDBRANCH  65  90
ENDBRANCH  39  40
ENDBRANCH  31  34
ENDBRANCH  29  30
ENDBRANCH  28  29
ENDBRANCH   1  28
TORSDOF 18
ENDMDL
MODEL 3
REMARK VINA RESULT:     -11.4      0.516      8.103
REMARK SMILES Cc1nn(C)c(=O)c(C(=O)N[C@H]2C=C[C@H](C(=O)NCCCCCCNC(=O)c3ccc(-c4c5nc(c(-c6c(F)cc(S(=O)(=O)[O-])cc6F)c6ccc([nH]6)c(-c6c(F)cc(S(=O)(=O)[O-])cc6F)c6nc(c(-c7c(F)cc(S(=O)(=O)[O-])cc7F)c7ccc4[nH]7)C=C6)C=C5)cc3)C2)c1C
REMARK SMILES IDX 22 1 21 2 20 3 19 4 18 5 16 6 17 7 15 9 12 10 13 11 94 12
REMARK SMILES IDX 14 13 11 14 9 15 10 16 8 18 1 19 2 20 3 21 95 22 4 23 96 24
REMARK SMILES IDX 5 25 6 26 7 27 23 28 24 29 25 30 26 31 27 33 28 34 29 35
REMARK SMILES IDX 93 36 30 37 92 38 31 39 32 40 33 41 86 42 34 43 91 44 85 45
REMARK SMILES IDX 87 46 35 47 90 48 84 49 83 50 36 52 70 53 49 54 69 55 50 56
REMARK SMILES IDX 53 57 68 58 88 59 51 60 52 61 67 63 89 64 54 65 37 66 38 67
REMARK SMILES IDX 47 68 39 69 40 70 46 71 48 72 41 73 42 74 43 75 44 76 45 77
REMARK SMILES IDX 71 78 72 79 81 80 73 81 74 82 80 83 82 84 75 85 76 86 77 87
REMARK SMILES IDX 78 88 79 89 55 90 56 91 65 92 57 93 58 94 64 95 66 96 59 97
REMARK SMILES IDX 60 98 61 99 62 100 63 101
REMARK H PARENT 18 8 11 17 25 32 87 51 53 62
REMARK Flexibility Score: inf
ROOT
ATOM      1  C   UNL A   1      41.627  22.155  28.231  1.00  0.00     0.002 C 
ENDROOT
BRANCH   1   2
ATOM      2  C   UNL A   1      40.638  21.426  27.315  1.00  0.00     0.002 C 
BRANCH   2   3
ATOM      3  C   UNL A   1      39.953  22.306  26.258  1.00  0.00     0.021 C 
BRANCH   3   4
ATOM      4  C   UNL A   1      38.577  21.800  25.826  1.00  0.00     0.116 C 
BRANCH   4   5
ATOM      5  N   UNL A   1      37.566  22.774  26.159  1.00  0.00    -0.356 N 
ATOM      6  C   UNL A   1      36.487  23.138  25.417  1.00  0.00     0.227 C 
ATOM      7  O   UNL A   1      35.900  24.170  25.750  1.00  0.00    -0.274 OA
ATOM      8  H   UNL A   1      37.670  23.229  27.026  1.00  0.00     0.163 HD
BRANCH   6   9
ATOM      9  C   UNL A   1      36.017  22.238  24.255  1.00  0.00     0.103 C 
ATOM     10  C   UNL A   1      33.745  22.919  24.129  1.00  0.00     0.106 C 
ATOM     11  C   UNL A   1      33.811  21.533  24.682  1.00  0.00    -0.006 C 
ATOM     12  C   UNL A   1      35.040  22.993  23.330  1.00  0.00     0.047 C 
ATOM     13  C   UNL A   1      35.096  21.164  24.794  1.00  0.00    -0.016 C 
BRANCH  10  14
ATOM     14  N   UNL A   1      32.510  23.174  23.456  1.00  0.00    -0.346 N 
ATOM     15  C   UNL A   1      31.805  24.351  23.414  1.00  0.00     0.257 C 
ATOM     16  O   UNL A   1      30.665  24.335  22.950  1.00  0.00    -0.269 OA
ATOM     17  H   UNL A   1      32.119  22.415  22.966  1.00  0.00     0.164 HD
BRANCH  15  18
ATOM     18  C   UNL A   1      32.413  25.635  23.894  1.00  0.00     0.111 A 
ATOM     19  C   UNL A   1      32.938  27.895  26.835  1.00  0.00     0.069 C 
ATOM     20  C   UNL A   1      32.847  27.473  25.386  1.00  0.00     0.062 A 
ATOM     21  N   UNL A   1      33.495  28.187  24.524  1.00  0.00    -0.175 NA
ATOM     22  C   UNL A   1      32.054  26.260  25.035  1.00  0.00    -0.010 A 
ATOM     23  N   UNL A   1      33.582  27.694  23.252  1.00  0.00    -0.232 N 
ATOM     24  C   UNL A   1      30.937  25.905  25.973  1.00  0.00     0.047 C 
ATOM     25  C   UNL A   1      34.171  28.589  22.275  1.00  0.00     0.178 C 
ATOM     26  C   UNL A   1      33.297  26.370  22.929  1.00  0.00     0.279 A 
ATOM     27  O   UNL A   1      33.688  25.836  21.893  1.00  0.00    -0.267 OA
ENDBRANCH  15  18
ENDBRANCH  10  14
ENDBRANCH   6   9
ENDBRANCH   4   5
ENDBRANCH   3   4
ENDBRANCH   2   3
ENDBRANCH   1   2
BRANCH   1  28
ATOM     28  C   UNL A   1      43.061  22.231  27.704  1.00  0.00     0.021 C 
BRANCH  28  29
ATOM     29  C   UNL A   1      43.573  23.647  27.465  1.00  0.00     0.116 C 
BRANCH  29  30
ATOM     30  N   UNL A   1      43.015  24.228  26.257  1.00  0.00    -0.352 N 
ATOM     31  C   UNL A   1      42.193  25.315  26.122  1.00  0.00     0.251 C 
ATOM     32  H   UNL A   1      43.262  23.777  25.417  1.00  0.00     0.163 HD
ATOM     33  O   UNL A   1      41.642  25.534  25.040  1.00  0.00    -0.269 OA
BRANCH  31  34
ATOM     34  C   UNL A   1      41.953  26.217  27.269  1.00  0.00     0.039 A 
ATOM     35  C   UNL A   1      42.757  27.348  27.420  1.00  0.00     0.014 A 
ATOM     36  C   UNL A   1      40.959  25.932  28.211  1.00  0.00     0.014 A 
ATOM     37  C   UNL A   1      42.541  28.216  28.494  1.00  0.00     0.010 A 
ATOM     38  C   UNL A   1      40.702  26.832  29.244  1.00  0.00     0.010 A 
ATOM     39  C   UNL A   1      41.500  27.974  29.404  1.00  0.00    -0.014 A 
BRANCH  39  40
ATOM     40  C   UNL A   1      41.262  28.876  30.559  1.00  0.00     0.031 A 
ATOM     41  C   UNL A   1      42.101  28.731  31.802  1.00  0.00     0.074 A 
ATOM     42  C   UNL A   1      40.271  29.788  30.511  1.00  0.00     0.049 A 
ATOM     43  N   UNL A   1      41.990  29.349  32.950  1.00  0.00    -0.248 NA
ATOM     44  C   UNL A   1      43.196  27.747  31.756  1.00  0.00     0.031 C 
ATOM     45  C   UNL A   1      39.375  30.007  29.374  1.00  0.00     0.029 A 
ATOM     46  N   UNL A   1      39.842  30.696  31.448  1.00  0.00    -0.354 N 
ATOM     47  C   UNL A   1      42.988  28.822  33.761  1.00  0.00     0.074 A 
ATOM     48  C   UNL A   1      43.667  27.802  32.993  1.00  0.00     0.031 C 
ATOM     49  C   UNL A   1      38.510  30.990  29.676  1.00  0.00     0.029 A 
ATOM     50  C   UNL A   1      38.763  31.446  31.040  1.00  0.00     0.049 A 
ATOM     51  H   UNL A   1      40.268  30.801  32.330  1.00  0.00     0.167 HD
ATOM     52  C   UNL A   1      43.322  29.174  35.024  1.00  0.00     0.037 A 
ATOM     53  C   UNL A   1      38.048  32.379  31.698  1.00  0.00     0.037 A 
ATOM     54  C   UNL A   1      42.669  30.219  35.770  1.00  0.00     0.049 A 
ATOM     55  C   UNL A   1      38.436  32.741  33.108  1.00  0.00     0.074 A 
ATOM     56  C   UNL A   1      42.977  30.688  37.036  1.00  0.00     0.029 A 
ATOM     57  N   UNL A   1      41.587  30.959  35.321  1.00  0.00    -0.354 N 
ATOM     58  N   UNL A   1      39.410  32.262  33.844  1.00  0.00    -0.248 NA
ATOM     59  C   UNL A   1      37.628  33.771  33.777  1.00  0.00     0.031 C 
ATOM     60  C   UNL A   1      42.050  31.681  37.370  1.00  0.00     0.029 A 
ATOM     61  C   UNL A   1      41.199  31.865  36.294  1.00  0.00     0.049 A 
ATOM     62  H   UNL A   1      41.159  30.856  34.440  1.00  0.00     0.167 HD
ATOM     63  C   UNL A   1      39.341  32.942  35.056  1.00  0.00     0.074 A 
ATOM     64  C   UNL A   1      38.249  33.885  34.943  1.00  0.00     0.031 C 
ATOM     65  C   UNL A   1      40.106  32.794  36.166  1.00  0.00     0.037 A 
BRANCH  52  66
ATOM     66  C   UNL A   1      44.458  28.448  35.689  1.00  0.00     0.058 A 
ATOM     67  C   UNL A   1      44.242  27.280  36.437  1.00  0.00     0.135 A 
ATOM     68  C   UNL A   1      45.784  28.863  35.485  1.00  0.00     0.135 A 
ATOM     69  F   UNL A   1      42.993  26.854  36.680  1.00  0.00    -0.206 F 
ATOM     70  C   UNL A   1      45.303  26.545  36.956  1.00  0.00     0.059 A 
ATOM     71  C   UNL A   1      46.861  28.129  35.974  1.00  0.00     0.059 A 
ATOM     72  F   UNL A   1      46.044  29.978  34.784  1.00  0.00    -0.206 F 
ATOM     73  C   UNL A   1      46.610  26.970  36.707  1.00  0.00     0.060 A 
BRANCH  73  74
ATOM     74  S   UNL A   1      47.971  25.960  37.326  1.00  0.00     0.124 S 
ATOM     75  O   UNL A   1      48.685  25.644  36.093  1.00  0.00    -0.237 OA
ATOM     76  O   UNL A   1      48.649  26.879  38.234  1.00  0.00    -0.237 OA
ATOM     77  O   UNL A   1      47.298  24.834  37.965  1.00  0.00    -0.744 OA
ENDBRANCH  73  74
ENDBRANCH  52  66
BRANCH  53  78
ATOM     78  C   UNL A   1      36.884  33.036  31.041  1.00  0.00     0.058 A 
ATOM     79  C   UNL A   1      35.568  32.707  31.401  1.00  0.00     0.135 A 
ATOM     80  C   UNL A   1      37.064  33.988  30.025  1.00  0.00     0.135 A 
ATOM     81  F   UNL A   1      35.343  31.798  32.361  1.00  0.00    -0.206 F 
ATOM     82  C   UNL A   1      34.473  33.278  30.760  1.00  0.00     0.059 A 
ATOM     83  C   UNL A   1      35.985  34.593  29.389  1.00  0.00     0.059 A 
ATOM     84  F   UNL A   1      38.301  34.350  29.653  1.00  0.00    -0.206 F 
ATOM     85  C   UNL A   1      34.692  34.219  29.753  1.00  0.00     0.060 A 
BRANCH  85  86
ATOM     86  S   UNL A   1      33.263  34.969  28.942  1.00  0.00     0.124 S 
ATOM     87  O   UNL A   1      32.381  35.220  30.075  1.00  0.00    -0.237 OA
ATOM     88  O   UNL A   1      33.851  36.148  28.315  1.00  0.00    -0.237 OA
ATOM     89  O   UNL A   1      32.821  33.931  28.015  1.00  0.00    -0.744 OA
ENDBRANCH  85  86
ENDBRANCH  53  78
BRANCH  65  90
ATOM     90  C   UNL A   1      39.794  33.677  37.342  1.00  0.00     0.058 A 
ATOM     91  C   UNL A   1      38.880  33.281  38.332  1.00  0.00     0.135 A 
ATOM     92  C   UNL A   1      40.446  34.910  37.505  1.00  0.00     0.135 A 
ATOM     93  F   UNL A   1      38.229  32.113  38.222  1.00  0.00    -0.206 F 
ATOM     94  C   UNL A   1      38.600  34.093  39.425  1.00  0.00     0.059 A 
ATOM     95  C   UNL A   1      40.202  35.724  38.607  1.00  0.00     0.059 A 
ATOM     96  F   UNL A   1      41.339  35.329  36.595  1.00  0.00    -0.206 F 
ATOM     97  C   UNL A   1      39.265  35.313  39.554  1.00  0.00     0.060 A 
BRANCH  97  98
ATOM     98  S   UNL A   1      38.897  36.350  40.985  1.00  0.00     0.124 S 
ATOM     99  O   UNL A   1      38.516  37.605  40.347  1.00  0.00    -0.237 OA
ATOM    100  O   UNL A   1      37.816  35.613  41.634  1.00  0.00    -0.237 OA
ATOM    101  O   UNL A   1      40.159  36.376  41.720  1.00  0.00    -0.744 OA
ENDBRANCH  97  98
ENDBRANCH  65  90
ENDBRANCH  39  40
ENDBRANCH  31  34
ENDBRANCH  29  30
ENDBRANCH  28  29
ENDBRANCH   1  28
TORSDOF 18
ENDMDL
