MODEL 1
REMARK VINA RESULT:     -11.2      0.000      0.000
REMARK SMILES C=CCN(CC(=O)NCCCCCCNC(=O)c1ccc(-c2c3nc(c(-c4c(F)cc(S(=O)(=O)[O-])cc4F)c4ccc([nH]4)c(-c4c(F)cc(S(=O)(=O)[O-])cc4F)c4nc(c(-c5c(F)cc(S(=O)(=O)[O-])cc5F)c5ccc2[nH]5)C=C4)C=C3)cc1)c1ccc([N+](=O)[O-])cc1Br
REMARK SMILES IDX 11 1 10 2 9 3 8 4 6 5 7 6 5 8 4 9 3 10 2 11 1 12 84 13 85 14
REMARK SMILES IDX 92 15 86 16 91 17 93 18 87 19 88 20 89 21 90 22 12 23 13 24
REMARK SMILES IDX 14 25 15 26 16 27 17 29 18 30 19 31 83 32 20 33 82 34 21 35
REMARK SMILES IDX 22 36 23 37 76 38 24 39 81 40 75 41 77 42 25 43 80 44 74 45
REMARK SMILES IDX 73 46 26 48 60 49 39 50 59 51 40 52 43 53 58 54 78 55 41 56
REMARK SMILES IDX 42 57 57 59 79 60 44 61 27 62 28 63 37 64 29 65 30 66 36 67
REMARK SMILES IDX 38 68 31 69 32 70 33 71 34 72 35 73 61 74 62 75 71 76 63 77
REMARK SMILES IDX 64 78 70 79 72 80 65 81 66 82 67 83 68 84 69 85 45 86 46 87
REMARK SMILES IDX 55 88 47 89 48 90 54 91 56 92 49 93 50 94 51 95 52 96 53 97
REMARK H PARENT 8 7 15 28 77 47 43 58
REMARK Flexibility Score: inf
ROOT
ATOM      1  C   UNL A   1      35.641  22.539  25.595  1.00  0.00     0.002 C 
ENDROOT
BRANCH   1   2
ATOM      2  C   UNL A   1      34.790  21.839  24.526  1.00  0.00     0.021 C 
BRANCH   2   3
ATOM      3  C   UNL A   1      33.548  22.625  24.096  1.00  0.00     0.116 C 
BRANCH   3   4
ATOM      4  N   UNL A   1      33.875  23.695  23.177  1.00  0.00    -0.355 N 
ATOM      5  C   UNL A   1      33.119  24.731  22.709  1.00  0.00     0.239 C 
ATOM      6  O   UNL A   1      33.673  25.506  21.921  1.00  0.00    -0.273 OA
ATOM      7  H   UNL A   1      34.797  23.671  22.832  1.00  0.00     0.163 HD
BRANCH   5   8
ATOM      8  C   UNL A   1      31.660  24.965  23.151  1.00  0.00     0.216 C 
BRANCH   8   9
ATOM      9  N   UNL A   1      31.411  26.091  24.082  1.00  0.00    -0.358 N 
BRANCH   9  10
ATOM     10  C   UNL A   1      31.730  25.902  25.499  1.00  0.00     0.144 C 
BRANCH  10  11
ATOM     11  C   UNL A   1      31.076  26.907  26.388  1.00  0.00    -0.014 C 
ATOM     12  C   UNL A   1      31.745  27.797  27.134  1.00  0.00     0.006 C 
ENDBRANCH  10  11
ENDBRANCH   9  10
BRANCH   9  13
ATOM     13  C   UNL A   1      30.582  27.146  23.698  1.00  0.00     0.052 A 
ATOM     14  C   UNL A   1      29.191  26.938  23.593  1.00  0.00     0.034 A 
ATOM     15  C   UNL A   1      31.039  28.452  23.405  1.00  0.00     0.048 A 
ATOM     16  C   UNL A   1      28.299  27.954  23.231  1.00  0.00     0.088 A 
ATOM     17  C   UNL A   1      30.149  29.499  23.106  1.00  0.00     0.103 A 
ATOM     18  Br  UNL A   1      32.880  28.900  23.205  1.00  0.00    -0.048 Br
ATOM     19  C   UNL A   1      28.784  29.238  23.009  1.00  0.00     0.270 A 
BRANCH  19  20
ATOM     20  N   UNL A   1      27.861  30.313  22.638  1.00  0.00     0.062 N 
ATOM     21  O   UNL A   1      27.174  30.818  23.537  1.00  0.00    -0.258 OA
ATOM     22  O   UNL A   1      27.817  30.647  21.445  1.00  0.00    -0.258 OA
ENDBRANCH  19  20
ENDBRANCH   9  13
ENDBRANCH   8   9
ENDBRANCH   5   8
ENDBRANCH   3   4
ENDBRANCH   2   3
ENDBRANCH   1   2
BRANCH   1  23
ATOM     23  C   UNL A   1      37.147  22.566  25.317  1.00  0.00     0.002 C 
BRANCH  23  24
ATOM     24  C   UNL A   1      37.884  23.819  25.806  1.00  0.00     0.021 C 
BRANCH  24  25
ATOM     25  C   UNL A   1      38.958  23.564  26.861  1.00  0.00     0.116 C 
BRANCH  25  26
ATOM     26  N   UNL A   1      40.301  23.680  26.316  1.00  0.00    -0.352 N 
ATOM     27  C   UNL A   1      41.236  24.672  26.479  1.00  0.00     0.251 C 
ATOM     28  H   UNL A   1      40.582  22.932  25.739  1.00  0.00     0.163 HD
ATOM     29  O   UNL A   1      42.238  24.679  25.770  1.00  0.00    -0.269 OA
BRANCH  27  30
ATOM     30  C   UNL A   1      41.035  25.736  27.489  1.00  0.00     0.039 A 
ATOM     31  C   UNL A   1      39.971  25.617  28.388  1.00  0.00     0.014 A 
ATOM     32  C   UNL A   1      41.867  26.859  27.538  1.00  0.00     0.014 A 
ATOM     33  C   UNL A   1      39.780  26.591  29.372  1.00  0.00     0.010 A 
ATOM     34  C   UNL A   1      41.716  27.794  28.561  1.00  0.00     0.010 A 
ATOM     35  C   UNL A   1      40.672  27.670  29.488  1.00  0.00    -0.014 A 
BRANCH  35  36
ATOM     36  C   UNL A   1      40.537  28.650  30.598  1.00  0.00     0.031 A 
ATOM     37  C   UNL A   1      41.394  28.544  31.830  1.00  0.00     0.074 A 
ATOM     38  C   UNL A   1      39.592  29.607  30.518  1.00  0.00     0.049 A 
ATOM     39  N   UNL A   1      41.404  29.303  32.896  1.00  0.00    -0.248 NA
ATOM     40  C   UNL A   1      42.344  27.423  31.883  1.00  0.00     0.031 C 
ATOM     41  C   UNL A   1      38.651  29.772  29.409  1.00  0.00     0.029 A 
ATOM     42  N   UNL A   1      39.260  30.616  31.387  1.00  0.00    -0.354 N 
ATOM     43  C   UNL A   1      42.350  28.750  33.750  1.00  0.00     0.074 A 
ATOM     44  C   UNL A   1      42.854  27.558  33.099  1.00  0.00     0.031 C 
ATOM     45  C   UNL A   1      37.866  30.832  29.652  1.00  0.00     0.029 A 
ATOM     46  C   UNL A   1      38.224  31.405  30.945  1.00  0.00     0.049 A 
ATOM     47  H   UNL A   1      39.721  30.762  32.245  1.00  0.00     0.167 HD
ATOM     48  C   UNL A   1      42.775  29.203  34.955  1.00  0.00     0.037 A 
ATOM     49  C   UNL A   1      37.627  32.469  31.516  1.00  0.00     0.037 A 
ATOM     50  C   UNL A   1      42.278  30.397  35.590  1.00  0.00     0.049 A 
ATOM     51  C   UNL A   1      38.128  32.969  32.841  1.00  0.00     0.074 A 
ATOM     52  C   UNL A   1      42.696  30.982  36.773  1.00  0.00     0.029 A 
ATOM     53  N   UNL A   1      41.243  31.183  35.102  1.00  0.00    -0.354 N 
ATOM     54  N   UNL A   1      39.085  32.485  33.595  1.00  0.00    -0.248 NA
ATOM     55  C   UNL A   1      37.477  34.168  33.386  1.00  0.00     0.031 C 
ATOM     56  C   UNL A   1      41.884  32.094  37.024  1.00  0.00     0.029 A 
ATOM     57  C   UNL A   1      40.990  32.232  35.973  1.00  0.00     0.049 A 
ATOM     58  H   UNL A   1      40.760  31.020  34.260  1.00  0.00     0.167 HD
ATOM     59  C   UNL A   1      39.162  33.325  34.700  1.00  0.00     0.074 A 
ATOM     60  C   UNL A   1      38.166  34.360  34.503  1.00  0.00     0.031 C 
ATOM     61  C   UNL A   1      39.982  33.246  35.777  1.00  0.00     0.037 A 
BRANCH  48  62
ATOM     62  C   UNL A   1      43.828  28.393  35.665  1.00  0.00     0.058 A 
ATOM     63  C   UNL A   1      45.199  28.598  35.437  1.00  0.00     0.135 A 
ATOM     64  C   UNL A   1      43.463  27.400  36.588  1.00  0.00     0.135 A 
ATOM     65  F   UNL A   1      45.606  29.527  34.557  1.00  0.00    -0.206 F 
ATOM     66  C   UNL A   1      46.166  27.816  36.059  1.00  0.00     0.059 A 
ATOM     67  C   UNL A   1      44.415  26.625  37.245  1.00  0.00     0.059 A 
ATOM     68  F   UNL A   1      42.167  27.163  36.851  1.00  0.00    -0.206 F 
ATOM     69  C   UNL A   1      45.764  26.825  36.956  1.00  0.00     0.060 A 
BRANCH  69  70
ATOM     70  S   UNL A   1      47.028  25.795  37.730  1.00  0.00     0.124 S 
ATOM     71  O   UNL A   1      46.539  24.455  37.419  1.00  0.00    -0.237 OA
ATOM     72  O   UNL A   1      48.240  26.205  37.028  1.00  0.00    -0.237 OA
ATOM     73  O   UNL A   1      46.962  26.176  39.137  1.00  0.00    -0.744 OA
ENDBRANCH  69  70
ENDBRANCH  48  62
BRANCH  49  74
ATOM     74  C   UNL A   1      36.509  33.142  30.805  1.00  0.00     0.058 A 
ATOM     75  C   UNL A   1      35.193  33.050  31.281  1.00  0.00     0.135 A 
ATOM     76  C   UNL A   1      36.744  33.943  29.677  1.00  0.00     0.135 A 
ATOM     77  F   UNL A   1      34.918  32.291  32.352  1.00  0.00    -0.206 F 
ATOM     78  C   UNL A   1      34.149  33.734  30.668  1.00  0.00     0.059 A 
ATOM     79  C   UNL A   1      35.719  34.653  29.060  1.00  0.00     0.059 A 
ATOM     80  F   UNL A   1      37.990  34.075  29.195  1.00  0.00    -0.206 F 
ATOM     81  C   UNL A   1      34.424  34.542  29.563  1.00  0.00     0.060 A 
BRANCH  81  82
ATOM     82  S   UNL A   1      33.079  35.503  28.836  1.00  0.00     0.124 S 
ATOM     83  O   UNL A   1      33.813  36.512  28.081  1.00  0.00    -0.237 OA
ATOM     84  O   UNL A   1      32.376  34.498  28.046  1.00  0.00    -0.237 OA
ATOM     85  O   UNL A   1      32.349  35.994  30.002  1.00  0.00    -0.744 OA
ENDBRANCH  81  82
ENDBRANCH  49  74
BRANCH  61  86
ATOM     86  C   UNL A   1      39.839  34.313  36.828  1.00  0.00     0.058 A 
ATOM     87  C   UNL A   1      38.986  34.150  37.930  1.00  0.00     0.135 A 
ATOM     88  C   UNL A   1      40.583  35.501  36.745  1.00  0.00     0.135 A 
ATOM     89  F   UNL A   1      38.247  33.036  38.055  1.00  0.00    -0.206 F 
ATOM     90  C   UNL A   1      38.851  35.141  38.898  1.00  0.00     0.059 A 
ATOM     91  C   UNL A   1      40.484  36.494  37.715  1.00  0.00     0.059 A 
ATOM     92  F   UNL A   1      41.422  35.704  35.717  1.00  0.00    -0.206 F 
ATOM     93  C   UNL A   1      39.603  36.311  38.780  1.00  0.00     0.060 A 
BRANCH  93  94
ATOM     94  S   UNL A   1      39.428  37.585  40.047  1.00  0.00     0.124 S 
ATOM     95  O   UNL A   1      39.291  36.780  41.257  1.00  0.00    -0.237 OA
ATOM     96  O   UNL A   1      40.675  38.331  39.918  1.00  0.00    -0.237 OA
ATOM     97  O   UNL A   1      38.228  38.309  39.636  1.00  0.00    -0.744 OA
ENDBRANCH  93  94
ENDBRANCH  61  86
ENDBRANCH  35  36
ENDBRANCH  27  30
ENDBRANCH  25  26
ENDBRANCH  24  25
ENDBRANCH  23  24
ENDBRANCH   1  23
TORSDOF 21
ENDMDL
MODEL 2
REMARK VINA RESULT:     -11.0      6.464     12.012
REMARK SMILES C=CCN(CC(=O)NCCCCCCNC(=O)c1ccc(-c2c3nc(c(-c4c(F)cc(S(=O)(=O)[O-])cc4F)c4ccc([nH]4)c(-c4c(F)cc(S(=O)(=O)[O-])cc4F)c4nc(c(-c5c(F)cc(S(=O)(=O)[O-])cc5F)c5ccc2[nH]5)C=C4)C=C3)cc1)c1ccc([N+](=O)[O-])cc1Br
REMARK SMILES IDX 11 1 10 2 9 3 8 4 6 5 7 6 5 8 4 9 3 10 2 11 1 12 84 13 85 14
REMARK SMILES IDX 92 15 86 16 91 17 93 18 87 19 88 20 89 21 90 22 12 23 13 24
REMARK SMILES IDX 14 25 15 26 16 27 17 29 18 30 19 31 83 32 20 33 82 34 21 35
REMARK SMILES IDX 22 36 23 37 76 38 24 39 81 40 75 41 77 42 25 43 80 44 74 45
REMARK SMILES IDX 73 46 26 48 60 49 39 50 59 51 40 52 43 53 58 54 78 55 41 56
REMARK SMILES IDX 42 57 57 59 79 60 44 61 27 62 28 63 37 64 29 65 30 66 36 67
REMARK SMILES IDX 38 68 31 69 32 70 33 71 34 72 35 73 61 74 62 75 71 76 63 77
REMARK SMILES IDX 64 78 70 79 72 80 65 81 66 82 67 83 68 84 69 85 45 86 46 87
REMARK SMILES IDX 55 88 47 89 48 90 54 91 56 92 49 93 50 94 51 95 52 96 53 97
REMARK H PARENT 8 7 15 28 77 47 43 58
REMARK Flexibility Score: inf
ROOT
ATOM      1  C   UNL A   1      34.862  30.869  27.246  1.00  0.00     0.002 C 
ENDROOT
BRANCH   1   2
ATOM      2  C   UNL A   1      33.507  30.158  27.132  1.00  0.00     0.021 C 
BRANCH   2   3
ATOM      3  C   UNL A   1      33.562  28.808  26.412  1.00  0.00     0.116 C 
BRANCH   3   4
ATOM      4  N   UNL A   1      33.644  28.964  24.976  1.00  0.00    -0.355 N 
ATOM      5  C   UNL A   1      32.662  29.042  24.030  1.00  0.00     0.239 C 
ATOM      6  O   UNL A   1      33.034  29.178  22.858  1.00  0.00    -0.273 OA
ATOM      7  H   UNL A   1      34.560  29.023  24.621  1.00  0.00     0.163 HD
BRANCH   5   8
ATOM      8  C   UNL A   1      31.161  29.002  24.380  1.00  0.00     0.216 C 
BRANCH   8   9
ATOM      9  N   UNL A   1      30.363  27.896  23.801  1.00  0.00    -0.358 N 
BRANCH   9  10
ATOM     10  C   UNL A   1      29.122  28.230  23.098  1.00  0.00     0.144 C 
BRANCH  10  11
ATOM     11  C   UNL A   1      28.881  29.699  22.996  1.00  0.00    -0.014 C 
ATOM     12  C   UNL A   1      27.680  30.248  22.770  1.00  0.00     0.006 C 
ENDBRANCH  10  11
ENDBRANCH   9  10
BRANCH   9  13
ATOM     13  C   UNL A   1      30.589  26.581  24.211  1.00  0.00     0.052 A 
ATOM     14  C   UNL A   1      30.260  26.195  25.527  1.00  0.00     0.034 A 
ATOM     15  C   UNL A   1      31.129  25.569  23.383  1.00  0.00     0.048 A 
ATOM     16  C   UNL A   1      30.441  24.890  26.001  1.00  0.00     0.088 A 
ATOM     17  C   UNL A   1      31.256  24.240  23.824  1.00  0.00     0.103 A 
ATOM     18  Br  UNL A   1      31.904  25.913  21.677  1.00  0.00    -0.048 Br
ATOM     19  C   UNL A   1      30.920  23.912  25.136  1.00  0.00     0.270 A 
BRANCH  19  20
ATOM     20  N   UNL A   1      31.108  22.542  25.616  1.00  0.00     0.062 N 
ATOM     21  O   UNL A   1      32.208  22.007  25.418  1.00  0.00    -0.258 OA
ATOM     22  O   UNL A   1      30.151  21.995  26.185  1.00  0.00    -0.258 OA
ENDBRANCH  19  20
ENDBRANCH   9  13
ENDBRANCH   8   9
ENDBRANCH   5   8
ENDBRANCH   3   4
ENDBRANCH   2   3
ENDBRANCH   1   2
BRANCH   1  23
ATOM     23  C   UNL A   1      34.920  32.008  28.270  1.00  0.00     0.002 C 
BRANCH  23  24
ATOM     24  C   UNL A   1      36.220  32.820  28.278  1.00  0.00     0.021 C 
BRANCH  24  25
ATOM     25  C   UNL A   1      36.781  33.125  29.666  1.00  0.00     0.116 C 
BRANCH  25  26
ATOM     26  N   UNL A   1      36.244  32.235  30.682  1.00  0.00    -0.352 N 
ATOM     27  C   UNL A   1      36.675  30.994  31.082  1.00  0.00     0.251 C 
ATOM     28  H   UNL A   1      35.449  32.573  31.155  1.00  0.00     0.163 HD
ATOM     29  O   UNL A   1      35.963  30.317  31.819  1.00  0.00    -0.269 OA
BRANCH  27  30
ATOM     30  C   UNL A   1      37.978  30.464  30.620  1.00  0.00     0.039 A 
ATOM     31  C   UNL A   1      38.114  30.093  29.279  1.00  0.00     0.014 A 
ATOM     32  C   UNL A   1      39.052  30.304  31.501  1.00  0.00     0.014 A 
ATOM     33  C   UNL A   1      39.342  29.620  28.810  1.00  0.00     0.010 A 
ATOM     34  C   UNL A   1      40.294  29.897  31.017  1.00  0.00     0.010 A 
ATOM     35  C   UNL A   1      40.453  29.551  29.667  1.00  0.00    -0.014 A 
BRANCH  35  36
ATOM     36  C   UNL A   1      41.788  29.152  29.150  1.00  0.00     0.031 A 
ATOM     37  C   UNL A   1      42.908  30.151  29.049  1.00  0.00     0.074 A 
ATOM     38  C   UNL A   1      41.974  27.891  28.712  1.00  0.00     0.049 A 
ATOM     39  N   UNL A   1      44.130  29.981  28.614  1.00  0.00    -0.248 NA
ATOM     40  C   UNL A   1      42.606  31.530  29.466  1.00  0.00     0.031 C 
ATOM     41  C   UNL A   1      40.947  26.847  28.691  1.00  0.00     0.029 A 
ATOM     42  N   UNL A   1      43.084  27.275  28.193  1.00  0.00    -0.354 N 
ATOM     43  C   UNL A   1      44.741  31.226  28.693  1.00  0.00     0.074 A 
ATOM     44  C   UNL A   1      43.737  32.155  29.169  1.00  0.00     0.031 C 
ATOM     45  C   UNL A   1      41.481  25.715  28.209  1.00  0.00     0.029 A 
ATOM     46  C   UNL A   1      42.877  25.957  27.858  1.00  0.00     0.049 A 
ATOM     47  H   UNL A   1      43.948  27.732  28.073  1.00  0.00     0.167 HD
ATOM     48  C   UNL A   1      46.025  31.562  28.416  1.00  0.00     0.037 A 
ATOM     49  C   UNL A   1      43.714  25.045  27.327  1.00  0.00     0.037 A 
ATOM     50  C   UNL A   1      47.022  30.629  27.956  1.00  0.00     0.049 A 
ATOM     51  C   UNL A   1      45.139  25.431  27.049  1.00  0.00     0.074 A 
ATOM     52  C   UNL A   1      48.368  30.853  27.720  1.00  0.00     0.029 A 
ATOM     53  N   UNL A   1      46.781  29.297  27.649  1.00  0.00    -0.354 N 
ATOM     54  N   UNL A   1      45.725  26.592  27.215  1.00  0.00    -0.248 NA
ATOM     55  C   UNL A   1      46.020  24.378  26.526  1.00  0.00     0.031 C 
ATOM     56  C   UNL A   1      48.930  29.670  27.226  1.00  0.00     0.029 A 
ATOM     57  C   UNL A   1      47.946  28.693  27.199  1.00  0.00     0.049 A 
ATOM     58  H   UNL A   1      45.910  28.846  27.738  1.00  0.00     0.167 HD
ATOM     59  C   UNL A   1      47.047  26.410  26.826  1.00  0.00     0.074 A 
ATOM     60  C   UNL A   1      47.178  25.020  26.438  1.00  0.00     0.031 C 
ATOM     61  C   UNL A   1      48.060  27.313  26.796  1.00  0.00     0.037 A 
BRANCH  48  62
ATOM     62  C   UNL A   1      46.417  33.005  28.600  1.00  0.00     0.058 A 
ATOM     63  C   UNL A   1      46.889  33.493  29.829  1.00  0.00     0.135 A 
ATOM     64  C   UNL A   1      46.323  33.911  27.532  1.00  0.00     0.135 A 
ATOM     65  F   UNL A   1      46.990  32.674  30.889  1.00  0.00    -0.206 F 
ATOM     66  C   UNL A   1      47.204  34.836  30.008  1.00  0.00     0.059 A 
ATOM     67  C   UNL A   1      46.661  35.254  27.679  1.00  0.00     0.059 A 
ATOM     68  F   UNL A   1      45.883  33.500  26.331  1.00  0.00    -0.206 F 
ATOM     69  C   UNL A   1      47.079  35.711  28.928  1.00  0.00     0.060 A 
BRANCH  69  70
ATOM     70  S   UNL A   1      47.459  37.458  29.182  1.00  0.00     0.124 S 
ATOM     71  O   UNL A   1      48.918  37.433  29.222  1.00  0.00    -0.237 OA
ATOM     72  O   UNL A   1      46.869  38.082  28.003  1.00  0.00    -0.237 OA
ATOM     73  O   UNL A   1      46.801  37.767  30.448  1.00  0.00    -0.744 OA
ENDBRANCH  69  70
ENDBRANCH  48  62
BRANCH  49  74
ATOM     74  C   UNL A   1      43.216  23.671  27.060  1.00  0.00     0.058 A 
ATOM     75  C   UNL A   1      42.931  23.248  25.754  1.00  0.00     0.135 A 
ATOM     76  C   UNL A   1      43.080  22.735  28.097  1.00  0.00     0.135 A 
ATOM     77  F   UNL A   1      43.041  24.110  24.731  1.00  0.00    -0.206 F 
ATOM     78  C   UNL A   1      42.534  21.944  25.482  1.00  0.00     0.059 A 
ATOM     79  C   UNL A   1      42.705  21.419  27.846  1.00  0.00     0.059 A 
ATOM     80  F   UNL A   1      43.357  23.087  29.361  1.00  0.00    -0.206 F 
ATOM     81  C   UNL A   1      42.434  21.033  26.534  1.00  0.00     0.060 A 
BRANCH  81  82
ATOM     82  S   UNL A   1      42.015  19.316  26.158  1.00  0.00     0.124 S 
ATOM     83  O   UNL A   1      42.839  19.063  24.983  1.00  0.00    -0.237 OA
ATOM     84  O   UNL A   1      42.415  18.628  27.382  1.00  0.00    -0.237 OA
ATOM     85  O   UNL A   1      40.574  19.367  25.921  1.00  0.00    -0.744 OA
ENDBRANCH  81  82
ENDBRANCH  49  74
BRANCH  61  86
ATOM     86  C   UNL A   1      49.403  26.821  26.328  1.00  0.00     0.058 A 
ATOM     87  C   UNL A   1      49.794  26.918  24.984  1.00  0.00     0.135 A 
ATOM     88  C   UNL A   1      50.319  26.271  27.240  1.00  0.00     0.135 A 
ATOM     89  F   UNL A   1      48.955  27.431  24.070  1.00  0.00    -0.206 F 
ATOM     90  C   UNL A   1      51.035  26.458  24.553  1.00  0.00     0.059 A 
ATOM     91  C   UNL A   1      51.574  25.828  26.836  1.00  0.00     0.059 A 
ATOM     92  F   UNL A   1      49.999  26.164  28.539  1.00  0.00    -0.206 F 
ATOM     93  C   UNL A   1      51.918  25.912  25.487  1.00  0.00     0.060 A 
BRANCH  93  94
ATOM     94  S   UNL A   1      53.528  25.327  24.918  1.00  0.00     0.124 S 
ATOM     95  O   UNL A   1      53.526  25.770  23.527  1.00  0.00    -0.237 OA
ATOM     96  O   UNL A   1      54.449  26.029  25.806  1.00  0.00    -0.237 OA
ATOM     97  O   UNL A   1      53.455  23.883  25.117  1.00  0.00    -0.744 OA
ENDBRANCH  93  94
ENDBRANCH  61  86
ENDBRANCH  35  36
ENDBRANCH  27  30
ENDBRANCH  25  26
ENDBRANCH  24  25
ENDBRANCH  23  24
ENDBRANCH   1  23
TORSDOF 21
ENDMDL
MODEL 3
REMARK VINA RESULT:     -10.8      1.491      2.267
REMARK SMILES C=CCN(CC(=O)NCCCCCCNC(=O)c1ccc(-c2c3nc(c(-c4c(F)cc(S(=O)(=O)[O-])cc4F)c4ccc([nH]4)c(-c4c(F)cc(S(=O)(=O)[O-])cc4F)c4nc(c(-c5c(F)cc(S(=O)(=O)[O-])cc5F)c5ccc2[nH]5)C=C4)C=C3)cc1)c1ccc([N+](=O)[O-])cc1Br
REMARK SMILES IDX 11 1 10 2 9 3 8 4 6 5 7 6 5 8 4 9 3 10 2 11 1 12 84 13 85 14
REMARK SMILES IDX 92 15 86 16 91 17 93 18 87 19 88 20 89 21 90 22 12 23 13 24
REMARK SMILES IDX 14 25 15 26 16 27 17 29 18 30 19 31 83 32 20 33 82 34 21 35
REMARK SMILES IDX 22 36 23 37 76 38 24 39 81 40 75 41 77 42 25 43 80 44 74 45
REMARK SMILES IDX 73 46 26 48 60 49 39 50 59 51 40 52 43 53 58 54 78 55 41 56
REMARK SMILES IDX 42 57 57 59 79 60 44 61 27 62 28 63 37 64 29 65 30 66 36 67
REMARK SMILES IDX 38 68 31 69 32 70 33 71 34 72 35 73 61 74 62 75 71 76 63 77
REMARK SMILES IDX 64 78 70 79 72 80 65 81 66 82 67 83 68 84 69 85 45 86 46 87
REMARK SMILES IDX 55 88 47 89 48 90 54 91 56 92 49 93 50 94 51 95 52 96 53 97
REMARK H PARENT 8 7 15 28 77 47 43 58
REMARK Flexibility Score: inf
ROOT
ATOM      1  C   UNL A   1      37.795  21.352  25.417  1.00  0.00     0.002 C 
ENDROOT
BRANCH   1   2
ATOM      2  C   UNL A   1      36.552  20.592  24.934  1.00  0.00     0.021 C 
BRANCH   2   3
ATOM      3  C   UNL A   1      35.223  21.218  25.365  1.00  0.00     0.116 C 
BRANCH   3   4
ATOM      4  N   UNL A   1      34.152  20.245  25.399  1.00  0.00    -0.355 N 
ATOM      5  C   UNL A   1      32.849  20.339  25.000  1.00  0.00     0.239 C 
ATOM      6  O   UNL A   1      32.152  19.328  25.150  1.00  0.00    -0.273 OA
ATOM      7  H   UNL A   1      34.405  19.369  25.771  1.00  0.00     0.163 HD
BRANCH   5   8
ATOM      8  C   UNL A   1      32.262  21.613  24.361  1.00  0.00     0.216 C 
BRANCH   8   9
ATOM      9  N   UNL A   1      32.166  22.815  25.223  1.00  0.00    -0.358 N 
BRANCH   9  10
ATOM     10  C   UNL A   1      32.059  22.624  26.671  1.00  0.00     0.144 C 
BRANCH  10  11
ATOM     11  C   UNL A   1      30.789  23.158  27.243  1.00  0.00    -0.014 C 
ATOM     12  C   UNL A   1      29.592  22.576  27.085  1.00  0.00     0.006 C 
ENDBRANCH  10  11
ENDBRANCH   9  10
BRANCH   9  13
ATOM     13  C   UNL A   1      31.830  24.050  24.665  1.00  0.00     0.052 A 
ATOM     14  C   UNL A   1      30.603  24.197  23.984  1.00  0.00     0.034 A 
ATOM     15  C   UNL A   1      32.642  25.205  24.739  1.00  0.00     0.048 A 
ATOM     16  C   UNL A   1      30.193  25.409  23.417  1.00  0.00     0.088 A 
ATOM     17  C   UNL A   1      32.215  26.445  24.232  1.00  0.00     0.103 A 
ATOM     18  Br  UNL A   1      34.446  25.182  25.352  1.00  0.00    -0.048 Br
ATOM     19  C   UNL A   1      30.996  26.536  23.564  1.00  0.00     0.270 A 
BRANCH  19  20
ATOM     20  N   UNL A   1      30.575  27.812  22.983  1.00  0.00     0.062 N 
ATOM     21  O   UNL A   1      30.520  27.893  21.747  1.00  0.00    -0.258 OA
ATOM     22  O   UNL A   1      30.307  28.739  23.762  1.00  0.00    -0.258 OA
ENDBRANCH  19  20
ENDBRANCH   9  13
ENDBRANCH   8   9
ENDBRANCH   5   8
ENDBRANCH   3   4
ENDBRANCH   2   3
ENDBRANCH   1   2
BRANCH   1  23
ATOM     23  C   UNL A   1      37.844  22.836  25.037  1.00  0.00     0.002 C 
BRANCH  23  24
ATOM     24  C   UNL A   1      38.180  23.798  26.182  1.00  0.00     0.021 C 
BRANCH  24  25
ATOM     25  C   UNL A   1      39.510  23.525  26.882  1.00  0.00     0.116 C 
BRANCH  25  26
ATOM     26  N   UNL A   1      40.648  23.949  26.083  1.00  0.00    -0.352 N 
ATOM     27  C   UNL A   1      41.336  25.136  26.090  1.00  0.00     0.251 C 
ATOM     28  H   UNL A   1      40.974  23.281  25.436  1.00  0.00     0.163 HD
ATOM     29  O   UNL A   1      42.142  25.372  25.194  1.00  0.00    -0.269 OA
BRANCH  27  30
ATOM     30  C   UNL A   1      41.102  26.137  27.156  1.00  0.00     0.039 A 
ATOM     31  C   UNL A   1      40.189  25.834  28.171  1.00  0.00     0.014 A 
ATOM     32  C   UNL A   1      41.749  27.376  27.146  1.00  0.00     0.014 A 
ATOM     33  C   UNL A   1      39.974  26.747  29.206  1.00  0.00     0.010 A 
ATOM     34  C   UNL A   1      41.584  28.256  28.214  1.00  0.00     0.010 A 
ATOM     35  C   UNL A   1      40.695  27.951  29.255  1.00  0.00    -0.014 A 
BRANCH  35  36
ATOM     36  C   UNL A   1      40.550  28.877  30.410  1.00  0.00     0.031 A 
ATOM     37  C   UNL A   1      41.411  28.726  31.634  1.00  0.00     0.074 A 
ATOM     38  C   UNL A   1      39.593  29.825  30.376  1.00  0.00     0.049 A 
ATOM     39  N   UNL A   1      41.414  29.435  32.734  1.00  0.00    -0.248 NA
ATOM     40  C   UNL A   1      42.375  27.615  31.634  1.00  0.00     0.031 C 
ATOM     41  C   UNL A   1      38.648  30.029  29.276  1.00  0.00     0.029 A 
ATOM     42  N   UNL A   1      39.250  30.788  31.291  1.00  0.00    -0.354 N 
ATOM     43  C   UNL A   1      42.368  28.855  33.560  1.00  0.00     0.074 A 
ATOM     44  C   UNL A   1      42.886  27.701  32.854  1.00  0.00     0.031 C 
ATOM     45  C   UNL A   1      37.850  31.067  29.569  1.00  0.00     0.029 A 
ATOM     46  C   UNL A   1      38.203  31.583  30.887  1.00  0.00     0.049 A 
ATOM     47  H   UNL A   1      39.711  30.900  32.154  1.00  0.00     0.167 HD
ATOM     48  C   UNL A   1      42.789  29.257  34.784  1.00  0.00     0.037 A 
ATOM     49  C   UNL A   1      37.593  32.612  31.507  1.00  0.00     0.037 A 
ATOM     50  C   UNL A   1      42.279  30.414  35.475  1.00  0.00     0.049 A 
ATOM     51  C   UNL A   1      38.091  33.057  32.853  1.00  0.00     0.074 A 
ATOM     52  C   UNL A   1      42.691  30.948  36.683  1.00  0.00     0.029 A 
ATOM     53  N   UNL A   1      41.233  31.208  35.025  1.00  0.00    -0.354 N 
ATOM     54  N   UNL A   1      39.056  32.551  33.583  1.00  0.00    -0.248 NA
ATOM     55  C   UNL A   1      37.425  34.220  33.454  1.00  0.00     0.031 C 
ATOM     56  C   UNL A   1      41.865  32.037  36.986  1.00  0.00     0.029 A 
ATOM     57  C   UNL A   1      40.968  32.212  35.944  1.00  0.00     0.049 A 
ATOM     58  H   UNL A   1      40.750  31.078  34.177  1.00  0.00     0.167 HD
ATOM     59  C   UNL A   1      39.123  33.339  34.725  1.00  0.00     0.074 A 
ATOM     60  C   UNL A   1      38.114  34.369  34.578  1.00  0.00     0.031 C 
ATOM     61  C   UNL A   1      39.947  33.221  35.797  1.00  0.00     0.037 A 
BRANCH  48  62
ATOM     62  C   UNL A   1      43.854  28.428  35.454  1.00  0.00     0.058 A 
ATOM     63  C   UNL A   1      43.534  27.401  36.358  1.00  0.00     0.135 A 
ATOM     64  C   UNL A   1      45.213  28.660  35.187  1.00  0.00     0.135 A 
ATOM     65  F   UNL A   1      42.252  27.141  36.659  1.00  0.00    -0.206 F 
ATOM     66  C   UNL A   1      44.522  26.670  37.010  1.00  0.00     0.059 A 
ATOM     67  C   UNL A   1      46.218  27.921  35.806  1.00  0.00     0.059 A 
ATOM     68  F   UNL A   1      45.579  29.625  34.327  1.00  0.00    -0.206 F 
ATOM     69  C   UNL A   1      45.862  26.943  36.733  1.00  0.00     0.060 A 
BRANCH  69  70
ATOM     70  S   UNL A   1      47.133  26.010  37.612  1.00  0.00     0.124 S 
ATOM     71  O   UNL A   1      47.076  26.621  38.937  1.00  0.00    -0.237 OA
ATOM     72  O   UNL A   1      46.635  24.642  37.524  1.00  0.00    -0.237 OA
ATOM     73  O   UNL A   1      48.345  26.284  36.846  1.00  0.00    -0.744 OA
ENDBRANCH  69  70
ENDBRANCH  48  62
BRANCH  49  74
ATOM     74  C   UNL A   1      36.465  33.303  30.830  1.00  0.00     0.058 A 
ATOM     75  C   UNL A   1      35.149  33.159  31.293  1.00  0.00     0.135 A 
ATOM     76  C   UNL A   1      36.690  34.171  29.750  1.00  0.00     0.135 A 
ATOM     77  F   UNL A   1      34.886  32.335  32.318  1.00  0.00    -0.206 F 
ATOM     78  C   UNL A   1      34.095  33.856  30.714  1.00  0.00     0.059 A 
ATOM     79  C   UNL A   1      35.654  34.895  29.169  1.00  0.00     0.059 A 
ATOM     80  F   UNL A   1      37.935  34.354  29.283  1.00  0.00    -0.206 F 
ATOM     81  C   UNL A   1      34.359  34.731  29.659  1.00  0.00     0.060 A 
BRANCH  81  82
ATOM     82  S   UNL A   1      32.999  35.706  28.980  1.00  0.00     0.124 S 
ATOM     83  O   UNL A   1      32.252  36.047  30.185  1.00  0.00    -0.237 OA
ATOM     84  O   UNL A   1      33.705  36.806  28.331  1.00  0.00    -0.237 OA
ATOM     85  O   UNL A   1      32.339  34.773  28.070  1.00  0.00    -0.744 OA
ENDBRANCH  81  82
ENDBRANCH  49  74
BRANCH  61  86
ATOM     86  C   UNL A   1      39.792  34.237  36.896  1.00  0.00     0.058 A 
ATOM     87  C   UNL A   1      38.996  33.984  38.024  1.00  0.00     0.135 A 
ATOM     88  C   UNL A   1      40.468  35.466  36.833  1.00  0.00     0.135 A 
ATOM     89  F   UNL A   1      38.324  32.827  38.132  1.00  0.00    -0.206 F 
ATOM     90  C   UNL A   1      38.850  34.927  39.037  1.00  0.00     0.059 A 
ATOM     91  C   UNL A   1      40.358  36.413  37.846  1.00  0.00     0.059 A 
ATOM     92  F   UNL A   1      41.251  35.755  35.781  1.00  0.00    -0.206 F 
ATOM     93  C   UNL A   1      39.534  36.140  38.938  1.00  0.00     0.060 A 
BRANCH  93  94
ATOM     94  S   UNL A   1      39.345  37.352  40.263  1.00  0.00     0.124 S 
ATOM     95  O   UNL A   1      38.620  38.421  39.582  1.00  0.00    -0.237 OA
ATOM     96  O   UNL A   1      38.587  36.608  41.263  1.00  0.00    -0.237 OA
ATOM     97  O   UNL A   1      40.722  37.665  40.635  1.00  0.00    -0.744 OA
ENDBRANCH  93  94
ENDBRANCH  61  86
ENDBRANCH  35  36
ENDBRANCH  27  30
ENDBRANCH  25  26
ENDBRANCH  24  25
ENDBRANCH  23  24
ENDBRANCH   1  23
TORSDOF 21
ENDMDL
