MODEL 1
REMARK VINA RESULT:     -11.4      0.000      0.000
REMARK SMILES Cc1nc(SCc2ccccc2)[nH]c(=O)c1CCC(=O)NCCCCCCNC(=O)c1ccc(-c2c3nc(c(-c4c(F)cc(S(=O)(=O)[O-])cc4F)c4ccc([nH]4)c(-c4c(F)cc(S(=O)(=O)[O-])cc4F)c4nc(c(-c5c(F)cc(S(=O)(=O)[O-])cc5F)c5ccc2[nH]5)C=C4)C=C3)cc1
REMARK SMILES IDX 23 1 22 2 21 3 19 4 20 5 18 7 17 8 16 9 1 10 2 11 3 12 4 13
REMARK SMILES IDX 14 14 13 15 15 16 5 18 6 19 7 20 8 21 12 22 9 23 11 24 10 25
REMARK SMILES IDX 24 26 25 27 26 28 27 29 28 30 29 31 30 33 31 34 32 35 96 36
REMARK SMILES IDX 33 37 95 38 34 39 35 40 36 41 89 42 37 43 94 44 88 45 90 46
REMARK SMILES IDX 38 47 93 48 87 49 86 50 39 52 73 53 52 54 72 55 53 56 56 57
REMARK SMILES IDX 71 58 91 59 54 60 55 61 70 63 92 64 57 65 40 66 41 67 50 68
REMARK SMILES IDX 42 69 43 70 49 71 51 72 44 73 45 74 46 75 47 76 48 77 74 78
REMARK SMILES IDX 75 79 84 80 76 81 77 82 83 83 85 84 78 85 79 86 80 87 81 88
REMARK SMILES IDX 82 89 58 90 59 91 68 92 60 93 61 94 67 95 69 96 62 97 63 98
REMARK SMILES IDX 64 99 65 100 66 101
REMARK H PARENT 21 6 13 17 28 32 90 51 56 62
REMARK Flexibility Score: inf
ROOT
ATOM      1  C   UNL A   1      36.028  21.598  25.954  1.00  0.00     0.021 C 
ENDROOT
BRANCH   1   2
ATOM      2  C   UNL A   1      34.677  21.763  26.664  1.00  0.00     0.116 C 
BRANCH   2   3
ATOM      3  N   UNL A   1      33.743  20.726  26.248  1.00  0.00    -0.356 N 
ATOM      4  C   UNL A   1      33.056  20.538  25.088  1.00  0.00     0.220 C 
ATOM      5  O   UNL A   1      32.229  19.624  25.045  1.00  0.00    -0.275 OA
ATOM      6  H   UNL A   1      33.580  20.034  26.930  1.00  0.00     0.163 HD
BRANCH   4   7
ATOM      7  C   UNL A   1      33.337  21.374  23.851  1.00  0.00     0.105 C 
BRANCH   7   8
ATOM      8  C   UNL A   1      32.072  21.957  23.190  1.00  0.00     0.053 C 
BRANCH   8   9
ATOM      9  C   UNL A   1      31.929  23.438  23.445  1.00  0.00     0.039 A 
ATOM     10  C   UNL A   1      30.770  23.308  25.662  1.00  0.00     0.067 C 
ATOM     11  C   UNL A   1      31.323  24.063  24.479  1.00  0.00     0.049 A 
ATOM     12  N   UNL A   1      31.007  25.415  24.478  1.00  0.00    -0.229 NA
ATOM     13  C   UNL A   1      31.271  26.074  23.403  1.00  0.00     0.168 A 
ATOM     14  C   UNL A   1      32.528  24.325  22.428  1.00  0.00     0.254 A 
ATOM     15  N   UNL A   1      32.043  25.586  22.405  1.00  0.00    -0.301 N 
ATOM     16  O   UNL A   1      33.371  23.930  21.627  1.00  0.00    -0.269 OA
ATOM     17  H   UNL A   1      32.257  26.166  21.639  1.00  0.00     0.172 HD
BRANCH  13  18
ATOM     18  S   UNL A   1      30.695  27.642  22.963  1.00  0.00    -0.083 SA
BRANCH  18  19
ATOM     19  C   UNL A   1      31.995  28.811  23.374  1.00  0.00     0.113 C 
BRANCH  19  20
ATOM     20  C   UNL A   1      32.496  28.984  24.795  1.00  0.00    -0.038 A 
ATOM     21  C   UNL A   1      31.884  29.966  25.598  1.00  0.00     0.004 A 
ATOM     22  C   UNL A   1      33.661  28.390  25.296  1.00  0.00     0.004 A 
ATOM     23  C   UNL A   1      32.453  30.377  26.808  1.00  0.00     0.000 A 
ATOM     24  C   UNL A   1      34.245  28.812  26.494  1.00  0.00     0.000 A 
ATOM     25  C   UNL A   1      33.650  29.819  27.243  1.00  0.00     0.000 A 
ENDBRANCH  19  20
ENDBRANCH  18  19
ENDBRANCH  13  18
ENDBRANCH   8   9
ENDBRANCH   7   8
ENDBRANCH   4   7
ENDBRANCH   2   3
ENDBRANCH   1   2
BRANCH   1  26
ATOM     26  C   UNL A   1      36.636  22.849  25.320  1.00  0.00     0.002 C 
BRANCH  26  27
ATOM     27  C   UNL A   1      37.806  23.496  26.063  1.00  0.00     0.002 C 
BRANCH  27  28
ATOM     28  C   UNL A   1      39.001  22.595  26.394  1.00  0.00     0.021 C 
BRANCH  28  29
ATOM     29  C   UNL A   1      40.239  23.282  26.969  1.00  0.00     0.116 C 
BRANCH  29  30
ATOM     30  N   UNL A   1      40.968  24.066  25.989  1.00  0.00    -0.352 N 
ATOM     31  C   UNL A   1      41.341  25.387  25.995  1.00  0.00     0.251 C 
ATOM     32  H   UNL A   1      41.240  23.566  25.186  1.00  0.00     0.163 HD
ATOM     33  O   UNL A   1      41.817  25.873  24.971  1.00  0.00    -0.269 OA
BRANCH  31  34
ATOM     34  C   UNL A   1      41.166  26.239  27.195  1.00  0.00     0.039 A 
ATOM     35  C   UNL A   1      42.080  27.276  27.409  1.00  0.00     0.014 A 
ATOM     36  C   UNL A   1      40.167  25.992  28.142  1.00  0.00     0.014 A 
ATOM     37  C   UNL A   1      41.961  28.094  28.537  1.00  0.00     0.010 A 
ATOM     38  C   UNL A   1      40.012  26.849  29.235  1.00  0.00     0.010 A 
ATOM     39  C   UNL A   1      40.909  27.907  29.447  1.00  0.00    -0.014 A 
BRANCH  39  40
ATOM     40  C   UNL A   1      40.739  28.821  30.611  1.00  0.00     0.031 A 
ATOM     41  C   UNL A   1      41.587  28.662  31.844  1.00  0.00     0.074 A 
ATOM     42  C   UNL A   1      39.791  29.778  30.571  1.00  0.00     0.049 A 
ATOM     43  N   UNL A   1      41.561  29.349  32.959  1.00  0.00    -0.248 NA
ATOM     44  C   UNL A   1      42.579  27.577  31.834  1.00  0.00     0.031 C 
ATOM     45  C   UNL A   1      38.879  30.015  29.450  1.00  0.00     0.029 A 
ATOM     46  N   UNL A   1      39.433  30.728  31.495  1.00  0.00    -0.354 N 
ATOM     47  C   UNL A   1      42.526  28.780  33.782  1.00  0.00     0.074 A 
ATOM     48  C   UNL A   1      43.080  27.654  33.059  1.00  0.00     0.031 C 
ATOM     49  C   UNL A   1      38.086  31.056  29.741  1.00  0.00     0.029 A 
ATOM     50  C   UNL A   1      38.400  31.537  31.084  1.00  0.00     0.049 A 
ATOM     51  H   UNL A   1      39.874  30.822  32.370  1.00  0.00     0.167 HD
ATOM     52  C   UNL A   1      42.927  29.167  35.018  1.00  0.00     0.037 A 
ATOM     53  C   UNL A   1      37.768  32.547  31.716  1.00  0.00     0.037 A 
ATOM     54  C   UNL A   1      42.377  30.293  35.732  1.00  0.00     0.049 A 
ATOM     55  C   UNL A   1      38.217  32.950  33.095  1.00  0.00     0.074 A 
ATOM     56  C   UNL A   1      42.750  30.793  36.967  1.00  0.00     0.029 A 
ATOM     57  N   UNL A   1      41.332  31.087  35.282  1.00  0.00    -0.354 N 
ATOM     58  N   UNL A   1      39.172  32.438  33.832  1.00  0.00    -0.248 NA
ATOM     59  C   UNL A   1      37.506  34.072  33.725  1.00  0.00     0.031 C 
ATOM     60  C   UNL A   1      41.894  31.852  37.289  1.00  0.00     0.029 A 
ATOM     61  C   UNL A   1      41.028  32.054  36.227  1.00  0.00     0.049 A 
ATOM     62  H   UNL A   1      40.874  30.980  34.417  1.00  0.00     0.167 HD
ATOM     63  C   UNL A   1      39.195  33.190  35.002  1.00  0.00     0.074 A 
ATOM     64  C   UNL A   1      38.167  34.201  34.868  1.00  0.00     0.031 C 
ATOM     65  C   UNL A   1      39.999  33.057  36.086  1.00  0.00     0.037 A 
BRANCH  52  66
ATOM     66  C   UNL A   1      44.010  28.357  35.685  1.00  0.00     0.058 A 
ATOM     67  C   UNL A   1      45.372  28.636  35.486  1.00  0.00     0.135 A 
ATOM     68  C   UNL A   1      43.681  27.303  36.553  1.00  0.00     0.135 A 
ATOM     69  F   UNL A   1      45.746  29.626  34.661  1.00  0.00    -0.206 F 
ATOM     70  C   UNL A   1      46.367  27.873  36.088  1.00  0.00     0.059 A 
ATOM     71  C   UNL A   1      44.660  26.547  37.192  1.00  0.00     0.059 A 
ATOM     72  F   UNL A   1      42.395  26.994  36.786  1.00  0.00    -0.206 F 
ATOM     73  C   UNL A   1      46.001  26.827  36.936  1.00  0.00     0.060 A 
BRANCH  73  74
ATOM     74  S   UNL A   1      47.306  25.834  37.692  1.00  0.00     0.124 S 
ATOM     75  O   UNL A   1      47.693  24.970  36.581  1.00  0.00    -0.237 OA
ATOM     76  O   UNL A   1      48.283  26.846  38.079  1.00  0.00    -0.237 OA
ATOM     77  O   UNL A   1      46.627  25.165  38.799  1.00  0.00    -0.744 OA
ENDBRANCH  73  74
ENDBRANCH  52  66
BRANCH  53  78
ATOM     78  C   UNL A   1      36.652  33.256  31.034  1.00  0.00     0.058 A 
ATOM     79  C   UNL A   1      36.900  34.210  30.037  1.00  0.00     0.135 A 
ATOM     80  C   UNL A   1      35.311  32.966  31.342  1.00  0.00     0.135 A 
ATOM     81  F   UNL A   1      38.163  34.528  29.712  1.00  0.00    -0.206 F 
ATOM     82  C   UNL A   1      35.863  34.860  29.375  1.00  0.00     0.059 A 
ATOM     83  C   UNL A   1      34.259  33.582  30.675  1.00  0.00     0.059 A 
ATOM     84  F   UNL A   1      35.019  32.047  32.275  1.00  0.00    -0.206 F 
ATOM     85  C   UNL A   1      34.544  34.532  29.696  1.00  0.00     0.060 A 
BRANCH  85  86
ATOM     86  S   UNL A   1      33.207  35.329  28.781  1.00  0.00     0.124 S 
ATOM     87  O   UNL A   1      33.946  36.227  27.901  1.00  0.00    -0.237 OA
ATOM     88  O   UNL A   1      32.559  34.192  28.136  1.00  0.00    -0.237 OA
ATOM     89  O   UNL A   1      32.424  35.977  29.830  1.00  0.00    -0.744 OA
ENDBRANCH  85  86
ENDBRANCH  53  78
BRANCH  65  90
ATOM     90  C   UNL A   1      39.824  34.045  37.210  1.00  0.00     0.058 A 
ATOM     91  C   UNL A   1      40.390  35.329  37.164  1.00  0.00     0.135 A 
ATOM     92  C   UNL A   1      39.033  33.721  38.324  1.00  0.00     0.135 A 
ATOM     93  F   UNL A   1      41.161  35.691  36.126  1.00  0.00    -0.206 F 
ATOM     94  C   UNL A   1      40.199  36.246  38.192  1.00  0.00     0.059 A 
ATOM     95  C   UNL A   1      38.803  34.633  39.350  1.00  0.00     0.059 A 
ATOM     96  F   UNL A   1      38.460  32.510  38.417  1.00  0.00    -0.206 F 
ATOM     97  C   UNL A   1      39.400  35.890  39.281  1.00  0.00     0.060 A 
BRANCH  97  98
ATOM     98  S   UNL A   1      39.132  37.103  40.592  1.00  0.00     0.124 S 
ATOM     99  O   UNL A   1      38.556  36.275  41.646  1.00  0.00    -0.237 OA
ATOM    100  O   UNL A   1      40.483  37.596  40.840  1.00  0.00    -0.237 OA
ATOM    101  O   UNL A   1      38.221  38.067  39.981  1.00  0.00    -0.744 OA
ENDBRANCH  97  98
ENDBRANCH  65  90
ENDBRANCH  39  40
ENDBRANCH  31  34
ENDBRANCH  29  30
ENDBRANCH  28  29
ENDBRANCH  27  28
ENDBRANCH  26  27
ENDBRANCH   1  26
TORSDOF 21
ENDMDL
MODEL 2
REMARK VINA RESULT:     -11.2      1.270      2.383
REMARK SMILES Cc1nc(SCc2ccccc2)[nH]c(=O)c1CCC(=O)NCCCCCCNC(=O)c1ccc(-c2c3nc(c(-c4c(F)cc(S(=O)(=O)[O-])cc4F)c4ccc([nH]4)c(-c4c(F)cc(S(=O)(=O)[O-])cc4F)c4nc(c(-c5c(F)cc(S(=O)(=O)[O-])cc5F)c5ccc2[nH]5)C=C4)C=C3)cc1
REMARK SMILES IDX 23 1 22 2 21 3 19 4 20 5 18 7 17 8 16 9 1 10 2 11 3 12 4 13
REMARK SMILES IDX 14 14 13 15 15 16 5 18 6 19 7 20 8 21 12 22 9 23 11 24 10 25
REMARK SMILES IDX 24 26 25 27 26 28 27 29 28 30 29 31 30 33 31 34 32 35 96 36
REMARK SMILES IDX 33 37 95 38 34 39 35 40 36 41 89 42 37 43 94 44 88 45 90 46
REMARK SMILES IDX 38 47 93 48 87 49 86 50 39 52 73 53 52 54 72 55 53 56 56 57
REMARK SMILES IDX 71 58 91 59 54 60 55 61 70 63 92 64 57 65 40 66 41 67 50 68
REMARK SMILES IDX 42 69 43 70 49 71 51 72 44 73 45 74 46 75 47 76 48 77 74 78
REMARK SMILES IDX 75 79 84 80 76 81 77 82 83 83 85 84 78 85 79 86 80 87 81 88
REMARK SMILES IDX 82 89 58 90 59 91 68 92 60 93 61 94 67 95 69 96 62 97 63 98
REMARK SMILES IDX 64 99 65 100 66 101
REMARK H PARENT 21 6 13 17 28 32 90 51 56 62
REMARK Flexibility Score: inf
ROOT
ATOM      1  C   UNL A   1      36.287  21.863  25.648  1.00  0.00     0.021 C 
ENDROOT
BRANCH   1   2
ATOM      2  C   UNL A   1      34.961  21.464  26.311  1.00  0.00     0.116 C 
BRANCH   2   3
ATOM      3  N   UNL A   1      34.157  20.648  25.412  1.00  0.00    -0.356 N 
ATOM      4  C   UNL A   1      33.484  20.953  24.269  1.00  0.00     0.220 C 
ATOM      5  O   UNL A   1      32.776  20.079  23.762  1.00  0.00    -0.275 OA
ATOM      6  H   UNL A   1      34.088  19.702  25.681  1.00  0.00     0.163 HD
BRANCH   4   7
ATOM      7  C   UNL A   1      33.646  22.299  23.584  1.00  0.00     0.105 C 
BRANCH   7   8
ATOM      8  C   UNL A   1      32.314  23.021  23.303  1.00  0.00     0.053 C 
BRANCH   8   9
ATOM      9  C   UNL A   1      32.329  24.451  23.787  1.00  0.00     0.039 A 
ATOM     10  C   UNL A   1      32.042  24.001  26.235  1.00  0.00     0.067 C 
ATOM     11  C   UNL A   1      32.161  24.919  25.044  1.00  0.00     0.049 A 
ATOM     12  N   UNL A   1      31.919  26.255  25.337  1.00  0.00    -0.229 NA
ATOM     13  C   UNL A   1      31.804  27.059  24.338  1.00  0.00     0.168 A 
ATOM     14  C   UNL A   1      32.556  25.477  22.750  1.00  0.00     0.254 A 
ATOM     15  N   UNL A   1      32.144  26.723  23.072  1.00  0.00    -0.301 N 
ATOM     16  O   UNL A   1      33.038  25.207  21.654  1.00  0.00    -0.269 OA
ATOM     17  H   UNL A   1      32.091  27.406  22.365  1.00  0.00     0.172 HD
BRANCH  13  18
ATOM     18  S   UNL A   1      31.169  28.666  24.349  1.00  0.00    -0.083 SA
BRANCH  18  19
ATOM     19  C   UNL A   1      29.977  28.765  23.010  1.00  0.00     0.113 C 
BRANCH  19  20
ATOM     20  C   UNL A   1      29.190  30.031  22.729  1.00  0.00    -0.038 A 
ATOM     21  C   UNL A   1      28.689  30.225  21.427  1.00  0.00     0.004 A 
ATOM     22  C   UNL A   1      29.108  31.118  23.608  1.00  0.00     0.004 A 
ATOM     23  C   UNL A   1      28.197  31.466  21.012  1.00  0.00     0.000 A 
ATOM     24  C   UNL A   1      28.637  32.367  23.193  1.00  0.00     0.000 A 
ATOM     25  C   UNL A   1      28.197  32.546  21.888  1.00  0.00     0.000 A 
ENDBRANCH  19  20
ENDBRANCH  18  19
ENDBRANCH  13  18
ENDBRANCH   8   9
ENDBRANCH   7   8
ENDBRANCH   4   7
ENDBRANCH   2   3
ENDBRANCH   1   2
BRANCH   1  26
ATOM     26  C   UNL A   1      36.589  23.358  25.544  1.00  0.00     0.002 C 
BRANCH  26  27
ATOM     27  C   UNL A   1      37.889  23.841  26.191  1.00  0.00     0.002 C 
BRANCH  27  28
ATOM     28  C   UNL A   1      39.023  22.818  26.319  1.00  0.00     0.021 C 
BRANCH  28  29
ATOM     29  C   UNL A   1      40.329  23.316  26.936  1.00  0.00     0.116 C 
BRANCH  29  30
ATOM     30  N   UNL A   1      41.157  24.059  26.005  1.00  0.00    -0.352 N 
ATOM     31  C   UNL A   1      41.603  25.357  26.039  1.00  0.00     0.251 C 
ATOM     32  H   UNL A   1      41.449  23.546  25.218  1.00  0.00     0.163 HD
ATOM     33  O   UNL A   1      42.166  25.816  25.047  1.00  0.00    -0.269 OA
BRANCH  31  34
ATOM     34  C   UNL A   1      41.404  26.216  27.230  1.00  0.00     0.039 A 
ATOM     35  C   UNL A   1      42.165  27.384  27.337  1.00  0.00     0.014 A 
ATOM     36  C   UNL A   1      40.538  25.858  28.268  1.00  0.00     0.014 A 
ATOM     37  C   UNL A   1      42.021  28.216  28.453  1.00  0.00     0.010 A 
ATOM     38  C   UNL A   1      40.348  26.721  29.350  1.00  0.00     0.010 A 
ATOM     39  C   UNL A   1      41.090  27.908  29.457  1.00  0.00    -0.014 A 
BRANCH  39  40
ATOM     40  C   UNL A   1      40.884  28.827  30.611  1.00  0.00     0.031 A 
ATOM     41  C   UNL A   1      41.729  28.709  31.850  1.00  0.00     0.074 A 
ATOM     42  C   UNL A   1      39.906  29.753  30.555  1.00  0.00     0.049 A 
ATOM     43  N   UNL A   1      41.675  29.406  32.958  1.00  0.00    -0.248 NA
ATOM     44  C   UNL A   1      42.756  27.656  31.857  1.00  0.00     0.031 C 
ATOM     45  C   UNL A   1      38.995  29.949  29.426  1.00  0.00     0.029 A 
ATOM     46  N   UNL A   1      39.512  30.701  31.467  1.00  0.00    -0.354 N 
ATOM     47  C   UNL A   1      42.652  28.876  33.792  1.00  0.00     0.074 A 
ATOM     48  C   UNL A   1      43.246  27.762  33.084  1.00  0.00     0.031 C 
ATOM     49  C   UNL A   1      38.166  30.968  29.702  1.00  0.00     0.029 A 
ATOM     50  C   UNL A   1      38.457  31.472  31.042  1.00  0.00     0.049 A 
ATOM     51  H   UNL A   1      39.945  30.818  32.343  1.00  0.00     0.167 HD
ATOM     52  C   UNL A   1      43.033  29.289  35.026  1.00  0.00     0.037 A 
ATOM     53  C   UNL A   1      37.789  32.467  31.659  1.00  0.00     0.037 A 
ATOM     54  C   UNL A   1      42.443  30.404  35.725  1.00  0.00     0.049 A 
ATOM     55  C   UNL A   1      38.216  32.899  33.036  1.00  0.00     0.074 A 
ATOM     56  C   UNL A   1      42.792  30.929  36.957  1.00  0.00     0.029 A 
ATOM     57  N   UNL A   1      41.376  31.159  35.261  1.00  0.00    -0.354 N 
ATOM     58  N   UNL A   1      39.182  32.426  33.785  1.00  0.00    -0.248 NA
ATOM     59  C   UNL A   1      37.466  34.004  33.650  1.00  0.00     0.031 C 
ATOM     60  C   UNL A   1      41.901  31.963  37.263  1.00  0.00     0.029 A 
ATOM     61  C   UNL A   1      41.035  32.126  36.194  1.00  0.00     0.049 A 
ATOM     62  H   UNL A   1      40.927  31.028  34.394  1.00  0.00     0.167 HD
ATOM     63  C   UNL A   1      39.175  33.190  34.946  1.00  0.00     0.074 A 
ATOM     64  C   UNL A   1      38.115  34.166  34.796  1.00  0.00     0.031 C 
ATOM     65  C   UNL A   1      39.976  33.094  36.037  1.00  0.00     0.037 A 
BRANCH  52  66
ATOM     66  C   UNL A   1      44.137  28.521  35.708  1.00  0.00     0.058 A 
ATOM     67  C   UNL A   1      43.871  27.411  36.527  1.00  0.00     0.135 A 
ATOM     68  C   UNL A   1      45.481  28.884  35.521  1.00  0.00     0.135 A 
ATOM     69  F   UNL A   1      42.605  27.023  36.750  1.00  0.00    -0.206 F 
ATOM     70  C   UNL A   1      44.892  26.719  37.170  1.00  0.00     0.059 A 
ATOM     71  C   UNL A   1      46.521  28.186  36.127  1.00  0.00     0.059 A 
ATOM     72  F   UNL A   1      45.796  29.933  34.743  1.00  0.00    -0.206 F 
ATOM     73  C   UNL A   1      46.214  27.116  36.968  1.00  0.00     0.060 A 
BRANCH  73  74
ATOM     74  S   UNL A   1      47.524  26.220  37.826  1.00  0.00     0.124 S 
ATOM     75  O   UNL A   1      47.387  26.736  39.184  1.00  0.00    -0.237 OA
ATOM     76  O   UNL A   1      47.128  24.829  37.634  1.00  0.00    -0.237 OA
ATOM     77  O   UNL A   1      48.736  26.627  37.120  1.00  0.00    -0.744 OA
ENDBRANCH  73  74
ENDBRANCH  52  66
BRANCH  53  78
ATOM     78  C   UNL A   1      36.655  33.133  30.963  1.00  0.00     0.058 A 
ATOM     79  C   UNL A   1      35.331  32.940  31.385  1.00  0.00     0.135 A 
ATOM     80  C   UNL A   1      36.875  34.005  29.883  1.00  0.00     0.135 A 
ATOM     81  F   UNL A   1      35.067  32.110  32.406  1.00  0.00    -0.206 F 
ATOM     82  C   UNL A   1      34.266  33.578  30.759  1.00  0.00     0.059 A 
ATOM     83  C   UNL A   1      35.829  34.675  29.260  1.00  0.00     0.059 A 
ATOM     84  F   UNL A   1      38.125  34.239  29.452  1.00  0.00    -0.206 F 
ATOM     85  C   UNL A   1      34.527  34.451  29.701  1.00  0.00     0.060 A 
BRANCH  85  86
ATOM     86  S   UNL A   1      33.143  35.329  28.942  1.00  0.00     0.124 S 
ATOM     87  O   UNL A   1      32.577  34.298  28.079  1.00  0.00    -0.237 OA
ATOM     88  O   UNL A   1      32.343  35.701  30.104  1.00  0.00    -0.237 OA
ATOM     89  O   UNL A   1      33.791  36.442  28.253  1.00  0.00    -0.744 OA
ENDBRANCH  85  86
ENDBRANCH  53  78
BRANCH  65  90
ATOM     90  C   UNL A   1      39.762  34.087  37.149  1.00  0.00     0.058 A 
ATOM     91  C   UNL A   1      38.954  33.796  38.259  1.00  0.00     0.135 A 
ATOM     92  C   UNL A   1      40.419  35.329  37.129  1.00  0.00     0.135 A 
ATOM     93  F   UNL A   1      38.297  32.627  38.329  1.00  0.00    -0.206 F 
ATOM     94  C   UNL A   1      38.786  34.707  39.297  1.00  0.00     0.059 A 
ATOM     95  C   UNL A   1      40.290  36.243  38.170  1.00  0.00     0.059 A 
ATOM     96  F   UNL A   1      41.212  35.658  36.095  1.00  0.00    -0.206 F 
ATOM     97  C   UNL A   1      39.461  35.929  39.244  1.00  0.00     0.060 A 
BRANCH  97  98
ATOM     98  S   UNL A   1      39.261  37.088  40.615  1.00  0.00     0.124 S 
ATOM     99  O   UNL A   1      38.331  38.057  40.046  1.00  0.00    -0.237 OA
ATOM    100  O   UNL A   1      38.722  36.234  41.668  1.00  0.00    -0.237 OA
ATOM    101  O   UNL A   1      40.617  37.578  40.846  1.00  0.00    -0.744 OA
ENDBRANCH  97  98
ENDBRANCH  65  90
ENDBRANCH  39  40
ENDBRANCH  31  34
ENDBRANCH  29  30
ENDBRANCH  28  29
ENDBRANCH  27  28
ENDBRANCH  26  27
ENDBRANCH   1  26
TORSDOF 21
ENDMDL
MODEL 3
REMARK VINA RESULT:     -10.7      1.071      8.270
REMARK SMILES Cc1nc(SCc2ccccc2)[nH]c(=O)c1CCC(=O)NCCCCCCNC(=O)c1ccc(-c2c3nc(c(-c4c(F)cc(S(=O)(=O)[O-])cc4F)c4ccc([nH]4)c(-c4c(F)cc(S(=O)(=O)[O-])cc4F)c4nc(c(-c5c(F)cc(S(=O)(=O)[O-])cc5F)c5ccc2[nH]5)C=C4)C=C3)cc1
REMARK SMILES IDX 23 1 22 2 21 3 19 4 20 5 18 7 17 8 16 9 1 10 2 11 3 12 4 13
REMARK SMILES IDX 14 14 13 15 15 16 5 18 6 19 7 20 8 21 12 22 9 23 11 24 10 25
REMARK SMILES IDX 24 26 25 27 26 28 27 29 28 30 29 31 30 33 31 34 32 35 96 36
REMARK SMILES IDX 33 37 95 38 34 39 35 40 36 41 89 42 37 43 94 44 88 45 90 46
REMARK SMILES IDX 38 47 93 48 87 49 86 50 39 52 73 53 52 54 72 55 53 56 56 57
REMARK SMILES IDX 71 58 91 59 54 60 55 61 70 63 92 64 57 65 40 66 41 67 50 68
REMARK SMILES IDX 42 69 43 70 49 71 51 72 44 73 45 74 46 75 47 76 48 77 74 78
REMARK SMILES IDX 75 79 84 80 76 81 77 82 83 83 85 84 78 85 79 86 80 87 81 88
REMARK SMILES IDX 82 89 58 90 59 91 68 92 60 93 61 94 67 95 69 96 62 97 63 98
REMARK SMILES IDX 64 99 65 100 66 101
REMARK H PARENT 21 6 13 17 28 32 90 51 56 62
REMARK Flexibility Score: inf
ROOT
ATOM      1  C   UNL A   1      35.970  22.030  26.121  1.00  0.00     0.021 C 
ENDROOT
BRANCH   1   2
ATOM      2  C   UNL A   1      34.650  21.906  26.896  1.00  0.00     0.116 C 
BRANCH   2   3
ATOM      3  N   UNL A   1      33.921  20.713  26.490  1.00  0.00    -0.356 N 
ATOM      4  C   UNL A   1      33.249  20.407  25.345  1.00  0.00     0.220 C 
ATOM      5  O   UNL A   1      32.612  19.351  25.312  1.00  0.00    -0.275 OA
ATOM      6  H   UNL A   1      33.912  19.998  27.167  1.00  0.00     0.163 HD
BRANCH   4   7
ATOM      7  C   UNL A   1      33.331  21.291  24.113  1.00  0.00     0.105 C 
BRANCH   7   8
ATOM      8  C   UNL A   1      32.166  22.292  23.983  1.00  0.00     0.053 C 
BRANCH   8   9
ATOM      9  C   UNL A   1      32.649  23.719  23.909  1.00  0.00     0.039 A 
ATOM     10  C   UNL A   1      32.274  24.349  26.304  1.00  0.00     0.067 C 
ATOM     11  C   UNL A   1      32.662  24.660  24.880  1.00  0.00     0.049 A 
ATOM     12  N   UNL A   1      32.869  26.011  24.635  1.00  0.00    -0.229 NA
ATOM     13  C   UNL A   1      33.002  26.366  23.405  1.00  0.00     0.168 A 
ATOM     14  C   UNL A   1      33.177  24.151  22.599  1.00  0.00     0.254 A 
ATOM     15  N   UNL A   1      33.194  25.486  22.396  1.00  0.00    -0.301 N 
ATOM     16  O   UNL A   1      33.528  23.350  21.736  1.00  0.00    -0.269 OA
ATOM     17  H   UNL A   1      33.351  25.829  21.486  1.00  0.00     0.172 HD
BRANCH  13  18
ATOM     18  S   UNL A   1      32.918  27.966  22.757  1.00  0.00    -0.083 SA
BRANCH  18  19
ATOM     19  C   UNL A   1      31.653  28.839  23.684  1.00  0.00     0.113 C 
BRANCH  19  20
ATOM     20  C   UNL A   1      30.185  28.755  23.312  1.00  0.00    -0.038 A 
ATOM     21  C   UNL A   1      29.522  29.947  22.959  1.00  0.00     0.004 A 
ATOM     22  C   UNL A   1      29.389  27.619  23.500  1.00  0.00     0.004 A 
ATOM     23  C   UNL A   1      28.128  30.007  22.869  1.00  0.00     0.000 A 
ATOM     24  C   UNL A   1      27.994  27.678  23.431  1.00  0.00     0.000 A 
ATOM     25  C   UNL A   1      27.362  28.877  23.132  1.00  0.00     0.000 A 
ENDBRANCH  19  20
ENDBRANCH  18  19
ENDBRANCH  13  18
ENDBRANCH   8   9
ENDBRANCH   7   8
ENDBRANCH   4   7
ENDBRANCH   2   3
ENDBRANCH   1   2
BRANCH   1  26
ATOM     26  C   UNL A   1      36.404  23.436  25.709  1.00  0.00     0.002 C 
BRANCH  26  27
ATOM     27  C   UNL A   1      37.851  23.825  26.019  1.00  0.00     0.002 C 
BRANCH  27  28
ATOM     28  C   UNL A   1      38.780  22.710  26.510  1.00  0.00     0.021 C 
BRANCH  28  29
ATOM     29  C   UNL A   1      40.144  23.140  27.047  1.00  0.00     0.116 C 
BRANCH  29  30
ATOM     30  N   UNL A   1      40.922  23.905  26.091  1.00  0.00    -0.352 N 
ATOM     31  C   UNL A   1      41.354  25.208  26.122  1.00  0.00     0.251 C 
ATOM     32  H   UNL A   1      41.184  23.406  25.284  1.00  0.00     0.163 HD
ATOM     33  O   UNL A   1      41.867  25.687  25.113  1.00  0.00    -0.269 OA
BRANCH  31  34
ATOM     34  C   UNL A   1      41.198  26.049  27.333  1.00  0.00     0.039 A 
ATOM     35  C   UNL A   1      42.140  27.056  27.564  1.00  0.00     0.014 A 
ATOM     36  C   UNL A   1      40.189  25.819  28.272  1.00  0.00     0.014 A 
ATOM     37  C   UNL A   1      42.041  27.863  28.702  1.00  0.00     0.010 A 
ATOM     38  C   UNL A   1      40.053  26.666  29.376  1.00  0.00     0.010 A 
ATOM     39  C   UNL A   1      40.979  27.694  29.606  1.00  0.00    -0.014 A 
BRANCH  39  40
ATOM     40  C   UNL A   1      40.831  28.597  30.781  1.00  0.00     0.031 A 
ATOM     41  C   UNL A   1      39.794  29.688  30.788  1.00  0.00     0.074 A 
ATOM     42  C   UNL A   1      41.659  28.456  31.835  1.00  0.00     0.049 A 
ATOM     43  N   UNL A   1      39.539  30.580  31.712  1.00  0.00    -0.248 NA
ATOM     44  C   UNL A   1      38.946  29.807  29.592  1.00  0.00     0.031 C 
ATOM     45  C   UNL A   1      42.729  27.462  31.939  1.00  0.00     0.029 A 
ATOM     46  N   UNL A   1      41.734  29.149  33.018  1.00  0.00    -0.354 N 
ATOM     47  C   UNL A   1      38.509  31.367  31.211  1.00  0.00     0.074 A 
ATOM     48  C   UNL A   1      38.224  30.881  29.876  1.00  0.00     0.031 C 
ATOM     49  C   UNL A   1      43.336  27.593  33.128  1.00  0.00     0.029 A 
ATOM     50  C   UNL A   1      42.730  28.704  33.856  1.00  0.00     0.049 A 
ATOM     51  H   UNL A   1      41.133  29.894  33.245  1.00  0.00     0.167 HD
ATOM     52  C   UNL A   1      37.847  32.388  31.810  1.00  0.00     0.037 A 
ATOM     53  C   UNL A   1      43.120  29.144  35.069  1.00  0.00     0.037 A 
ATOM     54  C   UNL A   1      38.129  32.863  33.142  1.00  0.00     0.049 A 
ATOM     55  C   UNL A   1      42.385  30.290  35.711  1.00  0.00     0.074 A 
ATOM     56  C   UNL A   1      37.484  33.859  33.855  1.00  0.00     0.029 A 
ATOM     57  N   UNL A   1      39.146  32.387  33.958  1.00  0.00    -0.354 N 
ATOM     58  N   UNL A   1      41.373  30.982  35.246  1.00  0.00    -0.248 NA
ATOM     59  C   UNL A   1      42.839  30.710  37.044  1.00  0.00     0.031 C 
ATOM     60  C   UNL A   1      38.144  34.024  35.077  1.00  0.00     0.029 A 
ATOM     61  C   UNL A   1      39.163  33.088  35.155  1.00  0.00     0.049 A 
ATOM     62  H   UNL A   1      39.763  31.658  33.723  1.00  0.00     0.167 HD
ATOM     63  C   UNL A   1      41.053  31.902  36.238  1.00  0.00     0.074 A 
ATOM     64  C   UNL A   1      41.971  31.670  37.334  1.00  0.00     0.031 C 
ATOM     65  C   UNL A   1      40.083  32.851  36.242  1.00  0.00     0.037 A 
BRANCH  52  66
ATOM     66  C   UNL A   1      36.757  33.069  31.024  1.00  0.00     0.058 A 
ATOM     67  C   UNL A   1      35.399  32.905  31.345  1.00  0.00     0.135 A 
ATOM     68  C   UNL A   1      37.074  33.917  29.950  1.00  0.00     0.135 A 
ATOM     69  F   UNL A   1      35.035  32.100  32.355  1.00  0.00    -0.206 F 
ATOM     70  C   UNL A   1      34.396  33.520  30.603  1.00  0.00     0.059 A 
ATOM     71  C   UNL A   1      36.088  34.569  29.215  1.00  0.00     0.059 A 
ATOM     72  F   UNL A   1      38.355  34.117  29.601  1.00  0.00    -0.206 F 
ATOM     73  C   UNL A   1      34.750  34.347  29.536  1.00  0.00     0.060 A 
BRANCH  73  74
ATOM     74  S   UNL A   1      33.434  35.121  28.572  1.00  0.00     0.124 S 
ATOM     75  O   UNL A   1      34.140  36.247  27.970  1.00  0.00    -0.237 OA
ATOM     76  O   UNL A   1      33.049  34.051  27.657  1.00  0.00    -0.237 OA
ATOM     77  O   UNL A   1      32.436  35.472  29.577  1.00  0.00    -0.744 OA
ENDBRANCH  73  74
ENDBRANCH  52  66
BRANCH  53  78
ATOM     78  C   UNL A   1      44.257  28.479  35.761  1.00  0.00     0.058 A 
ATOM     79  C   UNL A   1      44.044  27.420  36.655  1.00  0.00     0.135 A 
ATOM     80  C   UNL A   1      45.585  28.867  35.513  1.00  0.00     0.135 A 
ATOM     81  F   UNL A   1      42.794  27.018  36.932  1.00  0.00    -0.206 F 
ATOM     82  C   UNL A   1      45.101  26.774  37.287  1.00  0.00     0.059 A 
ATOM     83  C   UNL A   1      46.660  28.219  36.111  1.00  0.00     0.059 A 
ATOM     84  F   UNL A   1      45.846  29.862  34.651  1.00  0.00    -0.206 F 
ATOM     85  C   UNL A   1      46.408  27.176  37.001  1.00  0.00     0.060 A 
BRANCH  85  86
ATOM     86  S   UNL A   1      47.776  26.284  37.771  1.00  0.00     0.124 S 
ATOM     87  O   UNL A   1      47.256  26.050  39.114  1.00  0.00    -0.237 OA
ATOM     88  O   UNL A   1      47.894  25.108  36.916  1.00  0.00    -0.237 OA
ATOM     89  O   UNL A   1      48.885  27.231  37.682  1.00  0.00    -0.744 OA
ENDBRANCH  85  86
ENDBRANCH  53  78
BRANCH  65  90
ATOM     90  C   UNL A   1      39.939  33.697  37.480  1.00  0.00     0.058 A 
ATOM     91  C   UNL A   1      39.036  33.367  38.503  1.00  0.00     0.135 A 
ATOM     92  C   UNL A   1      40.756  34.823  37.669  1.00  0.00     0.135 A 
ATOM     93  F   UNL A   1      38.225  32.305  38.372  1.00  0.00    -0.206 F 
ATOM     94  C   UNL A   1      38.930  34.138  39.656  1.00  0.00     0.059 A 
ATOM     95  C   UNL A   1      40.690  35.590  38.829  1.00  0.00     0.059 A 
ATOM     96  F   UNL A   1      41.645  35.180  36.728  1.00  0.00    -0.206 F 
ATOM     97  C   UNL A   1      39.764  35.247  39.812  1.00  0.00     0.060 A 
BRANCH  97  98
ATOM     98  S   UNL A   1      39.641  36.216  41.331  1.00  0.00     0.124 S 
ATOM     99  O   UNL A   1      38.681  37.246  40.945  1.00  0.00    -0.237 OA
ATOM    100  O   UNL A   1      39.159  35.230  42.292  1.00  0.00    -0.237 OA
ATOM    101  O   UNL A   1      41.008  36.681  41.549  1.00  0.00    -0.744 OA
ENDBRANCH  97  98
ENDBRANCH  65  90
ENDBRANCH  39  40
ENDBRANCH  31  34
ENDBRANCH  29  30
ENDBRANCH  28  29
ENDBRANCH  27  28
ENDBRANCH  26  27
ENDBRANCH   1  26
TORSDOF 21
ENDMDL
