MODEL 1
REMARK VINA RESULT:      -9.2      0.000      0.000
REMARK SMILES COc1cccc(-n2cc(C(=O)NCCCCCCNC(=O)c3ccc(-c4c5nc(c(-c6c(F)cc(S(=O)(=O)[O-])cc6F)c6ccc([nH]6)c(-c6c(F)cc(S(=O)(=O)[O-])cc6F)c6nc(c(-c7c(F)cc(S(=O)(=O)[O-])cc7F)c7ccc4[nH]7)C=C6)C=C5)cc3)c3c2[C@H](c2cc(OC)c(OC)c(OC)c2)CC(=O)N3)c1
REMARK SMILES IDX 17 1 16 2 15 3 14 4 13 5 11 6 12 7 10 9 8 10 9 11 90 12
REMARK SMILES IDX 89 13 91 14 107 15 104 16 105 17 106 19 7 20 3 21 4 22
REMARK SMILES IDX 108 23 5 24 6 25 2 26 1 27 92 28 93 29 103 30 94 31 100 32
REMARK SMILES IDX 97 33 95 34 96 35 101 36 102 37 98 38 99 39 18 40 19 41
REMARK SMILES IDX 20 42 21 43 22 45 23 46 24 47 88 48 25 49 87 50 26 51 27 52
REMARK SMILES IDX 28 53 81 54 29 55 86 56 80 57 82 58 30 59 85 60 79 61 78 62
REMARK SMILES IDX 31 64 65 65 44 66 64 67 45 68 48 69 63 70 83 71 46 72 47 73
REMARK SMILES IDX 62 75 84 76 49 77 32 78 33 79 42 80 34 81 35 82 41 83 43 84
REMARK SMILES IDX 36 85 37 86 38 87 39 88 40 89 66 90 67 91 76 92 68 93 69 94
REMARK SMILES IDX 75 95 77 96 70 97 71 98 72 99 73 100 74 101 50 102 51 103
REMARK SMILES IDX 60 104 52 105 53 106 59 107 61 108 54 109 55 110 56 111
REMARK SMILES IDX 57 112 58 113
REMARK H PARENT 13 8 107 18 20 44 82 63 48 74
REMARK Flexibility Score: inf
ROOT
ATOM      1  C   UNL A   1      36.158  32.292  28.684  1.00  0.00     0.002 C 
ENDROOT
BRANCH   1   2
ATOM      2  C   UNL A   1      36.138  30.980  27.886  1.00  0.00     0.002 C 
BRANCH   2   3
ATOM      3  C   UNL A   1      36.833  29.806  28.580  1.00  0.00     0.021 C 
BRANCH   3   4
ATOM      4  C   UNL A   1      38.306  30.074  28.907  1.00  0.00     0.116 C 
BRANCH   4   5
ATOM      5  N   UNL A   1      38.721  29.243  30.006  1.00  0.00    -0.352 N 
ATOM      6  C   UNL A   1      39.392  28.057  30.074  1.00  0.00     0.254 C 
ATOM      7  O   UNL A   1      39.581  27.639  31.221  1.00  0.00    -0.269 OA
ATOM      8  H   UNL A   1      38.470  29.603  30.886  1.00  0.00     0.163 HD
BRANCH   6   9
ATOM      9  C   UNL A   1      39.936  27.334  28.918  1.00  0.00     0.081 A 
ATOM     10  N   UNL A   1      40.047  25.509  27.562  1.00  0.00    -0.317 N 
ATOM     11  C   UNL A   1      39.419  26.072  28.640  1.00  0.00     0.107 A 
ATOM     12  C   UNL A   1      41.001  26.392  27.108  1.00  0.00     0.055 A 
ATOM     13  C   UNL A   1      40.856  27.559  27.845  1.00  0.00     0.076 A 
ATOM     14  C   UNL A   1      41.922  26.240  25.909  1.00  0.00     0.078 C 
ATOM     15  N   UNL A   1      41.560  28.670  27.441  1.00  0.00    -0.324 N 
ATOM     16  C   UNL A   1      42.055  27.630  25.258  1.00  0.00     0.115 C 
ATOM     17  C   UNL A   1      42.280  28.733  26.278  1.00  0.00     0.225 C 
ATOM     18  H   UNL A   1      41.544  29.464  28.021  1.00  0.00     0.170 HD
ATOM     19  O   UNL A   1      43.019  29.693  26.063  1.00  0.00    -0.275 OA
BRANCH  10  20
ATOM     20  C   UNL A   1      39.682  24.255  27.044  1.00  0.00     0.049 A 
ATOM     21  C   UNL A   1      38.104  22.862  25.870  1.00  0.00     0.120 A 
ATOM     22  C   UNL A   1      38.962  21.773  26.065  1.00  0.00     0.046 A 
ATOM     23  C   UNL A   1      38.468  24.118  26.360  1.00  0.00     0.073 A 
ATOM     24  C   UNL A   1      40.143  21.911  26.796  1.00  0.00     0.006 A 
ATOM     25  C   UNL A   1      40.482  23.150  27.327  1.00  0.00     0.027 A 
BRANCH  21  26
ATOM     26  O   UNL A   1      36.948  22.553  25.210  1.00  0.00    -0.497 OA
ATOM     27  C   UNL A   1      35.995  21.757  25.903  1.00  0.00     0.278 C 
ENDBRANCH  21  26
ENDBRANCH  10  20
BRANCH  14  28
ATOM     28  C   UNL A   1      43.274  25.596  26.251  1.00  0.00    -0.031 A 
ATOM     29  C   UNL A   1      43.788  25.749  27.540  1.00  0.00     0.055 A 
ATOM     30  C   UNL A   1      44.055  24.852  25.353  1.00  0.00     0.055 A 
ATOM     31  C   UNL A   1      45.093  25.369  27.873  1.00  0.00     0.164 A 
ATOM     32  C   UNL A   1      45.315  24.322  25.709  1.00  0.00     0.164 A 
ATOM     33  C   UNL A   1      45.864  24.617  26.972  1.00  0.00     0.203 A 
BRANCH  31  34
ATOM     34  O   UNL A   1      45.475  25.764  29.134  1.00  0.00    -0.493 OA
ATOM     35  C   UNL A   1      45.799  27.146  29.262  1.00  0.00     0.278 C 
ENDBRANCH  31  34
BRANCH  32  36
ATOM     36  O   UNL A   1      46.062  23.573  24.835  1.00  0.00    -0.493 OA
ATOM     37  C   UNL A   1      45.360  22.741  23.914  1.00  0.00     0.278 C 
ENDBRANCH  32  36
BRANCH  33  38
ATOM     38  O   UNL A   1      47.105  24.253  27.428  1.00  0.00    -0.490 OA
ATOM     39  C   UNL A   1      48.246  24.937  26.936  1.00  0.00     0.278 C 
ENDBRANCH  33  38
ENDBRANCH  14  28
ENDBRANCH   6   9
ENDBRANCH   4   5
ENDBRANCH   3   4
ENDBRANCH   2   3
ENDBRANCH   1   2
BRANCH   1  40
ATOM     40  C   UNL A   1      34.795  32.976  28.871  1.00  0.00     0.021 C 
BRANCH  40  41
ATOM     41  C   UNL A   1      34.889  34.266  29.671  1.00  0.00     0.116 C 
BRANCH  41  42
ATOM     42  N   UNL A   1      34.037  34.206  30.856  1.00  0.00    -0.352 N 
ATOM     43  C   UNL A   1      34.327  33.716  32.104  1.00  0.00     0.251 C 
ATOM     44  H   UNL A   1      33.128  34.568  30.744  1.00  0.00     0.163 HD
ATOM     45  O   UNL A   1      33.417  33.437  32.884  1.00  0.00    -0.269 OA
BRANCH  43  46
ATOM     46  C   UNL A   1      35.731  33.521  32.494  1.00  0.00     0.039 A 
ATOM     47  C   UNL A   1      36.311  32.251  32.413  1.00  0.00     0.014 A 
ATOM     48  C   UNL A   1      36.468  34.616  32.942  1.00  0.00     0.014 A 
ATOM     49  C   UNL A   1      37.659  32.107  32.720  1.00  0.00     0.010 A 
ATOM     50  C   UNL A   1      37.824  34.495  33.138  1.00  0.00     0.010 A 
ATOM     51  C   UNL A   1      38.415  33.237  33.065  1.00  0.00    -0.014 A 
BRANCH  51  52
ATOM     52  C   UNL A   1      39.864  33.126  33.213  1.00  0.00     0.031 A 
ATOM     53  C   UNL A   1      40.623  33.265  31.936  1.00  0.00     0.074 A 
ATOM     54  C   UNL A   1      40.483  33.141  34.413  1.00  0.00     0.049 A 
ATOM     55  N   UNL A   1      41.343  32.378  31.332  1.00  0.00    -0.248 NA
ATOM     56  C   UNL A   1      40.440  34.505  31.159  1.00  0.00     0.031 C 
ATOM     57  C   UNL A   1      39.881  33.342  35.736  1.00  0.00     0.029 A 
ATOM     58  N   UNL A   1      41.813  33.096  34.696  1.00  0.00    -0.354 N 
ATOM     59  C   UNL A   1      41.894  33.020  30.224  1.00  0.00     0.074 A 
ATOM     60  C   UNL A   1      41.151  34.241  30.061  1.00  0.00     0.031 C 
ATOM     61  C   UNL A   1      40.848  33.641  36.631  1.00  0.00     0.029 A 
ATOM     62  C   UNL A   1      42.141  33.486  35.990  1.00  0.00     0.049 A 
ATOM     63  H   UNL A   1      42.489  32.811  34.039  1.00  0.00     0.167 HD
ATOM     64  C   UNL A   1      43.079  32.613  29.686  1.00  0.00     0.037 A 
ATOM     65  C   UNL A   1      43.385  33.703  36.487  1.00  0.00     0.037 A 
ATOM     66  C   UNL A   1      43.420  31.288  30.138  1.00  0.00     0.049 A 
ATOM     67  C   UNL A   1      44.337  33.003  35.590  1.00  0.00     0.074 A 
ATOM     68  C   UNL A   1      42.823  30.045  30.059  1.00  0.00     0.029 A 
ATOM     69  N   UNL A   1      44.369  31.184  31.126  1.00  0.00    -0.354 N 
ATOM     70  N   UNL A   1      44.391  31.706  35.452  1.00  0.00    -0.248 NA
ATOM     71  C   UNL A   1      44.938  33.767  34.508  1.00  0.00     0.031 C 
ATOM     72  C   UNL A   1      43.102  29.420  31.309  1.00  0.00     0.029 A 
ATOM     73  C   UNL A   1      43.910  30.283  32.051  1.00  0.00     0.049 A 
ATOM     74  H   UNL A   1      45.225  31.669  31.162  1.00  0.00     0.167 HD
ATOM     75  C   UNL A   1      44.627  31.502  34.101  1.00  0.00     0.074 A 
ATOM     76  C   UNL A   1      45.058  32.802  33.593  1.00  0.00     0.031 C 
ATOM     77  C   UNL A   1      44.182  30.375  33.470  1.00  0.00     0.037 A 
BRANCH  64  78
ATOM     78  C   UNL A   1      44.115  33.541  29.077  1.00  0.00     0.058 A 
ATOM     79  C   UNL A   1      44.578  34.641  29.831  1.00  0.00     0.135 A 
ATOM     80  C   UNL A   1      44.446  33.571  27.703  1.00  0.00     0.135 A 
ATOM     81  F   UNL A   1      44.331  34.721  31.148  1.00  0.00    -0.206 F 
ATOM     82  C   UNL A   1      45.231  35.730  29.249  1.00  0.00     0.059 A 
ATOM     83  C   UNL A   1      45.143  34.620  27.114  1.00  0.00     0.059 A 
ATOM     84  F   UNL A   1      44.030  32.639  26.840  1.00  0.00    -0.206 F 
ATOM     85  C   UNL A   1      45.489  35.717  27.883  1.00  0.00     0.060 A 
BRANCH  85  86
ATOM     86  S   UNL A   1      46.225  37.165  27.105  1.00  0.00     0.124 S 
ATOM     87  O   UNL A   1      46.593  36.635  25.797  1.00  0.00    -0.237 OA
ATOM     88  O   UNL A   1      45.118  38.115  27.125  1.00  0.00    -0.237 OA
ATOM     89  O   UNL A   1      47.339  37.491  27.991  1.00  0.00    -0.744 OA
ENDBRANCH  85  86
ENDBRANCH  64  78
BRANCH  65  90
ATOM     90  C   UNL A   1      43.821  34.722  37.480  1.00  0.00     0.058 A 
ATOM     91  C   UNL A   1      44.416  34.345  38.698  1.00  0.00     0.135 A 
ATOM     92  C   UNL A   1      43.928  36.085  37.134  1.00  0.00     0.135 A 
ATOM     93  F   UNL A   1      44.378  33.064  39.098  1.00  0.00    -0.206 F 
ATOM     94  C   UNL A   1      45.125  35.251  39.496  1.00  0.00     0.059 A 
ATOM     95  C   UNL A   1      44.620  37.007  37.918  1.00  0.00     0.059 A 
ATOM     96  F   UNL A   1      43.443  36.543  35.969  1.00  0.00    -0.206 F 
ATOM     97  C   UNL A   1      45.240  36.579  39.085  1.00  0.00     0.060 A 
BRANCH  97  98
ATOM     98  S   UNL A   1      46.307  37.708  40.010  1.00  0.00     0.124 S 
ATOM     99  O   UNL A   1      45.607  37.809  41.287  1.00  0.00    -0.237 OA
ATOM    100  O   UNL A   1      47.575  36.988  40.034  1.00  0.00    -0.237 OA
ATOM    101  O   UNL A   1      46.300  38.923  39.198  1.00  0.00    -0.744 OA
ENDBRANCH  97  98
ENDBRANCH  65  90
BRANCH  77 102
ATOM    102  C   UNL A   1      43.737  29.210  34.318  1.00  0.00     0.058 A 
ATOM    103  C   UNL A   1      44.593  28.238  34.865  1.00  0.00     0.135 A 
ATOM    104  C   UNL A   1      42.390  29.168  34.710  1.00  0.00     0.135 A 
ATOM    105  F   UNL A   1      45.911  28.262  34.624  1.00  0.00    -0.206 F 
ATOM    106  C   UNL A   1      44.123  27.248  35.733  1.00  0.00     0.059 A 
ATOM    107  C   UNL A   1      41.906  28.212  35.599  1.00  0.00     0.059 A 
ATOM    108  F   UNL A   1      41.532  30.103  34.270  1.00  0.00    -0.206 F 
ATOM    109  C   UNL A   1      42.777  27.245  36.096  1.00  0.00     0.060 A 
BRANCH 109 110
ATOM    110  S   UNL A   1      42.182  26.013  37.274  1.00  0.00     0.124 S 
ATOM    111  O   UNL A   1      40.764  26.343  37.375  1.00  0.00    -0.237 OA
ATOM    112  O   UNL A   1      42.494  24.754  36.603  1.00  0.00    -0.237 OA
ATOM    113  O   UNL A   1      42.971  26.280  38.475  1.00  0.00    -0.744 OA
ENDBRANCH 109 110
ENDBRANCH  77 102
ENDBRANCH  51  52
ENDBRANCH  43  46
ENDBRANCH  41  42
ENDBRANCH  40  41
ENDBRANCH   1  40
TORSDOF 22
ENDMDL
MODEL 2
REMARK VINA RESULT:      -8.9      3.085     12.210
REMARK SMILES COc1cccc(-n2cc(C(=O)NCCCCCCNC(=O)c3ccc(-c4c5nc(c(-c6c(F)cc(S(=O)(=O)[O-])cc6F)c6ccc([nH]6)c(-c6c(F)cc(S(=O)(=O)[O-])cc6F)c6nc(c(-c7c(F)cc(S(=O)(=O)[O-])cc7F)c7ccc4[nH]7)C=C6)C=C5)cc3)c3c2[C@H](c2cc(OC)c(OC)c(OC)c2)CC(=O)N3)c1
REMARK SMILES IDX 17 1 16 2 15 3 14 4 13 5 11 6 12 7 10 9 8 10 9 11 90 12
REMARK SMILES IDX 89 13 91 14 107 15 104 16 105 17 106 19 7 20 3 21 4 22
REMARK SMILES IDX 108 23 5 24 6 25 2 26 1 27 92 28 93 29 103 30 94 31 100 32
REMARK SMILES IDX 97 33 95 34 96 35 101 36 102 37 98 38 99 39 18 40 19 41
REMARK SMILES IDX 20 42 21 43 22 45 23 46 24 47 88 48 25 49 87 50 26 51 27 52
REMARK SMILES IDX 28 53 81 54 29 55 86 56 80 57 82 58 30 59 85 60 79 61 78 62
REMARK SMILES IDX 31 64 65 65 44 66 64 67 45 68 48 69 63 70 83 71 46 72 47 73
REMARK SMILES IDX 62 75 84 76 49 77 32 78 33 79 42 80 34 81 35 82 41 83 43 84
REMARK SMILES IDX 36 85 37 86 38 87 39 88 40 89 66 90 67 91 76 92 68 93 69 94
REMARK SMILES IDX 75 95 77 96 70 97 71 98 72 99 73 100 74 101 50 102 51 103
REMARK SMILES IDX 60 104 52 105 53 106 59 107 61 108 54 109 55 110 56 111
REMARK SMILES IDX 57 112 58 113
REMARK H PARENT 13 8 107 18 20 44 82 63 48 74
REMARK Flexibility Score: inf
ROOT
ATOM      1  C   UNL A   1      37.439  32.889  29.561  1.00  0.00     0.002 C 
ENDROOT
BRANCH   1   2
ATOM      2  C   UNL A   1      38.110  33.454  30.822  1.00  0.00     0.002 C 
BRANCH   2   3
ATOM      3  C   UNL A   1      38.450  32.405  31.883  1.00  0.00     0.021 C 
BRANCH   3   4
ATOM      4  C   UNL A   1      37.529  32.453  33.108  1.00  0.00     0.116 C 
BRANCH   4   5
ATOM      5  N   UNL A   1      37.783  31.318  33.955  1.00  0.00    -0.352 N 
ATOM      6  C   UNL A   1      38.502  31.156  35.103  1.00  0.00     0.254 C 
ATOM      7  O   UNL A   1      38.484  30.008  35.562  1.00  0.00    -0.269 OA
ATOM      8  H   UNL A   1      37.352  30.491  33.641  1.00  0.00     0.163 HD
BRANCH   6   9
ATOM      9  C   UNL A   1      39.192  32.235  35.820  1.00  0.00     0.081 A 
ATOM     10  N   UNL A   1      40.736  33.904  35.931  1.00  0.00    -0.317 N 
ATOM     11  C   UNL A   1      40.156  32.961  35.126  1.00  0.00     0.107 A 
ATOM     12  C   UNL A   1      40.168  33.813  37.182  1.00  0.00     0.055 A 
ATOM     13  C   UNL A   1      39.137  32.888  37.092  1.00  0.00     0.076 A 
ATOM     14  C   UNL A   1      40.446  34.675  38.401  1.00  0.00     0.078 C 
ATOM     15  N   UNL A   1      38.280  32.770  38.161  1.00  0.00    -0.324 N 
ATOM     16  C   UNL A   1      39.103  34.887  39.125  1.00  0.00     0.115 C 
ATOM     17  C   UNL A   1      38.296  33.607  39.245  1.00  0.00     0.225 C 
ATOM     18  H   UNL A   1      37.617  32.043  38.146  1.00  0.00     0.170 HD
ATOM     19  O   UNL A   1      37.618  33.342  40.237  1.00  0.00    -0.275 OA
BRANCH  10  20
ATOM     20  C   UNL A   1      41.709  34.803  35.462  1.00  0.00     0.049 A 
ATOM     21  C   UNL A   1      43.990  35.268  34.838  1.00  0.00     0.120 A 
ATOM     22  C   UNL A   1      43.619  36.593  34.576  1.00  0.00     0.046 A 
ATOM     23  C   UNL A   1      43.026  34.361  35.282  1.00  0.00     0.073 A 
ATOM     24  C   UNL A   1      42.316  37.033  34.812  1.00  0.00     0.006 A 
ATOM     25  C   UNL A   1      41.367  36.143  35.301  1.00  0.00     0.027 A 
BRANCH  21  26
ATOM     26  O   UNL A   1      45.317  35.009  34.640  1.00  0.00    -0.497 OA
ATOM     27  C   UNL A   1      45.821  35.160  33.319  1.00  0.00     0.278 C 
ENDBRANCH  21  26
ENDBRANCH  10  20
BRANCH  14  28
ATOM     28  C   UNL A   1      41.547  34.113  39.313  1.00  0.00    -0.031 A 
ATOM     29  C   UNL A   1      42.681  34.888  39.560  1.00  0.00     0.055 A 
ATOM     30  C   UNL A   1      41.508  32.853  39.930  1.00  0.00     0.055 A 
ATOM     31  C   UNL A   1      43.810  34.375  40.209  1.00  0.00     0.164 A 
ATOM     32  C   UNL A   1      42.573  32.366  40.721  1.00  0.00     0.164 A 
ATOM     33  C   UNL A   1      43.759  33.118  40.832  1.00  0.00     0.203 A 
BRANCH  31  34
ATOM     34  O   UNL A   1      44.887  35.231  40.198  1.00  0.00    -0.493 OA
ATOM     35  C   UNL A   1      44.839  36.275  41.167  1.00  0.00     0.278 C 
ENDBRANCH  31  34
BRANCH  32  36
ATOM     36  O   UNL A   1      42.517  31.144  41.343  1.00  0.00    -0.493 OA
ATOM     37  C   UNL A   1      42.332  31.132  42.756  1.00  0.00     0.278 C 
ENDBRANCH  32  36
BRANCH  33  38
ATOM     38  O   UNL A   1      44.904  32.743  41.485  1.00  0.00    -0.490 OA
ATOM     39  C   UNL A   1      45.861  31.954  40.798  1.00  0.00     0.278 C 
ENDBRANCH  33  38
ENDBRANCH  14  28
ENDBRANCH   6   9
ENDBRANCH   4   5
ENDBRANCH   3   4
ENDBRANCH   2   3
ENDBRANCH   1   2
BRANCH   1  40
ATOM     40  C   UNL A   1      35.923  33.118  29.457  1.00  0.00     0.021 C 
BRANCH  40  41
ATOM     41  C   UNL A   1      35.402  32.974  28.035  1.00  0.00     0.116 C 
BRANCH  41  42
ATOM     42  N   UNL A   1      34.462  31.860  27.937  1.00  0.00    -0.352 N 
ATOM     43  C   UNL A   1      34.722  30.522  27.791  1.00  0.00     0.251 C 
ATOM     44  H   UNL A   1      33.509  32.105  27.984  1.00  0.00     0.163 HD
ATOM     45  O   UNL A   1      33.837  29.761  27.398  1.00  0.00    -0.269 OA
BRANCH  43  46
ATOM     46  C   UNL A   1      36.064  30.009  28.100  1.00  0.00     0.039 A 
ATOM     47  C   UNL A   1      37.081  30.086  27.143  1.00  0.00     0.014 A 
ATOM     48  C   UNL A   1      36.304  29.449  29.354  1.00  0.00     0.014 A 
ATOM     49  C   UNL A   1      38.359  29.660  27.484  1.00  0.00     0.010 A 
ATOM     50  C   UNL A   1      37.589  29.131  29.727  1.00  0.00     0.010 A 
ATOM     51  C   UNL A   1      38.611  29.200  28.785  1.00  0.00    -0.014 A 
BRANCH  51  52
ATOM     52  C   UNL A   1      39.982  28.920  29.207  1.00  0.00     0.031 A 
ATOM     53  C   UNL A   1      40.192  28.978  30.683  1.00  0.00     0.074 A 
ATOM     54  C   UNL A   1      40.919  28.418  28.374  1.00  0.00     0.049 A 
ATOM     55  N   UNL A   1      40.922  29.805  31.355  1.00  0.00    -0.248 NA
ATOM     56  C   UNL A   1      39.373  28.091  31.529  1.00  0.00     0.031 C 
ATOM     57  C   UNL A   1      40.751  27.994  26.979  1.00  0.00     0.029 A 
ATOM     58  N   UNL A   1      42.206  28.066  28.639  1.00  0.00    -0.354 N 
ATOM     59  C   UNL A   1      40.840  29.397  32.686  1.00  0.00     0.074 A 
ATOM     60  C   UNL A   1      39.731  28.483  32.754  1.00  0.00     0.031 C 
ATOM     61  C   UNL A   1      41.805  27.233  26.609  1.00  0.00     0.029 A 
ATOM     62  C   UNL A   1      42.793  27.257  27.672  1.00  0.00     0.049 A 
ATOM     63  H   UNL A   1      42.683  28.360  29.448  1.00  0.00     0.167 HD
ATOM     64  C   UNL A   1      41.847  29.650  33.568  1.00  0.00     0.037 A 
ATOM     65  C   UNL A   1      43.989  26.621  27.756  1.00  0.00     0.037 A 
ATOM     66  C   UNL A   1      42.729  30.672  33.061  1.00  0.00     0.049 A 
ATOM     67  C   UNL A   1      44.769  27.305  28.818  1.00  0.00     0.074 A 
ATOM     68  C   UNL A   1      42.576  31.990  32.676  1.00  0.00     0.029 A 
ATOM     69  N   UNL A   1      43.928  30.263  32.530  1.00  0.00    -0.354 N 
ATOM     70  N   UNL A   1      45.193  28.536  28.734  1.00  0.00    -0.248 NA
ATOM     71  C   UNL A   1      44.699  26.763  30.166  1.00  0.00     0.031 C 
ATOM     72  C   UNL A   1      43.436  32.147  31.550  1.00  0.00     0.029 A 
ATOM     73  C   UNL A   1      44.116  30.943  31.355  1.00  0.00     0.049 A 
ATOM     74  H   UNL A   1      44.542  29.601  32.923  1.00  0.00     0.167 HD
ATOM     75  C   UNL A   1      45.026  29.057  30.009  1.00  0.00     0.074 A 
ATOM     76  C   UNL A   1      44.820  27.893  30.868  1.00  0.00     0.031 C 
ATOM     77  C   UNL A   1      44.791  30.389  30.201  1.00  0.00     0.037 A 
BRANCH  64  78
ATOM     78  C   UNL A   1      42.266  28.720  34.692  1.00  0.00     0.058 A 
ATOM     79  C   UNL A   1      42.489  29.256  35.979  1.00  0.00     0.135 A 
ATOM     80  C   UNL A   1      42.741  27.402  34.499  1.00  0.00     0.135 A 
ATOM     81  F   UNL A   1      42.077  30.496  36.285  1.00  0.00    -0.206 F 
ATOM     82  C   UNL A   1      43.210  28.575  36.963  1.00  0.00     0.059 A 
ATOM     83  C   UNL A   1      43.414  26.686  35.483  1.00  0.00     0.059 A 
ATOM     84  F   UNL A   1      42.666  26.774  33.321  1.00  0.00    -0.206 F 
ATOM     85  C   UNL A   1      43.686  27.297  36.695  1.00  0.00     0.060 A 
BRANCH  85  86
ATOM     86  S   UNL A   1      44.716  26.460  37.912  1.00  0.00     0.124 S 
ATOM     87  O   UNL A   1      46.049  26.893  37.511  1.00  0.00    -0.237 OA
ATOM     88  O   UNL A   1      44.212  27.011  39.165  1.00  0.00    -0.237 OA
ATOM     89  O   UNL A   1      44.416  25.048  37.690  1.00  0.00    -0.744 OA
ENDBRANCH  85  86
ENDBRANCH  64  78
BRANCH  65  90
ATOM     90  C   UNL A   1      44.370  25.289  27.215  1.00  0.00     0.058 A 
ATOM     91  C   UNL A   1      43.745  24.112  27.669  1.00  0.00     0.135 A 
ATOM     92  C   UNL A   1      45.142  25.166  26.042  1.00  0.00     0.135 A 
ATOM     93  F   UNL A   1      42.977  24.139  28.769  1.00  0.00    -0.206 F 
ATOM     94  C   UNL A   1      43.834  22.902  26.971  1.00  0.00     0.059 A 
ATOM     95  C   UNL A   1      45.253  23.969  25.336  1.00  0.00     0.059 A 
ATOM     96  F   UNL A   1      45.737  26.236  25.491  1.00  0.00    -0.206 F 
ATOM     97  C   UNL A   1      44.574  22.846  25.791  1.00  0.00     0.060 A 
BRANCH  97  98
ATOM     98  S   UNL A   1      44.540  21.341  24.788  1.00  0.00     0.124 S 
ATOM     99  O   UNL A   1      43.312  20.699  25.246  1.00  0.00    -0.237 OA
ATOM    100  O   UNL A   1      44.512  21.873  23.430  1.00  0.00    -0.237 OA
ATOM    101  O   UNL A   1      45.776  20.658  25.160  1.00  0.00    -0.744 OA
ENDBRANCH  97  98
ENDBRANCH  65  90
BRANCH  77 102
ATOM    102  C   UNL A   1      45.052  31.334  29.055  1.00  0.00     0.058 A 
ATOM    103  C   UNL A   1      44.101  31.711  28.090  1.00  0.00     0.135 A 
ATOM    104  C   UNL A   1      46.287  31.998  29.027  1.00  0.00     0.135 A 
ATOM    105  F   UNL A   1      42.862  31.200  28.103  1.00  0.00    -0.206 F 
ATOM    106  C   UNL A   1      44.381  32.676  27.118  1.00  0.00     0.059 A 
ATOM    107  C   UNL A   1      46.576  32.986  28.090  1.00  0.00     0.059 A 
ATOM    108  F   UNL A   1      47.217  31.728  29.957  1.00  0.00    -0.206 F 
ATOM    109  C   UNL A   1      45.622  33.311  27.129  1.00  0.00     0.060 A 
BRANCH 109 110
ATOM    110  S   UNL A   1      45.960  34.610  25.922  1.00  0.00     0.124 S 
ATOM    111  O   UNL A   1      45.485  34.007  24.680  1.00  0.00    -0.237 OA
ATOM    112  O   UNL A   1      45.169  35.728  26.427  1.00  0.00    -0.237 OA
ATOM    113  O   UNL A   1      47.408  34.792  26.011  1.00  0.00    -0.744 OA
ENDBRANCH 109 110
ENDBRANCH  77 102
ENDBRANCH  51  52
ENDBRANCH  43  46
ENDBRANCH  41  42
ENDBRANCH  40  41
ENDBRANCH   1  40
TORSDOF 22
ENDMDL
MODEL 3
REMARK VINA RESULT:      -8.5      5.222     12.010
REMARK SMILES COc1cccc(-n2cc(C(=O)NCCCCCCNC(=O)c3ccc(-c4c5nc(c(-c6c(F)cc(S(=O)(=O)[O-])cc6F)c6ccc([nH]6)c(-c6c(F)cc(S(=O)(=O)[O-])cc6F)c6nc(c(-c7c(F)cc(S(=O)(=O)[O-])cc7F)c7ccc4[nH]7)C=C6)C=C5)cc3)c3c2[C@H](c2cc(OC)c(OC)c(OC)c2)CC(=O)N3)c1
REMARK SMILES IDX 17 1 16 2 15 3 14 4 13 5 11 6 12 7 10 9 8 10 9 11 90 12
REMARK SMILES IDX 89 13 91 14 107 15 104 16 105 17 106 19 7 20 3 21 4 22
REMARK SMILES IDX 108 23 5 24 6 25 2 26 1 27 92 28 93 29 103 30 94 31 100 32
REMARK SMILES IDX 97 33 95 34 96 35 101 36 102 37 98 38 99 39 18 40 19 41
REMARK SMILES IDX 20 42 21 43 22 45 23 46 24 47 88 48 25 49 87 50 26 51 27 52
REMARK SMILES IDX 28 53 81 54 29 55 86 56 80 57 82 58 30 59 85 60 79 61 78 62
REMARK SMILES IDX 31 64 65 65 44 66 64 67 45 68 48 69 63 70 83 71 46 72 47 73
REMARK SMILES IDX 62 75 84 76 49 77 32 78 33 79 42 80 34 81 35 82 41 83 43 84
REMARK SMILES IDX 36 85 37 86 38 87 39 88 40 89 66 90 67 91 76 92 68 93 69 94
REMARK SMILES IDX 75 95 77 96 70 97 71 98 72 99 73 100 74 101 50 102 51 103
REMARK SMILES IDX 60 104 52 105 53 106 59 107 61 108 54 109 55 110 56 111
REMARK SMILES IDX 57 112 58 113
REMARK H PARENT 13 8 107 18 20 44 82 63 48 74
REMARK Flexibility Score: inf
ROOT
ATOM      1  C   UNL A   1      44.586  41.986  34.746  1.00  0.00     0.002 C 
ENDROOT
BRANCH   1   2
ATOM      2  C   UNL A   1      45.374  43.278  34.484  1.00  0.00     0.002 C 
BRANCH   2   3
ATOM      3  C   UNL A   1      46.731  43.067  33.808  1.00  0.00     0.021 C 
BRANCH   3   4
ATOM      4  C   UNL A   1      46.756  43.501  32.339  1.00  0.00     0.116 C 
BRANCH   4   5
ATOM      5  N   UNL A   1      45.467  44.017  31.960  1.00  0.00    -0.352 N 
ATOM      6  C   UNL A   1      44.714  43.902  30.828  1.00  0.00     0.254 C 
ATOM      7  O   UNL A   1      43.629  44.492  30.871  1.00  0.00    -0.269 OA
ATOM      8  H   UNL A   1      45.044  44.566  32.659  1.00  0.00     0.163 HD
BRANCH   6   9
ATOM      9  C   UNL A   1      45.078  43.094  29.658  1.00  0.00     0.081 A 
ATOM     10  N   UNL A   1      45.104  42.706  27.415  1.00  0.00    -0.317 N 
ATOM     11  C   UNL A   1      44.736  43.582  28.400  1.00  0.00     0.107 A 
ATOM     12  C   UNL A   1      45.695  41.613  28.008  1.00  0.00     0.055 A 
ATOM     13  C   UNL A   1      45.800  41.894  29.363  1.00  0.00     0.076 A 
ATOM     14  C   UNL A   1      46.307  40.399  27.331  1.00  0.00     0.078 C 
ATOM     15  N   UNL A   1      46.545  41.041  30.144  1.00  0.00    -0.324 N 
ATOM     16  C   UNL A   1      47.554  40.004  28.145  1.00  0.00     0.115 C 
ATOM     17  C   UNL A   1      47.302  40.016  29.642  1.00  0.00     0.225 C 
ATOM     18  H   UNL A   1      46.532  41.175  31.118  1.00  0.00     0.170 HD
ATOM     19  O   UNL A   1      47.805  39.192  30.405  1.00  0.00    -0.275 OA
BRANCH  10  20
ATOM     20  C   UNL A   1      44.915  42.980  26.050  1.00  0.00     0.049 A 
ATOM     21  C   UNL A   1      43.639  42.700  24.024  1.00  0.00     0.120 A 
ATOM     22  C   UNL A   1      44.576  43.498  23.357  1.00  0.00     0.046 A 
ATOM     23  C   UNL A   1      43.806  42.441  25.386  1.00  0.00     0.073 A 
ATOM     24  C   UNL A   1      45.705  43.985  24.017  1.00  0.00     0.006 A 
ATOM     25  C   UNL A   1      45.898  43.686  25.361  1.00  0.00     0.027 A 
BRANCH  21  26
ATOM     26  O   UNL A   1      42.635  42.229  23.226  1.00  0.00    -0.497 OA
ATOM     27  C   UNL A   1      41.734  43.184  22.680  1.00  0.00     0.278 C 
ENDBRANCH  21  26
ENDBRANCH  10  20
BRANCH  14  28
ATOM     28  C   UNL A   1      45.317  39.240  27.135  1.00  0.00    -0.031 A 
ATOM     29  C   UNL A   1      43.962  39.531  26.968  1.00  0.00     0.055 A 
ATOM     30  C   UNL A   1      45.670  37.882  27.112  1.00  0.00     0.055 A 
ATOM     31  C   UNL A   1      42.977  38.537  26.985  1.00  0.00     0.164 A 
ATOM     32  C   UNL A   1      44.709  36.855  26.976  1.00  0.00     0.164 A 
ATOM     33  C   UNL A   1      43.339  37.181  26.953  1.00  0.00     0.203 A 
BRANCH  31  34
ATOM     34  O   UNL A   1      41.695  39.034  26.988  1.00  0.00    -0.493 OA
ATOM     35  C   UNL A   1      41.565  40.369  27.473  1.00  0.00     0.278 C 
ENDBRANCH  31  34
BRANCH  32  36
ATOM     36  O   UNL A   1      45.064  35.530  26.928  1.00  0.00    -0.493 OA
ATOM     37  C   UNL A   1      45.776  34.998  28.041  1.00  0.00     0.278 C 
ENDBRANCH  32  36
BRANCH  33  38
ATOM     38  O   UNL A   1      42.291  36.298  26.914  1.00  0.00    -0.490 OA
ATOM     39  C   UNL A   1      41.846  35.706  28.124  1.00  0.00     0.278 C 
ENDBRANCH  33  38
ENDBRANCH  14  28
ENDBRANCH   6   9
ENDBRANCH   4   5
ENDBRANCH   3   4
ENDBRANCH   2   3
ENDBRANCH   1   2
BRANCH   1  40
ATOM     40  C   UNL A   1      43.350  41.771  33.859  1.00  0.00     0.021 C 
BRANCH  40  41
ATOM     41  C   UNL A   1      43.633  40.879  32.660  1.00  0.00     0.116 C 
BRANCH  41  42
ATOM     42  N   UNL A   1      44.977  40.313  32.740  1.00  0.00    -0.352 N 
ATOM     43  C   UNL A   1      45.379  39.116  33.276  1.00  0.00     0.251 C 
ATOM     44  H   UNL A   1      45.694  40.867  32.354  1.00  0.00     0.163 HD
ATOM     45  O   UNL A   1      46.562  38.934  33.561  1.00  0.00    -0.269 OA
BRANCH  43  46
ATOM     46  C   UNL A   1      44.383  38.061  33.514  1.00  0.00     0.039 A 
ATOM     47  C   UNL A   1      43.893  37.306  32.445  1.00  0.00     0.014 A 
ATOM     48  C   UNL A   1      43.940  37.830  34.816  1.00  0.00     0.014 A 
ATOM     49  C   UNL A   1      43.005  36.268  32.706  1.00  0.00     0.010 A 
ATOM     50  C   UNL A   1      43.151  36.736  35.086  1.00  0.00     0.010 A 
ATOM     51  C   UNL A   1      42.652  35.976  34.031  1.00  0.00    -0.014 A 
BRANCH  51  52
ATOM     52  C   UNL A   1      41.867  34.781  34.330  1.00  0.00     0.031 A 
ATOM     53  C   UNL A   1      42.490  33.507  33.865  1.00  0.00     0.074 A 
ATOM     54  C   UNL A   1      40.801  34.791  35.158  1.00  0.00     0.049 A 
ATOM     55  N   UNL A   1      42.057  32.687  32.966  1.00  0.00    -0.248 NA
ATOM     56  C   UNL A   1      43.837  33.179  34.364  1.00  0.00     0.031 C 
ATOM     57  C   UNL A   1      40.285  35.912  35.951  1.00  0.00     0.029 A 
ATOM     58  N   UNL A   1      40.015  33.756  35.562  1.00  0.00    -0.354 N 
ATOM     59  C   UNL A   1      42.956  31.621  32.953  1.00  0.00     0.074 A 
ATOM     60  C   UNL A   1      44.117  32.072  33.673  1.00  0.00     0.031 C 
ATOM     61  C   UNL A   1      39.447  35.445  36.903  1.00  0.00     0.029 A 
ATOM     62  C   UNL A   1      39.235  34.026  36.681  1.00  0.00     0.049 A 
ATOM     63  H   UNL A   1      39.999  32.887  35.099  1.00  0.00     0.167 HD
ATOM     64  C   UNL A   1      42.569  30.372  32.568  1.00  0.00     0.037 A 
ATOM     65  C   UNL A   1      38.498  33.139  37.397  1.00  0.00     0.037 A 
ATOM     66  C   UNL A   1      41.321  30.420  31.849  1.00  0.00     0.049 A 
ATOM     67  C   UNL A   1      38.277  31.958  36.525  1.00  0.00     0.074 A 
ATOM     68  C   UNL A   1      40.883  31.039  30.694  1.00  0.00     0.029 A 
ATOM     69  N   UNL A   1      40.186  30.053  32.530  1.00  0.00    -0.354 N 
ATOM     70  N   UNL A   1      37.568  31.983  35.429  1.00  0.00    -0.248 NA
ATOM     71  C   UNL A   1      39.211  30.849  36.635  1.00  0.00     0.031 C 
ATOM     72  C   UNL A   1      39.543  31.437  30.974  1.00  0.00     0.029 A 
ATOM     73  C   UNL A   1      39.215  30.979  32.251  1.00  0.00     0.049 A 
ATOM     74  H   UNL A   1      40.088  29.266  33.113  1.00  0.00     0.167 HD
ATOM     75  C   UNL A   1      38.257  31.170  34.541  1.00  0.00     0.074 A 
ATOM     76  C   UNL A   1      39.198  30.420  35.370  1.00  0.00     0.031 C 
ATOM     77  C   UNL A   1      38.196  31.387  33.194  1.00  0.00     0.037 A 
BRANCH  64  78
ATOM     78  C   UNL A   1      43.095  29.081  33.169  1.00  0.00     0.058 A 
ATOM     79  C   UNL A   1      43.689  28.121  32.319  1.00  0.00     0.135 A 
ATOM     80  C   UNL A   1      42.781  28.622  34.468  1.00  0.00     0.135 A 
ATOM     81  F   UNL A   1      44.038  28.441  31.063  1.00  0.00    -0.206 F 
ATOM     82  C   UNL A   1      43.865  26.788  32.698  1.00  0.00     0.059 A 
ATOM     83  C   UNL A   1      42.999  27.312  34.883  1.00  0.00     0.059 A 
ATOM     84  F   UNL A   1      42.159  29.385  35.372  1.00  0.00    -0.206 F 
ATOM     85  C   UNL A   1      43.496  26.391  33.978  1.00  0.00     0.060 A 
BRANCH  85  86
ATOM     86  S   UNL A   1      43.611  24.653  34.435  1.00  0.00     0.124 S 
ATOM     87  O   UNL A   1      44.767  24.664  35.325  1.00  0.00    -0.237 OA
ATOM     88  O   UNL A   1      42.317  24.420  35.067  1.00  0.00    -0.237 OA
ATOM     89  O   UNL A   1      43.806  23.982  33.153  1.00  0.00    -0.744 OA
ENDBRANCH  85  86
ENDBRANCH  64  78
BRANCH  65  90
ATOM     90  C   UNL A   1      38.254  33.108  38.864  1.00  0.00     0.058 A 
ATOM     91  C   UNL A   1      36.966  32.885  39.383  1.00  0.00     0.135 A 
ATOM     92  C   UNL A   1      39.319  33.009  39.783  1.00  0.00     0.135 A 
ATOM     93  F   UNL A   1      35.895  32.942  38.577  1.00  0.00    -0.206 F 
ATOM     94  C   UNL A   1      36.750  32.527  40.720  1.00  0.00     0.059 A 
ATOM     95  C   UNL A   1      39.127  32.664  41.120  1.00  0.00     0.059 A 
ATOM     96  F   UNL A   1      40.592  33.150  39.385  1.00  0.00    -0.206 F 
ATOM     97  C   UNL A   1      37.843  32.398  41.577  1.00  0.00     0.060 A 
BRANCH  97  98
ATOM     98  S   UNL A   1      37.591  31.757  43.250  1.00  0.00     0.124 S 
ATOM     99  O   UNL A   1      38.476  30.596  43.266  1.00  0.00    -0.237 OA
ATOM    100  O   UNL A   1      38.002  32.883  44.079  1.00  0.00    -0.237 OA
ATOM    101  O   UNL A   1      36.163  31.451  43.284  1.00  0.00    -0.744 OA
ENDBRANCH  97  98
ENDBRANCH  65  90
BRANCH  77 102
ATOM    102  C   UNL A   1      37.113  32.294  32.665  1.00  0.00     0.058 A 
ATOM    103  C   UNL A   1      35.850  31.866  32.219  1.00  0.00     0.135 A 
ATOM    104  C   UNL A   1      37.322  33.679  32.756  1.00  0.00     0.135 A 
ATOM    105  F   UNL A   1      35.530  30.565  32.195  1.00  0.00    -0.206 F 
ATOM    106  C   UNL A   1      34.855  32.773  31.844  1.00  0.00     0.059 A 
ATOM    107  C   UNL A   1      36.334  34.601  32.420  1.00  0.00     0.059 A 
ATOM    108  F   UNL A   1      38.485  34.154  33.230  1.00  0.00    -0.206 F 
ATOM    109  C   UNL A   1      35.106  34.141  31.951  1.00  0.00     0.060 A 
BRANCH 109 110
ATOM    110  S   UNL A   1      33.798  35.314  31.538  1.00  0.00     0.124 S 
ATOM    111  O   UNL A   1      33.767  35.239  30.081  1.00  0.00    -0.237 OA
ATOM    112  O   UNL A   1      32.639  34.754  32.227  1.00  0.00    -0.237 OA
ATOM    113  O   UNL A   1      34.287  36.578  32.086  1.00  0.00    -0.744 OA
ENDBRANCH 109 110
ENDBRANCH  77 102
ENDBRANCH  51  52
ENDBRANCH  43  46
ENDBRANCH  41  42
ENDBRANCH  40  41
ENDBRANCH   1  40
TORSDOF 22
ENDMDL
