MODEL 1
REMARK VINA RESULT:     -12.2      0.000      0.000
REMARK SMILES Cc1ccc(C)c(N2C(=O)C[C@@H](SCC(=O)NCCCCCCNC(=O)c3ccc(-c4c5nc(c(-c6c(F)cc(S(=O)(=O)[O-])cc6F)c6ccc([nH]6)c(-c6c(F)cc(S(=O)(=O)[O-])cc6F)c6nc(c(-c7c(F)cc(S(=O)(=O)[O-])cc7F)c7ccc4[nH]7)C=C6)C=C5)cc3)C2=O)c1
REMARK SMILES IDX 20 1 19 2 18 3 17 4 15 5 16 6 14 8 13 9 12 10 8 11 9 12
REMARK SMILES IDX 93 13 10 14 11 15 94 16 7 17 1 18 2 19 3 20 95 21 4 22 5 23
REMARK SMILES IDX 6 24 21 25 22 26 23 27 24 28 25 29 26 31 27 32 28 33 92 34
REMARK SMILES IDX 29 35 91 36 30 37 31 38 32 39 85 40 33 41 90 42 84 43 86 44
REMARK SMILES IDX 34 45 89 46 83 47 82 48 35 50 69 51 48 52 68 53 49 54 52 55
REMARK SMILES IDX 67 56 87 57 50 58 51 59 66 61 88 62 53 63 36 64 37 65 46 66
REMARK SMILES IDX 38 67 39 68 45 69 47 70 40 71 41 72 42 73 43 74 44 75 70 76
REMARK SMILES IDX 71 77 80 78 72 79 73 80 79 81 81 82 74 83 75 84 76 85 77 86
REMARK SMILES IDX 78 87 54 88 55 89 64 90 56 91 57 92 63 93 65 94 58 95 59 96
REMARK SMILES IDX 60 97 61 98 62 99
REMARK H PARENT 17 7 24 30 86 49 52 60
REMARK Flexibility Score: inf
ROOT
ATOM      1  C   UNL A   1      39.964  22.801  26.971  1.00  0.00     0.002 C 
ENDROOT
BRANCH   1   2
ATOM      2  C   UNL A   1      39.165  23.985  26.407  1.00  0.00     0.021 C 
BRANCH   2   3
ATOM      3  C   UNL A   1      37.685  23.684  26.166  1.00  0.00     0.116 C 
BRANCH   3   4
ATOM      4  N   UNL A   1      37.386  23.670  24.743  1.00  0.00    -0.355 N 
ATOM      5  C   UNL A   1      36.718  22.751  23.998  1.00  0.00     0.230 C 
ATOM      6  O   UNL A   1      36.730  22.882  22.770  1.00  0.00    -0.274 OA
ATOM      7  H   UNL A   1      37.720  24.449  24.242  1.00  0.00     0.163 HD
BRANCH   5   8
ATOM      8  C   UNL A   1      35.940  21.630  24.646  1.00  0.00     0.170 C 
BRANCH   8   9
ATOM      9  S   UNL A   1      34.156  21.849  24.689  1.00  0.00    -0.138 SA
BRANCH   9  10
ATOM     10  C   UNL A   1      33.965  22.988  26.112  1.00  0.00     0.146 C 
ATOM     11  N   UNL A   1      32.411  24.685  25.724  1.00  0.00    -0.249 N 
ATOM     12  C   UNL A   1      31.841  23.898  26.690  1.00  0.00     0.235 C 
ATOM     13  C   UNL A   1      33.714  24.332  25.505  1.00  0.00     0.247 C 
ATOM     14  O   UNL A   1      30.804  24.045  27.325  1.00  0.00    -0.274 OA
ATOM     15  C   UNL A   1      32.757  22.743  26.980  1.00  0.00     0.125 C 
ATOM     16  O   UNL A   1      34.633  24.946  24.978  1.00  0.00    -0.273 OA
BRANCH  11  17
ATOM     17  C   UNL A   1      31.806  25.844  25.191  1.00  0.00     0.055 A 
ATOM     18  C   UNL A   1      31.690  30.263  26.021  1.00  0.00     0.044 C 
ATOM     19  C   UNL A   1      31.506  28.968  25.275  1.00  0.00    -0.049 A 
ATOM     20  C   UNL A   1      30.543  28.924  23.742  1.00  0.00     0.004 A 
ATOM     21  C   UNL A   1      32.193  27.429  25.951  1.00  0.00     0.030 A 
ATOM     22  C   UNL A   1      30.181  27.345  22.938  1.00  0.00     0.006 A 
ATOM     23  C   UNL A   1      30.713  25.799  23.703  1.00  0.00    -0.027 A 
ATOM     24  C   UNL A   1      30.234  24.514  23.075  1.00  0.00     0.046 C 
ENDBRANCH  11  17
ENDBRANCH   9  10
ENDBRANCH   8   9
ENDBRANCH   5   8
ENDBRANCH   3   4
ENDBRANCH   2   3
ENDBRANCH   1   2
BRANCH   1  25
ATOM     25  C   UNL A   1      39.852  21.473  26.196  1.00  0.00     0.002 C 
BRANCH  25  26
ATOM     26  C   UNL A   1      40.756  20.316  26.652  1.00  0.00     0.021 C 
BRANCH  26  27
ATOM     27  C   UNL A   1      42.219  20.694  26.705  1.00  0.00     0.116 C 
BRANCH  27  28
ATOM     28  N   UNL A   1      43.040  20.096  25.637  1.00  0.00    -0.352 N 
ATOM     29  C   UNL A   1      43.942  20.692  24.760  1.00  0.00     0.251 C 
ATOM     30  H   UNL A   1      42.934  19.124  25.528  1.00  0.00     0.163 HD
ATOM     31  O   UNL A   1      44.292  20.112  23.737  1.00  0.00    -0.269 OA
BRANCH  29  32
ATOM     32  C   UNL A   1      44.539  21.997  25.118  1.00  0.00     0.039 A 
ATOM     33  C   UNL A   1      45.737  22.155  25.823  1.00  0.00     0.014 A 
ATOM     34  C   UNL A   1      43.657  23.053  25.191  1.00  0.00     0.014 A 
ATOM     35  C   UNL A   1      45.843  23.300  26.640  1.00  0.00     0.010 A 
ATOM     36  C   UNL A   1      44.161  24.283  25.352  1.00  0.00     0.010 A 
ATOM     37  C   UNL A   1      44.839  24.269  26.531  1.00  0.00    -0.014 A 
BRANCH  37  38
ATOM     38  C   UNL A   1      44.667  25.479  27.301  1.00  0.00     0.031 A 
ATOM     39  C   UNL A   1      45.777  26.406  26.990  1.00  0.00     0.074 A 
ATOM     40  C   UNL A   1      43.545  25.833  27.973  1.00  0.00     0.049 A 
ATOM     41  N   UNL A   1      46.888  26.455  27.644  1.00  0.00    -0.248 NA
ATOM     42  C   UNL A   1      45.848  27.044  25.657  1.00  0.00     0.031 C 
ATOM     43  C   UNL A   1      42.248  25.158  28.118  1.00  0.00     0.029 A 
ATOM     44  N   UNL A   1      43.359  26.970  28.709  1.00  0.00    -0.354 N 
ATOM     45  C   UNL A   1      47.653  27.384  26.964  1.00  0.00     0.074 A 
ATOM     46  C   UNL A   1      47.130  27.420  25.629  1.00  0.00     0.031 C 
ATOM     47  C   UNL A   1      41.361  25.985  28.736  1.00  0.00     0.029 A 
ATOM     48  C   UNL A   1      42.047  27.201  29.150  1.00  0.00     0.049 A 
ATOM     49  H   UNL A   1      44.097  27.587  28.917  1.00  0.00     0.167 HD
ATOM     50  C   UNL A   1      48.394  28.292  27.652  1.00  0.00     0.037 A 
ATOM     51  C   UNL A   1      41.606  28.360  29.735  1.00  0.00     0.037 A 
ATOM     52  C   UNL A   1      48.450  27.933  29.053  1.00  0.00     0.049 A 
ATOM     53  C   UNL A   1      42.789  29.089  30.234  1.00  0.00     0.074 A 
ATOM     54  C   UNL A   1      48.883  26.819  29.752  1.00  0.00     0.029 A 
ATOM     55  N   UNL A   1      47.570  28.580  29.890  1.00  0.00    -0.354 N 
ATOM     56  N   UNL A   1      43.461  28.669  31.262  1.00  0.00    -0.248 NA
ATOM     57  C   UNL A   1      43.514  29.914  29.273  1.00  0.00     0.031 C 
ATOM     58  C   UNL A   1      47.894  26.595  30.756  1.00  0.00     0.029 A 
ATOM     59  C   UNL A   1      46.980  27.640  30.699  1.00  0.00     0.049 A 
ATOM     60  H   UNL A   1      47.395  29.550  29.905  1.00  0.00     0.167 HD
ATOM     61  C   UNL A   1      44.770  28.737  30.835  1.00  0.00     0.074 A 
ATOM     62  C   UNL A   1      44.755  29.561  29.620  1.00  0.00     0.031 C 
ATOM     63  C   UNL A   1      45.679  27.826  31.280  1.00  0.00     0.037 A 
BRANCH  50  64
ATOM     64  C   UNL A   1      48.693  29.687  27.166  1.00  0.00     0.058 A 
ATOM     65  C   UNL A   1      50.040  30.079  27.060  1.00  0.00     0.135 A 
ATOM     66  C   UNL A   1      47.743  30.727  27.032  1.00  0.00     0.135 A 
ATOM     67  F   UNL A   1      51.025  29.173  27.179  1.00  0.00    -0.206 F 
ATOM     68  C   UNL A   1      50.419  31.409  26.893  1.00  0.00     0.059 A 
ATOM     69  C   UNL A   1      48.097  32.051  26.810  1.00  0.00     0.059 A 
ATOM     70  F   UNL A   1      46.429  30.538  27.195  1.00  0.00    -0.206 F 
ATOM     71  C   UNL A   1      49.438  32.388  26.773  1.00  0.00     0.060 A 
BRANCH  71  72
ATOM     72  S   UNL A   1      49.931  34.108  26.597  1.00  0.00     0.124 S 
ATOM     73  O   UNL A   1      51.289  34.079  27.129  1.00  0.00    -0.237 OA
ATOM     74  O   UNL A   1      49.810  34.303  25.156  1.00  0.00    -0.237 OA
ATOM     75  O   UNL A   1      48.950  34.823  27.406  1.00  0.00    -0.744 OA
ENDBRANCH  71  72
ENDBRANCH  50  64
BRANCH  51  76
ATOM     76  C   UNL A   1      40.438  29.174  29.334  1.00  0.00     0.058 A 
ATOM     77  C   UNL A   1      39.836  29.154  28.079  1.00  0.00     0.135 A 
ATOM     78  C   UNL A   1      39.605  29.601  30.327  1.00  0.00     0.135 A 
ATOM     79  F   UNL A   1      40.466  28.562  27.051  1.00  0.00    -0.206 F 
ATOM     80  C   UNL A   1      38.503  29.649  27.821  1.00  0.00     0.059 A 
ATOM     81  C   UNL A   1      38.303  30.072  30.085  1.00  0.00     0.059 A 
ATOM     82  F   UNL A   1      39.949  29.470  31.618  1.00  0.00    -0.206 F 
ATOM     83  C   UNL A   1      37.530  30.340  28.791  1.00  0.00     0.060 A 
BRANCH  83  84
ATOM     84  S   UNL A   1      35.362  31.662  28.412  1.00  0.00     0.124 S 
ATOM     85  O   UNL A   1      34.301  30.891  27.699  1.00  0.00    -0.237 OA
ATOM     86  O   UNL A   1      34.749  32.160  29.681  1.00  0.00    -0.237 OA
ATOM     87  O   UNL A   1      35.565  32.870  27.548  1.00  0.00    -0.744 OA
ENDBRANCH  83  84
ENDBRANCH  51  76
BRANCH  63  88
ATOM     88  C   UNL A   1      45.205  26.853  32.331  1.00  0.00     0.058 A 
ATOM     89  C   UNL A   1      44.738  25.547  32.073  1.00  0.00     0.135 A 
ATOM     90  C   UNL A   1      45.297  27.236  33.668  1.00  0.00     0.135 A 
ATOM     91  F   UNL A   1      44.722  25.054  30.832  1.00  0.00    -0.206 F 
ATOM     92  C   UNL A   1      44.332  24.682  33.090  1.00  0.00     0.059 A 
ATOM     93  C   UNL A   1      44.932  26.380  34.704  1.00  0.00     0.059 A 
ATOM     94  F   UNL A   1      45.784  28.446  33.982  1.00  0.00    -0.206 F 
ATOM     95  C   UNL A   1      44.436  25.111  34.408  1.00  0.00     0.060 A 
BRANCH  95  96
ATOM     96  S   UNL A   1      43.994  23.975  35.738  1.00  0.00     0.124 S 
ATOM     97  O   UNL A   1      43.908  24.866  36.889  1.00  0.00    -0.237 OA
ATOM     98  O   UNL A   1      42.726  23.420  35.271  1.00  0.00    -0.237 OA
ATOM     99  O   UNL A   1      45.108  23.030  35.758  1.00  0.00    -0.744 OA
ENDBRANCH  95  96
ENDBRANCH  63  88
ENDBRANCH  37  38
ENDBRANCH  29  32
ENDBRANCH  27  28
ENDBRANCH  26  27
ENDBRANCH  25  26
ENDBRANCH   1  25
TORSDOF 19
ENDMDL
MODEL 2
REMARK VINA RESULT:     -11.6      2.746      3.792
REMARK SMILES Cc1ccc(C)c(N2C(=O)C[C@@H](SCC(=O)NCCCCCCNC(=O)c3ccc(-c4c5nc(c(-c6c(F)cc(S(=O)(=O)[O-])cc6F)c6ccc([nH]6)c(-c6c(F)cc(S(=O)(=O)[O-])cc6F)c6nc(c(-c7c(F)cc(S(=O)(=O)[O-])cc7F)c7ccc4[nH]7)C=C6)C=C5)cc3)C2=O)c1
REMARK SMILES IDX 20 1 19 2 18 3 17 4 15 5 16 6 14 8 13 9 12 10 8 11 9 12
REMARK SMILES IDX 93 13 10 14 11 15 94 16 7 17 1 18 2 19 3 20 95 21 4 22 5 23
REMARK SMILES IDX 6 24 21 25 22 26 23 27 24 28 25 29 26 31 27 32 28 33 92 34
REMARK SMILES IDX 29 35 91 36 30 37 31 38 32 39 85 40 33 41 90 42 84 43 86 44
REMARK SMILES IDX 34 45 89 46 83 47 82 48 35 50 69 51 48 52 68 53 49 54 52 55
REMARK SMILES IDX 67 56 87 57 50 58 51 59 66 61 88 62 53 63 36 64 37 65 46 66
REMARK SMILES IDX 38 67 39 68 45 69 47 70 40 71 41 72 42 73 43 74 44 75 70 76
REMARK SMILES IDX 71 77 80 78 72 79 73 80 79 81 81 82 74 83 75 84 76 85 77 86
REMARK SMILES IDX 78 87 54 88 55 89 64 90 56 91 57 92 63 93 65 94 58 95 59 96
REMARK SMILES IDX 60 97 61 98 62 99
REMARK H PARENT 17 7 24 30 86 49 52 60
REMARK Flexibility Score: inf
ROOT
ATOM      1  C   UNL A   1      40.800  20.705  25.926  1.00  0.00     0.002 C 
ENDROOT
BRANCH   1   2
ATOM      2  C   UNL A   1      39.815  19.540  26.103  1.00  0.00     0.021 C 
BRANCH   2   3
ATOM      3  C   UNL A   1      38.538  19.665  25.269  1.00  0.00     0.116 C 
BRANCH   3   4
ATOM      4  N   UNL A   1      38.239  21.061  24.993  1.00  0.00    -0.355 N 
ATOM      5  C   UNL A   1      37.042  21.684  24.830  1.00  0.00     0.230 C 
ATOM      6  O   UNL A   1      37.047  22.856  24.442  1.00  0.00    -0.274 OA
ATOM      7  H   UNL A   1      39.026  21.646  24.912  1.00  0.00     0.163 HD
BRANCH   5   8
ATOM      8  C   UNL A   1      35.742  20.986  25.158  1.00  0.00     0.170 C 
BRANCH   8   9
ATOM      9  S   UNL A   1      34.249  21.897  24.745  1.00  0.00    -0.138 SA
BRANCH   9  10
ATOM     10  C   UNL A   1      33.946  22.821  26.298  1.00  0.00     0.146 C 
ATOM     11  N   UNL A   1      32.477  24.613  26.026  1.00  0.00    -0.249 N 
ATOM     12  C   UNL A   1      31.797  23.715  26.806  1.00  0.00     0.235 C 
ATOM     13  C   UNL A   1      33.786  24.247  25.879  1.00  0.00     0.247 C 
ATOM     14  O   UNL A   1      30.707  23.805  27.356  1.00  0.00    -0.274 OA
ATOM     15  C   UNL A   1      32.653  22.496  27.004  1.00  0.00     0.125 C 
ATOM     16  O   UNL A   1      34.767  24.897  25.538  1.00  0.00    -0.273 OA
BRANCH  11  17
ATOM     17  C   UNL A   1      31.954  25.860  25.619  1.00  0.00     0.055 A 
ATOM     18  C   UNL A   1      32.044  30.149  26.970  1.00  0.00     0.044 C 
ATOM     19  C   UNL A   1      31.818  28.964  26.069  1.00  0.00    -0.049 A 
ATOM     20  C   UNL A   1      30.909  29.157  24.515  1.00  0.00     0.004 A 
ATOM     21  C   UNL A   1      32.398  27.319  26.575  1.00  0.00     0.030 A 
ATOM     22  C   UNL A   1      30.492  27.707  23.516  1.00  0.00     0.006 A 
ATOM     23  C   UNL A   1      30.914  26.054  24.105  1.00  0.00    -0.027 A 
ATOM     24  C   UNL A   1      30.389  24.882  23.314  1.00  0.00     0.046 C 
ENDBRANCH  11  17
ENDBRANCH   9  10
ENDBRANCH   8   9
ENDBRANCH   5   8
ENDBRANCH   3   4
ENDBRANCH   2   3
ENDBRANCH   1   2
BRANCH   1  25
ATOM     25  C   UNL A   1      41.548  21.163  27.194  1.00  0.00     0.002 C 
BRANCH  25  26
ATOM     26  C   UNL A   1      42.885  21.894  26.994  1.00  0.00     0.021 C 
BRANCH  26  27
ATOM     27  C   UNL A   1      43.231  22.104  25.537  1.00  0.00     0.116 C 
BRANCH  27  28
ATOM     28  N   UNL A   1      44.335  23.052  25.304  1.00  0.00    -0.352 N 
ATOM     29  C   UNL A   1      44.355  24.441  25.381  1.00  0.00     0.251 C 
ATOM     30  H   UNL A   1      45.193  22.638  25.055  1.00  0.00     0.163 HD
ATOM     31  O   UNL A   1      45.255  25.083  24.850  1.00  0.00    -0.269 OA
BRANCH  29  32
ATOM     32  C   UNL A   1      43.322  25.133  26.184  1.00  0.00     0.039 A 
ATOM     33  C   UNL A   1      42.182  25.746  25.653  1.00  0.00     0.014 A 
ATOM     34  C   UNL A   1      43.741  25.606  27.408  1.00  0.00     0.014 A 
ATOM     35  C   UNL A   1      41.683  26.865  26.351  1.00  0.00     0.010 A 
ATOM     36  C   UNL A   1      42.816  26.096  28.243  1.00  0.00     0.010 A 
ATOM     37  C   UNL A   1      42.241  27.149  27.603  1.00  0.00    -0.014 A 
BRANCH  37  38
ATOM     38  C   UNL A   1      41.972  28.268  28.477  1.00  0.00     0.031 A 
ATOM     39  C   UNL A   1      42.985  29.318  28.235  1.00  0.00     0.074 A 
ATOM     40  C   UNL A   1      40.835  28.456  29.190  1.00  0.00     0.049 A 
ATOM     41  N   UNL A   1      44.099  29.417  28.878  1.00  0.00    -0.248 NA
ATOM     42  C   UNL A   1      42.971  30.072  26.962  1.00  0.00     0.031 C 
ATOM     43  C   UNL A   1      39.610  27.652  29.290  1.00  0.00     0.029 A 
ATOM     44  N   UNL A   1      40.559  29.504  30.024  1.00  0.00    -0.354 N 
ATOM     45  C   UNL A   1      44.761  30.468  28.272  1.00  0.00     0.074 A 
ATOM     46  C   UNL A   1      44.211  30.568  26.951  1.00  0.00     0.031 C 
ATOM     47  C   UNL A   1      38.662  28.336  29.988  1.00  0.00     0.029 A 
ATOM     48  C   UNL A   1      39.240  29.571  30.498  1.00  0.00     0.049 A 
ATOM     49  H   UNL A   1      41.241  30.168  30.275  1.00  0.00     0.167 HD
ATOM     50  C   UNL A   1      45.428  31.380  29.028  1.00  0.00     0.037 A 
ATOM     51  C   UNL A   1      38.704  30.629  31.186  1.00  0.00     0.037 A 
ATOM     52  C   UNL A   1      45.544  30.909  30.393  1.00  0.00     0.049 A 
ATOM     53  C   UNL A   1      39.824  31.421  31.733  1.00  0.00     0.074 A 
ATOM     54  C   UNL A   1      46.092  29.786  30.987  1.00  0.00     0.029 A 
ATOM     55  N   UNL A   1      44.624  31.397  31.292  1.00  0.00    -0.354 N 
ATOM     56  N   UNL A   1      40.552  30.981  32.713  1.00  0.00    -0.248 NA
ATOM     57  C   UNL A   1      40.451  32.390  30.839  1.00  0.00     0.031 C 
ATOM     58  C   UNL A   1      45.148  29.385  31.979  1.00  0.00     0.029 A 
ATOM     59  C   UNL A   1      44.140  30.340  32.023  1.00  0.00     0.049 A 
ATOM     60  H   UNL A   1      44.360  32.341  31.393  1.00  0.00     0.167 HD
ATOM     61  C   UNL A   1      41.840  31.208  32.279  1.00  0.00     0.074 A 
ATOM     62  C   UNL A   1      41.726  32.127  31.140  1.00  0.00     0.031 C 
ATOM     63  C   UNL A   1      42.839  30.352  32.633  1.00  0.00     0.037 A 
BRANCH  50  64
ATOM     64  C   UNL A   1      45.586  32.833  28.662  1.00  0.00     0.058 A 
ATOM     65  C   UNL A   1      46.880  33.386  28.681  1.00  0.00     0.135 A 
ATOM     66  C   UNL A   1      44.528  33.763  28.530  1.00  0.00     0.135 A 
ATOM     67  F   UNL A   1      47.958  32.594  28.810  1.00  0.00    -0.206 F 
ATOM     68  C   UNL A   1      47.105  34.759  28.634  1.00  0.00     0.059 A 
ATOM     69  C   UNL A   1      44.732  35.132  28.426  1.00  0.00     0.059 A 
ATOM     70  F   UNL A   1      43.239  33.411  28.583  1.00  0.00    -0.206 F 
ATOM     71  C   UNL A   1      46.023  35.624  28.509  1.00  0.00     0.060 A 
BRANCH  71  72
ATOM     72  S   UNL A   1      46.314  37.398  28.488  1.00  0.00     0.124 S 
ATOM     73  O   UNL A   1      47.722  37.468  28.861  1.00  0.00    -0.237 OA
ATOM     74  O   UNL A   1      45.999  37.732  27.102  1.00  0.00    -0.237 OA
ATOM     75  O   UNL A   1      45.371  37.906  29.480  1.00  0.00    -0.744 OA
ENDBRANCH  71  72
ENDBRANCH  50  64
BRANCH  51  76
ATOM     76  C   UNL A   1      37.459  31.361  30.870  1.00  0.00     0.058 A 
ATOM     77  C   UNL A   1      36.636  31.990  31.800  1.00  0.00     0.135 A 
ATOM     78  C   UNL A   1      37.338  31.870  29.610  1.00  0.00     0.135 A 
ATOM     79  F   UNL A   1      36.801  31.736  33.110  1.00  0.00    -0.206 F 
ATOM     80  C   UNL A   1      35.659  32.998  31.456  1.00  0.00     0.059 A 
ATOM     81  C   UNL A   1      36.398  32.859  29.270  1.00  0.00     0.059 A 
ATOM     82  F   UNL A   1      38.210  31.537  28.646  1.00  0.00    -0.206 F 
ATOM     83  C   UNL A   1      35.270  33.522  30.064  1.00  0.00     0.060 A 
BRANCH  83  84
ATOM     84  S   UNL A   1      33.292  34.939  29.243  1.00  0.00     0.124 S 
ATOM     85  O   UNL A   1      32.492  34.291  28.162  1.00  0.00    -0.237 OA
ATOM     86  O   UNL A   1      32.332  35.293  30.333  1.00  0.00    -0.237 OA
ATOM     87  O   UNL A   1      33.725  36.239  28.634  1.00  0.00    -0.744 OA
ENDBRANCH  83  84
ENDBRANCH  51  76
BRANCH  63  88
ATOM     88  C   UNL A   1      42.478  29.252  33.601  1.00  0.00     0.058 A 
ATOM     89  C   UNL A   1      42.204  27.915  33.242  1.00  0.00     0.135 A 
ATOM     90  C   UNL A   1      42.480  29.550  34.962  1.00  0.00     0.135 A 
ATOM     91  F   UNL A   1      42.289  27.512  31.972  1.00  0.00    -0.206 F 
ATOM     92  C   UNL A   1      41.896  26.935  34.185  1.00  0.00     0.059 A 
ATOM     93  C   UNL A   1      42.212  28.583  35.926  1.00  0.00     0.059 A 
ATOM     94  F   UNL A   1      42.786  30.792  35.371  1.00  0.00    -0.206 F 
ATOM     95  C   UNL A   1      41.905  27.282  35.531  1.00  0.00     0.060 A 
BRANCH  95  96
ATOM     96  S   UNL A   1      41.591  26.006  36.768  1.00  0.00     0.124 S 
ATOM     97  O   UNL A   1      40.622  26.656  37.642  1.00  0.00    -0.237 OA
ATOM     98  O   UNL A   1      41.075  24.903  35.960  1.00  0.00    -0.237 OA
ATOM     99  O   UNL A   1      42.909  25.773  37.354  1.00  0.00    -0.744 OA
ENDBRANCH  95  96
ENDBRANCH  63  88
ENDBRANCH  37  38
ENDBRANCH  29  32
ENDBRANCH  27  28
ENDBRANCH  26  27
ENDBRANCH  25  26
ENDBRANCH   1  25
TORSDOF 19
ENDMDL
MODEL 3
REMARK VINA RESULT:     -11.4      2.952      9.648
REMARK SMILES Cc1ccc(C)c(N2C(=O)C[C@@H](SCC(=O)NCCCCCCNC(=O)c3ccc(-c4c5nc(c(-c6c(F)cc(S(=O)(=O)[O-])cc6F)c6ccc([nH]6)c(-c6c(F)cc(S(=O)(=O)[O-])cc6F)c6nc(c(-c7c(F)cc(S(=O)(=O)[O-])cc7F)c7ccc4[nH]7)C=C6)C=C5)cc3)C2=O)c1
REMARK SMILES IDX 20 1 19 2 18 3 17 4 15 5 16 6 14 8 13 9 12 10 8 11 9 12
REMARK SMILES IDX 93 13 10 14 11 15 94 16 7 17 1 18 2 19 3 20 95 21 4 22 5 23
REMARK SMILES IDX 6 24 21 25 22 26 23 27 24 28 25 29 26 31 27 32 28 33 92 34
REMARK SMILES IDX 29 35 91 36 30 37 31 38 32 39 85 40 33 41 90 42 84 43 86 44
REMARK SMILES IDX 34 45 89 46 83 47 82 48 35 50 69 51 48 52 68 53 49 54 52 55
REMARK SMILES IDX 67 56 87 57 50 58 51 59 66 61 88 62 53 63 36 64 37 65 46 66
REMARK SMILES IDX 38 67 39 68 45 69 47 70 40 71 41 72 42 73 43 74 44 75 70 76
REMARK SMILES IDX 71 77 80 78 72 79 73 80 79 81 81 82 74 83 75 84 76 85 77 86
REMARK SMILES IDX 78 87 54 88 55 89 64 90 56 91 57 92 63 93 65 94 58 95 59 96
REMARK SMILES IDX 60 97 61 98 62 99
REMARK H PARENT 17 7 24 30 86 49 52 60
REMARK Flexibility Score: inf
ROOT
ATOM      1  C   UNL A   1      33.187  31.390  27.351  1.00  0.00     0.002 C 
ENDROOT
BRANCH   1   2
ATOM      2  C   UNL A   1      33.161  29.866  27.545  1.00  0.00     0.021 C 
BRANCH   2   3
ATOM      3  C   UNL A   1      32.671  29.087  26.323  1.00  0.00     0.116 C 
BRANCH   3   4
ATOM      4  N   UNL A   1      31.996  27.865  26.728  1.00  0.00    -0.355 N 
ATOM      5  C   UNL A   1      31.039  27.140  26.090  1.00  0.00     0.230 C 
ATOM      6  O   UNL A   1      30.500  26.220  26.711  1.00  0.00    -0.274 OA
ATOM      7  H   UNL A   1      32.275  27.506  27.601  1.00  0.00     0.163 HD
BRANCH   5   8
ATOM      8  C   UNL A   1      30.676  27.416  24.649  1.00  0.00     0.170 C 
BRANCH   8   9
ATOM      9  S   UNL A   1      30.640  25.977  23.572  1.00  0.00    -0.138 SA
BRANCH   9  10
ATOM     10  C   UNL A   1      32.391  25.879  23.040  1.00  0.00     0.146 C 
ATOM     11  N   UNL A   1      33.273  23.724  23.191  1.00  0.00    -0.249 N 
ATOM     12  C   UNL A   1      33.216  23.988  21.847  1.00  0.00     0.235 C 
ATOM     13  C   UNL A   1      33.011  24.846  23.926  1.00  0.00     0.247 C 
ATOM     14  O   UNL A   1      33.613  23.335  20.891  1.00  0.00    -0.274 OA
ATOM     15  C   UNL A   1      32.615  25.351  21.645  1.00  0.00     0.125 C 
ATOM     16  O   UNL A   1      33.252  25.112  25.097  1.00  0.00    -0.273 OA
BRANCH  11  17
ATOM     17  C   UNL A   1      33.759  22.516  23.738  1.00  0.00     0.055 A 
ATOM     18  C   UNL A   1      32.311  18.317  24.439  1.00  0.00     0.044 C 
ATOM     19  C   UNL A   1      33.272  19.469  24.316  1.00  0.00    -0.049 A 
ATOM     20  C   UNL A   1      34.992  19.288  24.851  1.00  0.00     0.004 A 
ATOM     21  C   UNL A   1      32.687  21.073  23.693  1.00  0.00     0.030 A 
ATOM     22  C   UNL A   1      36.100  20.718  24.860  1.00  0.00     0.006 A 
ATOM     23  C   UNL A   1      35.472  22.349  24.410  1.00  0.00    -0.027 A 
ATOM     24  C   UNL A   1      36.397  23.525  24.602  1.00  0.00     0.046 C 
ENDBRANCH  11  17
ENDBRANCH   9  10
ENDBRANCH   8   9
ENDBRANCH   5   8
ENDBRANCH   3   4
ENDBRANCH   2   3
ENDBRANCH   1   2
BRANCH   1  25
ATOM     25  C   UNL A   1      34.427  32.125  27.898  1.00  0.00     0.002 C 
BRANCH  25  26
ATOM     26  C   UNL A   1      34.182  33.431  28.671  1.00  0.00     0.021 C 
BRANCH  26  27
ATOM     27  C   UNL A   1      35.370  33.857  29.504  1.00  0.00     0.116 C 
BRANCH  27  28
ATOM     28  N   UNL A   1      35.399  33.283  30.861  1.00  0.00    -0.352 N 
ATOM     29  C   UNL A   1      35.820  32.030  31.295  1.00  0.00     0.251 C 
ATOM     30  H   UNL A   1      35.069  33.880  31.571  1.00  0.00     0.163 HD
ATOM     31  O   UNL A   1      35.480  31.604  32.394  1.00  0.00    -0.269 OA
BRANCH  29  32
ATOM     32  C   UNL A   1      36.753  31.251  30.452  1.00  0.00     0.039 A 
ATOM     33  C   UNL A   1      36.561  29.916  30.079  1.00  0.00     0.014 A 
ATOM     34  C   UNL A   1      38.058  31.692  30.448  1.00  0.00     0.014 A 
ATOM     35  C   UNL A   1      37.723  29.140  29.889  1.00  0.00     0.010 A 
ATOM     36  C   UNL A   1      38.911  31.128  29.583  1.00  0.00     0.010 A 
ATOM     37  C   UNL A   1      38.955  29.805  29.896  1.00  0.00    -0.014 A 
BRANCH  37  38
ATOM     38  C   UNL A   1      40.283  29.243  29.806  1.00  0.00     0.031 A 
ATOM     39  C   UNL A   1      40.760  28.920  31.167  1.00  0.00     0.074 A 
ATOM     40  C   UNL A   1      40.883  28.818  28.668  1.00  0.00     0.049 A 
ATOM     41  N   UNL A   1      41.433  29.730  31.914  1.00  0.00    -0.248 NA
ATOM     42  C   UNL A   1      40.139  27.806  31.917  1.00  0.00     0.031 C 
ATOM     43  C   UNL A   1      40.412  28.787  27.276  1.00  0.00     0.029 A 
ATOM     44  N   UNL A   1      42.138  28.286  28.556  1.00  0.00    -0.354 N 
ATOM     45  C   UNL A   1      41.583  29.057  33.112  1.00  0.00     0.074 A 
ATOM     46  C   UNL A   1      40.511  28.105  33.164  1.00  0.00     0.031 C 
ATOM     47  C   UNL A   1      41.296  28.099  26.503  1.00  0.00     0.029 A 
ATOM     48  C   UNL A   1      42.459  27.743  27.303  1.00  0.00     0.049 A 
ATOM     49  H   UNL A   1      42.775  28.283  29.307  1.00  0.00     0.167 HD
ATOM     50  C   UNL A   1      42.772  29.092  33.769  1.00  0.00     0.037 A 
ATOM     51  C   UNL A   1      43.579  27.001  27.030  1.00  0.00     0.037 A 
ATOM     52  C   UNL A   1      43.636  30.098  33.186  1.00  0.00     0.049 A 
ATOM     53  C   UNL A   1      44.566  27.271  28.096  1.00  0.00     0.074 A 
ATOM     54  C   UNL A   1      43.534  31.463  32.982  1.00  0.00     0.029 A 
ATOM     55  N   UNL A   1      44.576  29.654  32.285  1.00  0.00    -0.354 N 
ATOM     56  N   UNL A   1      45.180  28.411  28.178  1.00  0.00    -0.248 NA
ATOM     57  C   UNL A   1      44.430  26.511  29.334  1.00  0.00     0.031 C 
ATOM     58  C   UNL A   1      44.045  31.688  31.669  1.00  0.00     0.029 A 
ATOM     59  C   UNL A   1      44.540  30.481  31.189  1.00  0.00     0.049 A 
ATOM     60  H   UNL A   1      45.171  28.879  32.407  1.00  0.00     0.167 HD
ATOM     61  C   UNL A   1      45.055  28.743  29.510  1.00  0.00     0.074 A 
ATOM     62  C   UNL A   1      44.631  27.514  30.193  1.00  0.00     0.031 C 
ATOM     63  C   UNL A   1      44.943  30.049  29.879  1.00  0.00     0.037 A 
BRANCH  50  64
ATOM     64  C   UNL A   1      43.306  27.967  34.619  1.00  0.00     0.058 A 
ATOM     65  C   UNL A   1      43.713  28.264  35.933  1.00  0.00     0.135 A 
ATOM     66  C   UNL A   1      43.663  26.682  34.145  1.00  0.00     0.135 A 
ATOM     67  F   UNL A   1      43.434  29.458  36.480  1.00  0.00    -0.206 F 
ATOM     68  C   UNL A   1      44.467  27.377  36.697  1.00  0.00     0.059 A 
ATOM     69  C   UNL A   1      44.367  25.763  34.910  1.00  0.00     0.059 A 
ATOM     70  F   UNL A   1      43.430  26.279  32.891  1.00  0.00    -0.206 F 
ATOM     71  C   UNL A   1      44.791  26.129  36.174  1.00  0.00     0.060 A 
BRANCH  71  72
ATOM     72  S   UNL A   1      45.798  25.003  37.149  1.00  0.00     0.124 S 
ATOM     73  O   UNL A   1      45.892  25.717  38.418  1.00  0.00    -0.237 OA
ATOM     74  O   UNL A   1      44.975  23.798  37.150  1.00  0.00    -0.237 OA
ATOM     75  O   UNL A   1      47.037  24.910  36.383  1.00  0.00    -0.744 OA
ENDBRANCH  71  72
ENDBRANCH  50  64
BRANCH  51  76
ATOM     76  C   UNL A   1      43.633  25.669  26.390  1.00  0.00     0.058 A 
ATOM     77  C   UNL A   1      44.625  25.236  25.514  1.00  0.00     0.135 A 
ATOM     78  C   UNL A   1      42.987  24.647  27.022  1.00  0.00     0.135 A 
ATOM     79  F   UNL A   1      45.478  26.130  24.985  1.00  0.00    -0.206 F 
ATOM     80  C   UNL A   1      44.871  23.846  25.204  1.00  0.00     0.059 A 
ATOM     81  C   UNL A   1      43.229  23.292  26.734  1.00  0.00     0.059 A 
ATOM     82  F   UNL A   1      42.165  24.887  28.056  1.00  0.00    -0.206 F 
ATOM     83  C   UNL A   1      44.096  22.605  25.677  1.00  0.00     0.060 A 
BRANCH  83  84
ATOM     84  S   UNL A   1      44.103  20.162  24.888  1.00  0.00     0.124 S 
ATOM     85  O   UNL A   1      45.099  19.302  25.594  1.00  0.00    -0.237 OA
ATOM     86  O   UNL A   1      42.776  19.492  25.040  1.00  0.00    -0.237 OA
ATOM     87  O   UNL A   1      44.476  20.021  23.442  1.00  0.00    -0.744 OA
ENDBRANCH  83  84
ENDBRANCH  51  76
BRANCH  63  88
ATOM     88  C   UNL A   1      45.087  31.077  28.784  1.00  0.00     0.058 A 
ATOM     89  C   UNL A   1      46.310  31.478  28.206  1.00  0.00     0.135 A 
ATOM     90  C   UNL A   1      43.926  31.628  28.246  1.00  0.00     0.135 A 
ATOM     91  F   UNL A   1      47.464  30.920  28.580  1.00  0.00    -0.206 F 
ATOM     92  C   UNL A   1      46.380  32.420  27.180  1.00  0.00     0.059 A 
ATOM     93  C   UNL A   1      43.965  32.543  27.198  1.00  0.00     0.059 A 
ATOM     94  F   UNL A   1      42.728  31.248  28.716  1.00  0.00    -0.206 F 
ATOM     95  C   UNL A   1      45.195  32.947  26.680  1.00  0.00     0.060 A 
BRANCH  95  96
ATOM     96  S   UNL A   1      45.264  34.103  25.296  1.00  0.00     0.124 S 
ATOM     97  O   UNL A   1      44.601  33.353  24.235  1.00  0.00    -0.237 OA
ATOM     98  O   UNL A   1      44.528  35.256  25.811  1.00  0.00    -0.237 OA
ATOM     99  O   UNL A   1      46.696  34.322  25.110  1.00  0.00    -0.744 OA
ENDBRANCH  95  96
ENDBRANCH  63  88
ENDBRANCH  37  38
ENDBRANCH  29  32
ENDBRANCH  27  28
ENDBRANCH  26  27
ENDBRANCH  25  26
ENDBRANCH   1  25
TORSDOF 19
ENDMDL
