MODEL 1
REMARK VINA RESULT:     -12.0      0.000      0.000
REMARK SMILES Cn1cc(C(=O)NCCCCCCNC(=O)c2ccc(-c3c4nc(c(-c5c(F)cc(S(=O)(=O)[O-])cc5F)c5ccc([nH]5)c(-c5c(F)cc(S(=O)(=O)[O-])cc5F)c5nc(c(-c6c(F)cc(S(=O)(=O)[O-])cc6F)c6ccc3[nH]6)C=C5)C=C4)cc2)c(C(=O)Nc2ccc(-n3cncn3)cc2)n1
REMARK SMILES IDX 10 1 9 2 8 3 7 4 5 5 6 6 4 8 1 9 2 10 3 11 98 12 83 13 84 14
REMARK SMILES IDX 85 15 86 16 87 18 88 19 97 20 89 21 96 22 90 23 91 24 92 25
REMARK SMILES IDX 95 26 93 27 94 28 11 29 12 30 13 31 14 32 15 33 16 35 17 36
REMARK SMILES IDX 18 37 82 38 19 39 81 40 20 41 21 42 22 43 75 44 23 45 80 46
REMARK SMILES IDX 74 47 76 48 24 49 79 50 73 51 72 52 25 54 59 55 38 56 58 57
REMARK SMILES IDX 39 58 42 59 57 60 77 61 40 62 41 63 56 65 78 66 43 67 26 68
REMARK SMILES IDX 27 69 36 70 28 71 29 72 35 73 37 74 30 75 31 76 32 77 33 78
REMARK SMILES IDX 34 79 60 80 61 81 70 82 62 83 63 84 69 85 71 86 64 87 65 88
REMARK SMILES IDX 66 89 67 90 68 91 44 92 45 93 54 94 46 95 47 96 53 97 55 98
REMARK SMILES IDX 48 99 49 100 50 101 51 102 52 103
REMARK H PARENT 7 7 86 17 14 34 76 53 42 64
REMARK Flexibility Score: inf
ROOT
ATOM      1  C   UNL A   1      32.610  29.388  25.425  1.00  0.00     0.002 C 
ENDROOT
BRANCH   1   2
ATOM      2  C   UNL A   1      33.657  28.285  25.618  1.00  0.00     0.021 C 
BRANCH   2   3
ATOM      3  C   UNL A   1      33.159  26.862  25.370  1.00  0.00     0.116 C 
BRANCH   3   4
ATOM      4  N   UNL A   1      34.116  25.823  25.694  1.00  0.00    -0.352 N 
ATOM      5  C   UNL A   1      33.994  24.469  25.884  1.00  0.00     0.255 C 
ATOM      6  O   UNL A   1      35.039  23.837  26.038  1.00  0.00    -0.269 OA
ATOM      7  H   UNL A   1      35.037  26.155  25.798  1.00  0.00     0.163 HD
BRANCH   5   8
ATOM      8  C   UNL A   1      32.699  23.807  25.937  1.00  0.00     0.090 A 
ATOM      9  C   UNL A   1      29.532  22.665  27.252  1.00  0.00     0.173 C 
ATOM     10  N   UNL A   1      30.727  23.003  26.517  1.00  0.00    -0.274 N 
ATOM     11  C   UNL A   1      31.855  23.586  27.011  1.00  0.00     0.123 A 
ATOM     12  N   UNL A   1      30.770  22.786  25.199  1.00  0.00    -0.167 NA
ATOM     13  C   UNL A   1      31.950  23.311  24.809  1.00  0.00     0.163 A 
BRANCH  13  14
ATOM     14  C   UNL A   1      32.282  23.386  23.376  1.00  0.00     0.276 C 
ATOM     15  O   UNL A   1      33.063  22.588  22.850  1.00  0.00    -0.267 OA
ATOM     16  N   UNL A   1      31.675  24.309  22.551  1.00  0.00    -0.321 N 
ATOM     17  H   UNL A   1      31.757  24.099  21.593  1.00  0.00     0.170 HD
BRANCH  16  18
ATOM     18  C   UNL A   1      30.962  25.486  22.812  1.00  0.00     0.041 A 
ATOM     19  C   UNL A   1      31.404  26.644  22.166  1.00  0.00     0.028 A 
ATOM     20  C   UNL A   1      29.879  25.568  23.687  1.00  0.00     0.028 A 
ATOM     21  C   UNL A   1      30.726  27.854  22.328  1.00  0.00     0.030 A 
ATOM     22  C   UNL A   1      29.204  26.782  23.870  1.00  0.00     0.030 A 
ATOM     23  C   UNL A   1      29.611  27.926  23.170  1.00  0.00     0.067 A 
BRANCH  23  24
ATOM     24  N   UNL A   1      28.902  29.149  23.276  1.00  0.00    -0.221 N 
ATOM     25  C   UNL A   1      27.557  29.388  23.129  1.00  0.00     0.225 A 
ATOM     26  N   UNL A   1      29.534  30.325  23.525  1.00  0.00    -0.155 NA
ATOM     27  N   UNL A   1      27.298  30.669  23.254  1.00  0.00    -0.223 NA
ATOM     28  C   UNL A   1      28.528  31.200  23.487  1.00  0.00     0.246 A 
ENDBRANCH  23  24
ENDBRANCH  16  18
ENDBRANCH  13  14
ENDBRANCH   5   8
ENDBRANCH   3   4
ENDBRANCH   2   3
ENDBRANCH   1   2
BRANCH   1  29
ATOM     29  C   UNL A   1      31.978  29.973  26.692  1.00  0.00     0.002 C 
BRANCH  29  30
ATOM     30  C   UNL A   1      31.841  31.499  26.749  1.00  0.00     0.021 C 
BRANCH  30  31
ATOM     31  C   UNL A   1      33.049  32.254  27.304  1.00  0.00     0.116 C 
BRANCH  31  32
ATOM     32  N   UNL A   1      32.743  33.638  27.622  1.00  0.00    -0.352 N 
ATOM     33  C   UNL A   1      33.282  34.460  28.583  1.00  0.00     0.251 C 
ATOM     34  H   UNL A   1      32.042  34.050  27.065  1.00  0.00     0.163 HD
ATOM     35  O   UNL A   1      32.769  35.554  28.805  1.00  0.00    -0.269 OA
BRANCH  33  36
ATOM     36  C   UNL A   1      34.460  34.034  29.373  1.00  0.00     0.039 A 
ATOM     37  C   UNL A   1      34.247  33.324  30.561  1.00  0.00     0.014 A 
ATOM     38  C   UNL A   1      35.762  34.361  28.981  1.00  0.00     0.014 A 
ATOM     39  C   UNL A   1      35.338  32.878  31.314  1.00  0.00     0.010 A 
ATOM     40  C   UNL A   1      36.851  33.891  29.718  1.00  0.00     0.010 A 
ATOM     41  C   UNL A   1      36.649  33.133  30.881  1.00  0.00    -0.014 A 
BRANCH  41  42
ATOM     42  C   UNL A   1      37.818  32.591  31.616  1.00  0.00     0.031 A 
ATOM     43  C   UNL A   1      38.631  31.470  31.039  1.00  0.00     0.074 A 
ATOM     44  C   UNL A   1      38.113  33.065  32.842  1.00  0.00     0.049 A 
ATOM     45  N   UNL A   1      39.558  30.748  31.614  1.00  0.00    -0.248 NA
ATOM     46  C   UNL A   1      38.353  31.106  29.643  1.00  0.00     0.031 C 
ATOM     47  C   UNL A   1      37.395  34.137  33.532  1.00  0.00     0.029 A 
ATOM     48  N   UNL A   1      39.093  32.692  33.727  1.00  0.00    -0.354 N 
ATOM     49  C   UNL A   1      39.931  29.798  30.673  1.00  0.00     0.074 A 
ATOM     50  C   UNL A   1      39.162  30.068  29.474  1.00  0.00     0.031 C 
ATOM     51  C   UNL A   1      37.966  34.343  34.731  1.00  0.00     0.029 A 
ATOM     52  C   UNL A   1      39.071  33.403  34.901  1.00  0.00     0.049 A 
ATOM     53  H   UNL A   1      39.748  31.982  33.539  1.00  0.00     0.167 HD
ATOM     54  C   UNL A   1      40.814  28.779  30.804  1.00  0.00     0.037 A 
ATOM     55  C   UNL A   1      39.845  33.304  35.997  1.00  0.00     0.037 A 
ATOM     56  C   UNL A   1      41.612  28.530  31.976  1.00  0.00     0.049 A 
ATOM     57  C   UNL A   1      40.924  32.266  36.061  1.00  0.00     0.074 A 
ATOM     58  C   UNL A   1      42.485  27.484  32.225  1.00  0.00     0.029 A 
ATOM     59  N   UNL A   1      41.659  29.360  33.084  1.00  0.00    -0.354 N 
ATOM     60  N   UNL A   1      41.209  31.326  35.194  1.00  0.00    -0.248 NA
ATOM     61  C   UNL A   1      41.785  32.274  37.251  1.00  0.00     0.031 C 
ATOM     62  C   UNL A   1      43.077  27.696  33.479  1.00  0.00     0.029 A 
ATOM     63  C   UNL A   1      42.569  28.872  34.006  1.00  0.00     0.049 A 
ATOM     64  H   UNL A   1      41.122  30.177  33.200  1.00  0.00     0.167 HD
ATOM     65  C   UNL A   1      42.267  30.614  35.741  1.00  0.00     0.074 A 
ATOM     66  C   UNL A   1      42.592  31.249  37.004  1.00  0.00     0.031 C 
ATOM     67  C   UNL A   1      42.898  29.521  35.249  1.00  0.00     0.037 A 
BRANCH  54  68
ATOM     68  C   UNL A   1      40.916  27.835  29.648  1.00  0.00     0.058 A 
ATOM     69  C   UNL A   1      39.954  26.839  29.429  1.00  0.00     0.135 A 
ATOM     70  C   UNL A   1      42.014  27.901  28.776  1.00  0.00     0.135 A 
ATOM     71  F   UNL A   1      38.899  26.728  30.250  1.00  0.00    -0.206 F 
ATOM     72  C   UNL A   1      40.089  25.919  28.394  1.00  0.00     0.059 A 
ATOM     73  C   UNL A   1      42.167  26.994  27.735  1.00  0.00     0.059 A 
ATOM     74  F   UNL A   1      42.966  28.830  28.957  1.00  0.00    -0.206 F 
ATOM     75  C   UNL A   1      41.208  25.994  27.563  1.00  0.00     0.060 A 
BRANCH  75  76
ATOM     76  S   UNL A   1      41.444  24.780  26.248  1.00  0.00     0.124 S 
ATOM     77  O   UNL A   1      41.264  25.607  25.058  1.00  0.00    -0.237 OA
ATOM     78  O   UNL A   1      42.802  24.297  26.478  1.00  0.00    -0.237 OA
ATOM     79  O   UNL A   1      40.386  23.812  26.513  1.00  0.00    -0.744 OA
ENDBRANCH  75  76
ENDBRANCH  54  68
BRANCH  55  80
ATOM     80  C   UNL A   1      39.608  34.224  37.132  1.00  0.00     0.058 A 
ATOM     81  C   UNL A   1      38.851  33.814  38.238  1.00  0.00     0.135 A 
ATOM     82  C   UNL A   1      40.190  35.498  37.158  1.00  0.00     0.135 A 
ATOM     83  F   UNL A   1      38.280  32.600  38.247  1.00  0.00    -0.206 F 
ATOM     84  C   UNL A   1      38.689  34.635  39.347  1.00  0.00     0.059 A 
ATOM     85  C   UNL A   1      40.044  36.335  38.257  1.00  0.00     0.059 A 
ATOM     86  F   UNL A   1      40.930  35.921  36.122  1.00  0.00    -0.206 F 
ATOM     87  C   UNL A   1      39.293  35.894  39.349  1.00  0.00     0.060 A 
BRANCH  87  88
ATOM     88  S   UNL A   1      39.188  36.938  40.820  1.00  0.00     0.124 S 
ATOM     89  O   UNL A   1      38.384  38.051  40.330  1.00  0.00    -0.237 OA
ATOM     90  O   UNL A   1      38.541  36.067  41.795  1.00  0.00    -0.237 OA
ATOM     91  O   UNL A   1      40.591  37.235  41.095  1.00  0.00    -0.744 OA
ENDBRANCH  87  88
ENDBRANCH  55  80
BRANCH  67  92
ATOM     92  C   UNL A   1      43.999  28.943  36.083  1.00  0.00     0.058 A 
ATOM     93  C   UNL A   1      45.295  29.477  36.033  1.00  0.00     0.135 A 
ATOM     94  C   UNL A   1      43.762  27.857  36.938  1.00  0.00     0.135 A 
ATOM     95  F   UNL A   1      45.567  30.514  35.226  1.00  0.00    -0.206 F 
ATOM     96  C   UNL A   1      46.327  28.947  36.801  1.00  0.00     0.059 A 
ATOM     97  C   UNL A   1      44.780  27.311  37.713  1.00  0.00     0.059 A 
ATOM     98  F   UNL A   1      42.539  27.309  37.011  1.00  0.00    -0.206 F 
ATOM     99  C   UNL A   1      46.062  27.856  37.630  1.00  0.00     0.060 A 
BRANCH  99 100
ATOM    100  S   UNL A   1      47.390  27.162  38.638  1.00  0.00     0.124 S 
ATOM    101  O   UNL A   1      48.216  26.513  37.626  1.00  0.00    -0.237 OA
ATOM    102  O   UNL A   1      47.975  28.342  39.268  1.00  0.00    -0.237 OA
ATOM    103  O   UNL A   1      46.679  26.267  39.545  1.00  0.00    -0.744 OA
ENDBRANCH  99 100
ENDBRANCH  67  92
ENDBRANCH  41  42
ENDBRANCH  33  36
ENDBRANCH  31  32
ENDBRANCH  30  31
ENDBRANCH  29  30
ENDBRANCH   1  29
TORSDOF 19
ENDMDL
MODEL 2
REMARK VINA RESULT:     -12.0      6.352     11.137
REMARK SMILES Cn1cc(C(=O)NCCCCCCNC(=O)c2ccc(-c3c4nc(c(-c5c(F)cc(S(=O)(=O)[O-])cc5F)c5ccc([nH]5)c(-c5c(F)cc(S(=O)(=O)[O-])cc5F)c5nc(c(-c6c(F)cc(S(=O)(=O)[O-])cc6F)c6ccc3[nH]6)C=C5)C=C4)cc2)c(C(=O)Nc2ccc(-n3cncn3)cc2)n1
REMARK SMILES IDX 10 1 9 2 8 3 7 4 5 5 6 6 4 8 1 9 2 10 3 11 98 12 83 13 84 14
REMARK SMILES IDX 85 15 86 16 87 18 88 19 97 20 89 21 96 22 90 23 91 24 92 25
REMARK SMILES IDX 95 26 93 27 94 28 11 29 12 30 13 31 14 32 15 33 16 35 17 36
REMARK SMILES IDX 18 37 82 38 19 39 81 40 20 41 21 42 22 43 75 44 23 45 80 46
REMARK SMILES IDX 74 47 76 48 24 49 79 50 73 51 72 52 25 54 59 55 38 56 58 57
REMARK SMILES IDX 39 58 42 59 57 60 77 61 40 62 41 63 56 65 78 66 43 67 26 68
REMARK SMILES IDX 27 69 36 70 28 71 29 72 35 73 37 74 30 75 31 76 32 77 33 78
REMARK SMILES IDX 34 79 60 80 61 81 70 82 62 83 63 84 69 85 71 86 64 87 65 88
REMARK SMILES IDX 66 89 67 90 68 91 44 92 45 93 54 94 46 95 47 96 53 97 55 98
REMARK SMILES IDX 48 99 49 100 50 101 51 102 52 103
REMARK H PARENT 7 7 86 17 14 34 76 53 42 64
REMARK Flexibility Score: inf
ROOT
ATOM      1  C   UNL A   1      32.839  28.102  24.865  1.00  0.00     0.002 C 
ENDROOT
BRANCH   1   2
ATOM      2  C   UNL A   1      31.440  27.481  24.952  1.00  0.00     0.021 C 
BRANCH   2   3
ATOM      3  C   UNL A   1      31.023  27.004  26.342  1.00  0.00     0.116 C 
BRANCH   3   4
ATOM      4  N   UNL A   1      30.581  25.625  26.399  1.00  0.00    -0.352 N 
ATOM      5  C   UNL A   1      31.213  24.432  26.152  1.00  0.00     0.255 C 
ATOM      6  O   UNL A   1      30.580  23.408  26.407  1.00  0.00    -0.269 OA
ATOM      7  H   UNL A   1      29.640  25.524  26.669  1.00  0.00     0.163 HD
BRANCH   5   8
ATOM      8  C   UNL A   1      32.552  24.367  25.584  1.00  0.00     0.090 A 
ATOM      9  C   UNL A   1      36.153  24.106  25.428  1.00  0.00     0.173 C 
ATOM     10  N   UNL A   1      34.727  24.222  25.240  1.00  0.00    -0.274 N 
ATOM     11  C   UNL A   1      33.787  24.409  26.208  1.00  0.00     0.123 A 
ATOM     12  N   UNL A   1      34.214  24.094  24.013  1.00  0.00    -0.167 NA
ATOM     13  C   UNL A   1      32.879  24.133  24.200  1.00  0.00     0.163 A 
BRANCH  13  14
ATOM     14  C   UNL A   1      31.972  23.872  23.069  1.00  0.00     0.276 C 
ATOM     15  O   UNL A   1      31.403  24.790  22.471  1.00  0.00    -0.267 OA
ATOM     16  N   UNL A   1      31.780  22.595  22.588  1.00  0.00    -0.321 N 
ATOM     17  H   UNL A   1      31.386  22.564  21.687  1.00  0.00     0.170 HD
BRANCH  16  18
ATOM     18  C   UNL A   1      32.039  21.331  23.133  1.00  0.00     0.041 A 
ATOM     19  C   UNL A   1      32.117  20.263  22.234  1.00  0.00     0.028 A 
ATOM     20  C   UNL A   1      32.188  21.082  24.497  1.00  0.00     0.028 A 
ATOM     21  C   UNL A   1      32.419  18.975  22.680  1.00  0.00     0.030 A 
ATOM     22  C   UNL A   1      32.474  19.789  24.956  1.00  0.00     0.030 A 
ATOM     23  C   UNL A   1      32.616  18.734  24.045  1.00  0.00     0.067 A 
BRANCH  23  24
ATOM     24  N   UNL A   1      32.979  17.432  24.472  1.00  0.00    -0.221 N 
ATOM     25  C   UNL A   1      33.971  16.608  23.997  1.00  0.00     0.225 A 
ATOM     26  N   UNL A   1      32.306  16.788  25.461  1.00  0.00    -0.155 NA
ATOM     27  N   UNL A   1      33.954  15.455  24.625  1.00  0.00    -0.223 NA
ATOM     28  C   UNL A   1      32.924  15.607  25.500  1.00  0.00     0.246 A 
ENDBRANCH  23  24
ENDBRANCH  16  18
ENDBRANCH  13  14
ENDBRANCH   5   8
ENDBRANCH   3   4
ENDBRANCH   2   3
ENDBRANCH   1   2
BRANCH   1  29
ATOM     29  C   UNL A   1      33.122  29.305  25.771  1.00  0.00     0.002 C 
BRANCH  29  30
ATOM     30  C   UNL A   1      33.834  29.013  27.097  1.00  0.00     0.021 C 
BRANCH  30  31
ATOM     31  C   UNL A   1      35.139  29.772  27.331  1.00  0.00     0.116 C 
BRANCH  31  32
ATOM     32  N   UNL A   1      35.129  30.529  28.571  1.00  0.00    -0.352 N 
ATOM     33  C   UNL A   1      36.103  30.656  29.533  1.00  0.00     0.251 C 
ATOM     34  H   UNL A   1      34.298  31.027  28.749  1.00  0.00     0.163 HD
ATOM     35  O   UNL A   1      35.839  31.212  30.596  1.00  0.00    -0.269 OA
BRANCH  33  36
ATOM     36  C   UNL A   1      37.462  30.107  29.315  1.00  0.00     0.039 A 
ATOM     37  C   UNL A   1      37.977  30.093  28.014  1.00  0.00     0.014 A 
ATOM     38  C   UNL A   1      38.212  29.572  30.367  1.00  0.00     0.014 A 
ATOM     39  C   UNL A   1      39.268  29.613  27.778  1.00  0.00     0.010 A 
ATOM     40  C   UNL A   1      39.513  29.120  30.136  1.00  0.00     0.010 A 
ATOM     41  C   UNL A   1      40.057  29.150  28.843  1.00  0.00    -0.014 A 
BRANCH  41  42
ATOM     42  C   UNL A   1      41.461  28.722  28.628  1.00  0.00     0.031 A 
ATOM     43  C   UNL A   1      42.585  29.710  28.729  1.00  0.00     0.074 A 
ATOM     44  C   UNL A   1      41.724  27.449  28.275  1.00  0.00     0.049 A 
ATOM     45  N   UNL A   1      43.840  29.564  28.389  1.00  0.00    -0.248 NA
ATOM     46  C   UNL A   1      42.250  31.037  29.263  1.00  0.00     0.031 C 
ATOM     47  C   UNL A   1      40.727  26.389  28.121  1.00  0.00     0.029 A 
ATOM     48  N   UNL A   1      42.914  26.838  27.972  1.00  0.00    -0.354 N 
ATOM     49  C   UNL A   1      44.435  30.799  28.607  1.00  0.00     0.074 A 
ATOM     50  C   UNL A   1      43.411  31.670  29.151  1.00  0.00     0.031 C 
ATOM     51  C   UNL A   1      41.350  25.254  27.762  1.00  0.00     0.029 A 
ATOM     52  C   UNL A   1      42.782  25.513  27.638  1.00  0.00     0.049 A 
ATOM     53  H   UNL A   1      43.781  27.305  27.991  1.00  0.00     0.167 HD
ATOM     54  C   UNL A   1      45.709  31.181  28.351  1.00  0.00     0.037 A 
ATOM     55  C   UNL A   1      43.706  24.610  27.262  1.00  0.00     0.037 A 
ATOM     56  C   UNL A   1      46.742  30.313  27.850  1.00  0.00     0.049 A 
ATOM     57  C   UNL A   1      45.142  25.017  27.135  1.00  0.00     0.074 A 
ATOM     58  C   UNL A   1      48.044  30.626  27.498  1.00  0.00     0.029 A 
ATOM     59  N   UNL A   1      46.596  28.948  27.661  1.00  0.00    -0.354 N 
ATOM     60  N   UNL A   1      45.671  26.208  27.267  1.00  0.00    -0.248 NA
ATOM     61  C   UNL A   1      46.106  23.958  26.806  1.00  0.00     0.031 C 
ATOM     62  C   UNL A   1      48.693  29.442  27.119  1.00  0.00     0.029 A 
ATOM     63  C   UNL A   1      47.791  28.396  27.232  1.00  0.00     0.049 A 
ATOM     64  H   UNL A   1      45.763  28.444  27.810  1.00  0.00     0.167 HD
ATOM     65  C   UNL A   1      47.027  26.049  27.017  1.00  0.00     0.074 A 
ATOM     66  C   UNL A   1      47.243  24.640  26.750  1.00  0.00     0.031 C 
ATOM     67  C   UNL A   1      48.000  26.992  26.990  1.00  0.00     0.037 A 
BRANCH  54  68
ATOM     68  C   UNL A   1      46.028  32.626  28.575  1.00  0.00     0.058 A 
ATOM     69  C   UNL A   1      46.497  33.088  29.813  1.00  0.00     0.135 A 
ATOM     70  C   UNL A   1      45.819  33.563  27.552  1.00  0.00     0.135 A 
ATOM     71  F   UNL A   1      46.692  32.229  30.825  1.00  0.00    -0.206 F 
ATOM     72  C   UNL A   1      46.725  34.442  30.039  1.00  0.00     0.059 A 
ATOM     73  C   UNL A   1      46.042  34.919  27.755  1.00  0.00     0.059 A 
ATOM     74  F   UNL A   1      45.357  33.166  26.356  1.00  0.00    -0.206 F 
ATOM     75  C   UNL A   1      46.478  35.351  29.008  1.00  0.00     0.060 A 
BRANCH  75  76
ATOM     76  S   UNL A   1      46.708  37.121  29.286  1.00  0.00     0.124 S 
ATOM     77  O   UNL A   1      47.841  37.122  30.207  1.00  0.00    -0.237 OA
ATOM     78  O   UNL A   1      46.983  37.636  27.948  1.00  0.00    -0.237 OA
ATOM     79  O   UNL A   1      45.428  37.523  29.857  1.00  0.00    -0.744 OA
ENDBRANCH  75  76
ENDBRANCH  54  68
BRANCH  55  80
ATOM     80  C   UNL A   1      43.279  23.223  26.971  1.00  0.00     0.058 A 
ATOM     81  C   UNL A   1      43.232  22.753  25.652  1.00  0.00     0.135 A 
ATOM     82  C   UNL A   1      42.982  22.330  28.008  1.00  0.00     0.135 A 
ATOM     83  F   UNL A   1      43.512  23.580  24.634  1.00  0.00    -0.206 F 
ATOM     84  C   UNL A   1      42.915  21.430  25.367  1.00  0.00     0.059 A 
ATOM     85  C   UNL A   1      42.665  21.002  27.748  1.00  0.00     0.059 A 
ATOM     86  F   UNL A   1      43.028  22.741  29.284  1.00  0.00    -0.206 F 
ATOM     87  C   UNL A   1      42.637  20.560  26.424  1.00  0.00     0.060 A 
BRANCH  87  88
ATOM     88  S   UNL A   1      42.327  18.812  26.089  1.00  0.00     0.124 S 
ATOM     89  O   UNL A   1      43.253  18.556  24.992  1.00  0.00    -0.237 OA
ATOM     90  O   UNL A   1      42.652  18.172  27.359  1.00  0.00    -0.237 OA
ATOM     91  O   UNL A   1      40.908  18.806  25.742  1.00  0.00    -0.744 OA
ENDBRANCH  87  88
ENDBRANCH  55  80
BRANCH  67  92
ATOM     92  C   UNL A   1      49.383  26.527  26.657  1.00  0.00     0.058 A 
ATOM     93  C   UNL A   1      49.837  26.512  25.330  1.00  0.00     0.135 A 
ATOM     94  C   UNL A   1      50.261  26.098  27.662  1.00  0.00     0.135 A 
ATOM     95  F   UNL A   1      49.029  26.910  24.336  1.00  0.00    -0.206 F 
ATOM     96  C   UNL A   1      51.119  26.078  25.007  1.00  0.00     0.059 A 
ATOM     97  C   UNL A   1      51.547  25.658  27.362  1.00  0.00     0.059 A 
ATOM     98  F   UNL A   1      49.866  26.087  28.945  1.00  0.00    -0.206 F 
ATOM     99  C   UNL A   1      51.963  25.642  26.030  1.00  0.00     0.060 A 
BRANCH  99 100
ATOM    100  S   UNL A   1      53.633  25.083  25.627  1.00  0.00     0.124 S 
ATOM    101  O   UNL A   1      53.944  25.906  24.464  1.00  0.00    -0.237 OA
ATOM    102  O   UNL A   1      54.384  25.393  26.840  1.00  0.00    -0.237 OA
ATOM    103  O   UNL A   1      53.446  23.660  25.364  1.00  0.00    -0.744 OA
ENDBRANCH  99 100
ENDBRANCH  67  92
ENDBRANCH  41  42
ENDBRANCH  33  36
ENDBRANCH  31  32
ENDBRANCH  30  31
ENDBRANCH  29  30
ENDBRANCH   1  29
TORSDOF 19
ENDMDL
MODEL 3
REMARK VINA RESULT:     -11.8      6.010      8.307
REMARK SMILES Cn1cc(C(=O)NCCCCCCNC(=O)c2ccc(-c3c4nc(c(-c5c(F)cc(S(=O)(=O)[O-])cc5F)c5ccc([nH]5)c(-c5c(F)cc(S(=O)(=O)[O-])cc5F)c5nc(c(-c6c(F)cc(S(=O)(=O)[O-])cc6F)c6ccc3[nH]6)C=C5)C=C4)cc2)c(C(=O)Nc2ccc(-n3cncn3)cc2)n1
REMARK SMILES IDX 10 1 9 2 8 3 7 4 5 5 6 6 4 8 1 9 2 10 3 11 98 12 83 13 84 14
REMARK SMILES IDX 85 15 86 16 87 18 88 19 97 20 89 21 96 22 90 23 91 24 92 25
REMARK SMILES IDX 95 26 93 27 94 28 11 29 12 30 13 31 14 32 15 33 16 35 17 36
REMARK SMILES IDX 18 37 82 38 19 39 81 40 20 41 21 42 22 43 75 44 23 45 80 46
REMARK SMILES IDX 74 47 76 48 24 49 79 50 73 51 72 52 25 54 59 55 38 56 58 57
REMARK SMILES IDX 39 58 42 59 57 60 77 61 40 62 41 63 56 65 78 66 43 67 26 68
REMARK SMILES IDX 27 69 36 70 28 71 29 72 35 73 37 74 30 75 31 76 32 77 33 78
REMARK SMILES IDX 34 79 60 80 61 81 70 82 62 83 63 84 69 85 71 86 64 87 65 88
REMARK SMILES IDX 66 89 67 90 68 91 44 92 45 93 54 94 46 95 47 96 53 97 55 98
REMARK SMILES IDX 48 99 49 100 50 101 51 102 52 103
REMARK H PARENT 7 7 86 17 14 34 76 53 42 64
REMARK Flexibility Score: inf
ROOT
ATOM      1  C   UNL A   1      32.399  29.766  26.217  1.00  0.00     0.002 C 
ENDROOT
BRANCH   1   2
ATOM      2  C   UNL A   1      33.094  28.701  25.362  1.00  0.00     0.021 C 
BRANCH   2   3
ATOM      3  C   UNL A   1      32.668  27.261  25.639  1.00  0.00     0.116 C 
BRANCH   3   4
ATOM      4  N   UNL A   1      33.763  26.317  25.746  1.00  0.00    -0.352 N 
ATOM      5  C   UNL A   1      33.814  24.946  25.775  1.00  0.00     0.255 C 
ATOM      6  O   UNL A   1      34.933  24.434  25.757  1.00  0.00    -0.269 OA
ATOM      7  H   UNL A   1      34.647  26.746  25.809  1.00  0.00     0.163 HD
BRANCH   5   8
ATOM      8  C   UNL A   1      32.613  24.127  25.859  1.00  0.00     0.090 A 
ATOM      9  C   UNL A   1      29.621  22.637  27.234  1.00  0.00     0.173 C 
ATOM     10  N   UNL A   1      30.761  23.100  26.479  1.00  0.00    -0.274 N 
ATOM     11  C   UNL A   1      31.808  23.836  26.946  1.00  0.00     0.123 A 
ATOM     12  N   UNL A   1      30.826  22.849  25.168  1.00  0.00    -0.167 NA
ATOM     13  C   UNL A   1      31.928  23.506  24.752  1.00  0.00     0.163 A 
BRANCH  13  14
ATOM     14  C   UNL A   1      32.241  23.578  23.315  1.00  0.00     0.276 C 
ATOM     15  O   UNL A   1      33.011  22.774  22.780  1.00  0.00    -0.267 OA
ATOM     16  N   UNL A   1      31.630  24.504  22.497  1.00  0.00    -0.321 N 
ATOM     17  H   UNL A   1      31.698  24.293  21.538  1.00  0.00     0.170 HD
BRANCH  16  18
ATOM     18  C   UNL A   1      30.928  25.686  22.766  1.00  0.00     0.041 A 
ATOM     19  C   UNL A   1      31.416  26.854  22.174  1.00  0.00     0.028 A 
ATOM     20  C   UNL A   1      29.813  25.761  23.601  1.00  0.00     0.028 A 
ATOM     21  C   UNL A   1      30.754  28.071  22.346  1.00  0.00     0.030 A 
ATOM     22  C   UNL A   1      29.153  26.982  23.794  1.00  0.00     0.030 A 
ATOM     23  C   UNL A   1      29.607  28.139  23.146  1.00  0.00     0.067 A 
BRANCH  23  24
ATOM     24  N   UNL A   1      28.916  29.371  23.262  1.00  0.00    -0.221 N 
ATOM     25  C   UNL A   1      27.603  29.660  22.978  1.00  0.00     0.225 A 
ATOM     26  N   UNL A   1      29.538  30.507  23.672  1.00  0.00    -0.155 NA
ATOM     27  N   UNL A   1      27.358  30.935  23.169  1.00  0.00    -0.223 NA
ATOM     28  C   UNL A   1      28.563  31.411  23.584  1.00  0.00     0.246 A 
ENDBRANCH  23  24
ENDBRANCH  16  18
ENDBRANCH  13  14
ENDBRANCH   5   8
ENDBRANCH   3   4
ENDBRANCH   2   3
ENDBRANCH   1   2
BRANCH   1  29
ATOM     29  C   UNL A   1      33.279  30.558  27.190  1.00  0.00     0.002 C 
BRANCH  29  30
ATOM     30  C   UNL A   1      34.608  29.912  27.594  1.00  0.00     0.021 C 
BRANCH  30  31
ATOM     31  C   UNL A   1      35.596  30.824  28.321  1.00  0.00     0.116 C 
BRANCH  31  32
ATOM     32  N   UNL A   1      35.583  30.625  29.760  1.00  0.00    -0.352 N 
ATOM     33  C   UNL A   1      36.523  30.041  30.576  1.00  0.00     0.251 C 
ATOM     34  H   UNL A   1      34.779  30.957  30.221  1.00  0.00     0.163 HD
ATOM     35  O   UNL A   1      36.252  29.817  31.753  1.00  0.00    -0.269 OA
BRANCH  33  36
ATOM     36  C   UNL A   1      37.853  29.655  30.049  1.00  0.00     0.039 A 
ATOM     37  C   UNL A   1      38.103  29.818  28.681  1.00  0.00     0.014 A 
ATOM     38  C   UNL A   1      38.834  29.099  30.875  1.00  0.00     0.014 A 
ATOM     39  C   UNL A   1      39.358  29.494  28.157  1.00  0.00     0.010 A 
ATOM     40  C   UNL A   1      40.097  28.803  30.357  1.00  0.00     0.010 A 
ATOM     41  C   UNL A   1      40.374  29.012  28.997  1.00  0.00    -0.014 A 
BRANCH  41  42
ATOM     42  C   UNL A   1      41.738  28.750  28.477  1.00  0.00     0.031 A 
ATOM     43  C   UNL A   1      42.113  27.391  27.966  1.00  0.00     0.074 A 
ATOM     44  C   UNL A   1      42.669  29.723  28.525  1.00  0.00     0.049 A 
ATOM     45  N   UNL A   1      43.297  26.928  27.655  1.00  0.00    -0.248 NA
ATOM     46  C   UNL A   1      41.019  26.424  27.798  1.00  0.00     0.031 C 
ATOM     47  C   UNL A   1      42.448  31.083  29.016  1.00  0.00     0.029 A 
ATOM     48  N   UNL A   1      43.992  29.707  28.163  1.00  0.00    -0.354 N 
ATOM     49  C   UNL A   1      43.102  25.596  27.317  1.00  0.00     0.074 A 
ATOM     50  C   UNL A   1      41.679  25.339  27.417  1.00  0.00     0.031 C 
ATOM     51  C   UNL A   1      43.595  31.776  28.914  1.00  0.00     0.029 A 
ATOM     52  C   UNL A   1      44.633  30.901  28.375  1.00  0.00     0.049 A 
ATOM     53  H   UNL A   1      44.439  28.914  27.788  1.00  0.00     0.167 HD
ATOM     54  C   UNL A   1      44.028  24.665  26.981  1.00  0.00     0.037 A 
ATOM     55  C   UNL A   1      45.916  31.252  28.172  1.00  0.00     0.037 A 
ATOM     56  C   UNL A   1      45.437  24.921  26.839  1.00  0.00     0.049 A 
ATOM     57  C   UNL A   1      46.895  30.245  27.649  1.00  0.00     0.074 A 
ATOM     58  C   UNL A   1      46.459  24.028  26.567  1.00  0.00     0.029 A 
ATOM     59  N   UNL A   1      46.018  26.176  26.926  1.00  0.00    -0.354 N 
ATOM     60  N   UNL A   1      46.710  28.970  27.412  1.00  0.00    -0.248 NA
ATOM     61  C   UNL A   1      48.255  30.723  27.368  1.00  0.00     0.031 C 
ATOM     62  C   UNL A   1      47.657  24.749  26.465  1.00  0.00     0.029 A 
ATOM     63  C   UNL A   1      47.378  26.089  26.678  1.00  0.00     0.049 A 
ATOM     64  H   UNL A   1      45.535  27.008  27.134  1.00  0.00     0.167 HD
ATOM     65  C   UNL A   1      47.934  28.485  26.975  1.00  0.00     0.074 A 
ATOM     66  C   UNL A   1      48.849  29.610  26.954  1.00  0.00     0.031 C 
ATOM     67  C   UNL A   1      48.274  27.216  26.641  1.00  0.00     0.037 A 
BRANCH  54  68
ATOM     68  C   UNL A   1      43.527  23.268  26.790  1.00  0.00     0.058 A 
ATOM     69  C   UNL A   1      43.164  22.465  27.881  1.00  0.00     0.135 A 
ATOM     70  C   UNL A   1      43.450  22.714  25.503  1.00  0.00     0.135 A 
ATOM     71  F   UNL A   1      43.241  22.949  29.130  1.00  0.00    -0.206 F 
ATOM     72  C   UNL A   1      42.765  21.144  27.704  1.00  0.00     0.059 A 
ATOM     73  C   UNL A   1      43.052  21.398  25.304  1.00  0.00     0.059 A 
ATOM     74  F   UNL A   1      43.801  23.443  24.432  1.00  0.00    -0.206 F 
ATOM     75  C   UNL A   1      42.729  20.615  26.413  1.00  0.00     0.060 A 
BRANCH  75  76
ATOM     76  S   UNL A   1      42.272  18.887  26.153  1.00  0.00     0.124 S 
ATOM     77  O   UNL A   1      42.508  18.325  27.480  1.00  0.00    -0.237 OA
ATOM     78  O   UNL A   1      40.874  18.969  25.743  1.00  0.00    -0.237 OA
ATOM     79  O   UNL A   1      43.202  18.464  25.112  1.00  0.00    -0.744 OA
ENDBRANCH  75  76
ENDBRANCH  54  68
BRANCH  55  80
ATOM     80  C   UNL A   1      46.341  32.637  28.477  1.00  0.00     0.058 A 
ATOM     81  C   UNL A   1      46.277  33.636  27.497  1.00  0.00     0.135 A 
ATOM     82  C   UNL A   1      46.749  32.996  29.768  1.00  0.00     0.135 A 
ATOM     83  F   UNL A   1      45.889  33.329  26.249  1.00  0.00    -0.206 F 
ATOM     84  C   UNL A   1      46.592  34.957  27.789  1.00  0.00     0.059 A 
ATOM     85  C   UNL A   1      47.066  34.311  30.085  1.00  0.00     0.059 A 
ATOM     86  F   UNL A   1      46.811  32.068  30.736  1.00  0.00    -0.206 F 
ATOM     87  C   UNL A   1      46.982  35.286  29.089  1.00  0.00     0.060 A 
BRANCH  87  88
ATOM     88  S   UNL A   1      47.294  37.012  29.524  1.00  0.00     0.124 S 
ATOM     89  O   UNL A   1      46.001  37.623  29.238  1.00  0.00    -0.237 OA
ATOM     90  O   UNL A   1      47.664  36.934  30.933  1.00  0.00    -0.237 OA
ATOM     91  O   UNL A   1      48.384  37.370  28.620  1.00  0.00    -0.744 OA
ENDBRANCH  87  88
ENDBRANCH  55  80
BRANCH  67  92
ATOM     92  C   UNL A   1      49.694  26.982  26.230  1.00  0.00     0.058 A 
ATOM     93  C   UNL A   1      50.681  26.698  27.185  1.00  0.00     0.135 A 
ATOM     94  C   UNL A   1      50.072  27.036  24.881  1.00  0.00     0.135 A 
ATOM     95  F   UNL A   1      50.364  26.641  28.487  1.00  0.00    -0.206 F 
ATOM     96  C   UNL A   1      52.005  26.482  26.816  1.00  0.00     0.059 A 
ATOM     97  C   UNL A   1      51.391  26.825  24.490  1.00  0.00     0.059 A 
ATOM     98  F   UNL A   1      49.162  27.312  23.935  1.00  0.00    -0.206 F 
ATOM     99  C   UNL A   1      52.352  26.559  25.466  1.00  0.00     0.060 A 
BRANCH  99 100
ATOM    100  S   UNL A   1      54.066  26.273  24.971  1.00  0.00     0.124 S 
ATOM    101  O   UNL A   1      54.790  26.725  26.154  1.00  0.00    -0.237 OA
ATOM    102  O   UNL A   1      54.100  24.836  24.720  1.00  0.00    -0.237 OA
ATOM    103  O   UNL A   1      54.207  27.111  23.784  1.00  0.00    -0.744 OA
ENDBRANCH  99 100
ENDBRANCH  67  92
ENDBRANCH  41  42
ENDBRANCH  33  36
ENDBRANCH  31  32
ENDBRANCH  30  31
ENDBRANCH  29  30
ENDBRANCH   1  29
TORSDOF 19
ENDMDL
