MODEL 1
REMARK VINA RESULT:     -12.5      0.000      0.000
REMARK SMILES Cc1cccc(C(=O)Nc2cc(C(=O)NCCCCCCNC(=O)c3ccc(-c4c5nc(c(-c6c(F)cc(S(=O)(=O)[O-])cc6F)c6ccc([nH]6)c(-c6c(F)cc(S(=O)(=O)[O-])cc6F)c6nc(c(-c7c(F)cc(S(=O)(=O)[O-])cc7F)c7ccc4[nH]7)C=C6)C=C5)cc3)ccc2N2CC[NH+](CC(=O)NC(C)(C)C)CC2)c1
REMARK SMILES IDX 18 1 17 2 16 3 15 4 13 5 14 6 12 8 10 9 11 10 93 11 92 12
REMARK SMILES IDX 91 13 9 14 7 15 8 16 6 18 1 19 2 20 3 21 108 22 4 23 5 24
REMARK SMILES IDX 94 25 95 26 107 27 96 28 106 29 97 30 98 32 99 33 100 34
REMARK SMILES IDX 101 35 102 37 103 38 104 39 105 40 19 41 20 42 21 43 22 44
REMARK SMILES IDX 23 45 24 47 25 48 26 49 90 50 27 51 89 52 28 53 29 54 30 55
REMARK SMILES IDX 83 56 31 57 88 58 82 59 84 60 32 61 87 62 81 63 80 64 33 66
REMARK SMILES IDX 67 67 46 68 66 69 47 70 50 71 65 72 85 73 48 74 49 75 64 77
REMARK SMILES IDX 86 78 51 79 34 80 35 81 44 82 36 83 37 84 43 85 45 86 38 87
REMARK SMILES IDX 39 88 40 89 41 90 42 91 68 92 69 93 78 94 70 95 71 96 77 97
REMARK SMILES IDX 79 98 72 99 73 100 74 101 75 102 76 103 52 104 53 105 62 106
REMARK SMILES IDX 54 107 55 108 61 109 63 110 56 111 57 112 58 113 59 114
REMARK SMILES IDX 60 115
REMARK H PARENT 15 7 9 17 97 31 101 36 22 46 84 65 50 76
REMARK Flexibility Score: inf
ROOT
ATOM      1  C   UNL A   1      40.282  23.317  27.972  1.00  0.00     0.002 C 
ENDROOT
BRANCH   1   2
ATOM      2  C   UNL A   1      40.153  21.978  27.235  1.00  0.00     0.021 C 
BRANCH   2   3
ATOM      3  C   UNL A   1      39.316  22.037  25.955  1.00  0.00     0.116 C 
BRANCH   3   4
ATOM      4  N   UNL A   1      38.680  20.767  25.644  1.00  0.00    -0.352 N 
ATOM      5  C   UNL A   1      37.497  20.423  25.036  1.00  0.00     0.251 C 
ATOM      6  O   UNL A   1      37.314  19.225  24.804  1.00  0.00    -0.269 OA
ATOM      7  H   UNL A   1      39.210  19.988  25.928  1.00  0.00     0.163 HD
BRANCH   5   8
ATOM      8  C   UNL A   1      36.452  21.398  24.594  1.00  0.00     0.042 A 
ATOM      9  C   UNL A   1      34.213  22.310  24.571  1.00  0.00     0.065 A 
ATOM     10  C   UNL A   1      35.096  21.264  24.850  1.00  0.00     0.042 A 
ATOM     11  C   UNL A   1      34.605  23.454  23.829  1.00  0.00     0.061 A 
ATOM     12  C   UNL A   1      35.956  23.531  23.479  1.00  0.00     0.029 A 
ATOM     13  C   UNL A   1      36.869  22.543  23.891  1.00  0.00     0.016 A 
BRANCH   9  14
ATOM     14  N   UNL A   1      32.899  22.238  25.066  1.00  0.00    -0.320 N 
ATOM     15  C   UNL A   1      32.038  21.153  25.117  1.00  0.00     0.255 C 
ATOM     16  O   UNL A   1      30.988  21.279  25.755  1.00  0.00    -0.269 OA
ATOM     17  H   UNL A   1      32.539  23.080  25.427  1.00  0.00     0.170 HD
BRANCH  15  18
ATOM     18  C   UNL A   1      32.336  19.807  24.533  1.00  0.00     0.040 A 
ATOM     19  C   UNL A   1      33.825  16.389  25.359  1.00  0.00     0.044 C 
ATOM     20  C   UNL A   1      33.141  17.499  24.612  1.00  0.00    -0.050 A 
ATOM     21  C   UNL A   1      32.972  17.396  23.228  1.00  0.00     0.003 A 
ATOM     22  C   UNL A   1      32.754  18.684  25.265  1.00  0.00     0.017 A 
ATOM     23  C   UNL A   1      32.444  18.463  22.504  1.00  0.00     0.001 A 
ATOM     24  C   UNL A   1      32.143  19.663  23.151  1.00  0.00     0.014 A 
ENDBRANCH  15  18
ENDBRANCH   9  14
BRANCH  11  25
ATOM     25  N   UNL A   1      33.707  24.479  23.554  1.00  0.00    -0.359 N 
ATOM     26  C   UNL A   1      33.208  24.792  22.200  1.00  0.00     0.178 C 
ATOM     27  C   UNL A   1      33.783  25.673  24.395  1.00  0.00     0.178 C 
ATOM     28  C   UNL A   1      31.897  25.653  22.266  1.00  0.00     0.284 C 
ATOM     29  C   UNL A   1      32.361  26.231  24.575  1.00  0.00     0.284 C 
ATOM     30  N   UNL A   1      31.761  26.687  23.320  1.00  0.00    -0.324 N 
ATOM     31  H   UNL A   1      30.755  26.782  23.460  1.00  0.00     0.348 HD
BRANCH  30  32
ATOM     32  C   UNL A   1      32.110  28.069  22.953  1.00  0.00     0.363 C 
BRANCH  32  33
ATOM     33  C   UNL A   1      31.654  29.152  23.923  1.00  0.00     0.275 C 
ATOM     34  O   UNL A   1      32.350  29.427  24.910  1.00  0.00    -0.268 OA
ATOM     35  N   UNL A   1      30.510  29.877  23.783  1.00  0.00    -0.347 N 
ATOM     36  H   UNL A   1      30.492  30.613  24.437  1.00  0.00     0.164 HD
BRANCH  35  37
ATOM     37  C   UNL A   1      29.278  29.901  22.946  1.00  0.00     0.032 C 
ATOM     38  C   UNL A   1      28.497  28.578  23.060  1.00  0.00     0.034 C 
ATOM     39  C   UNL A   1      28.368  30.994  23.550  1.00  0.00     0.034 C 
ATOM     40  C   UNL A   1      29.498  30.250  21.472  1.00  0.00     0.034 C 
ENDBRANCH  35  37
ENDBRANCH  32  33
ENDBRANCH  30  32
ENDBRANCH  11  25
ENDBRANCH   5   8
ENDBRANCH   3   4
ENDBRANCH   2   3
ENDBRANCH   1   2
BRANCH   1  41
ATOM     41  C   UNL A   1      39.449  24.484  27.413  1.00  0.00     0.002 C 
BRANCH  41  42
ATOM     42  C   UNL A   1      40.226  25.760  27.079  1.00  0.00     0.021 C 
BRANCH  42  43
ATOM     43  C   UNL A   1      40.993  25.669  25.764  1.00  0.00     0.116 C 
BRANCH  43  44
ATOM     44  N   UNL A   1      41.825  24.477  25.678  1.00  0.00    -0.352 N 
ATOM     45  C   UNL A   1      43.190  24.392  25.887  1.00  0.00     0.251 C 
ATOM     46  H   UNL A   1      41.364  23.637  25.446  1.00  0.00     0.163 HD
ATOM     47  O   UNL A   1      43.866  23.460  25.494  1.00  0.00    -0.269 OA
BRANCH  45  48
ATOM     48  C   UNL A   1      43.770  25.428  26.765  1.00  0.00     0.039 A 
ATOM     49  C   UNL A   1      43.479  25.330  28.131  1.00  0.00     0.014 A 
ATOM     50  C   UNL A   1      44.289  26.596  26.214  1.00  0.00     0.014 A 
ATOM     51  C   UNL A   1      43.548  26.468  28.928  1.00  0.00     0.010 A 
ATOM     52  C   UNL A   1      44.288  27.739  26.991  1.00  0.00     0.010 A 
ATOM     53  C   UNL A   1      43.869  27.685  28.332  1.00  0.00    -0.014 A 
BRANCH  53  54
ATOM     54  C   UNL A   1      43.731  28.976  28.999  1.00  0.00     0.031 A 
ATOM     55  C   UNL A   1      42.411  29.640  29.058  1.00  0.00     0.074 A 
ATOM     56  C   UNL A   1      44.776  29.497  29.677  1.00  0.00     0.049 A 
ATOM     57  N   UNL A   1      42.214  30.856  29.442  1.00  0.00    -0.248 NA
ATOM     58  C   UNL A   1      41.189  28.968  28.638  1.00  0.00     0.031 C 
ATOM     59  C   UNL A   1      44.735  30.538  30.699  1.00  0.00     0.029 A 
ATOM     60  N   UNL A   1      46.137  29.328  29.406  1.00  0.00    -0.354 N 
ATOM     61  C   UNL A   1      40.857  31.048  29.575  1.00  0.00     0.074 A 
ATOM     62  C   UNL A   1      40.263  29.855  29.015  1.00  0.00     0.031 C 
ATOM     63  C   UNL A   1      45.948  31.101  30.793  1.00  0.00     0.029 A 
ATOM     64  C   UNL A   1      46.761  30.556  29.722  1.00  0.00     0.049 A 
ATOM     65  H   UNL A   1      46.573  28.515  29.064  1.00  0.00     0.167 HD
ATOM     66  C   UNL A   1      40.402  32.146  30.249  1.00  0.00     0.037 A 
ATOM     67  C   UNL A   1      47.361  31.298  28.743  1.00  0.00     0.037 A 
ATOM     68  C   UNL A   1      41.496  33.069  30.560  1.00  0.00     0.049 A 
ATOM     69  C   UNL A   1      46.725  32.654  28.492  1.00  0.00     0.074 A 
ATOM     70  C   UNL A   1      42.266  33.336  31.682  1.00  0.00     0.029 A 
ATOM     71  N   UNL A   1      42.130  33.707  29.510  1.00  0.00    -0.354 N 
ATOM     72  N   UNL A   1      45.681  33.115  29.127  1.00  0.00    -0.248 NA
ATOM     73  C   UNL A   1      47.179  33.568  27.442  1.00  0.00     0.031 C 
ATOM     74  C   UNL A   1      43.392  34.112  31.276  1.00  0.00     0.029 A 
ATOM     75  C   UNL A   1      43.301  34.319  29.912  1.00  0.00     0.049 A 
ATOM     76  H   UNL A   1      41.789  33.722  28.588  1.00  0.00     0.167 HD
ATOM     77  C   UNL A   1      45.278  34.290  28.547  1.00  0.00     0.074 A 
ATOM     78  C   UNL A   1      46.264  34.551  27.516  1.00  0.00     0.031 C 
ATOM     79  C   UNL A   1      44.139  34.946  28.903  1.00  0.00     0.037 A 
BRANCH  66  80
ATOM     80  C   UNL A   1      39.002  32.276  30.819  1.00  0.00     0.058 A 
ATOM     81  C   UNL A   1      38.115  33.257  30.325  1.00  0.00     0.135 A 
ATOM     82  C   UNL A   1      38.493  31.522  31.893  1.00  0.00     0.135 A 
ATOM     83  F   UNL A   1      38.407  33.983  29.237  1.00  0.00    -0.206 F 
ATOM     84  C   UNL A   1      36.889  33.551  30.927  1.00  0.00     0.059 A 
ATOM     85  C   UNL A   1      37.300  31.835  32.553  1.00  0.00     0.059 A 
ATOM     86  F   UNL A   1      39.098  30.404  32.313  1.00  0.00    -0.206 F 
ATOM     87  C   UNL A   1      36.508  32.864  32.071  1.00  0.00     0.060 A 
BRANCH  87  88
ATOM     88  S   UNL A   1      34.977  33.326  32.900  1.00  0.00     0.124 S 
ATOM     89  O   UNL A   1      35.281  33.027  34.296  1.00  0.00    -0.237 OA
ATOM     90  O   UNL A   1      34.861  34.740  32.563  1.00  0.00    -0.237 OA
ATOM     91  O   UNL A   1      33.980  32.452  32.285  1.00  0.00    -0.744 OA
ENDBRANCH  87  88
ENDBRANCH  66  80
BRANCH  67  92
ATOM     92  C   UNL A   1      48.022  30.444  27.716  1.00  0.00     0.058 A 
ATOM     93  C   UNL A   1      49.242  29.829  28.064  1.00  0.00     0.135 A 
ATOM     94  C   UNL A   1      47.300  29.895  26.648  1.00  0.00     0.135 A 
ATOM     95  F   UNL A   1      49.982  30.325  29.070  1.00  0.00    -0.206 F 
ATOM     96  C   UNL A   1      49.637  28.621  27.501  1.00  0.00     0.059 A 
ATOM     97  C   UNL A   1      47.689  28.693  26.055  1.00  0.00     0.059 A 
ATOM     98  F   UNL A   1      46.136  30.441  26.266  1.00  0.00    -0.206 F 
ATOM     99  C   UNL A   1      48.816  28.029  26.545  1.00  0.00     0.060 A 
BRANCH  99 100
ATOM    100  S   UNL A   1      49.153  26.311  26.091  1.00  0.00     0.124 S 
ATOM    101  O   UNL A   1      47.948  25.949  25.355  1.00  0.00    -0.237 OA
ATOM    102  O   UNL A   1      50.367  26.444  25.285  1.00  0.00    -0.237 OA
ATOM    103  O   UNL A   1      49.329  25.653  27.380  1.00  0.00    -0.744 OA
ENDBRANCH  99 100
ENDBRANCH  67  92
BRANCH  79 104
ATOM    104  C   UNL A   1      43.718  36.246  28.284  1.00  0.00     0.058 A 
ATOM    105  C   UNL A   1      43.983  37.480  28.900  1.00  0.00     0.135 A 
ATOM    106  C   UNL A   1      42.924  36.284  27.118  1.00  0.00     0.135 A 
ATOM    107  F   UNL A   1      44.703  37.538  30.032  1.00  0.00    -0.206 F 
ATOM    108  C   UNL A   1      43.510  38.684  28.378  1.00  0.00     0.059 A 
ATOM    109  C   UNL A   1      42.402  37.469  26.606  1.00  0.00     0.059 A 
ATOM    110  F   UNL A   1      42.653  35.167  26.427  1.00  0.00    -0.206 F 
ATOM    111  C   UNL A   1      42.716  38.667  27.231  1.00  0.00     0.060 A 
BRANCH 111 112
ATOM    112  S   UNL A   1      42.068  40.216  26.572  1.00  0.00     0.124 S 
ATOM    113  O   UNL A   1      41.871  41.022  27.774  1.00  0.00    -0.237 OA
ATOM    114  O   UNL A   1      43.159  40.640  25.701  1.00  0.00    -0.237 OA
ATOM    115  O   UNL A   1      40.842  39.805  25.895  1.00  0.00    -0.744 OA
ENDBRANCH 111 112
ENDBRANCH  79 104
ENDBRANCH  53  54
ENDBRANCH  45  48
ENDBRANCH  43  44
ENDBRANCH  42  43
ENDBRANCH  41  42
ENDBRANCH   1  41
TORSDOF 22
ENDMDL
MODEL 2
REMARK VINA RESULT:     -12.0      5.810     15.900
REMARK SMILES Cc1cccc(C(=O)Nc2cc(C(=O)NCCCCCCNC(=O)c3ccc(-c4c5nc(c(-c6c(F)cc(S(=O)(=O)[O-])cc6F)c6ccc([nH]6)c(-c6c(F)cc(S(=O)(=O)[O-])cc6F)c6nc(c(-c7c(F)cc(S(=O)(=O)[O-])cc7F)c7ccc4[nH]7)C=C6)C=C5)cc3)ccc2N2CC[NH+](CC(=O)NC(C)(C)C)CC2)c1
REMARK SMILES IDX 18 1 17 2 16 3 15 4 13 5 14 6 12 8 10 9 11 10 93 11 92 12
REMARK SMILES IDX 91 13 9 14 7 15 8 16 6 18 1 19 2 20 3 21 108 22 4 23 5 24
REMARK SMILES IDX 94 25 95 26 107 27 96 28 106 29 97 30 98 32 99 33 100 34
REMARK SMILES IDX 101 35 102 37 103 38 104 39 105 40 19 41 20 42 21 43 22 44
REMARK SMILES IDX 23 45 24 47 25 48 26 49 90 50 27 51 89 52 28 53 29 54 30 55
REMARK SMILES IDX 83 56 31 57 88 58 82 59 84 60 32 61 87 62 81 63 80 64 33 66
REMARK SMILES IDX 67 67 46 68 66 69 47 70 50 71 65 72 85 73 48 74 49 75 64 77
REMARK SMILES IDX 86 78 51 79 34 80 35 81 44 82 36 83 37 84 43 85 45 86 38 87
REMARK SMILES IDX 39 88 40 89 41 90 42 91 68 92 69 93 78 94 70 95 71 96 77 97
REMARK SMILES IDX 79 98 72 99 73 100 74 101 75 102 76 103 52 104 53 105 62 106
REMARK SMILES IDX 54 107 55 108 61 109 63 110 56 111 57 112 58 113 59 114
REMARK SMILES IDX 60 115
REMARK H PARENT 15 7 9 17 97 31 101 36 22 46 84 65 50 76
REMARK Flexibility Score: inf
ROOT
ATOM      1  C   UNL A   1      39.447  33.995  31.610  1.00  0.00     0.002 C 
ENDROOT
BRANCH   1   2
ATOM      2  C   UNL A   1      40.676  33.678  30.748  1.00  0.00     0.021 C 
BRANCH   2   3
ATOM      3  C   UNL A   1      41.755  34.764  30.761  1.00  0.00     0.116 C 
BRANCH   3   4
ATOM      4  N   UNL A   1      42.863  34.462  29.869  1.00  0.00    -0.352 N 
ATOM      5  C   UNL A   1      43.825  35.230  29.259  1.00  0.00     0.251 C 
ATOM      6  O   UNL A   1      44.720  34.632  28.657  1.00  0.00    -0.269 OA
ATOM      7  H   UNL A   1      42.941  33.504  29.659  1.00  0.00     0.163 HD
BRANCH   5   8
ATOM      8  C   UNL A   1      43.888  36.723  29.322  1.00  0.00     0.042 A 
ATOM      9  C   UNL A   1      43.099  38.948  28.796  1.00  0.00     0.065 A 
ATOM     10  C   UNL A   1      43.119  37.574  28.543  1.00  0.00     0.042 A 
ATOM     11  C   UNL A   1      44.005  39.563  29.698  1.00  0.00     0.061 A 
ATOM     12  C   UNL A   1      44.855  38.707  30.403  1.00  0.00     0.029 A 
ATOM     13  C   UNL A   1      44.768  37.311  30.249  1.00  0.00     0.016 A 
BRANCH   9  14
ATOM     14  N   UNL A   1      42.131  39.741  28.157  1.00  0.00    -0.320 N 
ATOM     15  C   UNL A   1      42.244  40.510  27.009  1.00  0.00     0.255 C 
ATOM     16  O   UNL A   1      41.212  40.989  26.531  1.00  0.00    -0.269 OA
ATOM     17  H   UNL A   1      41.246  39.753  28.587  1.00  0.00     0.170 HD
BRANCH  15  18
ATOM     18  C   UNL A   1      43.520  40.721  26.253  1.00  0.00     0.040 A 
ATOM     19  C   UNL A   1      47.016  39.283  25.716  1.00  0.00     0.044 C 
ATOM     20  C   UNL A   1      45.796  40.148  25.568  1.00  0.00    -0.050 A 
ATOM     21  C   UNL A   1      45.892  41.362  24.881  1.00  0.00     0.003 A 
ATOM     22  C   UNL A   1      44.582  39.806  26.192  1.00  0.00     0.017 A 
ATOM     23  C   UNL A   1      44.802  42.229  24.834  1.00  0.00     0.001 A 
ATOM     24  C   UNL A   1      43.631  41.916  25.526  1.00  0.00     0.014 A 
ENDBRANCH  15  18
ENDBRANCH   9  14
BRANCH  11  25
ATOM     25  N   UNL A   1      43.976  40.934  29.928  1.00  0.00    -0.359 N 
ATOM     26  C   UNL A   1      44.879  41.898  29.269  1.00  0.00     0.178 C 
ATOM     27  C   UNL A   1      43.596  41.375  31.270  1.00  0.00     0.178 C 
ATOM     28  C   UNL A   1      44.313  43.359  29.363  1.00  0.00     0.284 C 
ATOM     29  C   UNL A   1      42.810  42.691  31.145  1.00  0.00     0.284 C 
ATOM     30  N   UNL A   1      43.611  43.787  30.597  1.00  0.00    -0.324 N 
ATOM     31  H   UNL A   1      42.979  44.527  30.291  1.00  0.00     0.348 HD
BRANCH  30  32
ATOM     32  C   UNL A   1      44.404  44.514  31.602  1.00  0.00     0.363 C 
BRANCH  32  33
ATOM     33  C   UNL A   1      43.706  44.792  32.927  1.00  0.00     0.275 C 
ATOM     34  O   UNL A   1      42.755  45.584  32.969  1.00  0.00    -0.268 OA
ATOM     35  N   UNL A   1      44.044  44.210  34.111  1.00  0.00    -0.347 N 
ATOM     36  H   UNL A   1      43.371  44.421  34.799  1.00  0.00     0.164 HD
BRANCH  35  37
ATOM     37  C   UNL A   1      45.117  43.351  34.687  1.00  0.00     0.032 C 
ATOM     38  C   UNL A   1      45.936  42.661  33.581  1.00  0.00     0.034 C 
ATOM     39  C   UNL A   1      46.090  44.307  35.414  1.00  0.00     0.034 C 
ATOM     40  C   UNL A   1      44.643  42.315  35.709  1.00  0.00     0.034 C 
ENDBRANCH  35  37
ENDBRANCH  32  33
ENDBRANCH  30  32
ENDBRANCH  11  25
ENDBRANCH   5   8
ENDBRANCH   3   4
ENDBRANCH   2   3
ENDBRANCH   1   2
BRANCH   1  41
ATOM     41  C   UNL A   1      38.120  34.190  30.856  1.00  0.00     0.002 C 
BRANCH  41  42
ATOM     42  C   UNL A   1      38.193  34.077  29.332  1.00  0.00     0.021 C 
BRANCH  42  43
ATOM     43  C   UNL A   1      37.938  32.662  28.823  1.00  0.00     0.116 C 
BRANCH  43  44
ATOM     44  N   UNL A   1      36.529  32.298  28.851  1.00  0.00    -0.352 N 
ATOM     45  C   UNL A   1      35.962  31.111  28.423  1.00  0.00     0.251 C 
ATOM     46  H   UNL A   1      35.910  32.972  29.216  1.00  0.00     0.163 HD
ATOM     47  O   UNL A   1      34.777  30.990  28.175  1.00  0.00    -0.269 OA
BRANCH  45  48
ATOM     48  C   UNL A   1      36.853  29.933  28.437  1.00  0.00     0.039 A 
ATOM     49  C   UNL A   1      37.017  29.282  29.666  1.00  0.00     0.014 A 
ATOM     50  C   UNL A   1      37.717  29.702  27.371  1.00  0.00     0.014 A 
ATOM     51  C   UNL A   1      38.158  28.519  29.888  1.00  0.00     0.010 A 
ATOM     52  C   UNL A   1      38.884  29.004  27.619  1.00  0.00     0.010 A 
ATOM     53  C   UNL A   1      39.127  28.456  28.890  1.00  0.00    -0.014 A 
BRANCH  53  54
ATOM     54  C   UNL A   1      40.464  27.905  29.091  1.00  0.00     0.031 A 
ATOM     55  C   UNL A   1      40.745  26.497  28.733  1.00  0.00     0.074 A 
ATOM     56  C   UNL A   1      41.473  28.715  29.474  1.00  0.00     0.049 A 
ATOM     57  N   UNL A   1      41.820  25.858  29.049  1.00  0.00    -0.248 NA
ATOM     58  C   UNL A   1      39.784  25.678  28.007  1.00  0.00     0.031 C 
ATOM     59  C   UNL A   1      42.906  28.458  29.355  1.00  0.00     0.029 A 
ATOM     60  N   UNL A   1      41.391  29.866  30.263  1.00  0.00    -0.354 N 
ATOM     61  C   UNL A   1      41.822  24.663  28.364  1.00  0.00     0.074 A 
ATOM     62  C   UNL A   1      40.508  24.581  27.768  1.00  0.00     0.031 C 
ATOM     63  C   UNL A   1      43.560  29.235  30.231  1.00  0.00     0.029 A 
ATOM     64  C   UNL A   1      42.561  29.892  31.055  1.00  0.00     0.049 A 
ATOM     65  H   UNL A   1      40.661  30.526  30.267  1.00  0.00     0.167 HD
ATOM     66  C   UNL A   1      42.979  23.940  28.290  1.00  0.00     0.037 A 
ATOM     67  C   UNL A   1      42.479  29.783  32.414  1.00  0.00     0.037 A 
ATOM     68  C   UNL A   1      44.015  24.503  29.159  1.00  0.00     0.049 A 
ATOM     69  C   UNL A   1      43.129  28.540  32.995  1.00  0.00     0.074 A 
ATOM     70  C   UNL A   1      45.118  25.321  28.969  1.00  0.00     0.029 A 
ATOM     71  N   UNL A   1      43.815  24.454  30.527  1.00  0.00    -0.354 N 
ATOM     72  N   UNL A   1      43.723  27.614  32.292  1.00  0.00    -0.248 NA
ATOM     73  C   UNL A   1      43.091  28.208  34.421  1.00  0.00     0.031 C 
ATOM     74  C   UNL A   1      45.551  25.790  30.245  1.00  0.00     0.029 A 
ATOM     75  C   UNL A   1      44.714  25.253  31.206  1.00  0.00     0.049 A 
ATOM     76  H   UNL A   1      43.118  23.916  30.963  1.00  0.00     0.167 HD
ATOM     77  C   UNL A   1      44.055  26.565  33.109  1.00  0.00     0.074 A 
ATOM     78  C   UNL A   1      43.668  26.995  34.439  1.00  0.00     0.031 C 
ATOM     79  C   UNL A   1      44.571  25.391  32.646  1.00  0.00     0.037 A 
BRANCH  66  80
ATOM     80  C   UNL A   1      43.241  22.854  27.263  1.00  0.00     0.058 A 
ATOM     81  C   UNL A   1      42.498  21.654  27.282  1.00  0.00     0.135 A 
ATOM     82  C   UNL A   1      44.248  22.897  26.279  1.00  0.00     0.135 A 
ATOM     83  F   UNL A   1      41.436  21.499  28.085  1.00  0.00    -0.206 F 
ATOM     84  C   UNL A   1      42.812  20.548  26.488  1.00  0.00     0.059 A 
ATOM     85  C   UNL A   1      44.625  21.785  25.518  1.00  0.00     0.059 A 
ATOM     86  F   UNL A   1      44.873  24.038  25.966  1.00  0.00    -0.206 F 
ATOM     87  C   UNL A   1      43.908  20.606  25.640  1.00  0.00     0.060 A 
BRANCH  87  88
ATOM     88  S   UNL A   1      44.368  19.138  24.702  1.00  0.00     0.124 S 
ATOM     89  O   UNL A   1      44.267  19.609  23.324  1.00  0.00    -0.237 OA
ATOM     90  O   UNL A   1      45.718  18.876  25.188  1.00  0.00    -0.237 OA
ATOM     91  O   UNL A   1      43.360  18.155  25.093  1.00  0.00    -0.744 OA
ENDBRANCH  87  88
ENDBRANCH  66  80
BRANCH  67  92
ATOM     92  C   UNL A   1      41.274  30.470  32.961  1.00  0.00     0.058 A 
ATOM     93  C   UNL A   1      40.147  29.677  33.255  1.00  0.00     0.135 A 
ATOM     94  C   UNL A   1      41.367  31.722  33.585  1.00  0.00     0.135 A 
ATOM     95  F   UNL A   1      39.999  28.476  32.672  1.00  0.00    -0.206 F 
ATOM     96  C   UNL A   1      39.247  30.027  34.255  1.00  0.00     0.059 A 
ATOM     97  C   UNL A   1      40.465  32.102  34.579  1.00  0.00     0.059 A 
ATOM     98  F   UNL A   1      42.414  32.524  33.340  1.00  0.00    -0.206 F 
ATOM     99  C   UNL A   1      39.457  31.212  34.956  1.00  0.00     0.060 A 
BRANCH  99 100
ATOM    100  S   UNL A   1      38.504  31.475  36.472  1.00  0.00     0.124 S 
ATOM    101  O   UNL A   1      38.124  30.114  36.832  1.00  0.00    -0.237 OA
ATOM    102  O   UNL A   1      39.495  32.104  37.346  1.00  0.00    -0.237 OA
ATOM    103  O   UNL A   1      37.416  32.341  36.036  1.00  0.00    -0.744 OA
ENDBRANCH  99 100
ENDBRANCH  67  92
BRANCH  79 104
ATOM    104  C   UNL A   1      44.958  24.257  33.548  1.00  0.00     0.058 A 
ATOM    105  C   UNL A   1      46.234  24.174  34.128  1.00  0.00     0.135 A 
ATOM    106  C   UNL A   1      44.102  23.155  33.754  1.00  0.00     0.135 A 
ATOM    107  F   UNL A   1      47.127  25.163  33.957  1.00  0.00    -0.206 F 
ATOM    108  C   UNL A   1      46.632  23.075  34.889  1.00  0.00     0.059 A 
ATOM    109  C   UNL A   1      44.494  22.027  34.470  1.00  0.00     0.059 A 
ATOM    110  F   UNL A   1      42.846  23.154  33.286  1.00  0.00    -0.206 F 
ATOM    111  C   UNL A   1      45.755  22.003  35.051  1.00  0.00     0.060 A 
BRANCH 111 112
ATOM    112  S   UNL A   1      46.275  20.560  36.000  1.00  0.00     0.124 S 
ATOM    113  O   UNL A   1      45.788  20.864  37.343  1.00  0.00    -0.237 OA
ATOM    114  O   UNL A   1      45.574  19.486  35.304  1.00  0.00    -0.237 OA
ATOM    115  O   UNL A   1      47.727  20.567  35.852  1.00  0.00    -0.744 OA
ENDBRANCH 111 112
ENDBRANCH  79 104
ENDBRANCH  53  54
ENDBRANCH  45  48
ENDBRANCH  43  44
ENDBRANCH  42  43
ENDBRANCH  41  42
ENDBRANCH   1  41
TORSDOF 22
ENDMDL
MODEL 3
REMARK VINA RESULT:     -11.3      4.602      8.847
REMARK SMILES Cc1cccc(C(=O)Nc2cc(C(=O)NCCCCCCNC(=O)c3ccc(-c4c5nc(c(-c6c(F)cc(S(=O)(=O)[O-])cc6F)c6ccc([nH]6)c(-c6c(F)cc(S(=O)(=O)[O-])cc6F)c6nc(c(-c7c(F)cc(S(=O)(=O)[O-])cc7F)c7ccc4[nH]7)C=C6)C=C5)cc3)ccc2N2CC[NH+](CC(=O)NC(C)(C)C)CC2)c1
REMARK SMILES IDX 18 1 17 2 16 3 15 4 13 5 14 6 12 8 10 9 11 10 93 11 92 12
REMARK SMILES IDX 91 13 9 14 7 15 8 16 6 18 1 19 2 20 3 21 108 22 4 23 5 24
REMARK SMILES IDX 94 25 95 26 107 27 96 28 106 29 97 30 98 32 99 33 100 34
REMARK SMILES IDX 101 35 102 37 103 38 104 39 105 40 19 41 20 42 21 43 22 44
REMARK SMILES IDX 23 45 24 47 25 48 26 49 90 50 27 51 89 52 28 53 29 54 30 55
REMARK SMILES IDX 83 56 31 57 88 58 82 59 84 60 32 61 87 62 81 63 80 64 33 66
REMARK SMILES IDX 67 67 46 68 66 69 47 70 50 71 65 72 85 73 48 74 49 75 64 77
REMARK SMILES IDX 86 78 51 79 34 80 35 81 44 82 36 83 37 84 43 85 45 86 38 87
REMARK SMILES IDX 39 88 40 89 41 90 42 91 68 92 69 93 78 94 70 95 71 96 77 97
REMARK SMILES IDX 79 98 72 99 73 100 74 101 75 102 76 103 52 104 53 105 62 106
REMARK SMILES IDX 54 107 55 108 61 109 63 110 56 111 57 112 58 113 59 114
REMARK SMILES IDX 60 115
REMARK H PARENT 15 7 9 17 97 31 101 36 22 46 84 65 50 76
REMARK Flexibility Score: inf
ROOT
ATOM      1  C   UNL A   1      41.235  23.358  27.630  1.00  0.00     0.002 C 
ENDROOT
BRANCH   1   2
ATOM      2  C   UNL A   1      40.332  22.144  27.376  1.00  0.00     0.021 C 
BRANCH   2   3
ATOM      3  C   UNL A   1      39.510  22.223  26.088  1.00  0.00     0.116 C 
BRANCH   3   4
ATOM      4  N   UNL A   1      38.890  20.955  25.741  1.00  0.00    -0.352 N 
ATOM      5  C   UNL A   1      37.707  20.614  25.129  1.00  0.00     0.251 C 
ATOM      6  O   UNL A   1      37.540  19.422  24.861  1.00  0.00    -0.269 OA
ATOM      7  H   UNL A   1      39.431  20.175  25.998  1.00  0.00     0.163 HD
BRANCH   5   8
ATOM      8  C   UNL A   1      36.648  21.588  24.722  1.00  0.00     0.042 A 
ATOM      9  C   UNL A   1      34.416  22.515  24.796  1.00  0.00     0.065 A 
ATOM     10  C   UNL A   1      35.305  21.469  25.049  1.00  0.00     0.042 A 
ATOM     11  C   UNL A   1      34.777  23.643  24.013  1.00  0.00     0.061 A 
ATOM     12  C   UNL A   1      36.108  23.704  23.594  1.00  0.00     0.029 A 
ATOM     13  C   UNL A   1      37.036  22.717  23.977  1.00  0.00     0.016 A 
BRANCH   9  14
ATOM     14  N   UNL A   1      33.129  22.462  25.358  1.00  0.00    -0.320 N 
ATOM     15  C   UNL A   1      32.175  21.459  25.276  1.00  0.00     0.255 C 
ATOM     16  O   UNL A   1      31.176  21.552  25.994  1.00  0.00    -0.269 OA
ATOM     17  H   UNL A   1      32.866  23.251  25.884  1.00  0.00     0.170 HD
BRANCH  15  18
ATOM     18  C   UNL A   1      32.318  20.221  24.445  1.00  0.00     0.040 A 
ATOM     19  C   UNL A   1      33.414  16.566  24.589  1.00  0.00     0.044 C 
ATOM     20  C   UNL A   1      32.857  17.864  24.077  1.00  0.00    -0.050 A 
ATOM     21  C   UNL A   1      32.674  18.040  22.702  1.00  0.00     0.003 A 
ATOM     22  C   UNL A   1      32.609  18.942  24.946  1.00  0.00     0.017 A 
ATOM     23  C   UNL A   1      32.268  19.276  22.201  1.00  0.00     0.001 A 
ATOM     24  C   UNL A   1      32.106  20.360  23.065  1.00  0.00     0.014 A 
ENDBRANCH  15  18
ENDBRANCH   9  14
BRANCH  11  25
ATOM     25  N   UNL A   1      33.873  24.669  23.764  1.00  0.00    -0.359 N 
ATOM     26  C   UNL A   1      33.445  25.078  22.412  1.00  0.00     0.178 C 
ATOM     27  C   UNL A   1      33.870  25.794  24.699  1.00  0.00     0.178 C 
ATOM     28  C   UNL A   1      32.114  25.905  22.465  1.00  0.00     0.284 C 
ATOM     29  C   UNL A   1      32.427  26.309  24.835  1.00  0.00     0.284 C 
ATOM     30  N   UNL A   1      31.891  26.850  23.585  1.00  0.00    -0.324 N 
ATOM     31  H   UNL A   1      30.876  26.915  23.672  1.00  0.00     0.348 HD
BRANCH  30  32
ATOM     32  C   UNL A   1      32.228  28.264  23.349  1.00  0.00     0.363 C 
BRANCH  32  33
ATOM     33  C   UNL A   1      31.544  29.274  24.261  1.00  0.00     0.275 C 
ATOM     34  O   UNL A   1      32.082  29.604  25.327  1.00  0.00    -0.268 OA
ATOM     35  N   UNL A   1      30.354  29.876  23.987  1.00  0.00    -0.347 N 
ATOM     36  H   UNL A   1      30.178  30.594  24.638  1.00  0.00     0.164 HD
BRANCH  35  37
ATOM     37  C   UNL A   1      29.236  29.784  23.007  1.00  0.00     0.032 C 
ATOM     38  C   UNL A   1      28.550  28.406  23.067  1.00  0.00     0.034 C 
ATOM     39  C   UNL A   1      28.178  30.814  23.462  1.00  0.00     0.034 C 
ATOM     40  C   UNL A   1      29.609  30.118  21.561  1.00  0.00     0.034 C 
ENDBRANCH  35  37
ENDBRANCH  32  33
ENDBRANCH  30  32
ENDBRANCH  11  25
ENDBRANCH   5   8
ENDBRANCH   3   4
ENDBRANCH   2   3
ENDBRANCH   1   2
BRANCH   1  41
ATOM     41  C   UNL A   1      41.170  24.484  26.584  1.00  0.00     0.002 C 
BRANCH  41  42
ATOM     42  C   UNL A   1      42.509  24.913  25.979  1.00  0.00     0.021 C 
BRANCH  42  43
ATOM     43  C   UNL A   1      42.867  24.146  24.710  1.00  0.00     0.116 C 
BRANCH  43  44
ATOM     44  N   UNL A   1      42.920  22.706  24.918  1.00  0.00    -0.352 N 
ATOM     45  C   UNL A   1      44.049  21.928  25.108  1.00  0.00     0.251 C 
ATOM     46  H   UNL A   1      42.056  22.232  24.923  1.00  0.00     0.163 HD
ATOM     47  O   UNL A   1      44.059  20.721  24.956  1.00  0.00    -0.269 OA
BRANCH  45  48
ATOM     48  C   UNL A   1      45.221  22.627  25.672  1.00  0.00     0.039 A 
ATOM     49  C   UNL A   1      45.154  22.977  27.027  1.00  0.00     0.014 A 
ATOM     50  C   UNL A   1      46.174  23.184  24.825  1.00  0.00     0.014 A 
ATOM     51  C   UNL A   1      45.938  24.022  27.503  1.00  0.00     0.010 A 
ATOM     52  C   UNL A   1      46.898  24.268  25.282  1.00  0.00     0.010 A 
ATOM     53  C   UNL A   1      46.743  24.718  26.605  1.00  0.00    -0.014 A 
BRANCH  53  54
ATOM     54  C   UNL A   1      47.413  25.976  26.922  1.00  0.00     0.031 A 
ATOM     55  C   UNL A   1      48.692  25.966  27.665  1.00  0.00     0.074 A 
ATOM     56  C   UNL A   1      46.935  27.135  26.422  1.00  0.00     0.049 A 
ATOM     57  N   UNL A   1      49.262  27.010  28.165  1.00  0.00    -0.248 NA
ATOM     58  C   UNL A   1      49.418  24.733  27.935  1.00  0.00     0.031 C 
ATOM     59  C   UNL A   1      47.648  28.403  26.297  1.00  0.00     0.029 A 
ATOM     60  N   UNL A   1      45.607  27.452  26.122  1.00  0.00    -0.354 N 
ATOM     61  C   UNL A   1      50.524  26.650  28.580  1.00  0.00     0.074 A 
ATOM     62  C   UNL A   1      50.552  25.210  28.458  1.00  0.00     0.031 C 
ATOM     63  C   UNL A   1      46.753  29.397  26.206  1.00  0.00     0.029 A 
ATOM     64  C   UNL A   1      45.442  28.819  26.438  1.00  0.00     0.049 A 
ATOM     65  H   UNL A   1      44.923  26.842  25.762  1.00  0.00     0.167 HD
ATOM     66  C   UNL A   1      51.434  27.627  28.870  1.00  0.00     0.037 A 
ATOM     67  C   UNL A   1      44.587  29.199  27.435  1.00  0.00     0.037 A 
ATOM     68  C   UNL A   1      50.810  28.952  28.868  1.00  0.00     0.049 A 
ATOM     69  C   UNL A   1      45.253  29.874  28.622  1.00  0.00     0.074 A 
ATOM     70  C   UNL A   1      50.737  30.002  27.966  1.00  0.00     0.029 A 
ATOM     71  N   UNL A   1      49.873  29.232  29.846  1.00  0.00    -0.354 N 
ATOM     72  N   UNL A   1      46.536  30.088  28.732  1.00  0.00    -0.248 NA
ATOM     73  C   UNL A   1      44.520  30.295  29.818  1.00  0.00     0.031 C 
ATOM     74  C   UNL A   1      49.714  30.895  28.402  1.00  0.00     0.029 A 
ATOM     75  C   UNL A   1      49.171  30.389  29.569  1.00  0.00     0.049 A 
ATOM     76  H   UNL A   1      49.724  28.675  30.642  1.00  0.00     0.167 HD
ATOM     77  C   UNL A   1      46.811  30.568  29.986  1.00  0.00     0.074 A 
ATOM     78  C   UNL A   1      45.515  30.711  30.620  1.00  0.00     0.031 C 
ATOM     79  C   UNL A   1      48.078  30.766  30.449  1.00  0.00     0.037 A 
BRANCH  66  80
ATOM     80  C   UNL A   1      52.934  27.403  28.935  1.00  0.00     0.058 A 
ATOM     81  C   UNL A   1      53.676  27.174  27.755  1.00  0.00     0.135 A 
ATOM     82  C   UNL A   1      53.691  27.331  30.120  1.00  0.00     0.135 A 
ATOM     83  F   UNL A   1      53.126  27.314  26.542  1.00  0.00    -0.206 F 
ATOM     84  C   UNL A   1      55.016  26.779  27.762  1.00  0.00     0.059 A 
ATOM     85  C   UNL A   1      55.013  26.878  30.159  1.00  0.00     0.059 A 
ATOM     86  F   UNL A   1      53.202  27.760  31.290  1.00  0.00    -0.206 F 
ATOM     87  C   UNL A   1      55.667  26.588  28.972  1.00  0.00     0.060 A 
BRANCH  87  88
ATOM     88  S   UNL A   1      57.360  25.975  28.969  1.00  0.00     0.124 S 
ATOM     89  O   UNL A   1      57.991  26.820  27.959  1.00  0.00    -0.237 OA
ATOM     90  O   UNL A   1      57.774  26.214  30.346  1.00  0.00    -0.237 OA
ATOM     91  O   UNL A   1      57.213  24.571  28.594  1.00  0.00    -0.744 OA
ENDBRANCH  87  88
ENDBRANCH  66  80
BRANCH  67  92
ATOM     92  C   UNL A   1      43.373  28.337  27.494  1.00  0.00     0.058 A 
ATOM     93  C   UNL A   1      43.281  27.410  28.553  1.00  0.00     0.135 A 
ATOM     94  C   UNL A   1      42.186  28.702  26.846  1.00  0.00     0.135 A 
ATOM     95  F   UNL A   1      44.391  27.013  29.198  1.00  0.00    -0.206 F 
ATOM     96  C   UNL A   1      42.054  27.004  29.063  1.00  0.00     0.059 A 
ATOM     97  C   UNL A   1      40.943  28.291  27.331  1.00  0.00     0.059 A 
ATOM     98  F   UNL A   1      42.211  29.574  25.827  1.00  0.00    -0.206 F 
ATOM     99  C   UNL A   1      40.891  27.506  28.484  1.00  0.00     0.060 A 
BRANCH  99 100
ATOM    100  S   UNL A   1      39.333  27.259  29.371  1.00  0.00     0.124 S 
ATOM    101  O   UNL A   1      38.416  28.104  28.615  1.00  0.00    -0.237 OA
ATOM    102  O   UNL A   1      39.127  25.818  29.225  1.00  0.00    -0.237 OA
ATOM    103  O   UNL A   1      39.642  27.713  30.722  1.00  0.00    -0.744 OA
ENDBRANCH  99 100
ENDBRANCH  67  92
BRANCH  79 104
ATOM    104  C   UNL A   1      48.371  31.318  31.813  1.00  0.00     0.058 A 
ATOM    105  C   UNL A   1      48.391  30.501  32.955  1.00  0.00     0.135 A 
ATOM    106  C   UNL A   1      48.513  32.705  32.030  1.00  0.00     0.135 A 
ATOM    107  F   UNL A   1      48.230  29.173  32.846  1.00  0.00    -0.206 F 
ATOM    108  C   UNL A   1      48.566  31.024  34.236  1.00  0.00     0.059 A 
ATOM    109  C   UNL A   1      48.643  33.253  33.303  1.00  0.00     0.059 A 
ATOM    110  F   UNL A   1      48.557  33.568  31.004  1.00  0.00    -0.206 F 
ATOM    111  C   UNL A   1      48.688  32.404  34.400  1.00  0.00     0.060 A 
BRANCH 111 112
ATOM    112  S   UNL A   1      48.876  33.092  36.057  1.00  0.00     0.124 S 
ATOM    113  O   UNL A   1      50.298  32.896  36.329  1.00  0.00    -0.237 OA
ATOM    114  O   UNL A   1      48.460  34.474  35.846  1.00  0.00    -0.237 OA
ATOM    115  O   UNL A   1      47.974  32.276  36.863  1.00  0.00    -0.744 OA
ENDBRANCH 111 112
ENDBRANCH  79 104
ENDBRANCH  53  54
ENDBRANCH  45  48
ENDBRANCH  43  44
ENDBRANCH  42  43
ENDBRANCH  41  42
ENDBRANCH   1  41
TORSDOF 22
ENDMDL
