MODEL 1
REMARK VINA RESULT:     -12.6      0.000      0.000
REMARK SMILES CCCc1cc(-n2ccc(C(=O)NCCCCCCNC(=O)c3ccc(-c4c5nc(c(-c6c(F)cc(S(=O)(=O)[O-])cc6F)c6ccc([nH]6)c(-c6c(F)cc(S(=O)(=O)[O-])cc6F)c6nc(c(-c7c(F)cc(S(=O)(=O)[O-])cc7F)c7ccc4[nH]7)C=C6)C=C5)cc3)n2)nc(-c2ccc(C(F)(F)F)cc2)n1
REMARK SMILES IDX 16 1 15 2 14 3 13 4 11 5 12 6 10 8 7 9 8 10 89 11 9 12 6 13
REMARK SMILES IDX 4 14 5 15 102 16 91 17 90 18 3 19 2 20 1 21 92 22 93 23
REMARK SMILES IDX 101 24 94 25 100 26 95 27 96 28 97 29 98 30 99 31 17 32
REMARK SMILES IDX 18 33 19 34 20 35 21 36 22 38 23 39 24 40 88 41 25 42 87 43
REMARK SMILES IDX 26 44 27 45 28 46 81 47 29 48 86 49 80 50 82 51 30 52 85 53
REMARK SMILES IDX 79 54 78 55 31 57 65 58 44 59 64 60 45 61 48 62 63 63 83 64
REMARK SMILES IDX 46 65 47 66 62 68 84 69 49 70 32 71 33 72 42 73 34 74 35 75
REMARK SMILES IDX 41 76 43 77 36 78 37 79 38 80 39 81 40 82 66 83 67 84 76 85
REMARK SMILES IDX 68 86 69 87 75 88 77 89 70 90 71 91 72 92 73 93 74 94 50 95
REMARK SMILES IDX 51 96 60 97 52 98 53 99 59 100 61 101 54 102 55 103 56 104
REMARK SMILES IDX 57 105 58 106
REMARK H PARENT 13 7 20 37 82 56 48 67
REMARK Flexibility Score: inf
ROOT
ATOM      1  C   UNL A   1      34.959  23.619  25.865  1.00  0.00     0.002 C 
ENDROOT
BRANCH   1   2
ATOM      2  C   UNL A   1      34.277  22.443  26.571  1.00  0.00     0.021 C 
BRANCH   2   3
ATOM      3  C   UNL A   1      33.377  21.571  25.695  1.00  0.00     0.116 C 
BRANCH   3   4
ATOM      4  N   UNL A   1      32.000  21.544  26.163  1.00  0.00    -0.351 N 
ATOM      5  C   UNL A   1      30.935  22.352  25.827  1.00  0.00     0.271 C 
ATOM      6  O   UNL A   1      29.873  22.187  26.433  1.00  0.00    -0.267 OA
ATOM      7  H   UNL A   1      31.798  20.840  26.820  1.00  0.00     0.163 HD
BRANCH   5   8
ATOM      8  C   UNL A   1      31.088  23.420  24.827  1.00  0.00     0.150 A 
ATOM      9  N   UNL A   1      31.147  25.386  23.979  1.00  0.00    -0.222 N 
ATOM     10  C   UNL A   1      31.013  24.532  22.905  1.00  0.00     0.118 A 
ATOM     11  N   UNL A   1      31.385  24.698  25.123  1.00  0.00    -0.161 NA
ATOM     12  C   UNL A   1      30.993  23.258  23.420  1.00  0.00     0.056 A 
BRANCH   9  13
ATOM     13  C   UNL A   1      31.005  26.806  23.995  1.00  0.00     0.157 A 
ATOM     14  C   UNL A   1      29.985  28.769  23.197  1.00  0.00     0.047 A 
ATOM     15  C   UNL A   1      30.172  27.407  23.064  1.00  0.00     0.073 A 
ATOM     16  N   UNL A   1      30.614  29.472  24.152  1.00  0.00    -0.233 NA
ATOM     17  C   UNL A   1      31.450  28.822  24.975  1.00  0.00     0.161 A 
ATOM     18  N   UNL A   1      31.663  27.501  24.954  1.00  0.00    -0.209 NA
BRANCH  14  19
ATOM     19  C   UNL A   1      29.089  29.517  22.238  1.00  0.00     0.056 C 
BRANCH  19  20
ATOM     20  C   UNL A   1      27.640  29.740  22.701  1.00  0.00     0.003 C 
ATOM     21  C   UNL A   1      27.032  28.558  23.450  1.00  0.00     0.004 C 
ENDBRANCH  19  20
ENDBRANCH  14  19
BRANCH  17  22
ATOM     22  C   UNL A   1      32.319  29.672  25.792  1.00  0.00     0.019 A 
ATOM     23  C   UNL A   1      33.590  29.231  26.198  1.00  0.00     0.012 A 
ATOM     24  C   UNL A   1      31.855  30.899  26.292  1.00  0.00     0.012 A 
ATOM     25  C   UNL A   1      34.362  29.980  27.091  1.00  0.00     0.014 A 
ATOM     26  C   UNL A   1      32.617  31.643  27.200  1.00  0.00     0.014 A 
ATOM     27  C   UNL A   1      33.875  31.186  27.615  1.00  0.00     0.056 A 
BRANCH  27  28
ATOM     28  C   UNL A   1      34.691  31.955  28.622  1.00  0.00     0.416 C 
ATOM     29  F   UNL A   1      35.760  31.247  29.085  1.00  0.00    -0.166 F 
ATOM     30  F   UNL A   1      35.200  33.111  28.115  1.00  0.00    -0.166 F 
ATOM     31  F   UNL A   1      33.985  32.318  29.732  1.00  0.00    -0.166 F 
ENDBRANCH  27  28
ENDBRANCH  17  22
ENDBRANCH   9  13
ENDBRANCH   5   8
ENDBRANCH   3   4
ENDBRANCH   2   3
ENDBRANCH   1   2
BRANCH   1  32
ATOM     32  C   UNL A   1      35.660  23.309  24.534  1.00  0.00     0.002 C 
BRANCH  32  33
ATOM     33  C   UNL A   1      37.195  23.374  24.520  1.00  0.00     0.021 C 
BRANCH  33  34
ATOM     34  C   UNL A   1      37.842  23.214  25.885  1.00  0.00     0.116 C 
BRANCH  34  35
ATOM     35  N   UNL A   1      38.995  22.310  25.880  1.00  0.00    -0.352 N 
ATOM     36  C   UNL A   1      40.299  22.587  26.272  1.00  0.00     0.251 C 
ATOM     37  H   UNL A   1      38.826  21.394  25.562  1.00  0.00     0.163 HD
ATOM     38  O   UNL A   1      41.231  21.902  25.894  1.00  0.00    -0.269 OA
BRANCH  36  39
ATOM     39  C   UNL A   1      40.519  23.740  27.169  1.00  0.00     0.039 A 
ATOM     40  C   UNL A   1      41.566  23.791  28.090  1.00  0.00     0.014 A 
ATOM     41  C   UNL A   1      39.659  24.819  27.017  1.00  0.00     0.014 A 
ATOM     42  C   UNL A   1      41.779  24.977  28.795  1.00  0.00     0.010 A 
ATOM     43  C   UNL A   1      40.010  26.037  27.523  1.00  0.00     0.010 A 
ATOM     44  C   UNL A   1      41.001  26.107  28.489  1.00  0.00    -0.014 A 
BRANCH  44  45
ATOM     45  C   UNL A   1      41.222  27.397  29.133  1.00  0.00     0.031 A 
ATOM     46  C   UNL A   1      42.399  28.165  28.639  1.00  0.00     0.074 A 
ATOM     47  C   UNL A   1      40.306  27.952  29.962  1.00  0.00     0.049 A 
ATOM     48  N   UNL A   1      43.469  28.484  29.288  1.00  0.00    -0.248 NA
ATOM     49  C   UNL A   1      42.446  28.518  27.210  1.00  0.00     0.031 C 
ATOM     50  C   UNL A   1      38.957  27.481  30.312  1.00  0.00     0.029 A 
ATOM     51  N   UNL A   1      40.370  29.141  30.613  1.00  0.00    -0.354 N 
ATOM     52  C   UNL A   1      44.246  29.242  28.417  1.00  0.00     0.074 A 
ATOM     53  C   UNL A   1      43.646  29.097  27.116  1.00  0.00     0.031 C 
ATOM     54  C   UNL A   1      38.260  28.476  30.903  1.00  0.00     0.029 A 
ATOM     55  C   UNL A   1      39.168  29.575  31.158  1.00  0.00     0.049 A 
ATOM     56  H   UNL A   1      41.206  29.657  30.694  1.00  0.00     0.167 HD
ATOM     57  C   UNL A   1      45.220  30.083  28.869  1.00  0.00     0.037 A 
ATOM     58  C   UNL A   1      38.937  30.761  31.773  1.00  0.00     0.037 A 
ATOM     59  C   UNL A   1      45.561  29.792  30.239  1.00  0.00     0.049 A 
ATOM     60  C   UNL A   1      40.263  31.277  32.204  1.00  0.00     0.074 A 
ATOM     61  C   UNL A   1      46.097  28.692  30.881  1.00  0.00     0.029 A 
ATOM     62  N   UNL A   1      44.969  30.545  31.226  1.00  0.00    -0.354 N 
ATOM     63  N   UNL A   1      41.012  30.691  33.100  1.00  0.00    -0.248 NA
ATOM     64  C   UNL A   1      40.965  32.162  31.288  1.00  0.00     0.031 C 
ATOM     65  C   UNL A   1      45.366  28.588  32.102  1.00  0.00     0.029 A 
ATOM     66  C   UNL A   1      44.486  29.672  32.173  1.00  0.00     0.049 A 
ATOM     67  H   UNL A   1      44.903  31.526  31.251  1.00  0.00     0.167 HD
ATOM     68  C   UNL A   1      42.307  30.797  32.612  1.00  0.00     0.074 A 
ATOM     69  C   UNL A   1      42.222  31.775  31.529  1.00  0.00     0.031 C 
ATOM     70  C   UNL A   1      43.273  29.886  32.937  1.00  0.00     0.037 A 
BRANCH  57  71
ATOM     71  C   UNL A   1      45.660  31.345  28.169  1.00  0.00     0.058 A 
ATOM     72  C   UNL A   1      44.815  32.474  28.146  1.00  0.00     0.135 A 
ATOM     73  C   UNL A   1      46.778  31.408  27.305  1.00  0.00     0.135 A 
ATOM     74  F   UNL A   1      43.713  32.519  28.912  1.00  0.00    -0.206 F 
ATOM     75  C   UNL A   1      45.037  33.561  27.297  1.00  0.00     0.059 A 
ATOM     76  C   UNL A   1      47.047  32.503  26.491  1.00  0.00     0.059 A 
ATOM     77  F   UNL A   1      47.608  30.371  27.142  1.00  0.00    -0.206 F 
ATOM     78  C   UNL A   1      46.152  33.559  26.463  1.00  0.00     0.060 A 
BRANCH  78  79
ATOM     79  S   UNL A   1      46.392  34.912  25.297  1.00  0.00     0.124 S 
ATOM     80  O   UNL A   1      45.956  36.059  26.087  1.00  0.00    -0.237 OA
ATOM     81  O   UNL A   1      47.823  34.829  25.026  1.00  0.00    -0.237 OA
ATOM     82  O   UNL A   1      45.526  34.551  24.179  1.00  0.00    -0.744 OA
ENDBRANCH  78  79
ENDBRANCH  57  71
BRANCH  58  83
ATOM     83  C   UNL A   1      37.728  31.619  31.657  1.00  0.00     0.058 A 
ATOM     84  C   UNL A   1      36.618  31.436  32.500  1.00  0.00     0.135 A 
ATOM     85  C   UNL A   1      37.754  32.817  30.915  1.00  0.00     0.135 A 
ATOM     86  F   UNL A   1      36.523  30.333  33.258  1.00  0.00    -0.206 F 
ATOM     87  C   UNL A   1      35.618  32.407  32.639  1.00  0.00     0.059 A 
ATOM     88  C   UNL A   1      36.767  33.796  31.032  1.00  0.00     0.059 A 
ATOM     89  F   UNL A   1      38.792  33.116  30.118  1.00  0.00    -0.206 F 
ATOM     90  C   UNL A   1      35.714  33.596  31.916  1.00  0.00     0.060 A 
BRANCH  90  91
ATOM     91  S   UNL A   1      34.530  34.930  32.227  1.00  0.00     0.124 S 
ATOM     92  O   UNL A   1      33.421  34.211  32.843  1.00  0.00    -0.237 OA
ATOM     93  O   UNL A   1      35.285  35.815  33.107  1.00  0.00    -0.237 OA
ATOM     94  O   UNL A   1      34.263  35.464  30.893  1.00  0.00    -0.744 OA
ENDBRANCH  90  91
ENDBRANCH  58  83
BRANCH  70  95
ATOM     95  C   UNL A   1      42.975  28.882  34.032  1.00  0.00     0.058 A 
ATOM     96  C   UNL A   1      43.053  29.155  35.410  1.00  0.00     0.135 A 
ATOM     97  C   UNL A   1      42.430  27.642  33.665  1.00  0.00     0.135 A 
ATOM     98  F   UNL A   1      43.465  30.347  35.855  1.00  0.00    -0.206 F 
ATOM     99  C   UNL A   1      42.647  28.228  36.376  1.00  0.00     0.059 A 
ATOM    100  C   UNL A   1      41.990  26.715  34.609  1.00  0.00     0.059 A 
ATOM    101  F   UNL A   1      42.267  27.339  32.367  1.00  0.00    -0.206 F 
ATOM    102  C   UNL A   1      42.113  27.009  35.964  1.00  0.00     0.060 A 
BRANCH 102 103
ATOM    103  S   UNL A   1      41.524  25.838  37.208  1.00  0.00     0.124 S 
ATOM    104  O   UNL A   1      40.372  26.539  37.768  1.00  0.00    -0.237 OA
ATOM    105  O   UNL A   1      41.218  24.652  36.412  1.00  0.00    -0.237 OA
ATOM    106  O   UNL A   1      42.664  25.695  38.110  1.00  0.00    -0.744 OA
ENDBRANCH 102 103
ENDBRANCH  70  95
ENDBRANCH  44  45
ENDBRANCH  36  39
ENDBRANCH  34  35
ENDBRANCH  33  34
ENDBRANCH  32  33
ENDBRANCH   1  32
TORSDOF 21
ENDMDL
MODEL 2
REMARK VINA RESULT:     -12.5      3.033      9.745
REMARK SMILES CCCc1cc(-n2ccc(C(=O)NCCCCCCNC(=O)c3ccc(-c4c5nc(c(-c6c(F)cc(S(=O)(=O)[O-])cc6F)c6ccc([nH]6)c(-c6c(F)cc(S(=O)(=O)[O-])cc6F)c6nc(c(-c7c(F)cc(S(=O)(=O)[O-])cc7F)c7ccc4[nH]7)C=C6)C=C5)cc3)n2)nc(-c2ccc(C(F)(F)F)cc2)n1
REMARK SMILES IDX 16 1 15 2 14 3 13 4 11 5 12 6 10 8 7 9 8 10 89 11 9 12 6 13
REMARK SMILES IDX 4 14 5 15 102 16 91 17 90 18 3 19 2 20 1 21 92 22 93 23
REMARK SMILES IDX 101 24 94 25 100 26 95 27 96 28 97 29 98 30 99 31 17 32
REMARK SMILES IDX 18 33 19 34 20 35 21 36 22 38 23 39 24 40 88 41 25 42 87 43
REMARK SMILES IDX 26 44 27 45 28 46 81 47 29 48 86 49 80 50 82 51 30 52 85 53
REMARK SMILES IDX 79 54 78 55 31 57 65 58 44 59 64 60 45 61 48 62 63 63 83 64
REMARK SMILES IDX 46 65 47 66 62 68 84 69 49 70 32 71 33 72 42 73 34 74 35 75
REMARK SMILES IDX 41 76 43 77 36 78 37 79 38 80 39 81 40 82 66 83 67 84 76 85
REMARK SMILES IDX 68 86 69 87 75 88 77 89 70 90 71 91 72 92 73 93 74 94 50 95
REMARK SMILES IDX 51 96 60 97 52 98 53 99 59 100 61 101 54 102 55 103 56 104
REMARK SMILES IDX 57 105 58 106
REMARK H PARENT 13 7 20 37 82 56 48 67
REMARK Flexibility Score: inf
ROOT
ATOM      1  C   UNL A   1      32.719  29.721  27.168  1.00  0.00     0.002 C 
ENDROOT
BRANCH   1   2
ATOM      2  C   UNL A   1      31.770  29.942  25.987  1.00  0.00     0.021 C 
BRANCH   2   3
ATOM      3  C   UNL A   1      32.144  29.228  24.688  1.00  0.00     0.116 C 
BRANCH   3   4
ATOM      4  N   UNL A   1      30.981  28.889  23.883  1.00  0.00    -0.351 N 
ATOM      5  C   UNL A   1      30.299  27.697  23.770  1.00  0.00     0.271 C 
ATOM      6  O   UNL A   1      29.387  27.630  22.943  1.00  0.00    -0.267 OA
ATOM      7  H   UNL A   1      30.627  29.625  23.334  1.00  0.00     0.163 HD
BRANCH   5   8
ATOM      8  C   UNL A   1      30.698  26.524  24.565  1.00  0.00     0.150 A 
ATOM      9  N   UNL A   1      31.693  24.706  25.104  1.00  0.00    -0.222 N 
ATOM     10  C   UNL A   1      30.610  24.792  25.953  1.00  0.00     0.118 A 
ATOM     11  N   UNL A   1      31.851  25.852  24.396  1.00  0.00    -0.161 NA
ATOM     12  C   UNL A   1      29.963  25.964  25.642  1.00  0.00     0.056 A 
BRANCH   9  13
ATOM     13  C   UNL A   1      32.548  23.585  24.881  1.00  0.00     0.157 A 
ATOM     14  C   UNL A   1      32.864  21.356  24.200  1.00  0.00     0.047 A 
ATOM     15  C   UNL A   1      31.984  22.375  24.509  1.00  0.00     0.073 A 
ATOM     16  N   UNL A   1      34.193  21.526  24.298  1.00  0.00    -0.233 NA
ATOM     17  C   UNL A   1      34.654  22.711  24.724  1.00  0.00     0.161 A 
ATOM     18  N   UNL A   1      33.885  23.770  25.005  1.00  0.00    -0.209 NA
BRANCH  14  19
ATOM     19  C   UNL A   1      32.350  20.002  23.773  1.00  0.00     0.056 C 
BRANCH  19  20
ATOM     20  C   UNL A   1      32.746  18.816  24.667  1.00  0.00     0.003 C 
ATOM     21  C   UNL A   1      33.855  17.940  24.093  1.00  0.00     0.004 C 
ENDBRANCH  19  20
ENDBRANCH  14  19
BRANCH  17  22
ATOM     22  C   UNL A   1      36.071  22.741  25.090  1.00  0.00     0.019 A 
ATOM     23  C   UNL A   1      36.882  21.604  24.943  1.00  0.00     0.012 A 
ATOM     24  C   UNL A   1      36.626  23.872  25.712  1.00  0.00     0.012 A 
ATOM     25  C   UNL A   1      38.196  21.588  25.420  1.00  0.00     0.014 A 
ATOM     26  C   UNL A   1      37.934  23.854  26.207  1.00  0.00     0.014 A 
ATOM     27  C   UNL A   1      38.730  22.708  26.074  1.00  0.00     0.056 A 
BRANCH  27  28
ATOM     28  C   UNL A   1      40.127  22.658  26.636  1.00  0.00     0.416 C 
ATOM     29  F   UNL A   1      40.188  22.027  27.842  1.00  0.00    -0.166 F 
ATOM     30  F   UNL A   1      40.999  22.000  25.823  1.00  0.00    -0.166 F 
ATOM     31  F   UNL A   1      40.675  23.892  26.841  1.00  0.00    -0.166 F 
ENDBRANCH  27  28
ENDBRANCH  17  22
ENDBRANCH   9  13
ENDBRANCH   5   8
ENDBRANCH   3   4
ENDBRANCH   2   3
ENDBRANCH   1   2
BRANCH   1  32
ATOM     32  C   UNL A   1      34.198  29.479  26.827  1.00  0.00     0.002 C 
BRANCH  32  33
ATOM     33  C   UNL A   1      35.218  29.672  27.958  1.00  0.00     0.021 C 
BRANCH  33  34
ATOM     34  C   UNL A   1      35.727  31.096  28.107  1.00  0.00     0.116 C 
BRANCH  34  35
ATOM     35  N   UNL A   1      35.331  31.726  29.370  1.00  0.00    -0.352 N 
ATOM     36  C   UNL A   1      35.788  31.435  30.649  1.00  0.00     0.251 C 
ATOM     37  H   UNL A   1      34.661  32.444  29.303  1.00  0.00     0.163 HD
ATOM     38  O   UNL A   1      35.147  31.750  31.635  1.00  0.00    -0.269 OA
BRANCH  36  39
ATOM     39  C   UNL A   1      37.082  30.734  30.776  1.00  0.00     0.039 A 
ATOM     40  C   UNL A   1      37.180  29.347  30.907  1.00  0.00     0.014 A 
ATOM     41  C   UNL A   1      38.224  31.519  30.701  1.00  0.00     0.014 A 
ATOM     42  C   UNL A   1      38.447  28.762  30.879  1.00  0.00     0.010 A 
ATOM     43  C   UNL A   1      39.428  30.932  30.437  1.00  0.00     0.010 A 
ATOM     44  C   UNL A   1      39.571  29.567  30.624  1.00  0.00    -0.014 A 
BRANCH  44  45
ATOM     45  C   UNL A   1      40.913  29.009  30.507  1.00  0.00     0.031 A 
ATOM     46  C   UNL A   1      41.669  28.890  31.785  1.00  0.00     0.074 A 
ATOM     47  C   UNL A   1      41.358  28.441  29.361  1.00  0.00     0.049 A 
ATOM     48  N   UNL A   1      42.749  29.509  32.129  1.00  0.00    -0.248 NA
ATOM     49  C   UNL A   1      41.085  28.075  32.863  1.00  0.00     0.031 C 
ATOM     50  C   UNL A   1      40.638  28.189  28.103  1.00  0.00     0.029 A 
ATOM     51  N   UNL A   1      42.566  27.873  29.116  1.00  0.00    -0.354 N 
ATOM     52  C   UNL A   1      43.095  29.024  33.389  1.00  0.00     0.074 A 
ATOM     53  C   UNL A   1      41.959  28.271  33.852  1.00  0.00     0.031 C 
ATOM     54  C   UNL A   1      41.337  27.322  27.337  1.00  0.00     0.029 A 
ATOM     55  C   UNL A   1      42.633  27.120  27.950  1.00  0.00     0.049 A 
ATOM     56  H   UNL A   1      43.337  27.987  29.719  1.00  0.00     0.167 HD
ATOM     57  C   UNL A   1      44.365  29.128  33.874  1.00  0.00     0.037 A 
ATOM     58  C   UNL A   1      43.684  26.379  27.521  1.00  0.00     0.037 A 
ATOM     59  C   UNL A   1      45.132  30.087  33.119  1.00  0.00     0.049 A 
ATOM     60  C   UNL A   1      44.884  26.904  28.226  1.00  0.00     0.074 A 
ATOM     61  C   UNL A   1      45.017  31.446  32.897  1.00  0.00     0.029 A 
ATOM     62  N   UNL A   1      45.949  29.616  32.118  1.00  0.00    -0.354 N 
ATOM     63  N   UNL A   1      45.359  28.109  28.047  1.00  0.00    -0.248 NA
ATOM     64  C   UNL A   1      45.255  26.268  29.480  1.00  0.00     0.031 C 
ATOM     65  C   UNL A   1      45.336  31.621  31.517  1.00  0.00     0.029 A 
ATOM     66  C   UNL A   1      45.705  30.377  30.998  1.00  0.00     0.049 A 
ATOM     67  H   UNL A   1      46.591  28.874  32.189  1.00  0.00     0.167 HD
ATOM     68  C   UNL A   1      45.729  28.541  29.314  1.00  0.00     0.074 A 
ATOM     69  C   UNL A   1      45.707  27.337  30.143  1.00  0.00     0.031 C 
ATOM     70  C   UNL A   1      45.749  29.869  29.641  1.00  0.00     0.037 A 
BRANCH  57  71
ATOM     71  C   UNL A   1      44.997  28.161  34.846  1.00  0.00     0.058 A 
ATOM     72  C   UNL A   1      45.262  26.833  34.452  1.00  0.00     0.135 A 
ATOM     73  C   UNL A   1      45.124  28.419  36.230  1.00  0.00     0.135 A 
ATOM     74  F   UNL A   1      45.156  26.468  33.164  1.00  0.00    -0.206 F 
ATOM     75  C   UNL A   1      45.583  25.829  35.367  1.00  0.00     0.059 A 
ATOM     76  C   UNL A   1      45.495  27.446  37.152  1.00  0.00     0.059 A 
ATOM     77  F   UNL A   1      44.803  29.604  36.764  1.00  0.00    -0.206 F 
ATOM     78  C   UNL A   1      45.685  26.145  36.719  1.00  0.00     0.060 A 
BRANCH  78  79
ATOM     79  S   UNL A   1      46.004  24.836  37.916  1.00  0.00     0.124 S 
ATOM     80  O   UNL A   1      44.790  24.876  38.723  1.00  0.00    -0.237 OA
ATOM     81  O   UNL A   1      46.162  23.669  37.054  1.00  0.00    -0.237 OA
ATOM     82  O   UNL A   1      47.223  25.281  38.586  1.00  0.00    -0.744 OA
ENDBRANCH  78  79
ENDBRANCH  57  71
BRANCH  58  83
ATOM     83  C   UNL A   1      43.643  25.044  26.870  1.00  0.00     0.058 A 
ATOM     84  C   UNL A   1      43.871  24.896  25.491  1.00  0.00     0.135 A 
ATOM     85  C   UNL A   1      43.666  23.859  27.634  1.00  0.00     0.135 A 
ATOM     86  F   UNL A   1      43.885  25.974  24.692  1.00  0.00    -0.206 F 
ATOM     87  C   UNL A   1      44.156  23.653  24.910  1.00  0.00     0.059 A 
ATOM     88  C   UNL A   1      43.943  22.610  27.078  1.00  0.00     0.059 A 
ATOM     89  F   UNL A   1      43.512  23.893  28.967  1.00  0.00    -0.206 F 
ATOM     90  C   UNL A   1      44.213  22.517  25.719  1.00  0.00     0.060 A 
BRANCH  90  91
ATOM     91  S   UNL A   1      44.763  20.944  25.012  1.00  0.00     0.124 S 
ATOM     92  O   UNL A   1      43.804  20.005  25.583  1.00  0.00    -0.237 OA
ATOM     93  O   UNL A   1      44.641  21.188  23.579  1.00  0.00    -0.237 OA
ATOM     94  O   UNL A   1      46.133  20.813  25.503  1.00  0.00    -0.744 OA
ENDBRANCH  90  91
ENDBRANCH  58  83
BRANCH  70  95
ATOM     95  C   UNL A   1      45.587  30.885  28.530  1.00  0.00     0.058 A 
ATOM     96  C   UNL A   1      44.363  31.472  28.155  1.00  0.00     0.135 A 
ATOM     97  C   UNL A   1      46.744  31.405  27.931  1.00  0.00     0.135 A 
ATOM     98  F   UNL A   1      43.217  31.113  28.745  1.00  0.00    -0.206 F 
ATOM     99  C   UNL A   1      44.290  32.497  27.206  1.00  0.00     0.059 A 
ATOM    100  C   UNL A   1      46.698  32.446  27.005  1.00  0.00     0.059 A 
ATOM    101  F   UNL A   1      47.951  30.936  28.286  1.00  0.00    -0.206 F 
ATOM    102  C   UNL A   1      45.466  32.979  26.637  1.00  0.00     0.060 A 
BRANCH 102 103
ATOM    103  S   UNL A   1      45.380  34.349  25.462  1.00  0.00     0.124 S 
ATOM    104  O   UNL A   1      46.791  34.650  25.236  1.00  0.00    -0.237 OA
ATOM    105  O   UNL A   1      44.671  33.757  24.330  1.00  0.00    -0.237 OA
ATOM    106  O   UNL A   1      44.633  35.375  26.186  1.00  0.00    -0.744 OA
ENDBRANCH 102 103
ENDBRANCH  70  95
ENDBRANCH  44  45
ENDBRANCH  36  39
ENDBRANCH  34  35
ENDBRANCH  33  34
ENDBRANCH  32  33
ENDBRANCH   1  32
TORSDOF 21
ENDMDL
MODEL 3
REMARK VINA RESULT:     -11.3      3.319      8.078
REMARK SMILES CCCc1cc(-n2ccc(C(=O)NCCCCCCNC(=O)c3ccc(-c4c5nc(c(-c6c(F)cc(S(=O)(=O)[O-])cc6F)c6ccc([nH]6)c(-c6c(F)cc(S(=O)(=O)[O-])cc6F)c6nc(c(-c7c(F)cc(S(=O)(=O)[O-])cc7F)c7ccc4[nH]7)C=C6)C=C5)cc3)n2)nc(-c2ccc(C(F)(F)F)cc2)n1
REMARK SMILES IDX 16 1 15 2 14 3 13 4 11 5 12 6 10 8 7 9 8 10 89 11 9 12 6 13
REMARK SMILES IDX 4 14 5 15 102 16 91 17 90 18 3 19 2 20 1 21 92 22 93 23
REMARK SMILES IDX 101 24 94 25 100 26 95 27 96 28 97 29 98 30 99 31 17 32
REMARK SMILES IDX 18 33 19 34 20 35 21 36 22 38 23 39 24 40 88 41 25 42 87 43
REMARK SMILES IDX 26 44 27 45 28 46 81 47 29 48 86 49 80 50 82 51 30 52 85 53
REMARK SMILES IDX 79 54 78 55 31 57 65 58 44 59 64 60 45 61 48 62 63 63 83 64
REMARK SMILES IDX 46 65 47 66 62 68 84 69 49 70 32 71 33 72 42 73 34 74 35 75
REMARK SMILES IDX 41 76 43 77 36 78 37 79 38 80 39 81 40 82 66 83 67 84 76 85
REMARK SMILES IDX 68 86 69 87 75 88 77 89 70 90 71 91 72 92 73 93 74 94 50 95
REMARK SMILES IDX 51 96 60 97 52 98 53 99 59 100 61 101 54 102 55 103 56 104
REMARK SMILES IDX 57 105 58 106
REMARK H PARENT 13 7 20 37 82 56 48 67
REMARK Flexibility Score: inf
ROOT
ATOM      1  C   UNL A   1      34.109  28.380  26.100  1.00  0.00     0.002 C 
ENDROOT
BRANCH   1   2
ATOM      2  C   UNL A   1      33.092  28.460  24.957  1.00  0.00     0.021 C 
BRANCH   2   3
ATOM      3  C   UNL A   1      32.421  27.142  24.568  1.00  0.00     0.116 C 
BRANCH   3   4
ATOM      4  N   UNL A   1      31.285  26.823  25.417  1.00  0.00    -0.351 N 
ATOM      5  C   UNL A   1      30.672  25.611  25.658  1.00  0.00     0.271 C 
ATOM      6  O   UNL A   1      29.655  25.608  26.356  1.00  0.00    -0.267 OA
ATOM      7  H   UNL A   1      30.893  27.589  25.894  1.00  0.00     0.163 HD
BRANCH   5   8
ATOM      8  C   UNL A   1      31.180  24.376  25.041  1.00  0.00     0.150 A 
ATOM      9  N   UNL A   1      32.466  22.710  24.641  1.00  0.00    -0.222 N 
ATOM     10  C   UNL A   1      31.659  22.820  23.530  1.00  0.00     0.118 A 
ATOM     11  N   UNL A   1      32.044  23.533  25.634  1.00  0.00    -0.161 NA
ATOM     12  C   UNL A   1      30.807  23.871  23.768  1.00  0.00     0.056 A 
BRANCH   9  13
ATOM     13  C   UNL A   1      33.644  21.920  24.798  1.00  0.00     0.157 A 
ATOM     14  C   UNL A   1      34.730  19.834  24.742  1.00  0.00     0.047 A 
ATOM     15  C   UNL A   1      33.544  20.541  24.693  1.00  0.00     0.073 A 
ATOM     16  N   UNL A   1      35.907  20.454  24.925  1.00  0.00    -0.233 NA
ATOM     17  C   UNL A   1      35.908  21.787  25.078  1.00  0.00     0.161 A 
ATOM     18  N   UNL A   1      34.819  22.562  25.002  1.00  0.00    -0.209 NA
BRANCH  14  19
ATOM     19  C   UNL A   1      34.730  18.328  24.627  1.00  0.00     0.056 C 
BRANCH  19  20
ATOM     20  C   UNL A   1      33.397  17.681  24.219  1.00  0.00     0.003 C 
ATOM     21  C   UNL A   1      33.169  17.609  22.713  1.00  0.00     0.004 C 
ENDBRANCH  19  20
ENDBRANCH  14  19
BRANCH  17  22
ATOM     22  C   UNL A   1      37.163  22.365  25.562  1.00  0.00     0.019 A 
ATOM     23  C   UNL A   1      38.304  21.567  25.751  1.00  0.00     0.012 A 
ATOM     24  C   UNL A   1      37.223  23.709  25.966  1.00  0.00     0.012 A 
ATOM     25  C   UNL A   1      39.458  22.087  26.343  1.00  0.00     0.014 A 
ATOM     26  C   UNL A   1      38.370  24.228  26.577  1.00  0.00     0.014 A 
ATOM     27  C   UNL A   1      39.497  23.419  26.779  1.00  0.00     0.056 A 
BRANCH  27  28
ATOM     28  C   UNL A   1      40.726  23.951  27.469  1.00  0.00     0.416 C 
ATOM     29  F   UNL A   1      40.451  24.987  28.311  1.00  0.00    -0.166 F 
ATOM     30  F   UNL A   1      41.355  23.011  28.226  1.00  0.00    -0.166 F 
ATOM     31  F   UNL A   1      41.673  24.423  26.606  1.00  0.00    -0.166 F 
ENDBRANCH  27  28
ENDBRANCH  17  22
ENDBRANCH   9  13
ENDBRANCH   5   8
ENDBRANCH   3   4
ENDBRANCH   2   3
ENDBRANCH   1   2
BRANCH   1  32
ATOM     32  C   UNL A   1      33.845  29.277  27.319  1.00  0.00     0.002 C 
BRANCH  32  33
ATOM     33  C   UNL A   1      35.070  29.889  28.015  1.00  0.00     0.021 C 
BRANCH  33  34
ATOM     34  C   UNL A   1      35.134  31.405  27.953  1.00  0.00     0.116 C 
BRANCH  34  35
ATOM     35  N   UNL A   1      34.545  32.062  29.122  1.00  0.00    -0.352 N 
ATOM     36  C   UNL A   1      35.079  32.169  30.401  1.00  0.00     0.251 C 
ATOM     37  H   UNL A   1      33.665  32.480  28.986  1.00  0.00     0.163 HD
ATOM     38  O   UNL A   1      34.371  32.403  31.363  1.00  0.00    -0.269 OA
BRANCH  36  39
ATOM     39  C   UNL A   1      36.537  31.994  30.556  1.00  0.00     0.039 A 
ATOM     40  C   UNL A   1      37.099  30.952  31.296  1.00  0.00     0.014 A 
ATOM     41  C   UNL A   1      37.347  32.892  29.874  1.00  0.00     0.014 A 
ATOM     42  C   UNL A   1      38.485  30.785  31.270  1.00  0.00     0.010 A 
ATOM     43  C   UNL A   1      38.660  32.587  29.660  1.00  0.00     0.010 A 
ATOM     44  C   UNL A   1      39.260  31.602  30.429  1.00  0.00    -0.014 A 
BRANCH  44  45
ATOM     45  C   UNL A   1      40.702  31.431  30.297  1.00  0.00     0.031 A 
ATOM     46  C   UNL A   1      41.148  30.078  29.859  1.00  0.00     0.074 A 
ATOM     47  C   UNL A   1      41.559  32.478  30.357  1.00  0.00     0.049 A 
ATOM     48  N   UNL A   1      41.844  29.218  30.523  1.00  0.00    -0.248 NA
ATOM     49  C   UNL A   1      40.654  29.571  28.568  1.00  0.00     0.031 C 
ATOM     50  C   UNL A   1      41.268  33.916  30.468  1.00  0.00     0.029 A 
ATOM     51  N   UNL A   1      42.910  32.469  30.237  1.00  0.00    -0.354 N 
ATOM     52  C   UNL A   1      42.045  28.134  29.672  1.00  0.00     0.074 A 
ATOM     53  C   UNL A   1      41.164  28.337  28.551  1.00  0.00     0.031 C 
ATOM     54  C   UNL A   1      42.374  34.634  30.171  1.00  0.00     0.029 A 
ATOM     55  C   UNL A   1      43.490  33.718  30.052  1.00  0.00     0.049 A 
ATOM     56  H   UNL A   1      43.440  31.639  30.278  1.00  0.00     0.167 HD
ATOM     57  C   UNL A   1      43.061  27.245  29.868  1.00  0.00     0.037 A 
ATOM     58  C   UNL A   1      44.799  33.979  29.815  1.00  0.00     0.037 A 
ATOM     59  C   UNL A   1      43.600  27.360  31.200  1.00  0.00     0.049 A 
ATOM     60  C   UNL A   1      45.556  32.787  30.280  1.00  0.00     0.074 A 
ATOM     61  C   UNL A   1      43.078  27.171  32.466  1.00  0.00     0.029 A 
ATOM     62  N   UNL A   1      44.730  28.123  31.376  1.00  0.00    -0.354 N 
ATOM     63  N   UNL A   1      45.616  32.410  31.530  1.00  0.00    -0.248 NA
ATOM     64  C   UNL A   1      45.833  31.747  29.302  1.00  0.00     0.031 C 
ATOM     65  C   UNL A   1      43.617  28.236  33.247  1.00  0.00     0.029 A 
ATOM     66  C   UNL A   1      44.496  28.963  32.440  1.00  0.00     0.049 A 
ATOM     67  H   UNL A   1      45.554  28.077  30.841  1.00  0.00     0.167 HD
ATOM     68  C   UNL A   1      45.523  31.025  31.493  1.00  0.00     0.074 A 
ATOM     69  C   UNL A   1      45.731  30.672  30.090  1.00  0.00     0.031 C 
ATOM     70  C   UNL A   1      45.012  30.313  32.543  1.00  0.00     0.037 A 
BRANCH  57  71
ATOM     71  C   UNL A   1      43.751  26.472  28.772  1.00  0.00     0.058 A 
ATOM     72  C   UNL A   1      43.948  25.081  28.902  1.00  0.00     0.135 A 
ATOM     73  C   UNL A   1      44.450  27.085  27.707  1.00  0.00     0.135 A 
ATOM     74  F   UNL A   1      43.349  24.395  29.889  1.00  0.00    -0.206 F 
ATOM     75  C   UNL A   1      44.809  24.364  28.068  1.00  0.00     0.059 A 
ATOM     76  C   UNL A   1      45.270  26.381  26.831  1.00  0.00     0.059 A 
ATOM     77  F   UNL A   1      44.443  28.411  27.523  1.00  0.00    -0.206 F 
ATOM     78  C   UNL A   1      45.475  25.027  27.042  1.00  0.00     0.060 A 
BRANCH  78  79
ATOM     79  S   UNL A   1      46.659  24.128  26.023  1.00  0.00     0.124 S 
ATOM     80  O   UNL A   1      47.916  24.433  26.698  1.00  0.00    -0.237 OA
ATOM     81  O   UNL A   1      46.184  22.754  26.148  1.00  0.00    -0.237 OA
ATOM     82  O   UNL A   1      46.490  24.726  24.702  1.00  0.00    -0.744 OA
ENDBRANCH  78  79
ENDBRANCH  57  71
BRANCH  58  83
ATOM     83  C   UNL A   1      45.364  34.989  28.882  1.00  0.00     0.058 A 
ATOM     84  C   UNL A   1      46.253  35.982  29.332  1.00  0.00     0.135 A 
ATOM     85  C   UNL A   1      45.271  34.825  27.485  1.00  0.00     0.135 A 
ATOM     86  F   UNL A   1      46.417  36.192  30.646  1.00  0.00    -0.206 F 
ATOM     87  C   UNL A   1      47.042  36.731  28.449  1.00  0.00     0.059 A 
ATOM     88  C   UNL A   1      46.043  35.562  26.588  1.00  0.00     0.059 A 
ATOM     89  F   UNL A   1      44.492  33.871  26.951  1.00  0.00    -0.206 F 
ATOM     90  C   UNL A   1      46.947  36.497  27.078  1.00  0.00     0.060 A 
BRANCH  90  91
ATOM     91  S   UNL A   1      48.092  37.325  25.947  1.00  0.00     0.124 S 
ATOM     92  O   UNL A   1      49.037  37.941  26.872  1.00  0.00    -0.237 OA
ATOM     93  O   UNL A   1      48.607  36.212  25.157  1.00  0.00    -0.237 OA
ATOM     94  O   UNL A   1      47.234  38.257  25.219  1.00  0.00    -0.744 OA
ENDBRANCH  90  91
ENDBRANCH  58  83
BRANCH  70  95
ATOM     95  C   UNL A   1      44.763  31.037  33.850  1.00  0.00     0.058 A 
ATOM     96  C   UNL A   1      43.543  31.639  34.211  1.00  0.00     0.135 A 
ATOM     97  C   UNL A   1      45.753  30.976  34.842  1.00  0.00     0.135 A 
ATOM     98  F   UNL A   1      42.506  31.656  33.366  1.00  0.00    -0.206 F 
ATOM     99  C   UNL A   1      43.331  32.186  35.480  1.00  0.00     0.059 A 
ATOM    100  C   UNL A   1      45.553  31.487  36.124  1.00  0.00     0.059 A 
ATOM    101  F   UNL A   1      46.919  30.361  34.589  1.00  0.00    -0.206 F 
ATOM    102  C   UNL A   1      44.343  32.103  36.433  1.00  0.00     0.060 A 
BRANCH 102 103
ATOM    103  S   UNL A   1      44.047  32.747  38.095  1.00  0.00     0.124 S 
ATOM    104  O   UNL A   1      43.859  34.173  37.843  1.00  0.00    -0.237 OA
ATOM    105  O   UNL A   1      42.854  32.016  38.514  1.00  0.00    -0.237 OA
ATOM    106  O   UNL A   1      45.267  32.399  38.819  1.00  0.00    -0.744 OA
ENDBRANCH 102 103
ENDBRANCH  70  95
ENDBRANCH  44  45
ENDBRANCH  36  39
ENDBRANCH  34  35
ENDBRANCH  33  34
ENDBRANCH  32  33
ENDBRANCH   1  32
TORSDOF 21
ENDMDL
