MODEL 1
REMARK VINA RESULT:      -8.3      0.000      0.000
REMARK SMILES COC(=O)c1ccc([C@H]2Nc3c(C(=O)NCCCCCCNC(=O)c4ccc(-c5c6nc(c(-c7c(F)cc(S(=O)(=O)[O-])cc7F)c7ccc([nH]7)c(-c7c(F)cc(S(=O)(=O)[O-])cc7F)c7nc(c(-c8c(F)cc(S(=O)(=O)[O-])cc8F)c8ccc5[nH]8)C=C7)C=C6)cc4)cccc3[C@H]3[C@H]4CC[C@H](C4)[C@H]32)cc1
REMARK SMILES IDX 18 1 17 2 16 3 15 4 13 5 14 6 12 8 9 9 10 10 101 11 11 12
REMARK SMILES IDX 95 14 99 15 94 16 96 17 98 18 100 19 91 20 93 21 97 22 92 23
REMARK SMILES IDX 8 24 5 25 6 26 103 27 7 28 102 29 3 30 4 31 2 32 1 33 19 34
REMARK SMILES IDX 20 35 21 36 22 37 23 38 24 40 25 41 26 42 90 43 27 44 89 45
REMARK SMILES IDX 28 46 29 47 30 48 83 49 31 50 88 51 82 52 84 53 32 54 87 55
REMARK SMILES IDX 81 56 80 57 33 59 67 60 46 61 66 62 47 63 50 64 65 65 85 66
REMARK SMILES IDX 48 67 49 68 64 70 86 71 51 72 34 73 35 74 44 75 36 76 37 77
REMARK SMILES IDX 43 78 45 79 38 80 39 81 40 82 41 83 42 84 68 85 69 86 78 87
REMARK SMILES IDX 70 88 71 89 77 90 79 91 72 92 73 93 74 94 75 95 76 96 52 97
REMARK SMILES IDX 53 98 62 99 54 100 55 101 61 102 63 103 56 104 57 105 58 106
REMARK SMILES IDX 59 107 60 108
REMARK H PARENT 15 7 10 13 22 39 84 58 50 69
REMARK Flexibility Score: inf
ROOT
ATOM      1  C   UNL A   1      40.404  28.672  29.670  1.00  0.00     0.002 C 
ENDROOT
BRANCH   1   2
ATOM      2  C   UNL A   1      40.423  29.611  28.465  1.00  0.00     0.021 C 
BRANCH   2   3
ATOM      3  C   UNL A   1      39.772  29.090  27.186  1.00  0.00     0.116 C 
BRANCH   3   4
ATOM      4  N   UNL A   1      40.670  28.953  26.047  1.00  0.00    -0.352 N 
ATOM      5  C   UNL A   1      41.513  27.899  25.731  1.00  0.00     0.253 C 
ATOM      6  O   UNL A   1      42.222  27.953  24.727  1.00  0.00    -0.269 OA
ATOM      7  H   UNL A   1      40.679  29.709  25.417  1.00  0.00     0.163 HD
BRANCH   5   8
ATOM      8  C   UNL A   1      41.612  26.745  26.667  1.00  0.00     0.063 A 
ATOM      9  C   UNL A   1      45.047  26.298  27.716  1.00  0.00     0.113 C 
ATOM     10  N   UNL A   1      43.948  27.213  27.316  1.00  0.00    -0.377 N 
ATOM     11  C   UNL A   1      44.975  26.312  29.291  1.00  0.00     0.027 C 
ATOM     12  C   UNL A   1      42.666  26.672  27.585  1.00  0.00     0.051 A 
ATOM     13  H   UNL A   1      44.094  28.097  26.909  1.00  0.00     0.161 HD
ATOM     14  C   UNL A   1      43.526  26.162  29.839  1.00  0.00     0.030 C 
ATOM     15  C   UNL A   1      45.830  25.558  30.360  1.00  0.00    -0.005 C 
ATOM     16  C   UNL A   1      42.517  25.889  28.758  1.00  0.00    -0.020 A 
ATOM     17  C   UNL A   1      43.720  25.341  31.135  1.00  0.00    -0.003 C 
ATOM     18  C   UNL A   1      45.653  24.042  30.518  1.00  0.00     0.004 C 
ATOM     19  C   UNL A   1      45.040  25.962  31.636  1.00  0.00     0.008 C 
ATOM     20  C   UNL A   1      40.613  25.772  26.714  1.00  0.00     0.016 A 
ATOM     21  C   UNL A   1      41.444  25.006  28.859  1.00  0.00     0.006 A 
ATOM     22  C   UNL A   1      44.166  23.890  30.901  1.00  0.00     0.004 C 
ATOM     23  C   UNL A   1      40.542  24.894  27.797  1.00  0.00     0.001 A 
BRANCH   9  24
ATOM     24  C   UNL A   1      44.925  25.023  26.860  1.00  0.00    -0.025 A 
ATOM     25  C   UNL A   1      44.991  22.728  25.158  1.00  0.00     0.060 A 
ATOM     26  C   UNL A   1      45.110  22.586  26.546  1.00  0.00     0.016 A 
ATOM     27  C   UNL A   1      44.813  24.000  24.637  1.00  0.00     0.016 A 
ATOM     28  C   UNL A   1      45.064  23.725  27.389  1.00  0.00     0.007 A 
ATOM     29  C   UNL A   1      44.824  25.098  25.481  1.00  0.00     0.007 A 
BRANCH  25  30
ATOM     30  C   UNL A   1      45.075  21.579  24.219  1.00  0.00     0.337 C 
ATOM     31  O   UNL A   1      44.528  21.522  23.126  1.00  0.00    -0.246 OA
BRANCH  30  32
ATOM     32  O   UNL A   1      45.876  20.634  24.773  1.00  0.00    -0.465 OA
ATOM     33  C   UNL A   1      45.585  19.269  24.483  1.00  0.00     0.282 C 
ENDBRANCH  30  32
ENDBRANCH  25  30
ENDBRANCH   9  24
ENDBRANCH   5   8
ENDBRANCH   3   4
ENDBRANCH   2   3
ENDBRANCH   1   2
BRANCH   1  34
ATOM     34  C   UNL A   1      39.140  27.828  29.853  1.00  0.00     0.002 C 
BRANCH  34  35
ATOM     35  C   UNL A   1      38.519  27.816  31.254  1.00  0.00     0.021 C 
BRANCH  35  36
ATOM     36  C   UNL A   1      37.546  28.952  31.569  1.00  0.00     0.116 C 
BRANCH  36  37
ATOM     37  N   UNL A   1      37.624  29.397  32.949  1.00  0.00    -0.352 N 
ATOM     38  C   UNL A   1      38.623  30.077  33.606  1.00  0.00     0.251 C 
ATOM     39  H   UNL A   1      36.839  29.179  33.502  1.00  0.00     0.163 HD
ATOM     40  O   UNL A   1      38.545  30.235  34.821  1.00  0.00    -0.269 OA
BRANCH  38  41
ATOM     41  C   UNL A   1      39.802  30.594  32.871  1.00  0.00     0.039 A 
ATOM     42  C   UNL A   1      39.595  31.502  31.828  1.00  0.00     0.014 A 
ATOM     43  C   UNL A   1      41.101  30.177  33.179  1.00  0.00     0.014 A 
ATOM     44  C   UNL A   1      40.688  32.040  31.142  1.00  0.00     0.010 A 
ATOM     45  C   UNL A   1      42.193  30.764  32.539  1.00  0.00     0.010 A 
ATOM     46  C   UNL A   1      41.999  31.704  31.516  1.00  0.00    -0.014 A 
BRANCH  46  47
ATOM     47  C   UNL A   1      43.171  32.350  30.863  1.00  0.00     0.031 A 
ATOM     48  C   UNL A   1      43.397  33.833  30.983  1.00  0.00     0.074 A 
ATOM     49  C   UNL A   1      44.002  31.604  30.109  1.00  0.00     0.049 A 
ATOM     50  N   UNL A   1      44.342  34.570  30.456  1.00  0.00    -0.248 NA
ATOM     51  C   UNL A   1      42.419  34.592  31.777  1.00  0.00     0.031 C 
ATOM     52  C   UNL A   1      43.865  30.165  29.872  1.00  0.00     0.029 A 
ATOM     53  N   UNL A   1      45.124  31.949  29.398  1.00  0.00    -0.354 N 
ATOM     54  C   UNL A   1      44.067  35.877  30.841  1.00  0.00     0.074 A 
ATOM     55  C   UNL A   1      42.840  35.838  31.607  1.00  0.00     0.031 C 
ATOM     56  C   UNL A   1      44.878  29.747  29.097  1.00  0.00     0.029 A 
ATOM     57  C   UNL A   1      45.718  30.891  28.753  1.00  0.00     0.049 A 
ATOM     58  H   UNL A   1      45.473  32.870  29.356  1.00  0.00     0.167 HD
ATOM     59  C   UNL A   1      44.782  37.002  30.597  1.00  0.00     0.037 A 
ATOM     60  C   UNL A   1      46.814  30.843  27.970  1.00  0.00     0.037 A 
ATOM     61  C   UNL A   1      46.016  37.033  29.852  1.00  0.00     0.049 A 
ATOM     62  C   UNL A   1      47.592  32.103  27.714  1.00  0.00     0.074 A 
ATOM     63  C   UNL A   1      46.851  38.110  29.614  1.00  0.00     0.029 A 
ATOM     64  N   UNL A   1      46.587  35.939  29.218  1.00  0.00    -0.354 N 
ATOM     65  N   UNL A   1      47.359  33.318  28.150  1.00  0.00    -0.248 NA
ATOM     66  C   UNL A   1      48.785  31.986  26.865  1.00  0.00     0.031 C 
ATOM     67  C   UNL A   1      47.901  37.678  28.797  1.00  0.00     0.029 A 
ATOM     68  C   UNL A   1      47.748  36.321  28.564  1.00  0.00     0.049 A 
ATOM     69  H   UNL A   1      46.220  35.024  29.230  1.00  0.00     0.167 HD
ATOM     70  C   UNL A   1      48.386  34.107  27.646  1.00  0.00     0.074 A 
ATOM     71  C   UNL A   1      49.250  33.228  26.883  1.00  0.00     0.031 C 
ATOM     72  C   UNL A   1      48.596  35.438  27.803  1.00  0.00     0.037 A 
BRANCH  59  73
ATOM     73  C   UNL A   1      44.240  38.299  31.137  1.00  0.00     0.058 A 
ATOM     74  C   UNL A   1      43.431  39.143  30.359  1.00  0.00     0.135 A 
ATOM     75  C   UNL A   1      44.517  38.695  32.456  1.00  0.00     0.135 A 
ATOM     76  F   UNL A   1      43.141  38.820  29.088  1.00  0.00    -0.206 F 
ATOM     77  C   UNL A   1      42.952  40.352  30.854  1.00  0.00     0.059 A 
ATOM     78  C   UNL A   1      44.025  39.886  32.981  1.00  0.00     0.059 A 
ATOM     79  F   UNL A   1      45.282  37.925  33.246  1.00  0.00    -0.206 F 
ATOM     80  C   UNL A   1      43.260  40.718  32.165  1.00  0.00     0.060 A 
BRANCH  80  81
ATOM     81  S   UNL A   1      42.650  42.299  32.787  1.00  0.00     0.124 S 
ATOM     82  O   UNL A   1      41.534  41.869  33.626  1.00  0.00    -0.237 OA
ATOM     83  O   UNL A   1      43.809  42.827  33.498  1.00  0.00    -0.237 OA
ATOM     84  O   UNL A   1      42.279  43.022  31.573  1.00  0.00    -0.744 OA
ENDBRANCH  80  81
ENDBRANCH  59  73
BRANCH  60  85
ATOM     85  C   UNL A   1      47.258  29.542  27.403  1.00  0.00     0.058 A 
ATOM     86  C   UNL A   1      46.881  29.158  26.108  1.00  0.00     0.135 A 
ATOM     87  C   UNL A   1      48.089  28.674  28.126  1.00  0.00     0.135 A 
ATOM     88  F   UNL A   1      46.079  29.951  25.380  1.00  0.00    -0.206 F 
ATOM     89  C   UNL A   1      47.308  27.958  25.550  1.00  0.00     0.059 A 
ATOM     90  C   UNL A   1      48.549  27.480  27.581  1.00  0.00     0.059 A 
ATOM     91  F   UNL A   1      48.490  29.003  29.364  1.00  0.00    -0.206 F 
ATOM     92  C   UNL A   1      48.148  27.127  26.293  1.00  0.00     0.060 A 
BRANCH  92  93
ATOM     93  S   UNL A   1      48.755  25.606  25.533  1.00  0.00     0.124 S 
ATOM     94  O   UNL A   1      50.191  25.853  25.487  1.00  0.00    -0.237 OA
ATOM     95  O   UNL A   1      48.311  24.590  26.483  1.00  0.00    -0.237 OA
ATOM     96  O   UNL A   1      48.075  25.583  24.241  1.00  0.00    -0.744 OA
ENDBRANCH  92  93
ENDBRANCH  60  85
BRANCH  72  97
ATOM     97  C   UNL A   1      49.820  36.023  27.151  1.00  0.00     0.058 A 
ATOM     98  C   UNL A   1      51.020  36.196  27.859  1.00  0.00     0.135 A 
ATOM     99  C   UNL A   1      49.801  36.383  25.794  1.00  0.00     0.135 A 
ATOM    100  F   UNL A   1      51.089  35.875  29.160  1.00  0.00    -0.206 F 
ATOM    101  C   UNL A   1      52.152  36.728  27.249  1.00  0.00     0.059 A 
ATOM    102  C   UNL A   1      50.929  36.893  25.158  1.00  0.00     0.059 A 
ATOM    103  F   UNL A   1      48.682  36.231  25.069  1.00  0.00    -0.206 F 
ATOM    104  C   UNL A   1      52.097  37.075  25.899  1.00  0.00     0.060 A 
BRANCH 104 105
ATOM    105  S   UNL A   1      53.578  37.744  25.114  1.00  0.00     0.124 S 
ATOM    106  O   UNL A   1      53.318  37.459  23.706  1.00  0.00    -0.237 OA
ATOM    107  O   UNL A   1      53.528  39.151  25.495  1.00  0.00    -0.237 OA
ATOM    108  O   UNL A   1      54.661  36.975  25.720  1.00  0.00    -0.744 OA
ENDBRANCH 104 105
ENDBRANCH  72  97
ENDBRANCH  46  47
ENDBRANCH  38  41
ENDBRANCH  36  37
ENDBRANCH  35  36
ENDBRANCH  34  35
ENDBRANCH   1  34
TORSDOF 19
ENDMDL
MODEL 2
REMARK VINA RESULT:      -8.1      6.466     12.767
REMARK SMILES COC(=O)c1ccc([C@H]2Nc3c(C(=O)NCCCCCCNC(=O)c4ccc(-c5c6nc(c(-c7c(F)cc(S(=O)(=O)[O-])cc7F)c7ccc([nH]7)c(-c7c(F)cc(S(=O)(=O)[O-])cc7F)c7nc(c(-c8c(F)cc(S(=O)(=O)[O-])cc8F)c8ccc5[nH]8)C=C7)C=C6)cc4)cccc3[C@H]3[C@H]4CC[C@H](C4)[C@H]32)cc1
REMARK SMILES IDX 18 1 17 2 16 3 15 4 13 5 14 6 12 8 9 9 10 10 101 11 11 12
REMARK SMILES IDX 95 14 99 15 94 16 96 17 98 18 100 19 91 20 93 21 97 22 92 23
REMARK SMILES IDX 8 24 5 25 6 26 103 27 7 28 102 29 3 30 4 31 2 32 1 33 19 34
REMARK SMILES IDX 20 35 21 36 22 37 23 38 24 40 25 41 26 42 90 43 27 44 89 45
REMARK SMILES IDX 28 46 29 47 30 48 83 49 31 50 88 51 82 52 84 53 32 54 87 55
REMARK SMILES IDX 81 56 80 57 33 59 67 60 46 61 66 62 47 63 50 64 65 65 85 66
REMARK SMILES IDX 48 67 49 68 64 70 86 71 51 72 34 73 35 74 44 75 36 76 37 77
REMARK SMILES IDX 43 78 45 79 38 80 39 81 40 82 41 83 42 84 68 85 69 86 78 87
REMARK SMILES IDX 70 88 71 89 77 90 79 91 72 92 73 93 74 94 75 95 76 96 52 97
REMARK SMILES IDX 53 98 62 99 54 100 55 101 61 102 63 103 56 104 57 105 58 106
REMARK SMILES IDX 59 107 60 108
REMARK H PARENT 15 7 10 13 22 39 84 58 50 69
REMARK Flexibility Score: inf
ROOT
ATOM      1  C   UNL A   1      47.326  26.719  33.917  1.00  0.00     0.002 C 
ENDROOT
BRANCH   1   2
ATOM      2  C   UNL A   1      45.970  26.089  34.233  1.00  0.00     0.021 C 
BRANCH   2   3
ATOM      3  C   UNL A   1      45.502  24.976  33.301  1.00  0.00     0.116 C 
BRANCH   3   4
ATOM      4  N   UNL A   1      44.290  24.285  33.722  1.00  0.00    -0.352 N 
ATOM      5  C   UNL A   1      44.094  23.483  34.836  1.00  0.00     0.253 C 
ATOM      6  O   UNL A   1      42.998  22.959  35.036  1.00  0.00    -0.269 OA
ATOM      7  H   UNL A   1      43.505  24.403  33.139  1.00  0.00     0.163 HD
BRANCH   5   8
ATOM      8  C   UNL A   1      45.246  23.196  35.734  1.00  0.00     0.063 A 
ATOM      9  C   UNL A   1      47.097  20.345  34.492  1.00  0.00     0.113 C 
ATOM     10  N   UNL A   1      46.283  21.554  34.210  1.00  0.00    -0.377 N 
ATOM     11  C   UNL A   1      48.579  20.869  34.374  1.00  0.00     0.027 C 
ATOM     12  C   UNL A   1      46.368  22.520  35.244  1.00  0.00     0.051 A 
ATOM     13  H   UNL A   1      45.745  21.673  33.394  1.00  0.00     0.161 HD
ATOM     14  C   UNL A   1      48.813  22.219  35.111  1.00  0.00     0.030 C 
ATOM     15  C   UNL A   1      49.943  20.129  34.564  1.00  0.00    -0.005 C 
ATOM     16  C   UNL A   1      47.615  22.668  35.903  1.00  0.00    -0.020 A 
ATOM     17  C   UNL A   1      50.260  22.090  35.639  1.00  0.00    -0.003 C 
ATOM     18  C   UNL A   1      50.367  19.707  35.977  1.00  0.00     0.004 C 
ATOM     19  C   UNL A   1      50.901  21.347  34.449  1.00  0.00     0.008 C 
ATOM     20  C   UNL A   1      45.270  23.675  37.045  1.00  0.00     0.016 A 
ATOM     21  C   UNL A   1      47.657  23.263  37.162  1.00  0.00     0.006 A 
ATOM     22  C   UNL A   1      50.435  21.042  36.748  1.00  0.00     0.004 C 
ATOM     23  C   UNL A   1      46.469  23.690  37.762  1.00  0.00     0.001 A 
BRANCH   9  24
ATOM     24  C   UNL A   1      46.517  19.680  35.756  1.00  0.00    -0.025 A 
ATOM     25  C   UNL A   1      45.556  18.170  37.983  1.00  0.00     0.060 A 
ATOM     26  C   UNL A   1      46.649  19.032  38.129  1.00  0.00     0.016 A 
ATOM     27  C   UNL A   1      44.939  18.090  36.745  1.00  0.00     0.016 A 
ATOM     28  C   UNL A   1      47.116  19.790  37.027  1.00  0.00     0.007 A 
ATOM     29  C   UNL A   1      45.450  18.803  35.673  1.00  0.00     0.007 A 
BRANCH  25  30
ATOM     30  C   UNL A   1      45.046  17.317  39.089  1.00  0.00     0.337 C 
ATOM     31  O   UNL A   1      45.314  17.467  40.274  1.00  0.00    -0.246 OA
BRANCH  30  32
ATOM     32  O   UNL A   1      44.225  16.376  38.558  1.00  0.00    -0.465 OA
ATOM     33  C   UNL A   1      43.169  15.883  39.378  1.00  0.00     0.282 C 
ENDBRANCH  30  32
ENDBRANCH  25  30
ENDBRANCH   9  24
ENDBRANCH   5   8
ENDBRANCH   3   4
ENDBRANCH   2   3
ENDBRANCH   1   2
BRANCH   1  34
ATOM     34  C   UNL A   1      48.555  25.843  34.165  1.00  0.00     0.002 C 
BRANCH  34  35
ATOM     35  C   UNL A   1      49.478  26.264  35.313  1.00  0.00     0.021 C 
BRANCH  35  36
ATOM     36  C   UNL A   1      48.853  26.285  36.707  1.00  0.00     0.116 C 
BRANCH  36  37
ATOM     37  N   UNL A   1      49.285  27.420  37.504  1.00  0.00    -0.352 N 
ATOM     38  C   UNL A   1      48.824  28.716  37.523  1.00  0.00     0.251 C 
ATOM     39  H   UNL A   1      50.022  27.234  38.129  1.00  0.00     0.163 HD
ATOM     40  O   UNL A   1      49.427  29.560  38.181  1.00  0.00    -0.269 OA
BRANCH  38  41
ATOM     41  C   UNL A   1      47.628  29.110  36.741  1.00  0.00     0.039 A 
ATOM     42  C   UNL A   1      46.386  28.577  37.101  1.00  0.00     0.014 A 
ATOM     43  C   UNL A   1      47.719  29.974  35.645  1.00  0.00     0.014 A 
ATOM     44  C   UNL A   1      45.233  28.960  36.410  1.00  0.00     0.010 A 
ATOM     45  C   UNL A   1      46.561  30.406  34.998  1.00  0.00     0.010 A 
ATOM     46  C   UNL A   1      45.304  29.907  35.375  1.00  0.00    -0.014 A 
BRANCH  46  47
ATOM     47  C   UNL A   1      44.072  30.400  34.703  1.00  0.00     0.031 A 
ATOM     48  C   UNL A   1      43.685  29.895  33.339  1.00  0.00     0.074 A 
ATOM     49  C   UNL A   1      43.329  31.353  35.301  1.00  0.00     0.049 A 
ATOM     50  N   UNL A   1      42.667  30.235  32.590  1.00  0.00    -0.248 NA
ATOM     51  C   UNL A   1      44.571  28.894  32.725  1.00  0.00     0.031 C 
ATOM     52  C   UNL A   1      43.624  31.962  36.599  1.00  0.00     0.029 A 
ATOM     53  N   UNL A   1      42.178  31.981  34.895  1.00  0.00    -0.354 N 
ATOM     54  C   UNL A   1      42.795  29.505  31.415  1.00  0.00     0.074 A 
ATOM     55  C   UNL A   1      44.017  28.738  31.531  1.00  0.00     0.031 C 
ATOM     56  C   UNL A   1      42.664  32.853  36.896  1.00  0.00     0.029 A 
ATOM     57  C   UNL A   1      41.705  32.905  35.796  1.00  0.00     0.049 A 
ATOM     58  H   UNL A   1      41.731  31.786  34.038  1.00  0.00     0.167 HD
ATOM     59  C   UNL A   1      41.962  29.462  30.346  1.00  0.00     0.037 A 
ATOM     60  C   UNL A   1      40.624  33.708  35.745  1.00  0.00     0.037 A 
ATOM     61  C   UNL A   1      40.735  30.210  30.245  1.00  0.00     0.049 A 
ATOM     62  C   UNL A   1      39.714  33.642  34.551  1.00  0.00     0.074 A 
ATOM     63  C   UNL A   1      39.788  30.177  29.236  1.00  0.00     0.029 A 
ATOM     64  N   UNL A   1      40.289  31.133  31.180  1.00  0.00    -0.354 N 
ATOM     65  N   UNL A   1      39.811  32.889  33.481  1.00  0.00    -0.248 NA
ATOM     66  C   UNL A   1      38.543  34.529  34.558  1.00  0.00     0.031 C 
ATOM     67  C   UNL A   1      38.793  31.115  29.539  1.00  0.00     0.029 A 
ATOM     68  C   UNL A   1      39.095  31.697  30.760  1.00  0.00     0.049 A 
ATOM     69  H   UNL A   1      40.753  31.355  32.020  1.00  0.00     0.167 HD
ATOM     70  C   UNL A   1      38.705  33.196  32.697  1.00  0.00     0.074 A 
ATOM     71  C   UNL A   1      37.945  34.194  33.422  1.00  0.00     0.031 C 
ATOM     72  C   UNL A   1      38.350  32.695  31.487  1.00  0.00     0.037 A 
BRANCH  59  73
ATOM     73  C   UNL A   1      42.358  28.576  29.194  1.00  0.00     0.058 A 
ATOM     74  C   UNL A   1      43.295  28.988  28.233  1.00  0.00     0.135 A 
ATOM     75  C   UNL A   1      41.807  27.291  29.059  1.00  0.00     0.135 A 
ATOM     76  F   UNL A   1      43.847  30.210  28.307  1.00  0.00    -0.206 F 
ATOM     77  C   UNL A   1      43.640  28.176  27.157  1.00  0.00     0.059 A 
ATOM     78  C   UNL A   1      42.158  26.452  28.007  1.00  0.00     0.059 A 
ATOM     79  F   UNL A   1      40.909  26.844  29.951  1.00  0.00    -0.206 F 
ATOM     80  C   UNL A   1      43.060  26.912  27.048  1.00  0.00     0.060 A 
BRANCH  80  81
ATOM     81  S   UNL A   1      43.501  25.878  25.636  1.00  0.00     0.124 S 
ATOM     82  O   UNL A   1      42.391  26.143  24.725  1.00  0.00    -0.237 OA
ATOM     83  O   UNL A   1      44.793  26.425  25.235  1.00  0.00    -0.237 OA
ATOM     84  O   UNL A   1      43.542  24.531  26.199  1.00  0.00    -0.744 OA
ENDBRANCH  80  81
ENDBRANCH  59  73
BRANCH  60  85
ATOM     85  C   UNL A   1      40.327  34.617  36.884  1.00  0.00     0.058 A 
ATOM     86  C   UNL A   1      40.839  35.922  36.911  1.00  0.00     0.135 A 
ATOM     87  C   UNL A   1      39.503  34.214  37.946  1.00  0.00     0.135 A 
ATOM     88  F   UNL A   1      41.638  36.350  35.921  1.00  0.00    -0.206 F 
ATOM     89  C   UNL A   1      40.550  36.796  37.953  1.00  0.00     0.059 A 
ATOM     90  C   UNL A   1      39.181  35.077  38.987  1.00  0.00     0.059 A 
ATOM     91  F   UNL A   1      38.977  32.979  37.957  1.00  0.00    -0.206 F 
ATOM     92  C   UNL A   1      39.714  36.366  38.985  1.00  0.00     0.060 A 
BRANCH  92  93
ATOM     93  S   UNL A   1      39.287  37.532  40.297  1.00  0.00     0.124 S 
ATOM     94  O   UNL A   1      38.582  38.568  39.551  1.00  0.00    -0.237 OA
ATOM     95  O   UNL A   1      38.468  36.711  41.182  1.00  0.00    -0.237 OA
ATOM     96  O   UNL A   1      40.587  37.916  40.838  1.00  0.00    -0.744 OA
ENDBRANCH  92  93
ENDBRANCH  60  85
BRANCH  72  97
ATOM     97  C   UNL A   1      37.072  33.205  30.879  1.00  0.00     0.058 A 
ATOM     98  C   UNL A   1      35.818  32.882  31.421  1.00  0.00     0.135 A 
ATOM     99  C   UNL A   1      37.105  34.056  29.763  1.00  0.00     0.135 A 
ATOM    100  F   UNL A   1      35.731  32.066  32.483  1.00  0.00    -0.206 F 
ATOM    101  C   UNL A   1      34.639  33.364  30.860  1.00  0.00     0.059 A 
ATOM    102  C   UNL A   1      35.940  34.570  29.202  1.00  0.00     0.059 A 
ATOM    103  F   UNL A   1      38.278  34.403  29.210  1.00  0.00    -0.206 F 
ATOM    104  C   UNL A   1      34.710  34.207  29.750  1.00  0.00     0.060 A 
BRANCH 104 105
ATOM    105  S   UNL A   1      33.174  34.844  29.046  1.00  0.00     0.124 S 
ATOM    106  O   UNL A   1      33.614  36.119  28.490  1.00  0.00    -0.237 OA
ATOM    107  O   UNL A   1      32.825  33.815  28.073  1.00  0.00    -0.237 OA
ATOM    108  O   UNL A   1      32.284  34.935  30.200  1.00  0.00    -0.744 OA
ENDBRANCH 104 105
ENDBRANCH  72  97
ENDBRANCH  46  47
ENDBRANCH  38  41
ENDBRANCH  36  37
ENDBRANCH  35  36
ENDBRANCH  34  35
ENDBRANCH   1  34
TORSDOF 19
ENDMDL
MODEL 3
REMARK VINA RESULT:      -7.9      5.442     11.674
REMARK SMILES COC(=O)c1ccc([C@H]2Nc3c(C(=O)NCCCCCCNC(=O)c4ccc(-c5c6nc(c(-c7c(F)cc(S(=O)(=O)[O-])cc7F)c7ccc([nH]7)c(-c7c(F)cc(S(=O)(=O)[O-])cc7F)c7nc(c(-c8c(F)cc(S(=O)(=O)[O-])cc8F)c8ccc5[nH]8)C=C7)C=C6)cc4)cccc3[C@H]3[C@H]4CC[C@H](C4)[C@H]32)cc1
REMARK SMILES IDX 18 1 17 2 16 3 15 4 13 5 14 6 12 8 9 9 10 10 101 11 11 12
REMARK SMILES IDX 95 14 99 15 94 16 96 17 98 18 100 19 91 20 93 21 97 22 92 23
REMARK SMILES IDX 8 24 5 25 6 26 103 27 7 28 102 29 3 30 4 31 2 32 1 33 19 34
REMARK SMILES IDX 20 35 21 36 22 37 23 38 24 40 25 41 26 42 90 43 27 44 89 45
REMARK SMILES IDX 28 46 29 47 30 48 83 49 31 50 88 51 82 52 84 53 32 54 87 55
REMARK SMILES IDX 81 56 80 57 33 59 67 60 46 61 66 62 47 63 50 64 65 65 85 66
REMARK SMILES IDX 48 67 49 68 64 70 86 71 51 72 34 73 35 74 44 75 36 76 37 77
REMARK SMILES IDX 43 78 45 79 38 80 39 81 40 82 41 83 42 84 68 85 69 86 78 87
REMARK SMILES IDX 70 88 71 89 77 90 79 91 72 92 73 93 74 94 75 95 76 96 52 97
REMARK SMILES IDX 53 98 62 99 54 100 55 101 61 102 63 103 56 104 57 105 58 106
REMARK SMILES IDX 59 107 60 108
REMARK H PARENT 15 7 10 13 22 39 84 58 50 69
REMARK Flexibility Score: inf
ROOT
ATOM      1  C   UNL A   1      43.773  24.036  30.433  1.00  0.00     0.002 C 
ENDROOT
BRANCH   1   2
ATOM      2  C   UNL A   1      44.492  23.716  31.743  1.00  0.00     0.021 C 
BRANCH   2   3
ATOM      3  C   UNL A   1      44.779  24.895  32.668  1.00  0.00     0.116 C 
BRANCH   3   4
ATOM      4  N   UNL A   1      46.189  25.230  32.824  1.00  0.00    -0.352 N 
ATOM      5  C   UNL A   1      46.989  26.007  32.000  1.00  0.00     0.253 C 
ATOM      6  O   UNL A   1      48.176  26.179  32.275  1.00  0.00    -0.269 OA
ATOM      7  H   UNL A   1      46.632  24.856  33.618  1.00  0.00     0.163 HD
BRANCH   5   8
ATOM      8  C   UNL A   1      46.417  26.555  30.740  1.00  0.00     0.063 A 
ATOM      9  C   UNL A   1      48.696  25.971  27.991  1.00  0.00     0.113 C 
ATOM     10  N   UNL A   1      48.114  25.517  29.280  1.00  0.00    -0.377 N 
ATOM     11  C   UNL A   1      47.819  25.225  26.915  1.00  0.00     0.027 C 
ATOM     12  C   UNL A   1      46.816  26.039  29.503  1.00  0.00     0.051 A 
ATOM     13  H   UNL A   1      48.578  24.919  29.909  1.00  0.00     0.161 HD
ATOM     14  C   UNL A   1      46.293  25.298  27.209  1.00  0.00     0.030 C 
ATOM     15  C   UNL A   1      47.873  25.257  25.352  1.00  0.00    -0.005 C 
ATOM     16  C   UNL A   1      45.965  26.187  28.377  1.00  0.00    -0.020 A 
ATOM     17  C   UNL A   1      45.662  25.374  25.800  1.00  0.00    -0.003 C 
ATOM     18  C   UNL A   1      47.418  26.527  24.620  1.00  0.00     0.004 C 
ATOM     19  C   UNL A   1      46.604  24.413  25.046  1.00  0.00     0.008 C 
ATOM     20  C   UNL A   1      45.408  27.520  30.772  1.00  0.00     0.016 A 
ATOM     21  C   UNL A   1      44.880  27.057  28.450  1.00  0.00     0.006 A 
ATOM     22  C   UNL A   1      45.945  26.685  25.052  1.00  0.00     0.004 C 
ATOM     23  C   UNL A   1      44.656  27.783  29.624  1.00  0.00     0.001 A 
BRANCH   9  24
ATOM     24  C   UNL A   1      48.851  27.502  28.065  1.00  0.00    -0.025 A 
ATOM     25  C   UNL A   1      48.819  30.354  28.248  1.00  0.00     0.060 A 
ATOM     26  C   UNL A   1      49.353  29.582  29.287  1.00  0.00     0.016 A 
ATOM     27  C   UNL A   1      48.335  29.703  27.124  1.00  0.00     0.016 A 
ATOM     28  C   UNL A   1      49.380  28.169  29.188  1.00  0.00     0.007 A 
ATOM     29  C   UNL A   1      48.326  28.319  27.079  1.00  0.00     0.007 A 
BRANCH  25  30
ATOM     30  C   UNL A   1      48.723  31.836  28.310  1.00  0.00     0.337 C 
ATOM     31  O   UNL A   1      49.647  32.610  28.103  1.00  0.00    -0.246 OA
BRANCH  30  32
ATOM     32  O   UNL A   1      47.440  32.168  28.606  1.00  0.00    -0.465 OA
ATOM     33  C   UNL A   1      46.992  31.945  29.940  1.00  0.00     0.282 C 
ENDBRANCH  30  32
ENDBRANCH  25  30
ENDBRANCH   9  24
ENDBRANCH   5   8
ENDBRANCH   3   4
ENDBRANCH   2   3
ENDBRANCH   1   2
BRANCH   1  34
ATOM     34  C   UNL A   1      43.850  22.969  29.339  1.00  0.00     0.002 C 
BRANCH  34  35
ATOM     35  C   UNL A   1      42.686  22.922  28.343  1.00  0.00     0.021 C 
BRANCH  35  36
ATOM     36  C   UNL A   1      42.688  23.993  27.253  1.00  0.00     0.116 C 
BRANCH  36  37
ATOM     37  N   UNL A   1      41.476  23.987  26.451  1.00  0.00    -0.352 N 
ATOM     38  C   UNL A   1      40.320  24.719  26.587  1.00  0.00     0.251 C 
ATOM     39  H   UNL A   1      41.483  23.361  25.692  1.00  0.00     0.163 HD
ATOM     40  O   UNL A   1      39.354  24.457  25.875  1.00  0.00    -0.269 OA
BRANCH  38  41
ATOM     41  C   UNL A   1      40.217  25.799  27.598  1.00  0.00     0.039 A 
ATOM     42  C   UNL A   1      39.325  25.637  28.663  1.00  0.00     0.014 A 
ATOM     43  C   UNL A   1      40.966  26.975  27.495  1.00  0.00     0.014 A 
ATOM     44  C   UNL A   1      39.234  26.617  29.655  1.00  0.00     0.010 A 
ATOM     45  C   UNL A   1      40.923  27.922  28.519  1.00  0.00     0.010 A 
ATOM     46  C   UNL A   1      40.059  27.753  29.611  1.00  0.00    -0.014 A 
BRANCH  46  47
ATOM     47  C   UNL A   1      40.045  28.752  30.715  1.00  0.00     0.031 A 
ATOM     48  C   UNL A   1      40.968  28.606  31.895  1.00  0.00     0.074 A 
ATOM     49  C   UNL A   1      39.154  29.763  30.681  1.00  0.00     0.049 A 
ATOM     50  N   UNL A   1      41.071  29.359  32.961  1.00  0.00    -0.248 NA
ATOM     51  C   UNL A   1      41.876  27.449  31.889  1.00  0.00     0.031 C 
ATOM     52  C   UNL A   1      38.172  29.987  29.618  1.00  0.00     0.029 A 
ATOM     53  N   UNL A   1      38.925  30.788  31.564  1.00  0.00    -0.354 N 
ATOM     54  C   UNL A   1      42.041  28.763  33.758  1.00  0.00     0.074 A 
ATOM     55  C   UNL A   1      42.462  27.559  33.073  1.00  0.00     0.031 C 
ATOM     56  C   UNL A   1      37.467  31.095  29.897  1.00  0.00     0.029 A 
ATOM     57  C   UNL A   1      37.922  31.642  31.172  1.00  0.00     0.049 A 
ATOM     58  H   UNL A   1      39.434  30.903  32.400  1.00  0.00     0.167 HD
ATOM     59  C   UNL A   1      42.549  29.190  34.940  1.00  0.00     0.037 A 
ATOM     60  C   UNL A   1      37.419  32.740  31.770  1.00  0.00     0.037 A 
ATOM     61  C   UNL A   1      42.143  30.401  35.606  1.00  0.00     0.049 A 
ATOM     62  C   UNL A   1      37.999  33.195  33.080  1.00  0.00     0.074 A 
ATOM     63  C   UNL A   1      42.650  30.956  36.768  1.00  0.00     0.029 A 
ATOM     64  N   UNL A   1      41.125  31.241  35.175  1.00  0.00    -0.354 N 
ATOM     65  N   UNL A   1      38.969  32.659  33.782  1.00  0.00    -0.248 NA
ATOM     66  C   UNL A   1      37.420  34.406  33.677  1.00  0.00     0.031 C 
ATOM     67  C   UNL A   1      41.907  32.105  37.065  1.00  0.00     0.029 A 
ATOM     68  C   UNL A   1      40.969  32.293  36.063  1.00  0.00     0.049 A 
ATOM     69  H   UNL A   1      40.591  31.107  34.358  1.00  0.00     0.167 HD
ATOM     70  C   UNL A   1      39.132  33.479  34.893  1.00  0.00     0.074 A 
ATOM     71  C   UNL A   1      38.169  34.554  34.762  1.00  0.00     0.031 C 
ATOM     72  C   UNL A   1      40.003  33.354  35.926  1.00  0.00     0.037 A 
BRANCH  59  73
ATOM     73  C   UNL A   1      43.600  28.332  35.593  1.00  0.00     0.058 A 
ATOM     74  C   UNL A   1      43.276  27.394  36.587  1.00  0.00     0.135 A 
ATOM     75  C   UNL A   1      44.947  28.435  35.207  1.00  0.00     0.135 A 
ATOM     76  F   UNL A   1      42.007  27.260  37.002  1.00  0.00    -0.206 F 
ATOM     77  C   UNL A   1      44.254  26.620  37.205  1.00  0.00     0.059 A 
ATOM     78  C   UNL A   1      45.937  27.651  35.791  1.00  0.00     0.059 A 
ATOM     79  F   UNL A   1      45.313  29.311  34.259  1.00  0.00    -0.206 F 
ATOM     80  C   UNL A   1      45.584  26.761  36.805  1.00  0.00     0.060 A 
BRANCH  80  81
ATOM     81  S   UNL A   1      46.844  25.766  37.629  1.00  0.00     0.124 S 
ATOM     82  O   UNL A   1      47.690  26.800  38.219  1.00  0.00    -0.237 OA
ATOM     83  O   UNL A   1      46.056  24.979  38.573  1.00  0.00    -0.237 OA
ATOM     84  O   UNL A   1      47.448  25.009  36.537  1.00  0.00    -0.744 OA
ENDBRANCH  80  81
ENDBRANCH  59  73
BRANCH  60  85
ATOM     85  C   UNL A   1      36.328  33.504  31.110  1.00  0.00     0.058 A 
ATOM     86  C   UNL A   1      36.572  34.235  29.938  1.00  0.00     0.135 A 
ATOM     87  C   UNL A   1      35.019  33.494  31.614  1.00  0.00     0.135 A 
ATOM     88  F   UNL A   1      37.810  34.282  29.422  1.00  0.00    -0.206 F 
ATOM     89  C   UNL A   1      35.558  34.934  29.291  1.00  0.00     0.059 A 
ATOM     90  C   UNL A   1      33.984  34.165  30.972  1.00  0.00     0.059 A 
ATOM     91  F   UNL A   1      34.732  32.796  32.725  1.00  0.00    -0.206 F 
ATOM     92  C   UNL A   1      34.264  34.888  29.813  1.00  0.00     0.060 A 
BRANCH  92  93
ATOM     93  S   UNL A   1      32.942  35.739  28.926  1.00  0.00     0.124 S 
ATOM     94  O   UNL A   1      32.385  34.658  28.121  1.00  0.00    -0.237 OA
ATOM     95  O   UNL A   1      32.102  36.222  30.018  1.00  0.00    -0.237 OA
ATOM     96  O   UNL A   1      33.651  36.778  28.186  1.00  0.00    -0.744 OA
ENDBRANCH  92  93
ENDBRANCH  60  85
BRANCH  72  97
ATOM     97  C   UNL A   1      39.966  34.418  36.989  1.00  0.00     0.058 A 
ATOM     98  C   UNL A   1      40.751  35.578  36.898  1.00  0.00     0.135 A 
ATOM     99  C   UNL A   1      39.109  34.292  38.094  1.00  0.00     0.135 A 
ATOM    100  F   UNL A   1      41.593  35.745  35.866  1.00  0.00    -0.206 F 
ATOM    101  C   UNL A   1      40.707  36.564  37.880  1.00  0.00     0.059 A 
ATOM    102  C   UNL A   1      39.030  35.276  39.074  1.00  0.00     0.059 A 
ATOM    103  F   UNL A   1      38.330  33.206  38.226  1.00  0.00    -0.206 F 
ATOM    104  C   UNL A   1      39.844  36.404  38.964  1.00  0.00     0.060 A 
BRANCH 104 105
ATOM    105  S   UNL A   1      39.779  37.700  40.219  1.00  0.00     0.124 S 
ATOM    106  O   UNL A   1      39.402  36.940  41.407  1.00  0.00    -0.237 OA
ATOM    107  O   UNL A   1      41.142  38.219  40.205  1.00  0.00    -0.237 OA
ATOM    108  O   UNL A   1      38.761  38.615  39.710  1.00  0.00    -0.744 OA
ENDBRANCH 104 105
ENDBRANCH  72  97
ENDBRANCH  46  47
ENDBRANCH  38  41
ENDBRANCH  36  37
ENDBRANCH  35  36
ENDBRANCH  34  35
ENDBRANCH   1  34
TORSDOF 19
ENDMDL
