MODEL 1
REMARK VINA RESULT:      -9.8      0.000      0.000
REMARK SMILES CC[C@@](C)([NH2+]CC(=O)N[C@@H](C)C(C)C)C(=O)NCCCCCCNC(=O)c1ccc(-c2c3nc(c(-c4c(F)cc(S(=O)(=O)[O-])cc4F)c4ccc([nH]4)c(-c4c(F)cc(S(=O)(=O)[O-])cc4F)c4nc(c(-c5c(F)cc(S(=O)(=O)[O-])cc5F)c5ccc2[nH]5)C=C4)C=C3)cc1
REMARK SMILES IDX 19 1 18 2 17 3 15 4 16 5 3 7 4 8 2 9 1 10 5 11 6 14 7 15
REMARK SMILES IDX 8 16 9 17 10 19 11 20 12 21 13 22 14 23 20 24 21 25 22 26
REMARK SMILES IDX 23 27 24 28 25 29 26 31 27 32 28 33 92 34 29 35 91 36 30 37
REMARK SMILES IDX 31 38 32 39 85 40 33 41 90 42 84 43 86 44 34 45 89 46 83 47
REMARK SMILES IDX 82 48 35 50 69 51 48 52 68 53 49 54 52 55 67 56 87 57 50 58
REMARK SMILES IDX 51 59 66 61 88 62 53 63 36 64 37 65 46 66 38 67 39 68 45 69
REMARK SMILES IDX 47 70 40 71 41 72 42 73 43 74 44 75 70 76 71 77 80 78 72 79
REMARK SMILES IDX 73 80 79 81 81 82 74 83 75 84 76 85 77 86 78 87 54 88 55 89
REMARK SMILES IDX 64 90 56 91 57 92 63 93 65 94 58 95 59 96 60 97 61 98 62 99
REMARK H PARENT 17 6 5 12 5 13 9 18 24 30 86 49 52 60
REMARK Flexibility Score: inf
ROOT
ATOM      1  C   UNL A   1      34.723  20.927  25.573  1.00  0.00     0.021 C 
ENDROOT
BRANCH   1   2
ATOM      2  C   UNL A   1      34.249  21.461  26.927  1.00  0.00     0.116 C 
BRANCH   2   3
ATOM      3  N   UNL A   1      32.834  21.810  26.983  1.00  0.00    -0.351 N 
ATOM      4  C   UNL A   1      32.080  22.258  25.913  1.00  0.00     0.281 C 
ATOM      5  O   UNL A   1      31.300  21.418  25.450  1.00  0.00    -0.268 OA
ATOM      6  H   UNL A   1      32.380  21.720  27.852  1.00  0.00     0.163 HD
BRANCH   4   7
ATOM      7  C   UNL A   1      32.023  23.819  25.472  1.00  0.00     0.172 C 
ATOM      8  C   UNL A   1      32.574  25.051  26.218  1.00  0.00     0.090 C 
BRANCH   7   9
ATOM      9  C   UNL A   1      32.988  23.805  24.209  1.00  0.00     0.075 C 
ATOM     10  C   UNL A   1      34.404  24.382  24.524  1.00  0.00     0.011 C 
ENDBRANCH   7   9
BRANCH   7  11
ATOM     11  N   UNL A   1      30.631  24.154  25.204  1.00  0.00    -0.326 N 
ATOM     12  H   UNL A   1      30.062  23.567  25.815  1.00  0.00     0.347 HD
ATOM     13  H   UNL A   1      30.540  24.004  24.199  1.00  0.00     0.347 HD
BRANCH  11  14
ATOM     14  C   UNL A   1      30.159  25.556  25.390  1.00  0.00     0.362 C 
BRANCH  14  15
ATOM     15  C   UNL A   1      29.705  26.623  24.314  1.00  0.00     0.275 C 
ATOM     16  O   UNL A   1      28.551  26.448  23.868  1.00  0.00    -0.268 OA
ATOM     17  N   UNL A   1      30.225  27.806  23.861  1.00  0.00    -0.349 N 
ATOM     18  H   UNL A   1      29.497  28.422  23.614  1.00  0.00     0.163 HD
BRANCH  17  19
ATOM     19  C   UNL A   1      31.539  28.450  23.624  1.00  0.00     0.081 C 
ATOM     20  C   UNL A   1      31.843  29.428  24.783  1.00  0.00     0.031 C 
BRANCH  19  21
ATOM     21  C   UNL A   1      32.802  27.532  23.506  1.00  0.00     0.005 C 
ATOM     22  C   UNL A   1      33.234  27.095  22.116  1.00  0.00     0.009 C 
ATOM     23  C   UNL A   1      34.005  28.190  24.216  1.00  0.00     0.009 C 
ENDBRANCH  19  21
ENDBRANCH  17  19
ENDBRANCH  14  15
ENDBRANCH  11  14
ENDBRANCH   7  11
ENDBRANCH   4   7
ENDBRANCH   2   3
ENDBRANCH   1   2
BRANCH   1  24
ATOM     24  C   UNL A   1      36.229  21.118  25.340  1.00  0.00     0.002 C 
BRANCH  24  25
ATOM     25  C   UNL A   1      37.027  19.853  24.998  1.00  0.00     0.002 C 
BRANCH  25  26
ATOM     26  C   UNL A   1      38.527  20.042  24.775  1.00  0.00     0.021 C 
BRANCH  26  27
ATOM     27  C   UNL A   1      39.326  20.200  26.062  1.00  0.00     0.116 C 
BRANCH  27  28
ATOM     28  N   UNL A   1      40.433  19.258  26.126  1.00  0.00    -0.352 N 
ATOM     29  C   UNL A   1      41.785  19.490  26.125  1.00  0.00     0.251 C 
ATOM     30  H   UNL A   1      40.172  18.310  26.178  1.00  0.00     0.163 HD
ATOM     31  O   UNL A   1      42.562  18.564  25.939  1.00  0.00    -0.269 OA
BRANCH  29  32
ATOM     32  C   UNL A   1      42.288  20.859  26.356  1.00  0.00     0.039 A 
ATOM     33  C   UNL A   1      42.520  21.283  27.665  1.00  0.00     0.014 A 
ATOM     34  C   UNL A   1      42.491  21.731  25.283  1.00  0.00     0.014 A 
ATOM     35  C   UNL A   1      42.985  22.578  27.893  1.00  0.00     0.010 A 
ATOM     36  C   UNL A   1      43.041  22.986  25.505  1.00  0.00     0.010 A 
ATOM     37  C   UNL A   1      43.266  23.433  26.814  1.00  0.00    -0.014 A 
BRANCH  37  38
ATOM     38  C   UNL A   1      43.734  24.821  27.033  1.00  0.00     0.031 A 
ATOM     39  C   UNL A   1      45.192  25.149  26.847  1.00  0.00     0.074 A 
ATOM     40  C   UNL A   1      42.862  25.765  27.438  1.00  0.00     0.049 A 
ATOM     41  N   UNL A   1      45.820  26.275  27.066  1.00  0.00    -0.248 NA
ATOM     42  C   UNL A   1      46.067  24.058  26.381  1.00  0.00     0.031 C 
ATOM     43  C   UNL A   1      41.437  25.547  27.698  1.00  0.00     0.029 A 
ATOM     44  N   UNL A   1      43.049  27.095  27.714  1.00  0.00    -0.354 N 
ATOM     45  C   UNL A   1      47.155  26.027  26.769  1.00  0.00     0.074 A 
ATOM     46  C   UNL A   1      47.263  24.627  26.427  1.00  0.00     0.031 C 
ATOM     47  C   UNL A   1      40.876  26.707  28.077  1.00  0.00     0.029 A 
ATOM     48  C   UNL A   1      41.906  27.739  28.125  1.00  0.00     0.049 A 
ATOM     49  H   UNL A   1      43.919  27.546  27.626  1.00  0.00     0.167 HD
ATOM     50  C   UNL A   1      48.191  26.897  26.743  1.00  0.00     0.037 A 
ATOM     51  C   UNL A   1      41.717  29.017  28.507  1.00  0.00     0.037 A 
ATOM     52  C   UNL A   1      48.069  28.294  27.061  1.00  0.00     0.049 A 
ATOM     53  C   UNL A   1      42.889  29.963  28.476  1.00  0.00     0.074 A 
ATOM     54  C   UNL A   1      49.050  29.270  27.054  1.00  0.00     0.029 A 
ATOM     55  N   UNL A   1      46.886  28.919  27.431  1.00  0.00    -0.354 N 
ATOM     56  N   UNL A   1      44.138  29.719  28.155  1.00  0.00    -0.248 NA
ATOM     57  C   UNL A   1      42.625  31.360  28.841  1.00  0.00     0.031 C 
ATOM     58  C   UNL A   1      48.468  30.477  27.451  1.00  0.00     0.029 A 
ATOM     59  C   UNL A   1      47.113  30.266  27.653  1.00  0.00     0.049 A 
ATOM     60  H   UNL A   1      46.015  28.470  27.523  1.00  0.00     0.167 HD
ATOM     61  C   UNL A   1      44.797  30.941  28.238  1.00  0.00     0.074 A 
ATOM     62  C   UNL A   1      43.806  31.923  28.629  1.00  0.00     0.031 C 
ATOM     63  C   UNL A   1      46.103  31.228  28.011  1.00  0.00     0.037 A 
BRANCH  50  64
ATOM     64  C   UNL A   1      49.539  26.371  26.327  1.00  0.00     0.058 A 
ATOM     65  C   UNL A   1      50.070  26.650  25.058  1.00  0.00     0.135 A 
ATOM     66  C   UNL A   1      50.332  25.633  27.220  1.00  0.00     0.135 A 
ATOM     67  F   UNL A   1      49.347  27.333  24.156  1.00  0.00    -0.206 F 
ATOM     68  C   UNL A   1      51.332  26.203  24.682  1.00  0.00     0.059 A 
ATOM     69  C   UNL A   1      51.610  25.201  26.876  1.00  0.00     0.059 A 
ATOM     70  F   UNL A   1      49.871  25.331  28.444  1.00  0.00    -0.206 F 
ATOM     71  C   UNL A   1      52.099  25.485  25.601  1.00  0.00     0.060 A 
BRANCH  71  72
ATOM     72  S   UNL A   1      53.750  24.951  25.109  1.00  0.00     0.124 S 
ATOM     73  O   UNL A   1      53.880  25.577  23.795  1.00  0.00    -0.237 OA
ATOM     74  O   UNL A   1      54.586  25.514  26.163  1.00  0.00    -0.237 OA
ATOM     75  O   UNL A   1      53.650  23.495  25.101  1.00  0.00    -0.744 OA
ENDBRANCH  71  72
ENDBRANCH  50  64
BRANCH  51  76
ATOM     76  C   UNL A   1      40.372  29.483  28.942  1.00  0.00     0.058 A 
ATOM     77  C   UNL A   1      40.079  29.700  30.297  1.00  0.00     0.135 A 
ATOM     78  C   UNL A   1      39.340  29.690  28.011  1.00  0.00     0.135 A 
ATOM     79  F   UNL A   1      41.029  29.518  31.226  1.00  0.00    -0.206 F 
ATOM     80  C   UNL A   1      38.802  30.058  30.720  1.00  0.00     0.059 A 
ATOM     81  C   UNL A   1      38.065  30.081  28.408  1.00  0.00     0.059 A 
ATOM     82  F   UNL A   1      39.572  29.522  26.700  1.00  0.00    -0.206 F 
ATOM     83  C   UNL A   1      37.800  30.238  29.766  1.00  0.00     0.060 A 
BRANCH  83  84
ATOM     84  S   UNL A   1      36.143  30.694  30.324  1.00  0.00     0.124 S 
ATOM     85  O   UNL A   1      35.904  29.703  31.367  1.00  0.00    -0.237 OA
ATOM     86  O   UNL A   1      36.340  32.067  30.782  1.00  0.00    -0.237 OA
ATOM     87  O   UNL A   1      35.333  30.553  29.120  1.00  0.00    -0.744 OA
ENDBRANCH  83  84
ENDBRANCH  51  76
BRANCH  63  88
ATOM     88  C   UNL A   1      46.521  32.671  28.106  1.00  0.00     0.058 A 
ATOM     89  C   UNL A   1      46.386  33.558  27.028  1.00  0.00     0.135 A 
ATOM     90  C   UNL A   1      47.027  33.177  29.315  1.00  0.00     0.135 A 
ATOM     91  F   UNL A   1      45.909  33.125  25.851  1.00  0.00    -0.206 F 
ATOM     92  C   UNL A   1      46.771  34.891  27.134  1.00  0.00     0.059 A 
ATOM     93  C   UNL A   1      47.388  34.513  29.453  1.00  0.00     0.059 A 
ATOM     94  F   UNL A   1      47.164  32.373  30.382  1.00  0.00    -0.206 F 
ATOM     95  C   UNL A   1      47.271  35.358  28.351  1.00  0.00     0.060 A 
BRANCH  95  96
ATOM     96  S   UNL A   1      47.750  37.093  28.481  1.00  0.00     0.124 S 
ATOM     97  O   UNL A   1      46.720  37.743  27.678  1.00  0.00    -0.237 OA
ATOM     98  O   UNL A   1      47.676  37.330  29.919  1.00  0.00    -0.237 OA
ATOM     99  O   UNL A   1      49.096  37.118  27.917  1.00  0.00    -0.744 OA
ENDBRANCH  95  96
ENDBRANCH  63  88
ENDBRANCH  37  38
ENDBRANCH  29  32
ENDBRANCH  27  28
ENDBRANCH  26  27
ENDBRANCH  25  26
ENDBRANCH  24  25
ENDBRANCH   1  24
TORSDOF 22
ENDMDL
MODEL 2
REMARK VINA RESULT:      -9.8      6.405     11.075
REMARK SMILES CC[C@@](C)([NH2+]CC(=O)N[C@@H](C)C(C)C)C(=O)NCCCCCCNC(=O)c1ccc(-c2c3nc(c(-c4c(F)cc(S(=O)(=O)[O-])cc4F)c4ccc([nH]4)c(-c4c(F)cc(S(=O)(=O)[O-])cc4F)c4nc(c(-c5c(F)cc(S(=O)(=O)[O-])cc5F)c5ccc2[nH]5)C=C4)C=C3)cc1
REMARK SMILES IDX 19 1 18 2 17 3 15 4 16 5 3 7 4 8 2 9 1 10 5 11 6 14 7 15
REMARK SMILES IDX 8 16 9 17 10 19 11 20 12 21 13 22 14 23 20 24 21 25 22 26
REMARK SMILES IDX 23 27 24 28 25 29 26 31 27 32 28 33 92 34 29 35 91 36 30 37
REMARK SMILES IDX 31 38 32 39 85 40 33 41 90 42 84 43 86 44 34 45 89 46 83 47
REMARK SMILES IDX 82 48 35 50 69 51 48 52 68 53 49 54 52 55 67 56 87 57 50 58
REMARK SMILES IDX 51 59 66 61 88 62 53 63 36 64 37 65 46 66 38 67 39 68 45 69
REMARK SMILES IDX 47 70 40 71 41 72 42 73 43 74 44 75 70 76 71 77 80 78 72 79
REMARK SMILES IDX 73 80 79 81 81 82 74 83 75 84 76 85 77 86 78 87 54 88 55 89
REMARK SMILES IDX 64 90 56 91 57 92 63 93 65 94 58 95 59 96 60 97 61 98 62 99
REMARK H PARENT 17 6 5 12 5 13 9 18 24 30 86 49 52 60
REMARK Flexibility Score: inf
ROOT
ATOM      1  C   UNL A   1      34.315  21.835  27.145  1.00  0.00     0.021 C 
ENDROOT
BRANCH   1   2
ATOM      2  C   UNL A   1      33.039  22.290  27.857  1.00  0.00     0.116 C 
BRANCH   2   3
ATOM      3  N   UNL A   1      31.824  22.184  27.058  1.00  0.00    -0.351 N 
ATOM      4  C   UNL A   1      31.785  22.021  25.685  1.00  0.00     0.281 C 
ATOM      5  O   UNL A   1      31.483  20.881  25.313  1.00  0.00    -0.268 OA
ATOM      6  H   UNL A   1      30.963  22.232  27.533  1.00  0.00     0.163 HD
BRANCH   4   7
ATOM      7  C   UNL A   1      31.862  23.269  24.650  1.00  0.00     0.172 C 
ATOM      8  C   UNL A   1      32.864  24.441  24.628  1.00  0.00     0.090 C 
BRANCH   7   9
ATOM      9  C   UNL A   1      32.282  22.519  23.312  1.00  0.00     0.075 C 
ATOM     10  C   UNL A   1      33.760  22.807  22.898  1.00  0.00     0.011 C 
ENDBRANCH   7   9
BRANCH   7  11
ATOM     11  N   UNL A   1      30.555  23.913  24.633  1.00  0.00    -0.326 N 
ATOM     12  H   UNL A   1      29.901  23.265  25.074  1.00  0.00     0.347 HD
ATOM     13  H   UNL A   1      30.407  24.123  23.646  1.00  0.00     0.347 HD
BRANCH  11  14
ATOM     14  C   UNL A   1      30.373  25.234  25.301  1.00  0.00     0.362 C 
BRANCH  14  15
ATOM     15  C   UNL A   1      30.411  26.692  24.690  1.00  0.00     0.275 C 
ATOM     16  O   UNL A   1      29.458  26.958  23.927  1.00  0.00    -0.268 OA
ATOM     17  N   UNL A   1      31.169  27.808  24.923  1.00  0.00    -0.349 N 
ATOM     18  H   UNL A   1      30.631  28.619  24.775  1.00  0.00     0.163 HD
BRANCH  17  19
ATOM     19  C   UNL A   1      32.546  28.179  25.329  1.00  0.00     0.081 C 
ATOM     20  C   UNL A   1      32.848  29.618  24.852  1.00  0.00     0.031 C 
BRANCH  19  21
ATOM     21  C   UNL A   1      32.898  28.158  26.855  1.00  0.00     0.005 C 
ATOM     22  C   UNL A   1      33.785  29.269  27.394  1.00  0.00     0.009 C 
ATOM     23  C   UNL A   1      31.605  28.102  27.697  1.00  0.00     0.009 C 
ENDBRANCH  19  21
ENDBRANCH  17  19
ENDBRANCH  14  15
ENDBRANCH  11  14
ENDBRANCH   7  11
ENDBRANCH   4   7
ENDBRANCH   2   3
ENDBRANCH   1   2
BRANCH   1  24
ATOM     24  C   UNL A   1      35.209  23.001  26.700  1.00  0.00     0.002 C 
BRANCH  24  25
ATOM     25  C   UNL A   1      36.543  22.620  26.045  1.00  0.00     0.002 C 
BRANCH  25  26
ATOM     26  C   UNL A   1      37.369  23.774  25.477  1.00  0.00     0.021 C 
BRANCH  26  27
ATOM     27  C   UNL A   1      38.299  24.424  26.492  1.00  0.00     0.116 C 
BRANCH  27  28
ATOM     28  N   UNL A   1      39.697  24.254  26.126  1.00  0.00    -0.352 N 
ATOM     29  C   UNL A   1      40.797  24.983  26.499  1.00  0.00     0.251 C 
ATOM     30  H   UNL A   1      39.881  23.501  25.519  1.00  0.00     0.163 HD
ATOM     31  O   UNL A   1      41.855  24.841  25.900  1.00  0.00    -0.269 OA
BRANCH  29  32
ATOM     32  C   UNL A   1      40.694  25.930  27.628  1.00  0.00     0.039 A 
ATOM     33  C   UNL A   1      41.598  26.990  27.707  1.00  0.00     0.014 A 
ATOM     34  C   UNL A   1      39.731  25.744  28.623  1.00  0.00     0.014 A 
ATOM     35  C   UNL A   1      41.515  27.883  28.776  1.00  0.00     0.010 A 
ATOM     36  C   UNL A   1      39.592  26.685  29.635  1.00  0.00     0.010 A 
ATOM     37  C   UNL A   1      40.500  27.747  29.737  1.00  0.00    -0.014 A 
BRANCH  37  38
ATOM     38  C   UNL A   1      40.409  28.666  30.896  1.00  0.00     0.031 A 
ATOM     39  C   UNL A   1      39.420  29.801  30.865  1.00  0.00     0.074 A 
ATOM     40  C   UNL A   1      41.240  28.505  31.944  1.00  0.00     0.049 A 
ATOM     41  N   UNL A   1      39.238  30.763  31.732  1.00  0.00    -0.248 NA
ATOM     42  C   UNL A   1      38.538  29.886  29.686  1.00  0.00     0.031 C 
ATOM     43  C   UNL A   1      42.270  27.470  32.059  1.00  0.00     0.029 A 
ATOM     44  N   UNL A   1      41.356  29.219  33.109  1.00  0.00    -0.354 N 
ATOM     45  C   UNL A   1      38.229  31.561  31.205  1.00  0.00     0.074 A 
ATOM     46  C   UNL A   1      37.889  31.019  29.909  1.00  0.00     0.031 C 
ATOM     47  C   UNL A   1      42.900  27.605  33.237  1.00  0.00     0.029 A 
ATOM     48  C   UNL A   1      42.348  28.755  33.942  1.00  0.00     0.049 A 
ATOM     49  H   UNL A   1      40.785  29.989  33.329  1.00  0.00     0.167 HD
ATOM     50  C   UNL A   1      37.612  32.626  31.768  1.00  0.00     0.037 A 
ATOM     51  C   UNL A   1      42.768  29.218  35.136  1.00  0.00     0.037 A 
ATOM     52  C   UNL A   1      37.941  33.143  33.069  1.00  0.00     0.049 A 
ATOM     53  C   UNL A   1      42.069  30.410  35.737  1.00  0.00     0.074 A 
ATOM     54  C   UNL A   1      37.371  34.208  33.744  1.00  0.00     0.029 A 
ATOM     55  N   UNL A   1      38.922  32.621  33.902  1.00  0.00    -0.354 N 
ATOM     56  N   UNL A   1      41.089  31.129  35.241  1.00  0.00    -0.248 NA
ATOM     57  C   UNL A   1      42.517  30.842  37.067  1.00  0.00     0.031 C 
ATOM     58  C   UNL A   1      38.029  34.350  34.970  1.00  0.00     0.029 A 
ATOM     59  C   UNL A   1      38.971  33.341  35.083  1.00  0.00     0.049 A 
ATOM     60  H   UNL A   1      39.497  31.852  33.684  1.00  0.00     0.167 HD
ATOM     61  C   UNL A   1      40.778  32.071  36.217  1.00  0.00     0.074 A 
ATOM     62  C   UNL A   1      41.665  31.822  37.334  1.00  0.00     0.031 C 
ATOM     63  C   UNL A   1      39.843  33.053  36.193  1.00  0.00     0.037 A 
BRANCH  50  64
ATOM     64  C   UNL A   1      36.500  33.282  30.996  1.00  0.00     0.058 A 
ATOM     65  C   UNL A   1      35.160  33.154  31.396  1.00  0.00     0.135 A 
ATOM     66  C   UNL A   1      36.775  34.091  29.883  1.00  0.00     0.135 A 
ATOM     67  F   UNL A   1      34.837  32.375  32.441  1.00  0.00    -0.206 F 
ATOM     68  C   UNL A   1      34.131  33.791  30.713  1.00  0.00     0.059 A 
ATOM     69  C   UNL A   1      35.764  34.763  29.201  1.00  0.00     0.059 A 
ATOM     70  F   UNL A   1      38.036  34.244  29.451  1.00  0.00    -0.206 F 
ATOM     71  C   UNL A   1      34.443  34.601  29.620  1.00  0.00     0.060 A 
BRANCH  71  72
ATOM     72  S   UNL A   1      33.098  35.454  28.771  1.00  0.00     0.124 S 
ATOM     73  O   UNL A   1      32.503  34.365  28.000  1.00  0.00    -0.237 OA
ATOM     74  O   UNL A   1      32.296  35.953  29.883  1.00  0.00    -0.237 OA
ATOM     75  O   UNL A   1      33.783  36.475  27.986  1.00  0.00    -0.744 OA
ENDBRANCH  71  72
ENDBRANCH  50  64
BRANCH  51  76
ATOM     76  C   UNL A   1      43.894  28.556  35.848  1.00  0.00     0.058 A 
ATOM     77  C   UNL A   1      45.224  28.942  35.625  1.00  0.00     0.135 A 
ATOM     78  C   UNL A   1      43.665  27.498  36.743  1.00  0.00     0.135 A 
ATOM     79  F   UNL A   1      45.498  29.948  34.781  1.00  0.00    -0.206 F 
ATOM     80  C   UNL A   1      46.289  28.276  36.224  1.00  0.00     0.059 A 
ATOM     81  C   UNL A   1      44.712  26.838  37.380  1.00  0.00     0.059 A 
ATOM     82  F   UNL A   1      42.411  27.104  37.013  1.00  0.00    -0.206 F 
ATOM     83  C   UNL A   1      46.021  27.218  37.095  1.00  0.00     0.060 A 
BRANCH  83  84
ATOM     84  S   UNL A   1      47.409  26.353  37.862  1.00  0.00     0.124 S 
ATOM     85  O   UNL A   1      48.071  27.439  38.575  1.00  0.00    -0.237 OA
ATOM     86  O   UNL A   1      46.731  25.362  38.693  1.00  0.00    -0.237 OA
ATOM     87  O   UNL A   1      48.137  25.810  36.721  1.00  0.00    -0.744 OA
ENDBRANCH  83  84
ENDBRANCH  51  76
BRANCH  63  88
ATOM     88  C   UNL A   1      39.679  33.882  37.437  1.00  0.00     0.058 A 
ATOM     89  C   UNL A   1      38.818  33.503  38.478  1.00  0.00     0.135 A 
ATOM     90  C   UNL A   1      40.432  35.057  37.603  1.00  0.00     0.135 A 
ATOM     91  F   UNL A   1      38.075  32.391  38.369  1.00  0.00    -0.206 F 
ATOM     92  C   UNL A   1      38.683  34.278  39.625  1.00  0.00     0.059 A 
ATOM     93  C   UNL A   1      40.337  35.829  38.755  1.00  0.00     0.059 A 
ATOM     94  F   UNL A   1      41.281  35.458  36.643  1.00  0.00    -0.206 F 
ATOM     95  C   UNL A   1      39.446  35.439  39.754  1.00  0.00     0.060 A 
BRANCH  95  96
ATOM     96  S   UNL A   1      39.275  36.426  41.255  1.00  0.00     0.124 S 
ATOM     97  O   UNL A   1      40.568  36.212  41.896  1.00  0.00    -0.237 OA
ATOM     98  O   UNL A   1      39.046  37.766  40.723  1.00  0.00    -0.237 OA
ATOM     99  O   UNL A   1      38.130  35.824  41.931  1.00  0.00    -0.744 OA
ENDBRANCH  95  96
ENDBRANCH  63  88
ENDBRANCH  37  38
ENDBRANCH  29  32
ENDBRANCH  27  28
ENDBRANCH  26  27
ENDBRANCH  25  26
ENDBRANCH  24  25
ENDBRANCH   1  24
TORSDOF 22
ENDMDL
MODEL 3
REMARK VINA RESULT:      -9.7      2.676      4.002
REMARK SMILES CC[C@@](C)([NH2+]CC(=O)N[C@@H](C)C(C)C)C(=O)NCCCCCCNC(=O)c1ccc(-c2c3nc(c(-c4c(F)cc(S(=O)(=O)[O-])cc4F)c4ccc([nH]4)c(-c4c(F)cc(S(=O)(=O)[O-])cc4F)c4nc(c(-c5c(F)cc(S(=O)(=O)[O-])cc5F)c5ccc2[nH]5)C=C4)C=C3)cc1
REMARK SMILES IDX 19 1 18 2 17 3 15 4 16 5 3 7 4 8 2 9 1 10 5 11 6 14 7 15
REMARK SMILES IDX 8 16 9 17 10 19 11 20 12 21 13 22 14 23 20 24 21 25 22 26
REMARK SMILES IDX 23 27 24 28 25 29 26 31 27 32 28 33 92 34 29 35 91 36 30 37
REMARK SMILES IDX 31 38 32 39 85 40 33 41 90 42 84 43 86 44 34 45 89 46 83 47
REMARK SMILES IDX 82 48 35 50 69 51 48 52 68 53 49 54 52 55 67 56 87 57 50 58
REMARK SMILES IDX 51 59 66 61 88 62 53 63 36 64 37 65 46 66 38 67 39 68 45 69
REMARK SMILES IDX 47 70 40 71 41 72 42 73 43 74 44 75 70 76 71 77 80 78 72 79
REMARK SMILES IDX 73 80 79 81 81 82 74 83 75 84 76 85 77 86 78 87 54 88 55 89
REMARK SMILES IDX 64 90 56 91 57 92 63 93 65 94 58 95 59 96 60 97 61 98 62 99
REMARK H PARENT 17 6 5 12 5 13 9 18 24 30 86 49 52 60
REMARK Flexibility Score: inf
ROOT
ATOM      1  C   UNL A   1      33.352  20.681  24.462  1.00  0.00     0.021 C 
ENDROOT
BRANCH   1   2
ATOM      2  C   UNL A   1      32.287  21.094  25.481  1.00  0.00     0.116 C 
BRANCH   2   3
ATOM      3  N   UNL A   1      32.473  22.423  26.052  1.00  0.00    -0.351 N 
ATOM      4  C   UNL A   1      31.501  23.405  26.119  1.00  0.00     0.281 C 
ATOM      5  O   UNL A   1      31.025  23.577  27.248  1.00  0.00    -0.268 OA
ATOM      6  H   UNL A   1      33.361  22.639  26.418  1.00  0.00     0.163 HD
BRANCH   4   7
ATOM      7  C   UNL A   1      31.198  24.426  24.894  1.00  0.00     0.172 C 
ATOM      8  C   UNL A   1      30.620  24.111  23.500  1.00  0.00     0.090 C 
BRANCH   7   9
ATOM      9  C   UNL A   1      30.000  25.274  25.506  1.00  0.00     0.075 C 
ATOM     10  C   UNL A   1      29.508  26.403  24.546  1.00  0.00     0.011 C 
ENDBRANCH   7   9
BRANCH   7  11
ATOM     11  N   UNL A   1      32.423  25.165  24.619  1.00  0.00    -0.326 N 
ATOM     12  H   UNL A   1      33.132  24.812  25.263  1.00  0.00     0.347 HD
ATOM     13  H   UNL A   1      32.141  26.139  24.724  1.00  0.00     0.347 HD
BRANCH  11  14
ATOM     14  C   UNL A   1      33.020  25.122  23.253  1.00  0.00     0.362 C 
BRANCH  14  15
ATOM     15  C   UNL A   1      32.934  26.174  22.075  1.00  0.00     0.275 C 
ATOM     16  O   UNL A   1      33.292  25.735  20.962  1.00  0.00    -0.268 OA
ATOM     17  N   UNL A   1      32.403  27.430  21.952  1.00  0.00    -0.349 N 
ATOM     18  H   UNL A   1      32.071  27.568  21.035  1.00  0.00     0.163 HD
BRANCH  17  19
ATOM     19  C   UNL A   1      32.170  28.648  22.764  1.00  0.00     0.081 C 
ATOM     20  C   UNL A   1      30.740  29.173  22.499  1.00  0.00     0.031 C 
BRANCH  19  21
ATOM     21  C   UNL A   1      32.295  28.533  24.322  1.00  0.00     0.005 C 
ATOM     22  C   UNL A   1      33.689  28.557  24.926  1.00  0.00     0.009 C 
ATOM     23  C   UNL A   1      31.439  29.623  25.004  1.00  0.00     0.009 C 
ENDBRANCH  19  21
ENDBRANCH  17  19
ENDBRANCH  14  15
ENDBRANCH  11  14
ENDBRANCH   7  11
ENDBRANCH   4   7
ENDBRANCH   2   3
ENDBRANCH   1   2
BRANCH   1  24
ATOM     24  C   UNL A   1      34.782  20.760  25.016  1.00  0.00     0.002 C 
BRANCH  24  25
ATOM     25  C   UNL A   1      35.674  21.864  24.434  1.00  0.00     0.002 C 
BRANCH  25  26
ATOM     26  C   UNL A   1      35.612  23.220  25.137  1.00  0.00     0.021 C 
BRANCH  26  27
ATOM     27  C   UNL A   1      36.962  23.720  25.631  1.00  0.00     0.116 C 
BRANCH  27  28
ATOM     28  N   UNL A   1      37.828  22.622  26.035  1.00  0.00    -0.352 N 
ATOM     29  C   UNL A   1      39.120  22.645  26.495  1.00  0.00     0.251 C 
ATOM     30  H   UNL A   1      37.425  21.726  25.966  1.00  0.00     0.163 HD
ATOM     31  O   UNL A   1      39.765  21.608  26.553  1.00  0.00    -0.269 OA
BRANCH  29  32
ATOM     32  C   UNL A   1      39.716  23.927  26.924  1.00  0.00     0.039 A 
ATOM     33  C   UNL A   1      40.050  24.102  28.268  1.00  0.00     0.014 A 
ATOM     34  C   UNL A   1      39.906  24.963  26.007  1.00  0.00     0.014 A 
ATOM     35  C   UNL A   1      40.604  25.312  28.684  1.00  0.00     0.010 A 
ATOM     36  C   UNL A   1      40.541  26.132  26.404  1.00  0.00     0.010 A 
ATOM     37  C   UNL A   1      40.869  26.329  27.752  1.00  0.00    -0.014 A 
BRANCH  37  38
ATOM     38  C   UNL A   1      41.431  27.634  28.175  1.00  0.00     0.031 A 
ATOM     39  C   UNL A   1      42.918  27.859  28.100  1.00  0.00     0.074 A 
ATOM     40  C   UNL A   1      40.613  28.587  28.664  1.00  0.00     0.049 A 
ATOM     41  N   UNL A   1      43.618  28.890  28.496  1.00  0.00    -0.248 NA
ATOM     42  C   UNL A   1      43.731  26.768  27.532  1.00  0.00     0.031 C 
ATOM     43  C   UNL A   1      39.163  28.458  28.827  1.00  0.00     0.029 A 
ATOM     44  N   UNL A   1      40.888  29.849  29.123  1.00  0.00    -0.354 N 
ATOM     45  C   UNL A   1      44.944  28.571  28.228  1.00  0.00     0.074 A 
ATOM     46  C   UNL A   1      44.962  27.223  27.708  1.00  0.00     0.031 C 
ATOM     47  C   UNL A   1      38.674  29.602  29.333  1.00  0.00     0.029 A 
ATOM     48  C   UNL A   1      39.776  30.529  29.564  1.00  0.00     0.049 A 
ATOM     49  H   UNL A   1      41.793  30.233  29.135  1.00  0.00     0.167 HD
ATOM     50  C   UNL A   1      46.045  29.346  28.365  1.00  0.00     0.037 A 
ATOM     51  C   UNL A   1      39.667  31.758  30.105  1.00  0.00     0.037 A 
ATOM     52  C   UNL A   1      46.014  30.696  28.861  1.00  0.00     0.049 A 
ATOM     53  C   UNL A   1      40.908  32.598  30.253  1.00  0.00     0.074 A 
ATOM     54  C   UNL A   1      47.067  31.578  29.028  1.00  0.00     0.029 A 
ATOM     55  N   UNL A   1      44.865  31.365  29.258  1.00  0.00    -0.354 N 
ATOM     56  N   UNL A   1      42.151  32.293  29.958  1.00  0.00    -0.248 NA
ATOM     57  C   UNL A   1      40.734  33.953  30.789  1.00  0.00     0.031 C 
ATOM     58  C   UNL A   1      46.559  32.769  29.556  1.00  0.00     0.029 A 
ATOM     59  C   UNL A   1      45.183  32.648  29.668  1.00  0.00     0.049 A 
ATOM     60  H   UNL A   1      43.957  30.983  29.250  1.00  0.00     0.167 HD
ATOM     61  C   UNL A   1      42.897  33.435  30.233  1.00  0.00     0.074 A 
ATOM     62  C   UNL A   1      41.965  34.437  30.707  1.00  0.00     0.031 C 
ATOM     63  C   UNL A   1      44.232  33.638  30.106  1.00  0.00     0.037 A 
BRANCH  50  64
ATOM     64  C   UNL A   1      47.368  28.768  27.944  1.00  0.00     0.058 A 
ATOM     65  C   UNL A   1      48.204  28.112  28.863  1.00  0.00     0.135 A 
ATOM     66  C   UNL A   1      47.783  28.815  26.603  1.00  0.00     0.135 A 
ATOM     67  F   UNL A   1      47.868  28.055  30.162  1.00  0.00    -0.206 F 
ATOM     68  C   UNL A   1      49.408  27.538  28.474  1.00  0.00     0.059 A 
ATOM     69  C   UNL A   1      48.971  28.221  26.184  1.00  0.00     0.059 A 
ATOM     70  F   UNL A   1      47.028  29.435  25.683  1.00  0.00    -0.206 F 
ATOM     71  C   UNL A   1      49.781  27.591  27.129  1.00  0.00     0.060 A 
BRANCH  71  72
ATOM     72  S   UNL A   1      51.327  26.803  26.636  1.00  0.00     0.124 S 
ATOM     73  O   UNL A   1      51.677  26.065  27.846  1.00  0.00    -0.237 OA
ATOM     74  O   UNL A   1      50.913  25.991  25.497  1.00  0.00    -0.237 OA
ATOM     75  O   UNL A   1      52.198  27.930  26.317  1.00  0.00    -0.744 OA
ENDBRANCH  71  72
ENDBRANCH  50  64
BRANCH  51  76
ATOM     76  C   UNL A   1      38.340  32.275  30.537  1.00  0.00     0.058 A 
ATOM     77  C   UNL A   1      37.529  33.017  29.666  1.00  0.00     0.135 A 
ATOM     78  C   UNL A   1      37.869  32.064  31.844  1.00  0.00     0.135 A 
ATOM     79  F   UNL A   1      37.930  33.246  28.406  1.00  0.00    -0.206 F 
ATOM     80  C   UNL A   1      36.323  33.573  30.085  1.00  0.00     0.059 A 
ATOM     81  C   UNL A   1      36.652  32.582  32.276  1.00  0.00     0.059 A 
ATOM     82  F   UNL A   1      38.592  31.340  32.711  1.00  0.00    -0.206 F 
ATOM     83  C   UNL A   1      35.898  33.356  31.396  1.00  0.00     0.060 A 
BRANCH  83  84
ATOM     84  S   UNL A   1      34.337  34.088  31.935  1.00  0.00     0.124 S 
ATOM     85  O   UNL A   1      33.666  34.314  30.660  1.00  0.00    -0.237 OA
ATOM     86  O   UNL A   1      33.776  33.032  32.773  1.00  0.00    -0.237 OA
ATOM     87  O   UNL A   1      34.759  35.288  32.649  1.00  0.00    -0.744 OA
ENDBRANCH  83  84
ENDBRANCH  51  76
BRANCH  63  88
ATOM     88  C   UNL A   1      44.754  35.015  30.411  1.00  0.00     0.058 A 
ATOM     89  C   UNL A   1      45.212  35.373  31.688  1.00  0.00     0.135 A 
ATOM     90  C   UNL A   1      44.834  35.979  29.391  1.00  0.00     0.135 A 
ATOM     91  F   UNL A   1      45.156  34.490  32.698  1.00  0.00    -0.206 F 
ATOM     92  C   UNL A   1      45.698  36.649  31.952  1.00  0.00     0.059 A 
ATOM     93  C   UNL A   1      45.347  37.250  29.625  1.00  0.00     0.059 A 
ATOM     94  F   UNL A   1      44.421  35.684  28.148  1.00  0.00    -0.206 F 
ATOM     95  C   UNL A   1      45.761  37.580  30.914  1.00  0.00     0.060 A 
BRANCH  95  96
ATOM     96  S   UNL A   1      46.411  39.226  31.266  1.00  0.00     0.124 S 
ATOM     97  O   UNL A   1      46.420  39.233  32.725  1.00  0.00    -0.237 OA
ATOM     98  O   UNL A   1      47.722  39.188  30.624  1.00  0.00    -0.237 OA
ATOM     99  O   UNL A   1      45.439  40.117  30.640  1.00  0.00    -0.744 OA
ENDBRANCH  95  96
ENDBRANCH  63  88
ENDBRANCH  37  38
ENDBRANCH  29  32
ENDBRANCH  27  28
ENDBRANCH  26  27
ENDBRANCH  25  26
ENDBRANCH  24  25
ENDBRANCH   1  24
TORSDOF 22
ENDMDL
