MODEL 1
REMARK VINA RESULT:     -12.5      0.000      0.000
REMARK SMILES Cc1ccc(-c2nc(C)c(C(=O)N3CCC(C(=O)NCCCCCCNC(=O)c4ccc(-c5c6nc(c(-c7c(F)cc(S(=O)(=O)[O-])cc7F)c7ccc([nH]7)c(-c7c(F)cc(S(=O)(=O)[O-])cc7F)c7nc(c(-c8c(F)cc(S(=O)(=O)[O-])cc8F)c8ccc5[nH]8)C=C7)C=C6)cc4)CC3)s2)o1
REMARK SMILES IDX 23 1 22 2 21 3 20 4 19 5 17 6 18 7 16 9 11 10 12 11 13 12
REMARK SMILES IDX 14 13 96 14 15 15 95 16 10 17 6 18 7 19 97 20 8 21 9 22 5 23
REMARK SMILES IDX 1 24 2 25 3 26 98 27 4 28 24 29 25 30 26 31 27 32 28 34
REMARK SMILES IDX 29 35 30 36 94 37 31 38 93 39 32 40 33 41 34 42 87 43 35 44
REMARK SMILES IDX 92 45 86 46 88 47 36 48 91 49 85 50 84 51 37 53 71 54 50 55
REMARK SMILES IDX 70 56 51 57 54 58 69 59 89 60 52 61 53 62 68 64 90 65 55 66
REMARK SMILES IDX 38 67 39 68 48 69 40 70 41 71 47 72 49 73 42 74 43 75 44 76
REMARK SMILES IDX 45 77 46 78 72 79 73 80 82 81 74 82 75 83 81 84 83 85 76 86
REMARK SMILES IDX 77 87 78 88 79 89 80 90 56 91 57 92 66 93 58 94 59 95 65 96
REMARK SMILES IDX 67 97 60 98 61 99 62 100 63 101 64 102
REMARK H PARENT 19 8 26 33 88 52 54 63
REMARK Flexibility Score: inf
ROOT
ATOM      1  C   UNL A   1      33.768  31.297  27.621  1.00  0.00     0.002 C 
ENDROOT
BRANCH   1   2
ATOM      2  C   UNL A   1      32.835  30.131  27.282  1.00  0.00     0.002 C 
BRANCH   2   3
ATOM      3  C   UNL A   1      31.706  30.475  26.307  1.00  0.00     0.021 C 
BRANCH   3   4
ATOM      4  C   UNL A   1      31.940  29.960  24.890  1.00  0.00     0.116 C 
BRANCH   4   5
ATOM      5  N   UNL A   1      30.809  29.173  24.424  1.00  0.00    -0.356 N 
ATOM      6  C   UNL A   1      30.710  27.850  24.128  1.00  0.00     0.223 C 
ATOM      7  O   UNL A   1      29.634  27.424  23.703  1.00  0.00    -0.275 OA
ATOM      8  H   UNL A   1      29.976  29.683  24.304  1.00  0.00     0.163 HD
BRANCH   6   9
ATOM      9  C   UNL A   1      31.884  26.906  24.331  1.00  0.00     0.082 C 
ATOM     10  C   UNL A   1      32.628  23.192  25.948  1.00  0.00     0.265 C 
ATOM     11  O   UNL A   1      31.967  23.211  26.988  1.00  0.00    -0.268 OA
ATOM     12  N   UNL A   1      32.877  24.392  25.283  1.00  0.00    -0.338 N 
ATOM     13  C   UNL A   1      33.184  25.578  26.062  1.00  0.00     0.120 C 
ATOM     14  C   UNL A   1      32.748  24.567  23.845  1.00  0.00     0.120 C 
ATOM     15  C   UNL A   1      32.206  26.711  25.819  1.00  0.00     0.035 C 
ATOM     16  C   UNL A   1      31.692  25.613  23.519  1.00  0.00     0.035 C 
BRANCH  10  17
ATOM     17  C   UNL A   1      33.279  21.988  25.446  1.00  0.00     0.115 A 
ATOM     18  C   UNL A   1      33.717  19.671  24.838  1.00  0.00     0.159 A 
ATOM     19  N   UNL A   1      34.851  20.310  25.009  1.00  0.00    -0.237 NA
ATOM     20  S   UNL A   1      32.310  20.631  24.990  1.00  0.00    -0.105 S 
ATOM     21  C   UNL A   1      34.620  21.626  25.372  1.00  0.00     0.062 A 
ATOM     22  C   UNL A   1      35.834  22.416  25.701  1.00  0.00     0.068 C 
BRANCH  18  23
ATOM     23  C   UNL A   1      33.693  18.256  24.601  1.00  0.00     0.162 A 
ATOM     24  C   UNL A   1      32.432  15.075  25.681  1.00  0.00     0.087 C 
ATOM     25  C   UNL A   1      33.154  16.136  24.950  1.00  0.00     0.101 A 
ATOM     26  C   UNL A   1      33.999  16.142  23.863  1.00  0.00     0.046 A 
ATOM     27  O   UNL A   1      32.980  17.401  25.411  1.00  0.00    -0.459 OA
ATOM     28  C   UNL A   1      34.331  17.502  23.629  1.00  0.00     0.054 A 
ENDBRANCH  18  23
ENDBRANCH  10  17
ENDBRANCH   6   9
ENDBRANCH   4   5
ENDBRANCH   3   4
ENDBRANCH   2   3
ENDBRANCH   1   2
BRANCH   1  29
ATOM     29  C   UNL A   1      35.200  30.898  27.988  1.00  0.00     0.021 C 
BRANCH  29  30
ATOM     30  C   UNL A   1      35.850  31.767  29.061  1.00  0.00     0.116 C 
BRANCH  30  31
ATOM     31  N   UNL A   1      35.788  31.145  30.373  1.00  0.00    -0.352 N 
ATOM     32  C   UNL A   1      36.669  30.287  30.976  1.00  0.00     0.251 C 
ATOM     33  H   UNL A   1      34.993  31.374  30.908  1.00  0.00     0.163 HD
ATOM     34  O   UNL A   1      36.339  29.705  32.007  1.00  0.00    -0.269 OA
BRANCH  32  35
ATOM     35  C   UNL A   1      38.002  30.049  30.383  1.00  0.00     0.039 A 
ATOM     36  C   UNL A   1      39.124  30.111  31.214  1.00  0.00     0.014 A 
ATOM     37  C   UNL A   1      38.155  29.788  29.018  1.00  0.00     0.014 A 
ATOM     38  C   UNL A   1      40.390  29.859  30.684  1.00  0.00     0.010 A 
ATOM     39  C   UNL A   1      39.411  29.464  28.506  1.00  0.00     0.010 A 
ATOM     40  C   UNL A   1      40.542  29.500  29.333  1.00  0.00    -0.014 A 
BRANCH  40  41
ATOM     41  C   UNL A   1      41.878  29.133  28.798  1.00  0.00     0.031 A 
ATOM     42  C   UNL A   1      42.965  30.164  28.665  1.00  0.00     0.074 A 
ATOM     43  C   UNL A   1      42.099  27.864  28.404  1.00  0.00     0.049 A 
ATOM     44  N   UNL A   1      44.194  30.014  28.243  1.00  0.00    -0.248 NA
ATOM     45  C   UNL A   1      42.622  31.547  29.030  1.00  0.00     0.031 C 
ATOM     46  C   UNL A   1      41.100  26.792  28.417  1.00  0.00     0.029 A 
ATOM     47  N   UNL A   1      43.228  27.260  27.913  1.00  0.00    -0.354 N 
ATOM     48  C   UNL A   1      44.772  31.278  28.294  1.00  0.00     0.074 A 
ATOM     49  C   UNL A   1      43.738  32.193  28.727  1.00  0.00     0.031 C 
ATOM     50  C   UNL A   1      41.670  25.655  27.987  1.00  0.00     0.029 A 
ATOM     51  C   UNL A   1      43.062  25.923  27.637  1.00  0.00     0.049 A 
ATOM     52  H   UNL A   1      44.078  27.737  27.773  1.00  0.00     0.167 HD
ATOM     53  C   UNL A   1      46.053  31.636  28.033  1.00  0.00     0.037 A 
ATOM     54  C   UNL A   1      43.931  25.013  27.158  1.00  0.00     0.037 A 
ATOM     55  C   UNL A   1      47.076  30.718  27.602  1.00  0.00     0.049 A 
ATOM     56  C   UNL A   1      45.349  25.430  26.884  1.00  0.00     0.074 A 
ATOM     57  C   UNL A   1      48.415  30.971  27.355  1.00  0.00     0.029 A 
ATOM     58  N   UNL A   1      46.875  29.368  27.346  1.00  0.00    -0.354 N 
ATOM     59  N   UNL A   1      45.898  26.616  27.011  1.00  0.00    -0.248 NA
ATOM     60  C   UNL A   1      46.268  24.386  26.416  1.00  0.00     0.031 C 
ATOM     61  C   UNL A   1      49.011  29.787  26.906  1.00  0.00     0.029 A 
ATOM     62  C   UNL A   1      48.059  28.782  26.923  1.00  0.00     0.049 A 
ATOM     63  H   UNL A   1      46.018  28.896  27.451  1.00  0.00     0.167 HD
ATOM     64  C   UNL A   1      47.231  26.456  26.649  1.00  0.00     0.074 A 
ATOM     65  C   UNL A   1      47.409  25.055  26.328  1.00  0.00     0.031 C 
ATOM     66  C   UNL A   1      48.216  27.387  26.586  1.00  0.00     0.037 A 
BRANCH  53  67
ATOM     67  C   UNL A   1      46.416  33.088  28.210  1.00  0.00     0.058 A 
ATOM     68  C   UNL A   1      46.283  34.013  27.160  1.00  0.00     0.135 A 
ATOM     69  C   UNL A   1      46.880  33.568  29.445  1.00  0.00     0.135 A 
ATOM     70  F   UNL A   1      45.857  33.610  25.953  1.00  0.00    -0.206 F 
ATOM     71  C   UNL A   1      46.634  35.349  27.317  1.00  0.00     0.059 A 
ATOM     72  C   UNL A   1      47.208  34.908  29.634  1.00  0.00     0.059 A 
ATOM     73  F   UNL A   1      47.024  32.731  30.485  1.00  0.00    -0.206 F 
ATOM     74  C   UNL A   1      47.098  35.788  28.558  1.00  0.00     0.060 A 
BRANCH  74  75
ATOM     75  S   UNL A   1      47.555  37.525  28.742  1.00  0.00     0.124 S 
ATOM     76  O   UNL A   1      49.008  37.459  28.618  1.00  0.00    -0.237 OA
ATOM     77  O   UNL A   1      46.853  38.153  27.627  1.00  0.00    -0.237 OA
ATOM     78  O   UNL A   1      47.054  37.871  30.069  1.00  0.00    -0.744 OA
ENDBRANCH  74  75
ENDBRANCH  53  67
BRANCH  54  79
ATOM     79  C   UNL A   1      43.481  23.614  26.933  1.00  0.00     0.058 A 
ATOM     80  C   UNL A   1      43.324  22.720  28.003  1.00  0.00     0.135 A 
ATOM     81  C   UNL A   1      43.160  23.155  25.646  1.00  0.00     0.135 A 
ATOM     82  F   UNL A   1      43.621  23.110  29.251  1.00  0.00    -0.206 F 
ATOM     83  C   UNL A   1      42.873  21.419  27.805  1.00  0.00     0.059 A 
ATOM     84  C   UNL A   1      42.683  21.867  25.426  1.00  0.00     0.059 A 
ATOM     85  F   UNL A   1      43.275  23.976  24.591  1.00  0.00    -0.206 F 
ATOM     86  C   UNL A   1      42.550  21.004  26.512  1.00  0.00     0.060 A 
BRANCH  86  87
ATOM     87  S   UNL A   1      41.899  19.336  26.274  1.00  0.00     0.124 S 
ATOM     88  O   UNL A   1      42.206  18.714  27.557  1.00  0.00    -0.237 OA
ATOM     89  O   UNL A   1      40.487  19.592  26.010  1.00  0.00    -0.237 OA
ATOM     90  O   UNL A   1      42.662  18.839  25.132  1.00  0.00    -0.744 OA
ENDBRANCH  86  87
ENDBRANCH  54  79
BRANCH  66  91
ATOM     91  C   UNL A   1      49.577  26.910  26.154  1.00  0.00     0.058 A 
ATOM     92  C   UNL A   1      50.478  26.333  27.064  1.00  0.00     0.135 A 
ATOM     93  C   UNL A   1      49.985  27.026  24.815  1.00  0.00     0.135 A 
ATOM     94  F   UNL A   1      50.142  26.201  28.357  1.00  0.00    -0.206 F 
ATOM     95  C   UNL A   1      51.750  25.929  26.671  1.00  0.00     0.059 A 
ATOM     96  C   UNL A   1      51.241  26.601  24.394  1.00  0.00     0.059 A 
ATOM     97  F   UNL A   1      49.159  27.558  23.900  1.00  0.00    -0.206 F 
ATOM     98  C   UNL A   1      52.124  26.073  25.334  1.00  0.00     0.060 A 
BRANCH  98  99
ATOM     99  S   UNL A   1      53.780  25.554  24.838  1.00  0.00     0.124 S 
ATOM    100  O   UNL A   1      54.600  26.143  25.891  1.00  0.00    -0.237 OA
ATOM    101  O   UNL A   1      53.673  24.098  24.858  1.00  0.00    -0.237 OA
ATOM    102  O   UNL A   1      53.940  26.146  23.512  1.00  0.00    -0.744 OA
ENDBRANCH  98  99
ENDBRANCH  66  91
ENDBRANCH  40  41
ENDBRANCH  32  35
ENDBRANCH  30  31
ENDBRANCH  29  30
ENDBRANCH   1  29
TORSDOF 18
ENDMDL
MODEL 2
REMARK VINA RESULT:     -12.5      1.029      2.164
REMARK SMILES Cc1ccc(-c2nc(C)c(C(=O)N3CCC(C(=O)NCCCCCCNC(=O)c4ccc(-c5c6nc(c(-c7c(F)cc(S(=O)(=O)[O-])cc7F)c7ccc([nH]7)c(-c7c(F)cc(S(=O)(=O)[O-])cc7F)c7nc(c(-c8c(F)cc(S(=O)(=O)[O-])cc8F)c8ccc5[nH]8)C=C7)C=C6)cc4)CC3)s2)o1
REMARK SMILES IDX 23 1 22 2 21 3 20 4 19 5 17 6 18 7 16 9 11 10 12 11 13 12
REMARK SMILES IDX 14 13 96 14 15 15 95 16 10 17 6 18 7 19 97 20 8 21 9 22 5 23
REMARK SMILES IDX 1 24 2 25 3 26 98 27 4 28 24 29 25 30 26 31 27 32 28 34
REMARK SMILES IDX 29 35 30 36 94 37 31 38 93 39 32 40 33 41 34 42 87 43 35 44
REMARK SMILES IDX 92 45 86 46 88 47 36 48 91 49 85 50 84 51 37 53 71 54 50 55
REMARK SMILES IDX 70 56 51 57 54 58 69 59 89 60 52 61 53 62 68 64 90 65 55 66
REMARK SMILES IDX 38 67 39 68 48 69 40 70 41 71 47 72 49 73 42 74 43 75 44 76
REMARK SMILES IDX 45 77 46 78 72 79 73 80 82 81 74 82 75 83 81 84 83 85 76 86
REMARK SMILES IDX 77 87 78 88 79 89 80 90 56 91 57 92 66 93 58 94 59 95 65 96
REMARK SMILES IDX 67 97 60 98 61 99 62 100 63 101 64 102
REMARK H PARENT 19 8 26 33 88 52 54 63
REMARK Flexibility Score: inf
ROOT
ATOM      1  C   UNL A   1      34.704  32.227  27.987  1.00  0.00     0.002 C 
ENDROOT
BRANCH   1   2
ATOM      2  C   UNL A   1      34.382  30.861  27.374  1.00  0.00     0.002 C 
BRANCH   2   3
ATOM      3  C   UNL A   1      32.909  30.650  27.015  1.00  0.00     0.021 C 
BRANCH   3   4
ATOM      4  C   UNL A   1      32.696  29.785  25.776  1.00  0.00     0.116 C 
BRANCH   4   5
ATOM      5  N   UNL A   1      31.463  30.143  25.092  1.00  0.00    -0.356 N 
ATOM      6  C   UNL A   1      30.762  29.490  24.128  1.00  0.00     0.223 C 
ATOM      7  O   UNL A   1      29.753  30.032  23.670  1.00  0.00    -0.275 OA
ATOM      8  H   UNL A   1      31.072  31.001  25.373  1.00  0.00     0.163 HD
BRANCH   6   9
ATOM      9  C   UNL A   1      31.187  28.117  23.635  1.00  0.00     0.082 C 
ATOM     10  C   UNL A   1      33.528  24.967  24.883  1.00  0.00     0.265 C 
ATOM     11  O   UNL A   1      34.521  25.532  25.346  1.00  0.00    -0.268 OA
ATOM     12  N   UNL A   1      32.650  25.693  24.080  1.00  0.00    -0.338 N 
ATOM     13  C   UNL A   1      33.191  26.642  23.124  1.00  0.00     0.120 C 
ATOM     14  C   UNL A   1      31.202  25.642  24.205  1.00  0.00     0.120 C 
ATOM     15  C   UNL A   1      32.695  28.057  23.354  1.00  0.00     0.035 C 
ATOM     16  C   UNL A   1      30.640  27.012  24.554  1.00  0.00     0.035 C 
BRANCH  10  17
ATOM     17  C   UNL A   1      33.296  23.534  25.022  1.00  0.00     0.115 A 
ATOM     18  C   UNL A   1      33.038  21.167  24.512  1.00  0.00     0.159 A 
ATOM     19  N   UNL A   1      32.382  21.462  25.610  1.00  0.00    -0.237 NA
ATOM     20  S   UNL A   1      33.931  22.456  23.829  1.00  0.00    -0.105 S 
ATOM     21  C   UNL A   1      32.504  22.809  25.906  1.00  0.00     0.062 A 
ATOM     22  C   UNL A   1      31.709  23.278  27.069  1.00  0.00     0.068 C 
BRANCH  18  23
ATOM     23  C   UNL A   1      32.942  19.864  23.918  1.00  0.00     0.162 A 
ATOM     24  C   UNL A   1      34.069  16.459  24.008  1.00  0.00     0.087 C 
ATOM     25  C   UNL A   1      33.389  17.714  23.629  1.00  0.00     0.101 A 
ATOM     26  C   UNL A   1      32.490  18.053  22.644  1.00  0.00     0.046 A 
ATOM     27  O   UNL A   1      33.680  18.802  24.389  1.00  0.00    -0.459 OA
ATOM     28  C   UNL A   1      32.190  19.427  22.839  1.00  0.00     0.054 A 
ENDBRANCH  18  23
ENDBRANCH  10  17
ENDBRANCH   6   9
ENDBRANCH   4   5
ENDBRANCH   3   4
ENDBRANCH   2   3
ENDBRANCH   1   2
BRANCH   1  29
ATOM     29  C   UNL A   1      36.192  32.586  28.028  1.00  0.00     0.021 C 
BRANCH  29  30
ATOM     30  C   UNL A   1      36.744  32.860  29.425  1.00  0.00     0.116 C 
BRANCH  30  31
ATOM     31  N   UNL A   1      36.193  31.949  30.414  1.00  0.00    -0.352 N 
ATOM     32  C   UNL A   1      36.621  30.703  30.789  1.00  0.00     0.251 C 
ATOM     33  H   UNL A   1      35.392  32.276  30.884  1.00  0.00     0.163 HD
ATOM     34  O   UNL A   1      35.901  30.002  31.496  1.00  0.00    -0.269 OA
BRANCH  32  35
ATOM     35  C   UNL A   1      37.934  30.197  30.332  1.00  0.00     0.039 A 
ATOM     36  C   UNL A   1      38.142  30.020  28.962  1.00  0.00     0.014 A 
ATOM     37  C   UNL A   1      38.947  29.879  31.242  1.00  0.00     0.014 A 
ATOM     38  C   UNL A   1      39.382  29.575  28.504  1.00  0.00     0.010 A 
ATOM     39  C   UNL A   1      40.207  29.505  30.779  1.00  0.00     0.010 A 
ATOM     40  C   UNL A   1      40.437  29.345  29.405  1.00  0.00    -0.014 A 
BRANCH  40  41
ATOM     41  C   UNL A   1      41.784  28.969  28.905  1.00  0.00     0.031 A 
ATOM     42  C   UNL A   1      42.885  29.988  28.811  1.00  0.00     0.074 A 
ATOM     43  C   UNL A   1      42.002  27.700  28.506  1.00  0.00     0.049 A 
ATOM     44  N   UNL A   1      44.124  29.828  28.422  1.00  0.00    -0.248 NA
ATOM     45  C   UNL A   1      42.547  31.372  29.178  1.00  0.00     0.031 C 
ATOM     46  C   UNL A   1      40.992  26.639  28.483  1.00  0.00     0.029 A 
ATOM     47  N   UNL A   1      43.138  27.087  28.042  1.00  0.00    -0.354 N 
ATOM     48  C   UNL A   1      44.714  31.085  28.500  1.00  0.00     0.074 A 
ATOM     49  C   UNL A   1      43.678  32.008  28.912  1.00  0.00     0.031 C 
ATOM     50  C   UNL A   1      41.562  25.499  28.059  1.00  0.00     0.029 A 
ATOM     51  C   UNL A   1      42.965  25.755  27.751  1.00  0.00     0.049 A 
ATOM     52  H   UNL A   1      43.996  27.556  27.930  1.00  0.00     0.167 HD
ATOM     53  C   UNL A   1      46.005  31.432  28.277  1.00  0.00     0.037 A 
ATOM     54  C   UNL A   1      43.837  24.839  27.288  1.00  0.00     0.037 A 
ATOM     55  C   UNL A   1      47.030  30.506  27.868  1.00  0.00     0.049 A 
ATOM     56  C   UNL A   1      45.267  25.243  27.057  1.00  0.00     0.074 A 
ATOM     57  C   UNL A   1      48.378  30.746  27.660  1.00  0.00     0.029 A 
ATOM     58  N   UNL A   1      46.822  29.160  27.595  1.00  0.00    -0.354 N 
ATOM     59  N   UNL A   1      45.825  26.422  27.210  1.00  0.00    -0.248 NA
ATOM     60  C   UNL A   1      46.188  24.193  26.606  1.00  0.00     0.031 C 
ATOM     61  C   UNL A   1      48.973  29.560  27.218  1.00  0.00     0.029 A 
ATOM     62  C   UNL A   1      48.010  28.564  27.201  1.00  0.00     0.049 A 
ATOM     63  H   UNL A   1      45.957  28.697  27.672  1.00  0.00     0.167 HD
ATOM     64  C   UNL A   1      47.166  26.251  26.884  1.00  0.00     0.074 A 
ATOM     65  C   UNL A   1      47.338  24.850  26.556  1.00  0.00     0.031 C 
ATOM     66  C   UNL A   1      48.162  27.171  26.856  1.00  0.00     0.037 A 
BRANCH  53  67
ATOM     67  C   UNL A   1      46.378  32.878  28.477  1.00  0.00     0.058 A 
ATOM     68  C   UNL A   1      46.821  33.358  29.722  1.00  0.00     0.135 A 
ATOM     69  C   UNL A   1      46.315  33.791  27.413  1.00  0.00     0.135 A 
ATOM     70  F   UNL A   1      46.890  32.534  30.780  1.00  0.00    -0.206 F 
ATOM     71  C   UNL A   1      47.151  34.695  29.912  1.00  0.00     0.059 A 
ATOM     72  C   UNL A   1      46.670  35.128  27.573  1.00  0.00     0.059 A 
ATOM     73  F   UNL A   1      45.903  33.389  26.201  1.00  0.00    -0.206 F 
ATOM     74  C   UNL A   1      47.069  35.575  28.832  1.00  0.00     0.060 A 
BRANCH  74  75
ATOM     75  S   UNL A   1      47.494  37.309  29.099  1.00  0.00     0.124 S 
ATOM     76  O   UNL A   1      46.176  37.935  29.098  1.00  0.00    -0.237 OA
ATOM     77  O   UNL A   1      48.175  37.270  30.389  1.00  0.00    -0.237 OA
ATOM     78  O   UNL A   1      48.342  37.632  27.956  1.00  0.00    -0.744 OA
ENDBRANCH  74  75
ENDBRANCH  53  67
BRANCH  54  79
ATOM     79  C   UNL A   1      43.379  23.447  27.039  1.00  0.00     0.058 A 
ATOM     80  C   UNL A   1      43.033  23.015  25.751  1.00  0.00     0.135 A 
ATOM     81  C   UNL A   1      43.320  22.508  28.082  1.00  0.00     0.135 A 
ATOM     82  F   UNL A   1      43.069  23.875  24.723  1.00  0.00    -0.206 F 
ATOM     83  C   UNL A   1      42.634  21.706  25.504  1.00  0.00     0.059 A 
ATOM     84  C   UNL A   1      42.949  21.186  27.856  1.00  0.00     0.059 A 
ATOM     85  F   UNL A   1      43.660  22.866  29.330  1.00  0.00    -0.206 F 
ATOM     86  C   UNL A   1      42.601  20.797  26.564  1.00  0.00     0.060 A 
BRANCH  86  87
ATOM     87  S   UNL A   1      42.149  19.081  26.222  1.00  0.00     0.124 S 
ATOM     88  O   UNL A   1      40.764  19.222  25.789  1.00  0.00    -0.237 OA
ATOM     89  O   UNL A   1      43.108  18.713  25.185  1.00  0.00    -0.237 OA
ATOM     90  O   UNL A   1      42.346  18.421  27.509  1.00  0.00    -0.744 OA
ENDBRANCH  86  87
ENDBRANCH  54  79
BRANCH  66  91
ATOM     91  C   UNL A   1      49.530  26.683  26.459  1.00  0.00     0.058 A 
ATOM     92  C   UNL A   1      49.992  26.781  25.137  1.00  0.00     0.135 A 
ATOM     93  C   UNL A   1      50.391  26.115  27.412  1.00  0.00     0.135 A 
ATOM     94  F   UNL A   1      49.209  27.312  24.184  1.00  0.00    -0.206 F 
ATOM     95  C   UNL A   1      51.241  26.293  24.765  1.00  0.00     0.059 A 
ATOM     96  C   UNL A   1      51.656  25.648  27.068  1.00  0.00     0.059 A 
ATOM     97  F   UNL A   1      50.006  26.007  28.694  1.00  0.00    -0.206 F 
ATOM     98  C   UNL A   1      52.063  25.723  25.737  1.00  0.00     0.060 A 
BRANCH  98  99
ATOM     99  S   UNL A   1      53.677  25.084  25.241  1.00  0.00     0.124 S 
ATOM    100  O   UNL A   1      53.428  23.647  25.213  1.00  0.00    -0.237 OA
ATOM    101  O   UNL A   1      53.879  25.718  23.941  1.00  0.00    -0.237 OA
ATOM    102  O   UNL A   1      54.568  25.547  26.302  1.00  0.00    -0.744 OA
ENDBRANCH  98  99
ENDBRANCH  66  91
ENDBRANCH  40  41
ENDBRANCH  32  35
ENDBRANCH  30  31
ENDBRANCH  29  30
ENDBRANCH   1  29
TORSDOF 18
ENDMDL
MODEL 3
REMARK VINA RESULT:     -12.4      4.873      6.218
REMARK SMILES Cc1ccc(-c2nc(C)c(C(=O)N3CCC(C(=O)NCCCCCCNC(=O)c4ccc(-c5c6nc(c(-c7c(F)cc(S(=O)(=O)[O-])cc7F)c7ccc([nH]7)c(-c7c(F)cc(S(=O)(=O)[O-])cc7F)c7nc(c(-c8c(F)cc(S(=O)(=O)[O-])cc8F)c8ccc5[nH]8)C=C7)C=C6)cc4)CC3)s2)o1
REMARK SMILES IDX 23 1 22 2 21 3 20 4 19 5 17 6 18 7 16 9 11 10 12 11 13 12
REMARK SMILES IDX 14 13 96 14 15 15 95 16 10 17 6 18 7 19 97 20 8 21 9 22 5 23
REMARK SMILES IDX 1 24 2 25 3 26 98 27 4 28 24 29 25 30 26 31 27 32 28 34
REMARK SMILES IDX 29 35 30 36 94 37 31 38 93 39 32 40 33 41 34 42 87 43 35 44
REMARK SMILES IDX 92 45 86 46 88 47 36 48 91 49 85 50 84 51 37 53 71 54 50 55
REMARK SMILES IDX 70 56 51 57 54 58 69 59 89 60 52 61 53 62 68 64 90 65 55 66
REMARK SMILES IDX 38 67 39 68 48 69 40 70 41 71 47 72 49 73 42 74 43 75 44 76
REMARK SMILES IDX 45 77 46 78 72 79 73 80 82 81 74 82 75 83 81 84 83 85 76 86
REMARK SMILES IDX 77 87 78 88 79 89 80 90 56 91 57 92 66 93 58 94 59 95 65 96
REMARK SMILES IDX 67 97 60 98 61 99 62 100 63 101 64 102
REMARK H PARENT 19 8 26 33 88 52 54 63
REMARK Flexibility Score: inf
ROOT
ATOM      1  C   UNL A   1      33.742  28.993  23.799  1.00  0.00     0.002 C 
ENDROOT
BRANCH   1   2
ATOM      2  C   UNL A   1      32.583  28.890  22.804  1.00  0.00     0.002 C 
BRANCH   2   3
ATOM      3  C   UNL A   1      31.196  29.135  23.406  1.00  0.00     0.021 C 
BRANCH   3   4
ATOM      4  C   UNL A   1      30.053  28.932  22.416  1.00  0.00     0.116 C 
BRANCH   4   5
ATOM      5  N   UNL A   1      28.970  28.167  23.016  1.00  0.00    -0.356 N 
ATOM      6  C   UNL A   1      28.992  27.028  23.757  1.00  0.00     0.223 C 
ATOM      7  O   UNL A   1      27.917  26.544  24.118  1.00  0.00    -0.275 OA
ATOM      8  H   UNL A   1      28.071  28.536  22.858  1.00  0.00     0.163 HD
BRANCH   6   9
ATOM      9  C   UNL A   1      30.303  26.371  24.155  1.00  0.00     0.082 C 
ATOM     10  C   UNL A   1      31.603  22.996  26.126  1.00  0.00     0.265 C 
ATOM     11  O   UNL A   1      30.834  22.929  27.087  1.00  0.00    -0.268 OA
ATOM     12  N   UNL A   1      31.675  24.183  25.399  1.00  0.00    -0.338 N 
ATOM     13  C   UNL A   1      31.635  25.448  26.111  1.00  0.00     0.120 C 
ATOM     14  C   UNL A   1      31.685  24.249  23.946  1.00  0.00     0.120 C 
ATOM     15  C   UNL A   1      30.480  26.330  25.679  1.00  0.00     0.035 C 
ATOM     16  C   UNL A   1      30.482  25.025  23.431  1.00  0.00     0.035 C 
BRANCH  10  17
ATOM     17  C   UNL A   1      32.544  21.935  25.790  1.00  0.00     0.115 A 
ATOM     18  C   UNL A   1      33.484  19.753  25.255  1.00  0.00     0.159 A 
ATOM     19  N   UNL A   1      34.414  20.527  25.764  1.00  0.00    -0.237 NA
ATOM     20  S   UNL A   1      31.960  20.495  25.031  1.00  0.00    -0.105 S 
ATOM     21  C   UNL A   1      33.892  21.768  26.090  1.00  0.00     0.062 A 
ATOM     22  C   UNL A   1      34.831  22.689  26.778  1.00  0.00     0.068 C 
BRANCH  18  23
ATOM     23  C   UNL A   1      33.743  18.369  24.973  1.00  0.00     0.162 A 
ATOM     24  C   UNL A   1      32.665  14.980  25.441  1.00  0.00     0.087 C 
ATOM     25  C   UNL A   1      33.429  16.178  25.040  1.00  0.00     0.101 A 
ATOM     26  C   UNL A   1      34.578  16.378  24.310  1.00  0.00     0.046 A 
ATOM     27  O   UNL A   1      32.931  17.370  25.458  1.00  0.00    -0.459 OA
ATOM     28  C   UNL A   1      34.771  17.782  24.253  1.00  0.00     0.054 A 
ENDBRANCH  18  23
ENDBRANCH  10  17
ENDBRANCH   6   9
ENDBRANCH   4   5
ENDBRANCH   3   4
ENDBRANCH   2   3
ENDBRANCH   1   2
BRANCH   1  29
ATOM     29  C   UNL A   1      33.869  27.817  24.772  1.00  0.00     0.021 C 
BRANCH  29  30
ATOM     30  C   UNL A   1      34.018  28.216  26.238  1.00  0.00     0.116 C 
BRANCH  30  31
ATOM     31  N   UNL A   1      33.831  29.644  26.433  1.00  0.00    -0.352 N 
ATOM     32  C   UNL A   1      34.501  30.509  27.257  1.00  0.00     0.251 C 
ATOM     33  H   UNL A   1      33.114  30.049  25.892  1.00  0.00     0.163 HD
ATOM     34  O   UNL A   1      34.058  31.641  27.436  1.00  0.00    -0.269 OA
BRANCH  32  35
ATOM     35  C   UNL A   1      35.739  30.078  27.941  1.00  0.00     0.039 A 
ATOM     36  C   UNL A   1      36.945  30.137  27.239  1.00  0.00     0.014 A 
ATOM     37  C   UNL A   1      35.716  29.601  29.255  1.00  0.00     0.014 A 
ATOM     38  C   UNL A   1      38.132  29.767  27.872  1.00  0.00     0.010 A 
ATOM     39  C   UNL A   1      36.910  29.303  29.910  1.00  0.00     0.010 A 
ATOM     40  C   UNL A   1      38.130  29.379  29.224  1.00  0.00    -0.014 A 
BRANCH  40  41
ATOM     41  C   UNL A   1      39.407  29.083  29.923  1.00  0.00     0.031 A 
ATOM     42  C   UNL A   1      39.823  29.869  31.135  1.00  0.00     0.074 A 
ATOM     43  C   UNL A   1      40.209  28.116  29.437  1.00  0.00     0.049 A 
ATOM     44  N   UNL A   1      40.889  29.729  31.881  1.00  0.00    -0.248 NA
ATOM     45  C   UNL A   1      38.941  30.970  31.552  1.00  0.00     0.031 C 
ATOM     46  C   UNL A   1      39.948  27.333  28.227  1.00  0.00     0.029 A 
ATOM     47  N   UNL A   1      41.404  27.625  29.897  1.00  0.00    -0.354 N 
ATOM     48  C   UNL A   1      40.806  30.719  32.855  1.00  0.00     0.074 A 
ATOM     49  C   UNL A   1      39.617  31.492  32.565  1.00  0.00     0.031 C 
ATOM     50  C   UNL A   1      40.936  26.440  28.058  1.00  0.00     0.029 A 
ATOM     51  C   UNL A   1      41.915  26.607  29.127  1.00  0.00     0.049 A 
ATOM     52  H   UNL A   1      41.854  27.968  30.704  1.00  0.00     0.167 HD
ATOM     53  C   UNL A   1      41.628  30.943  33.909  1.00  0.00     0.037 A 
ATOM     54  C   UNL A   1      43.045  25.886  29.265  1.00  0.00     0.037 A 
ATOM     55  C   UNL A   1      42.809  30.168  34.190  1.00  0.00     0.049 A 
ATOM     56  C   UNL A   1      43.937  26.146  30.447  1.00  0.00     0.074 A 
ATOM     57  C   UNL A   1      43.684  30.284  35.257  1.00  0.00     0.029 A 
ATOM     58  N   UNL A   1      43.289  29.135  33.396  1.00  0.00    -0.354 N 
ATOM     59  N   UNL A   1      43.802  27.036  31.402  1.00  0.00    -0.248 NA
ATOM     60  C   UNL A   1      45.125  25.294  30.579  1.00  0.00     0.031 C 
ATOM     61  C   UNL A   1      44.716  29.354  35.083  1.00  0.00     0.029 A 
ATOM     62  C   UNL A   1      44.458  28.621  33.937  1.00  0.00     0.049 A 
ATOM     63  H   UNL A   1      42.861  28.814  32.569  1.00  0.00     0.167 HD
ATOM     64  C   UNL A   1      44.883  26.844  32.254  1.00  0.00     0.074 A 
ATOM     65  C   UNL A   1      45.643  25.734  31.717  1.00  0.00     0.031 C 
ATOM     66  C   UNL A   1      45.217  27.527  33.378  1.00  0.00     0.037 A 
BRANCH  53  67
ATOM     67  C   UNL A   1      41.270  32.074  34.838  1.00  0.00     0.058 A 
ATOM     68  C   UNL A   1      40.437  31.875  35.953  1.00  0.00     0.135 A 
ATOM     69  C   UNL A   1      41.780  33.365  34.629  1.00  0.00     0.135 A 
ATOM     70  F   UNL A   1      39.910  30.665  36.196  1.00  0.00    -0.206 F 
ATOM     71  C   UNL A   1      40.093  32.921  36.802  1.00  0.00     0.059 A 
ATOM     72  C   UNL A   1      41.474  34.421  35.484  1.00  0.00     0.059 A 
ATOM     73  F   UNL A   1      42.583  33.614  33.583  1.00  0.00    -0.206 F 
ATOM     74  C   UNL A   1      40.614  34.192  36.558  1.00  0.00     0.060 A 
BRANCH  74  75
ATOM     75  S   UNL A   1      40.151  35.540  37.666  1.00  0.00     0.124 S 
ATOM     76  O   UNL A   1      40.010  36.651  36.731  1.00  0.00    -0.237 OA
ATOM     77  O   UNL A   1      38.910  35.048  38.257  1.00  0.00    -0.237 OA
ATOM     78  O   UNL A   1      41.284  35.632  38.583  1.00  0.00    -0.744 OA
ENDBRANCH  74  75
ENDBRANCH  53  67
BRANCH  54  79
ATOM     79  C   UNL A   1      43.374  24.837  28.265  1.00  0.00     0.058 A 
ATOM     80  C   UNL A   1      42.980  23.504  28.454  1.00  0.00     0.135 A 
ATOM     81  C   UNL A   1      44.054  25.156  27.079  1.00  0.00     0.135 A 
ATOM     82  F   UNL A   1      42.331  23.148  29.573  1.00  0.00    -0.206 F 
ATOM     83  C   UNL A   1      43.256  22.522  27.509  1.00  0.00     0.059 A 
ATOM     84  C   UNL A   1      44.318  24.196  26.107  1.00  0.00     0.059 A 
ATOM     85  F   UNL A   1      44.435  26.420  26.841  1.00  0.00    -0.206 F 
ATOM     86  C   UNL A   1      43.921  22.880  26.334  1.00  0.00     0.060 A 
BRANCH  86  87
ATOM     87  S   UNL A   1      44.214  21.612  25.082  1.00  0.00     0.124 S 
ATOM     88  O   UNL A   1      43.122  20.682  25.344  1.00  0.00    -0.237 OA
ATOM     89  O   UNL A   1      44.118  22.377  23.843  1.00  0.00    -0.237 OA
ATOM     90  O   UNL A   1      45.551  21.124  25.405  1.00  0.00    -0.744 OA
ENDBRANCH  86  87
ENDBRANCH  54  79
BRANCH  66  91
ATOM     91  C   UNL A   1      46.461  27.084  34.101  1.00  0.00     0.058 A 
ATOM     92  C   UNL A   1      47.717  27.643  33.816  1.00  0.00     0.135 A 
ATOM     93  C   UNL A   1      46.396  26.092  35.094  1.00  0.00     0.135 A 
ATOM     94  F   UNL A   1      47.837  28.592  32.874  1.00  0.00    -0.206 F 
ATOM     95  C   UNL A   1      48.871  27.204  34.457  1.00  0.00     0.059 A 
ATOM     96  C   UNL A   1      47.533  25.659  35.769  1.00  0.00     0.059 A 
ATOM     97  F   UNL A   1      45.219  25.533  35.415  1.00  0.00    -0.206 F 
ATOM     98  C   UNL A   1      48.769  26.207  35.429  1.00  0.00     0.060 A 
BRANCH  98  99
ATOM     99  S   UNL A   1      50.274  25.638  36.247  1.00  0.00     0.124 S 
ATOM    100  O   UNL A   1      50.558  26.751  37.146  1.00  0.00    -0.237 OA
ATOM    101  O   UNL A   1      49.834  24.402  36.889  1.00  0.00    -0.237 OA
ATOM    102  O   UNL A   1      51.216  25.463  35.145  1.00  0.00    -0.744 OA
ENDBRANCH  98  99
ENDBRANCH  66  91
ENDBRANCH  40  41
ENDBRANCH  32  35
ENDBRANCH  30  31
ENDBRANCH  29  30
ENDBRANCH   1  29
TORSDOF 18
ENDMDL
