MODEL 1
REMARK VINA RESULT:     -13.0      0.000      0.000
REMARK SMILES C[C@H]1CCc2sc3ncn4nc(/C=C\C(=O)NCCCCCCNC(=O)c5ccc(-c6c7nc(c(-c8c(F)cc(S(=O)(=O)[O-])cc8F)c8ccc([nH]8)c(-c8c(F)cc(S(=O)(=O)[O-])cc8F)c8nc(c(-c9c(F)cc(S(=O)(=O)[O-])cc9F)c9ccc6[nH]9)C=C8)C=C7)cc5)nc4c3c2C1
REMARK SMILES IDX 21 1 20 2 19 3 18 4 17 5 15 6 16 7 14 9 13 10 12 11 1 12
REMARK SMILES IDX 2 13 3 14 97 15 4 16 96 17 5 18 95 19 6 20 7 21 94 22 8 23
REMARK SMILES IDX 10 24 93 25 9 26 11 27 22 28 23 29 24 30 25 31 26 33 27 34
REMARK SMILES IDX 28 35 92 36 29 37 91 38 30 39 31 40 32 41 85 42 33 43 90 44
REMARK SMILES IDX 84 45 86 46 34 47 89 48 83 49 82 50 35 52 69 53 48 54 68 55
REMARK SMILES IDX 49 56 52 57 67 58 87 59 50 60 51 61 66 63 88 64 53 65 36 66
REMARK SMILES IDX 37 67 46 68 38 69 39 70 45 71 47 72 40 73 41 74 42 75 43 76
REMARK SMILES IDX 44 77 70 78 71 79 80 80 72 81 73 82 79 83 81 84 74 85 75 86
REMARK SMILES IDX 76 87 77 88 78 89 54 90 55 91 64 92 56 93 57 94 63 95 65 96
REMARK SMILES IDX 58 97 59 98 60 99 61 100 62 101
REMARK H PARENT 17 8 24 32 86 51 52 62
REMARK Flexibility Score: inf
ROOT
ATOM      1  C   UNL A   1      38.444  21.282  25.383  1.00  0.00     0.002 C 
ENDROOT
BRANCH   1   2
ATOM      2  C   UNL A   1      37.134  21.840  24.812  1.00  0.00     0.002 C 
BRANCH   2   3
ATOM      3  C   UNL A   1      36.206  22.621  25.753  1.00  0.00     0.021 C 
BRANCH   3   4
ATOM      4  C   UNL A   1      35.213  21.816  26.581  1.00  0.00     0.116 C 
BRANCH   4   5
ATOM      5  N   UNL A   1      34.119  22.550  27.183  1.00  0.00    -0.353 N 
ATOM      6  C   UNL A   1      32.778  22.358  27.000  1.00  0.00     0.244 C 
ATOM      7  O   UNL A   1      31.965  22.979  27.685  1.00  0.00    -0.270 OA
ATOM      8  H   UNL A   1      34.372  23.275  27.800  1.00  0.00     0.163 HD
BRANCH   6   9
ATOM      9  C   UNL A   1      32.275  21.539  25.867  1.00  0.00     0.075 C 
ATOM     10  C   UNL A   1      32.287  21.792  24.548  1.00  0.00     0.057 C 
BRANCH  10  11
ATOM     11  C   UNL A   1      32.777  22.942  23.863  1.00  0.00     0.175 A 
ATOM     12  C   UNL A   1      34.471  28.816  27.434  1.00  0.00     0.008 C 
ATOM     13  C   UNL A   1      33.090  28.249  27.099  1.00  0.00    -0.009 C 
ATOM     14  C   UNL A   1      32.204  29.335  26.450  1.00  0.00     0.009 C 
ATOM     15  C   UNL A   1      33.203  26.984  26.213  1.00  0.00     0.041 C 
ATOM     16  C   UNL A   1      32.685  29.767  25.052  1.00  0.00     0.047 C 
ATOM     17  C   UNL A   1      33.395  27.315  24.762  1.00  0.00    -0.020 A 
ATOM     18  C   UNL A   1      33.198  28.595  24.266  1.00  0.00     0.011 A 
ATOM     19  C   UNL A   1      33.511  26.410  23.671  1.00  0.00     0.060 A 
ATOM     20  S   UNL A   1      33.525  28.716  22.589  1.00  0.00    -0.120 S 
ATOM     21  C   UNL A   1      33.509  27.009  22.417  1.00  0.00     0.129 A 
ATOM     22  C   UNL A   1      33.352  24.942  23.624  1.00  0.00     0.168 A 
ATOM     23  N   UNL A   1      33.329  26.405  21.193  1.00  0.00    -0.225 NA
ATOM     24  N   UNL A   1      33.096  24.387  22.406  1.00  0.00    -0.201 N 
ATOM     25  N   UNL A   1      33.198  24.048  24.569  1.00  0.00    -0.207 NA
ATOM     26  C   UNL A   1      33.069  25.121  21.219  1.00  0.00     0.227 A 
ATOM     27  N   UNL A   1      32.749  23.093  22.526  1.00  0.00    -0.145 NA
ENDBRANCH  10  11
ENDBRANCH   6   9
ENDBRANCH   4   5
ENDBRANCH   3   4
ENDBRANCH   2   3
ENDBRANCH   1   2
BRANCH   1  28
ATOM     28  C   UNL A   1      39.282  22.193  26.282  1.00  0.00     0.021 C 
BRANCH  28  29
ATOM     29  C   UNL A   1      40.652  21.650  26.611  1.00  0.00     0.116 C 
BRANCH  29  30
ATOM     30  N   UNL A   1      41.795  22.276  25.915  1.00  0.00    -0.352 N 
ATOM     31  C   UNL A   1      42.184  23.621  25.980  1.00  0.00     0.251 C 
ATOM     32  H   UNL A   1      42.341  21.687  25.346  1.00  0.00     0.163 HD
ATOM     33  O   UNL A   1      42.950  24.113  25.155  1.00  0.00    -0.269 OA
BRANCH  31  34
ATOM     34  C   UNL A   1      41.628  24.435  27.085  1.00  0.00     0.039 A 
ATOM     35  C   UNL A   1      42.322  24.746  28.253  1.00  0.00     0.014 A 
ATOM     36  C   UNL A   1      40.500  25.144  26.743  1.00  0.00     0.014 A 
ATOM     37  C   UNL A   1      41.972  25.924  28.922  1.00  0.00     0.010 A 
ATOM     38  C   UNL A   1      40.498  26.455  27.119  1.00  0.00     0.010 A 
ATOM     39  C   UNL A   1      41.122  26.847  28.280  1.00  0.00    -0.014 A 
BRANCH  39  40
ATOM     40  C   UNL A   1      40.928  28.237  28.707  1.00  0.00     0.031 A 
ATOM     41  C   UNL A   1      41.990  29.157  28.248  1.00  0.00     0.074 A 
ATOM     42  C   UNL A   1      39.870  28.724  29.405  1.00  0.00     0.049 A 
ATOM     43  N   UNL A   1      43.098  29.373  28.868  1.00  0.00    -0.248 NA
ATOM     44  C   UNL A   1      41.949  29.709  26.890  1.00  0.00     0.031 C 
ATOM     45  C   UNL A   1      38.598  28.082  29.785  1.00  0.00     0.029 A 
ATOM     46  N   UNL A   1      39.724  29.971  29.943  1.00  0.00    -0.354 N 
ATOM     47  C   UNL A   1      43.781  30.310  28.113  1.00  0.00     0.074 A 
ATOM     48  C   UNL A   1      43.148  30.299  26.819  1.00  0.00     0.031 C 
ATOM     49  C   UNL A   1      37.751  28.982  30.329  1.00  0.00     0.029 A 
ATOM     50  C   UNL A   1      38.487  30.209  30.539  1.00  0.00     0.049 A 
ATOM     51  H   UNL A   1      40.437  30.649  29.914  1.00  0.00     0.167 HD
ATOM     52  C   UNL A   1      44.624  31.185  28.727  1.00  0.00     0.037 A 
ATOM     53  C   UNL A   1      38.123  31.258  31.316  1.00  0.00     0.037 A 
ATOM     54  C   UNL A   1      44.862  30.782  30.100  1.00  0.00     0.049 A 
ATOM     55  C   UNL A   1      39.376  31.787  31.900  1.00  0.00     0.074 A 
ATOM     56  C   UNL A   1      45.423  29.678  30.713  1.00  0.00     0.029 A 
ATOM     57  N   UNL A   1      44.084  31.395  31.056  1.00  0.00    -0.354 N 
ATOM     58  N   UNL A   1      40.096  31.139  32.774  1.00  0.00    -0.248 NA
ATOM     59  C   UNL A   1      40.060  32.858  31.197  1.00  0.00     0.031 C 
ATOM     60  C   UNL A   1      44.628  29.447  31.878  1.00  0.00     0.029 A 
ATOM     61  C   UNL A   1      43.665  30.454  31.963  1.00  0.00     0.049 A 
ATOM     62  H   UNL A   1      43.864  32.353  31.084  1.00  0.00     0.167 HD
ATOM     63  C   UNL A   1      41.408  31.419  32.427  1.00  0.00     0.074 A 
ATOM     64  C   UNL A   1      41.320  32.570  31.531  1.00  0.00     0.031 C 
ATOM     65  C   UNL A   1      42.410  30.529  32.689  1.00  0.00     0.037 A 
BRANCH  52  66
ATOM     66  C   UNL A   1      44.887  32.598  28.262  1.00  0.00     0.058 A 
ATOM     67  C   UNL A   1      46.205  32.961  27.914  1.00  0.00     0.135 A 
ATOM     68  C   UNL A   1      43.980  33.669  28.413  1.00  0.00     0.135 A 
ATOM     69  F   UNL A   1      47.151  32.025  27.738  1.00  0.00    -0.206 F 
ATOM     70  C   UNL A   1      46.611  34.292  27.815  1.00  0.00     0.059 A 
ATOM     71  C   UNL A   1      44.351  34.999  28.268  1.00  0.00     0.059 A 
ATOM     72  F   UNL A   1      42.714  33.492  28.804  1.00  0.00    -0.206 F 
ATOM     73  C   UNL A   1      45.677  35.304  28.013  1.00  0.00     0.060 A 
BRANCH  73  74
ATOM     74  S   UNL A   1      46.218  37.019  27.997  1.00  0.00     0.124 S 
ATOM     75  O   UNL A   1      46.072  37.356  26.585  1.00  0.00    -0.237 OA
ATOM     76  O   UNL A   1      45.264  37.643  28.908  1.00  0.00    -0.237 OA
ATOM     77  O   UNL A   1      47.590  36.943  28.490  1.00  0.00    -0.744 OA
ENDBRANCH  73  74
ENDBRANCH  52  66
BRANCH  53  78
ATOM     78  C   UNL A   1      36.857  32.035  31.296  1.00  0.00     0.058 A 
ATOM     79  C   UNL A   1      36.094  32.183  32.469  1.00  0.00     0.135 A 
ATOM     80  C   UNL A   1      36.545  32.904  30.233  1.00  0.00     0.135 A 
ATOM     81  F   UNL A   1      36.321  31.389  33.527  1.00  0.00    -0.206 F 
ATOM     82  C   UNL A   1      35.147  33.199  32.619  1.00  0.00     0.059 A 
ATOM     83  C   UNL A   1      35.599  33.924  30.359  1.00  0.00     0.059 A 
ATOM     84  F   UNL A   1      37.221  32.847  29.077  1.00  0.00    -0.206 F 
ATOM     85  C   UNL A   1      34.931  34.088  31.568  1.00  0.00     0.060 A 
BRANCH  85  86
ATOM     86  S   UNL A   1      33.867  35.526  31.838  1.00  0.00     0.124 S 
ATOM     87  O   UNL A   1      33.678  36.022  30.478  1.00  0.00    -0.237 OA
ATOM     88  O   UNL A   1      32.696  34.927  32.468  1.00  0.00    -0.237 OA
ATOM     89  O   UNL A   1      34.669  36.383  32.708  1.00  0.00    -0.744 OA
ENDBRANCH  85  86
ENDBRANCH  53  78
BRANCH  65  90
ATOM     90  C   UNL A   1      42.131  29.437  33.697  1.00  0.00     0.058 A 
ATOM     91  C   UNL A   1      41.761  28.117  33.382  1.00  0.00     0.135 A 
ATOM     92  C   UNL A   1      42.367  29.725  35.049  1.00  0.00     0.135 A 
ATOM     93  F   UNL A   1      41.590  27.732  32.109  1.00  0.00    -0.206 F 
ATOM     94  C   UNL A   1      41.607  27.139  34.370  1.00  0.00     0.059 A 
ATOM     95  C   UNL A   1      42.250  28.761  36.047  1.00  0.00     0.059 A 
ATOM     96  F   UNL A   1      42.766  30.956  35.415  1.00  0.00    -0.206 F 
ATOM     97  C   UNL A   1      41.859  27.471  35.702  1.00  0.00     0.060 A 
BRANCH  97  98
ATOM     98  S   UNL A   1      41.734  26.190  36.970  1.00  0.00     0.124 S 
ATOM     99  O   UNL A   1      40.477  26.527  37.628  1.00  0.00    -0.237 OA
ATOM    100  O   UNL A   1      41.725  24.962  36.181  1.00  0.00    -0.237 OA
ATOM    101  O   UNL A   1      42.934  26.390  37.780  1.00  0.00    -0.744 OA
ENDBRANCH  97  98
ENDBRANCH  65  90
ENDBRANCH  39  40
ENDBRANCH  31  34
ENDBRANCH  29  30
ENDBRANCH  28  29
ENDBRANCH   1  28
TORSDOF 17
ENDMDL
MODEL 2
REMARK VINA RESULT:     -12.9      2.996      9.637
REMARK SMILES C[C@H]1CCc2sc3ncn4nc(/C=C\C(=O)NCCCCCCNC(=O)c5ccc(-c6c7nc(c(-c8c(F)cc(S(=O)(=O)[O-])cc8F)c8ccc([nH]8)c(-c8c(F)cc(S(=O)(=O)[O-])cc8F)c8nc(c(-c9c(F)cc(S(=O)(=O)[O-])cc9F)c9ccc6[nH]9)C=C8)C=C7)cc5)nc4c3c2C1
REMARK SMILES IDX 21 1 20 2 19 3 18 4 17 5 15 6 16 7 14 9 13 10 12 11 1 12
REMARK SMILES IDX 2 13 3 14 97 15 4 16 96 17 5 18 95 19 6 20 7 21 94 22 8 23
REMARK SMILES IDX 10 24 93 25 9 26 11 27 22 28 23 29 24 30 25 31 26 33 27 34
REMARK SMILES IDX 28 35 92 36 29 37 91 38 30 39 31 40 32 41 85 42 33 43 90 44
REMARK SMILES IDX 84 45 86 46 34 47 89 48 83 49 82 50 35 52 69 53 48 54 68 55
REMARK SMILES IDX 49 56 52 57 67 58 87 59 50 60 51 61 66 63 88 64 53 65 36 66
REMARK SMILES IDX 37 67 46 68 38 69 39 70 45 71 47 72 40 73 41 74 42 75 43 76
REMARK SMILES IDX 44 77 70 78 71 79 80 80 72 81 73 82 79 83 81 84 74 85 75 86
REMARK SMILES IDX 76 87 77 88 78 89 54 90 55 91 64 92 56 93 57 94 63 95 65 96
REMARK SMILES IDX 58 97 59 98 60 99 61 100 62 101
REMARK H PARENT 17 8 24 32 86 51 52 62
REMARK Flexibility Score: inf
ROOT
ATOM      1  C   UNL A   1      31.911  30.218  26.449  1.00  0.00     0.002 C 
ENDROOT
BRANCH   1   2
ATOM      2  C   UNL A   1      32.000  29.675  25.017  1.00  0.00     0.002 C 
BRANCH   2   3
ATOM      3  C   UNL A   1      33.299  28.979  24.584  1.00  0.00     0.021 C 
BRANCH   3   4
ATOM      4  C   UNL A   1      33.636  28.988  23.099  1.00  0.00     0.116 C 
BRANCH   4   5
ATOM      5  N   UNL A   1      33.880  27.704  22.477  1.00  0.00    -0.353 N 
ATOM      6  C   UNL A   1      32.978  26.886  21.855  1.00  0.00     0.244 C 
ATOM      7  O   UNL A   1      33.363  25.881  21.257  1.00  0.00    -0.270 OA
ATOM      8  H   UNL A   1      34.810  27.380  22.504  1.00  0.00     0.163 HD
BRANCH   6   9
ATOM      9  C   UNL A   1      31.517  27.093  22.033  1.00  0.00     0.075 C 
ATOM     10  C   UNL A   1      30.706  26.695  23.026  1.00  0.00     0.057 C 
BRANCH  10  11
ATOM     11  C   UNL A   1      31.022  25.939  24.192  1.00  0.00     0.175 A 
ATOM     12  C   UNL A   1      37.675  23.862  25.442  1.00  0.00     0.008 C 
ATOM     13  C   UNL A   1      36.666  23.325  24.425  1.00  0.00    -0.009 C 
ATOM     14  C   UNL A   1      36.549  21.789  24.540  1.00  0.00     0.009 C 
ATOM     15  C   UNL A   1      35.292  24.025  24.573  1.00  0.00     0.041 C 
ATOM     16  C   UNL A   1      35.908  21.318  25.860  1.00  0.00     0.047 C 
ATOM     17  C   UNL A   1      34.463  23.434  25.676  1.00  0.00    -0.020 A 
ATOM     18  C   UNL A   1      34.787  22.226  26.275  1.00  0.00     0.011 A 
ATOM     19  C   UNL A   1      33.150  23.809  26.073  1.00  0.00     0.060 A 
ATOM     20  S   UNL A   1      33.706  21.797  27.533  1.00  0.00    -0.120 S 
ATOM     21  C   UNL A   1      32.566  22.969  27.014  1.00  0.00     0.129 A 
ATOM     22  C   UNL A   1      32.201  24.761  25.463  1.00  0.00     0.168 A 
ATOM     23  N   UNL A   1      31.241  22.903  27.380  1.00  0.00    -0.225 NA
ATOM     24  N   UNL A   1      30.884  24.615  25.787  1.00  0.00    -0.201 N 
ATOM     25  N   UNL A   1      32.331  25.620  24.483  1.00  0.00    -0.207 NA
ATOM     26  C   UNL A   1      30.422  23.684  26.718  1.00  0.00     0.227 A 
ATOM     27  N   UNL A   1      30.104  25.381  25.003  1.00  0.00    -0.145 NA
ENDBRANCH  10  11
ENDBRANCH   6   9
ENDBRANCH   4   5
ENDBRANCH   3   4
ENDBRANCH   2   3
ENDBRANCH   1   2
BRANCH   1  28
ATOM     28  C   UNL A   1      33.096  29.976  27.385  1.00  0.00     0.021 C 
BRANCH  28  29
ATOM     29  C   UNL A   1      34.044  31.145  27.502  1.00  0.00     0.116 C 
BRANCH  29  30
ATOM     30  N   UNL A   1      34.034  31.877  28.785  1.00  0.00    -0.352 N 
ATOM     31  C   UNL A   1      35.103  32.017  29.681  1.00  0.00     0.251 C 
ATOM     32  H   UNL A   1      33.188  32.313  29.037  1.00  0.00     0.163 HD
ATOM     33  O   UNL A   1      34.930  32.380  30.842  1.00  0.00    -0.269 OA
BRANCH  31  34
ATOM     34  C   UNL A   1      36.458  31.699  29.175  1.00  0.00     0.039 A 
ATOM     35  C   UNL A   1      37.631  32.260  29.677  1.00  0.00     0.014 A 
ATOM     36  C   UNL A   1      36.511  30.564  28.399  1.00  0.00     0.014 A 
ATOM     37  C   UNL A   1      38.809  31.514  29.559  1.00  0.00     0.010 A 
ATOM     38  C   UNL A   1      37.518  29.695  28.705  1.00  0.00     0.010 A 
ATOM     39  C   UNL A   1      38.725  30.163  29.167  1.00  0.00    -0.014 A 
BRANCH  39  40
ATOM     40  C   UNL A   1      39.811  29.187  29.305  1.00  0.00     0.031 A 
ATOM     41  C   UNL A   1      40.136  28.850  30.708  1.00  0.00     0.074 A 
ATOM     42  C   UNL A   1      40.463  28.559  28.294  1.00  0.00     0.049 A 
ATOM     43  N   UNL A   1      40.954  29.508  31.454  1.00  0.00    -0.248 NA
ATOM     44  C   UNL A   1      39.333  27.860  31.432  1.00  0.00     0.031 C 
ATOM     45  C   UNL A   1      40.192  28.546  26.844  1.00  0.00     0.029 A 
ATOM     46  N   UNL A   1      41.569  27.761  28.377  1.00  0.00    -0.354 N 
ATOM     47  C   UNL A   1      40.982  28.844  32.667  1.00  0.00     0.074 A 
ATOM     48  C   UNL A   1      39.814  28.001  32.673  1.00  0.00     0.031 C 
ATOM     49  C   UNL A   1      40.987  27.652  26.217  1.00  0.00     0.029 A 
ATOM     50  C   UNL A   1      41.968  27.188  27.172  1.00  0.00     0.049 A 
ATOM     51  H   UNL A   1      42.047  27.603  29.223  1.00  0.00     0.167 HD
ATOM     52  C   UNL A   1      42.116  28.866  33.421  1.00  0.00     0.037 A 
ATOM     53  C   UNL A   1      43.120  26.525  26.904  1.00  0.00     0.037 A 
ATOM     54  C   UNL A   1      43.048  29.851  32.907  1.00  0.00     0.049 A 
ATOM     55  C   UNL A   1      44.108  27.006  27.894  1.00  0.00     0.074 A 
ATOM     56  C   UNL A   1      43.030  31.221  32.740  1.00  0.00     0.029 A 
ATOM     57  N   UNL A   1      44.029  29.377  32.067  1.00  0.00    -0.354 N 
ATOM     58  N   UNL A   1      44.583  28.220  27.910  1.00  0.00    -0.248 NA
ATOM     59  C   UNL A   1      44.252  26.262  29.134  1.00  0.00     0.031 C 
ATOM     60  C   UNL A   1      43.708  31.462  31.507  1.00  0.00     0.029 A 
ATOM     61  C   UNL A   1      44.169  30.241  31.010  1.00  0.00     0.049 A 
ATOM     62  H   UNL A   1      44.547  28.551  32.202  1.00  0.00     0.167 HD
ATOM     63  C   UNL A   1      44.687  28.542  29.254  1.00  0.00     0.074 A 
ATOM     64  C   UNL A   1      44.584  27.263  29.952  1.00  0.00     0.031 C 
ATOM     65  C   UNL A   1      44.580  29.835  29.678  1.00  0.00     0.037 A 
BRANCH  52  66
ATOM     66  C   UNL A   1      42.569  27.744  34.326  1.00  0.00     0.058 A 
ATOM     67  C   UNL A   1      42.605  27.969  35.717  1.00  0.00     0.135 A 
ATOM     68  C   UNL A   1      43.231  26.579  33.880  1.00  0.00     0.135 A 
ATOM     69  F   UNL A   1      42.003  29.042  36.254  1.00  0.00    -0.206 F 
ATOM     70  C   UNL A   1      43.322  27.149  36.588  1.00  0.00     0.059 A 
ATOM     71  C   UNL A   1      43.908  25.721  34.737  1.00  0.00     0.059 A 
ATOM     72  F   UNL A   1      43.343  26.263  32.586  1.00  0.00    -0.206 F 
ATOM     73  C   UNL A   1      43.986  26.036  36.082  1.00  0.00     0.060 A 
BRANCH  73  74
ATOM     74  S   UNL A   1      45.003  25.040  37.182  1.00  0.00     0.124 S 
ATOM     75  O   UNL A   1      46.270  25.762  37.137  1.00  0.00    -0.237 OA
ATOM     76  O   UNL A   1      44.261  25.124  38.435  1.00  0.00    -0.237 OA
ATOM     77  O   UNL A   1      45.001  23.728  36.544  1.00  0.00    -0.744 OA
ENDBRANCH  73  74
ENDBRANCH  52  66
BRANCH  53  78
ATOM     78  C   UNL A   1      43.313  25.280  26.117  1.00  0.00     0.058 A 
ATOM     79  C   UNL A   1      44.447  25.124  25.298  1.00  0.00     0.135 A 
ATOM     80  C   UNL A   1      42.580  24.110  26.399  1.00  0.00     0.135 A 
ATOM     81  F   UNL A   1      45.197  26.188  24.974  1.00  0.00    -0.206 F 
ATOM     82  C   UNL A   1      44.889  23.870  24.867  1.00  0.00     0.059 A 
ATOM     83  C   UNL A   1      43.000  22.848  25.975  1.00  0.00     0.059 A 
ATOM     84  F   UNL A   1      41.489  24.154  27.177  1.00  0.00    -0.206 F 
ATOM     85  C   UNL A   1      44.177  22.732  25.241  1.00  0.00     0.060 A 
BRANCH  85  86
ATOM     86  S   UNL A   1      44.865  21.101  24.866  1.00  0.00     0.124 S 
ATOM     87  O   UNL A   1      44.646  21.005  23.426  1.00  0.00    -0.237 OA
ATOM     88  O   UNL A   1      46.252  21.248  25.292  1.00  0.00    -0.237 OA
ATOM     89  O   UNL A   1      44.057  20.198  25.681  1.00  0.00    -0.744 OA
ENDBRANCH  85  86
ENDBRANCH  53  78
BRANCH  65  90
ATOM     90  C   UNL A   1      44.743  30.927  28.645  1.00  0.00     0.058 A 
ATOM     91  C   UNL A   1      45.957  31.295  28.037  1.00  0.00     0.135 A 
ATOM     92  C   UNL A   1      43.579  31.549  28.168  1.00  0.00     0.135 A 
ATOM     93  F   UNL A   1      47.109  30.697  28.375  1.00  0.00    -0.206 F 
ATOM     94  C   UNL A   1      46.011  32.257  27.022  1.00  0.00     0.059 A 
ATOM     95  C   UNL A   1      43.606  32.487  27.139  1.00  0.00     0.059 A 
ATOM     96  F   UNL A   1      42.381  31.212  28.675  1.00  0.00    -0.206 F 
ATOM     97  C   UNL A   1      44.827  32.844  26.576  1.00  0.00     0.060 A 
BRANCH  97  98
ATOM     98  S   UNL A   1      44.888  34.030  25.215  1.00  0.00     0.124 S 
ATOM     99  O   UNL A   1      44.506  33.209  24.071  1.00  0.00    -0.237 OA
ATOM    100  O   UNL A   1      43.912  35.035  25.626  1.00  0.00    -0.237 OA
ATOM    101  O   UNL A   1      46.276  34.486  25.218  1.00  0.00    -0.744 OA
ENDBRANCH  97  98
ENDBRANCH  65  90
ENDBRANCH  39  40
ENDBRANCH  31  34
ENDBRANCH  29  30
ENDBRANCH  28  29
ENDBRANCH   1  28
TORSDOF 17
ENDMDL
MODEL 3
REMARK VINA RESULT:     -12.8      2.854      3.873
REMARK SMILES C[C@H]1CCc2sc3ncn4nc(/C=C\C(=O)NCCCCCCNC(=O)c5ccc(-c6c7nc(c(-c8c(F)cc(S(=O)(=O)[O-])cc8F)c8ccc([nH]8)c(-c8c(F)cc(S(=O)(=O)[O-])cc8F)c8nc(c(-c9c(F)cc(S(=O)(=O)[O-])cc9F)c9ccc6[nH]9)C=C8)C=C7)cc5)nc4c3c2C1
REMARK SMILES IDX 21 1 20 2 19 3 18 4 17 5 15 6 16 7 14 9 13 10 12 11 1 12
REMARK SMILES IDX 2 13 3 14 97 15 4 16 96 17 5 18 95 19 6 20 7 21 94 22 8 23
REMARK SMILES IDX 10 24 93 25 9 26 11 27 22 28 23 29 24 30 25 31 26 33 27 34
REMARK SMILES IDX 28 35 92 36 29 37 91 38 30 39 31 40 32 41 85 42 33 43 90 44
REMARK SMILES IDX 84 45 86 46 34 47 89 48 83 49 82 50 35 52 69 53 48 54 68 55
REMARK SMILES IDX 49 56 52 57 67 58 87 59 50 60 51 61 66 63 88 64 53 65 36 66
REMARK SMILES IDX 37 67 46 68 38 69 39 70 45 71 47 72 40 73 41 74 42 75 43 76
REMARK SMILES IDX 44 77 70 78 71 79 80 80 72 81 73 82 79 83 81 84 74 85 75 86
REMARK SMILES IDX 76 87 77 88 78 89 54 90 55 91 64 92 56 93 57 94 63 95 65 96
REMARK SMILES IDX 58 97 59 98 60 99 61 100 62 101
REMARK H PARENT 17 8 24 32 86 51 52 62
REMARK Flexibility Score: inf
ROOT
ATOM      1  C   UNL A   1      40.503  21.825  27.625  1.00  0.00     0.002 C 
ENDROOT
BRANCH   1   2
ATOM      2  C   UNL A   1      39.602  21.878  26.384  1.00  0.00     0.002 C 
BRANCH   2   3
ATOM      3  C   UNL A   1      38.722  23.119  26.179  1.00  0.00     0.021 C 
BRANCH   3   4
ATOM      4  C   UNL A   1      37.335  22.903  25.590  1.00  0.00     0.116 C 
BRANCH   4   5
ATOM      5  N   UNL A   1      36.206  23.198  26.448  1.00  0.00    -0.353 N 
ATOM      6  C   UNL A   1      35.023  22.520  26.543  1.00  0.00     0.244 C 
ATOM      7  O   UNL A   1      34.208  22.818  27.416  1.00  0.00    -0.270 OA
ATOM      8  H   UNL A   1      36.304  23.983  27.035  1.00  0.00     0.163 HD
BRANCH   6   9
ATOM      9  C   UNL A   1      34.623  21.541  25.500  1.00  0.00     0.075 C 
ATOM     10  C   UNL A   1      34.184  21.747  24.247  1.00  0.00     0.057 C 
BRANCH  10  11
ATOM     11  C   UNL A   1      33.961  22.980  23.569  1.00  0.00     0.175 A 
ATOM     12  C   UNL A   1      34.490  29.139  27.022  1.00  0.00     0.008 C 
ATOM     13  C   UNL A   1      33.385  28.083  27.086  1.00  0.00    -0.009 C 
ATOM     14  C   UNL A   1      32.002  28.736  26.874  1.00  0.00     0.009 C 
ATOM     15  C   UNL A   1      33.647  26.935  26.080  1.00  0.00     0.041 C 
ATOM     16  C   UNL A   1      31.794  29.287  25.449  1.00  0.00     0.047 C 
ATOM     17  C   UNL A   1      33.206  27.281  24.688  1.00  0.00    -0.020 A 
ATOM     18  C   UNL A   1      32.402  28.379  24.421  1.00  0.00     0.011 A 
ATOM     19  C   UNL A   1      33.271  26.462  23.527  1.00  0.00     0.060 A 
ATOM     20  S   UNL A   1      32.080  28.576  22.750  1.00  0.00    -0.120 S 
ATOM     21  C   UNL A   1      32.631  26.987  22.410  1.00  0.00     0.129 A 
ATOM     22  C   UNL A   1      33.652  25.043  23.375  1.00  0.00     0.168 A 
ATOM     23  N   UNL A   1      32.284  26.332  21.250  1.00  0.00    -0.225 NA
ATOM     24  N   UNL A   1      33.223  24.405  22.250  1.00  0.00    -0.201 N 
ATOM     25  N   UNL A   1      34.160  24.180  24.218  1.00  0.00    -0.207 NA
ATOM     26  C   UNL A   1      32.534  25.046  21.219  1.00  0.00     0.227 A 
ATOM     27  N   UNL A   1      33.434  23.079  22.335  1.00  0.00    -0.145 NA
ENDBRANCH  10  11
ENDBRANCH   6   9
ENDBRANCH   4   5
ENDBRANCH   3   4
ENDBRANCH   2   3
ENDBRANCH   1   2
BRANCH   1  28
ATOM     28  C   UNL A   1      41.922  21.277  27.462  1.00  0.00     0.021 C 
BRANCH  28  29
ATOM     29  C   UNL A   1      42.183  20.621  26.127  1.00  0.00     0.116 C 
BRANCH  29  30
ATOM     30  N   UNL A   1      43.417  19.816  26.018  1.00  0.00    -0.352 N 
ATOM     31  C   UNL A   1      44.648  20.230  25.490  1.00  0.00     0.251 C 
ATOM     32  H   UNL A   1      43.370  18.891  26.353  1.00  0.00     0.163 HD
ATOM     33  O   UNL A   1      45.517  19.424  25.169  1.00  0.00    -0.269 OA
BRANCH  31  34
ATOM     34  C   UNL A   1      44.858  21.686  25.324  1.00  0.00     0.039 A 
ATOM     35  C   UNL A   1      44.150  22.480  24.424  1.00  0.00     0.014 A 
ATOM     36  C   UNL A   1      45.568  22.268  26.349  1.00  0.00     0.014 A 
ATOM     37  C   UNL A   1      44.001  23.837  24.735  1.00  0.00     0.010 A 
ATOM     38  C   UNL A   1      45.034  23.421  26.847  1.00  0.00     0.010 A 
ATOM     39  C   UNL A   1      44.355  24.286  26.023  1.00  0.00    -0.014 A 
BRANCH  39  40
ATOM     40  C   UNL A   1      43.966  25.582  26.589  1.00  0.00     0.031 A 
ATOM     41  C   UNL A   1      44.914  26.675  26.284  1.00  0.00     0.074 A 
ATOM     42  C   UNL A   1      42.831  25.849  27.284  1.00  0.00     0.049 A 
ATOM     43  N   UNL A   1      45.963  26.957  26.977  1.00  0.00    -0.248 NA
ATOM     44  C   UNL A   1      44.847  27.370  24.995  1.00  0.00     0.031 C 
ATOM     45  C   UNL A   1      41.642  25.013  27.531  1.00  0.00     0.029 A 
ATOM     46  N   UNL A   1      42.506  26.997  27.949  1.00  0.00    -0.354 N 
ATOM     47  C   UNL A   1      46.543  28.053  26.363  1.00  0.00     0.074 A 
ATOM     48  C   UNL A   1      45.960  28.110  25.046  1.00  0.00     0.031 C 
ATOM     49  C   UNL A   1      40.667  25.731  28.129  1.00  0.00     0.029 A 
ATOM     50  C   UNL A   1      41.229  27.008  28.506  1.00  0.00     0.049 A 
ATOM     51  H   UNL A   1      43.125  27.759  28.027  1.00  0.00     0.167 HD
ATOM     52  C   UNL A   1      47.243  28.950  27.109  1.00  0.00     0.037 A 
ATOM     53  C   UNL A   1      40.705  27.907  29.376  1.00  0.00     0.037 A 
ATOM     54  C   UNL A   1      47.485  28.426  28.439  1.00  0.00     0.049 A 
ATOM     55  C   UNL A   1      41.858  28.519  30.073  1.00  0.00     0.074 A 
ATOM     56  C   UNL A   1      48.165  27.339  28.954  1.00  0.00     0.029 A 
ATOM     57  N   UNL A   1      46.603  28.822  29.418  1.00  0.00    -0.354 N 
ATOM     58  N   UNL A   1      42.627  27.871  30.904  1.00  0.00    -0.248 NA
ATOM     59  C   UNL A   1      42.420  29.741  29.524  1.00  0.00     0.031 C 
ATOM     60  C   UNL A   1      47.369  26.878  30.047  1.00  0.00     0.029 A 
ATOM     61  C   UNL A   1      46.280  27.739  30.195  1.00  0.00     0.049 A 
ATOM     62  H   UNL A   1      46.259  29.736  29.540  1.00  0.00     0.167 HD
ATOM     63  C   UNL A   1      43.902  28.352  30.653  1.00  0.00     0.074 A 
ATOM     64  C   UNL A   1      43.694  29.577  29.885  1.00  0.00     0.031 C 
ATOM     65  C   UNL A   1      45.002  27.571  30.864  1.00  0.00     0.037 A 
BRANCH  52  66
ATOM     66  C   UNL A   1      47.335  30.429  26.813  1.00  0.00     0.058 A 
ATOM     67  C   UNL A   1      48.597  31.056  26.880  1.00  0.00     0.135 A 
ATOM     68  C   UNL A   1      46.225  31.300  26.753  1.00  0.00     0.135 A 
ATOM     69  F   UNL A   1      49.723  30.326  26.934  1.00  0.00    -0.206 F 
ATOM     70  C   UNL A   1      48.740  32.440  26.972  1.00  0.00     0.059 A 
ATOM     71  C   UNL A   1      46.348  32.683  26.791  1.00  0.00     0.059 A 
ATOM     72  F   UNL A   1      44.963  30.862  26.753  1.00  0.00    -0.206 F 
ATOM     73  C   UNL A   1      47.604  33.243  26.945  1.00  0.00     0.060 A 
BRANCH  73  74
ATOM     74  S   UNL A   1      47.775  35.019  27.176  1.00  0.00     0.124 S 
ATOM     75  O   UNL A   1      47.887  35.481  25.797  1.00  0.00    -0.237 OA
ATOM     76  O   UNL A   1      46.533  35.352  27.865  1.00  0.00    -0.237 OA
ATOM     77  O   UNL A   1      48.985  35.138  27.983  1.00  0.00    -0.744 OA
ENDBRANCH  73  74
ENDBRANCH  52  66
BRANCH  53  78
ATOM     78  C   UNL A   1      39.350  28.515  29.380  1.00  0.00     0.058 A 
ATOM     79  C   UNL A   1      38.580  28.529  30.557  1.00  0.00     0.135 A 
ATOM     80  C   UNL A   1      38.924  29.369  28.344  1.00  0.00     0.135 A 
ATOM     81  F   UNL A   1      38.911  27.739  31.590  1.00  0.00    -0.206 F 
ATOM     82  C   UNL A   1      37.510  29.409  30.739  1.00  0.00     0.059 A 
ATOM     83  C   UNL A   1      37.856  30.254  28.501  1.00  0.00     0.059 A 
ATOM     84  F   UNL A   1      39.597  29.433  27.186  1.00  0.00    -0.206 F 
ATOM     85  C   UNL A   1      37.178  30.295  29.716  1.00  0.00     0.060 A 
BRANCH  85  86
ATOM     86  S   UNL A   1      35.939  31.576  30.029  1.00  0.00     0.124 S 
ATOM     87  O   UNL A   1      35.614  31.345  31.433  1.00  0.00    -0.237 OA
ATOM     88  O   UNL A   1      36.681  32.798  29.739  1.00  0.00    -0.237 OA
ATOM     89  O   UNL A   1      34.875  31.256  29.082  1.00  0.00    -0.744 OA
ENDBRANCH  85  86
ENDBRANCH  53  78
BRANCH  65  90
ATOM     90  C   UNL A   1      44.835  26.345  31.732  1.00  0.00     0.058 A 
ATOM     91  C   UNL A   1      44.556  25.049  31.261  1.00  0.00     0.135 A 
ATOM     92  C   UNL A   1      45.087  26.481  33.106  1.00  0.00     0.135 A 
ATOM     93  F   UNL A   1      44.378  24.812  29.953  1.00  0.00    -0.206 F 
ATOM     94  C   UNL A   1      44.504  23.947  32.122  1.00  0.00     0.059 A 
ATOM     95  C   UNL A   1      45.070  25.394  33.976  1.00  0.00     0.059 A 
ATOM     96  F   UNL A   1      45.402  27.684  33.615  1.00  0.00    -0.206 F 
ATOM     97  C   UNL A   1      44.768  24.130  33.479  1.00  0.00     0.060 A 
BRANCH  97  98
ATOM     98  S   UNL A   1      44.775  22.696  34.579  1.00  0.00     0.124 S 
ATOM     99  O   UNL A   1      45.118  23.294  35.865  1.00  0.00    -0.237 OA
ATOM    100  O   UNL A   1      43.410  22.196  34.457  1.00  0.00    -0.237 OA
ATOM    101  O   UNL A   1      45.801  21.828  34.003  1.00  0.00    -0.744 OA
ENDBRANCH  97  98
ENDBRANCH  65  90
ENDBRANCH  39  40
ENDBRANCH  31  34
ENDBRANCH  29  30
ENDBRANCH  28  29
ENDBRANCH   1  28
TORSDOF 17
ENDMDL
