MODEL 1
REMARK VINA RESULT:     -10.8      0.000      0.000
REMARK SMILES CCC(CC)([NH2+]CC(=O)Nc1ccc(C)cc1)C(=O)NCCCCCCNC(=O)c1ccc(-c2c3nc(c(-c4c(F)cc(S(=O)(=O)[O-])cc4F)c4ccc([nH]4)c(-c4c(F)cc(S(=O)(=O)[O-])cc4F)c4nc(c(-c5c(F)cc(S(=O)(=O)[O-])cc5F)c5ccc2[nH]5)C=C4)C=C3)cc1
REMARK SMILES IDX 23 1 22 2 21 3 20 4 18 5 19 6 3 8 2 9 1 10 4 11 5 12 6 13
REMARK SMILES IDX 7 16 8 17 9 18 10 19 11 21 12 22 17 23 13 24 16 25 14 26
REMARK SMILES IDX 15 27 24 28 25 29 26 30 27 31 28 32 29 34 30 35 31 36 95 37
REMARK SMILES IDX 32 38 94 39 33 40 34 41 35 42 88 43 36 44 93 45 87 46 89 47
REMARK SMILES IDX 37 48 92 49 86 50 85 51 38 53 72 54 51 55 71 56 52 57 55 58
REMARK SMILES IDX 70 59 90 60 53 61 54 62 69 64 91 65 56 66 39 67 40 68 49 69
REMARK SMILES IDX 41 70 42 71 48 72 50 73 43 74 44 75 45 76 46 77 47 78 73 79
REMARK SMILES IDX 74 80 83 81 75 82 76 83 82 84 84 85 77 86 78 87 79 88 80 89
REMARK SMILES IDX 81 90 57 91 58 92 67 93 59 94 60 95 66 96 68 97 61 98 62 99
REMARK SMILES IDX 63 100 64 101 65 102
REMARK H PARENT 20 7 6 14 6 15 10 20 27 33 89 52 55 63
REMARK Flexibility Score: inf
ROOT
ATOM      1  C   UNL A   1      35.150  22.249  26.348  1.00  0.00     0.002 C 
ENDROOT
BRANCH   1   2
ATOM      2  C   UNL A   1      34.584  21.552  27.603  1.00  0.00     0.021 C 
BRANCH   2   3
ATOM      3  C   UNL A   1      33.069  21.702  27.845  1.00  0.00     0.116 C 
BRANCH   3   4
ATOM      4  N   UNL A   1      32.554  23.051  27.500  1.00  0.00    -0.351 N 
ATOM      5  C   UNL A   1      31.445  23.293  26.682  1.00  0.00     0.281 C 
ATOM      6  O   UNL A   1      30.332  23.187  27.208  1.00  0.00    -0.268 OA
ATOM      7  H   UNL A   1      33.025  23.830  27.874  1.00  0.00     0.163 HD
BRANCH   5   8
ATOM      8  C   UNL A   1      31.646  24.065  25.235  1.00  0.00     0.175 C 
BRANCH   8   9
ATOM      9  C   UNL A   1      30.551  25.202  25.317  1.00  0.00     0.076 C 
ATOM     10  C   UNL A   1      30.011  25.665  23.937  1.00  0.00     0.011 C 
ENDBRANCH   8   9
BRANCH   8  11
ATOM     11  C   UNL A   1      31.415  23.424  23.810  1.00  0.00     0.076 C 
ATOM     12  C   UNL A   1      32.656  23.253  22.911  1.00  0.00     0.011 C 
ENDBRANCH   8  11
BRANCH   8  13
ATOM     13  N   UNL A   1      33.029  24.570  25.207  1.00  0.00    -0.326 N 
ATOM     14  H   UNL A   1      33.379  24.445  24.258  1.00  0.00     0.347 HD
ATOM     15  H   UNL A   1      33.511  24.035  25.930  1.00  0.00     0.347 HD
BRANCH  13  16
ATOM     16  C   UNL A   1      33.258  25.990  25.580  1.00  0.00     0.363 C 
BRANCH  16  17
ATOM     17  C   UNL A   1      33.243  27.163  24.557  1.00  0.00     0.279 C 
ATOM     18  O   UNL A   1      33.383  26.879  23.355  1.00  0.00    -0.268 OA
ATOM     19  N   UNL A   1      32.802  28.450  24.813  1.00  0.00    -0.321 N 
ATOM     20  H   UNL A   1      32.133  28.732  24.148  1.00  0.00     0.170 HD
BRANCH  19  21
ATOM     21  C   UNL A   1      33.043  29.481  25.764  1.00  0.00     0.041 A 
ATOM     22  C   UNL A   1      32.126  30.433  26.172  1.00  0.00     0.026 A 
ATOM     23  C   UNL A   1      34.258  29.496  26.454  1.00  0.00     0.026 A 
ATOM     24  C   UNL A   1      32.429  31.478  27.056  1.00  0.00     0.005 A 
ATOM     25  C   UNL A   1      34.580  30.531  27.364  1.00  0.00     0.005 A 
ATOM     26  C   UNL A   1      33.684  31.570  27.624  1.00  0.00    -0.051 A 
ATOM     27  C   UNL A   1      33.998  32.730  28.520  1.00  0.00     0.044 C 
ENDBRANCH  19  21
ENDBRANCH  16  17
ENDBRANCH  13  16
ENDBRANCH   8  13
ENDBRANCH   5   8
ENDBRANCH   3   4
ENDBRANCH   2   3
ENDBRANCH   1   2
BRANCH   1  28
ATOM     28  C   UNL A   1      35.642  21.389  25.172  1.00  0.00     0.002 C 
BRANCH  28  29
ATOM     29  C   UNL A   1      37.150  21.155  25.067  1.00  0.00     0.021 C 
BRANCH  29  30
ATOM     30  C   UNL A   1      38.022  22.338  25.492  1.00  0.00     0.116 C 
BRANCH  30  31
ATOM     31  N   UNL A   1      39.300  21.958  26.089  1.00  0.00    -0.352 N 
ATOM     32  C   UNL A   1      40.310  22.801  26.551  1.00  0.00     0.251 C 
ATOM     33  H   UNL A   1      39.468  20.992  26.174  1.00  0.00     0.163 HD
ATOM     34  O   UNL A   1      41.420  22.413  26.820  1.00  0.00    -0.269 OA
BRANCH  32  35
ATOM     35  C   UNL A   1      39.913  24.203  26.819  1.00  0.00     0.039 A 
ATOM     36  C   UNL A   1      40.564  25.195  26.075  1.00  0.00     0.014 A 
ATOM     37  C   UNL A   1      39.195  24.512  27.969  1.00  0.00     0.014 A 
ATOM     38  C   UNL A   1      40.683  26.475  26.606  1.00  0.00     0.010 A 
ATOM     39  C   UNL A   1      39.378  25.760  28.531  1.00  0.00     0.010 A 
ATOM     40  C   UNL A   1      40.177  26.714  27.880  1.00  0.00    -0.014 A 
BRANCH  40  41
ATOM     41  C   UNL A   1      40.498  27.898  28.667  1.00  0.00     0.031 A 
ATOM     42  C   UNL A   1      39.564  29.042  28.681  1.00  0.00     0.074 A 
ATOM     43  C   UNL A   1      41.580  27.885  29.478  1.00  0.00     0.049 A 
ATOM     44  N   UNL A   1      39.822  30.186  29.217  1.00  0.00    -0.248 NA
ATOM     45  C   UNL A   1      38.270  29.013  27.999  1.00  0.00     0.031 C 
ATOM     46  C   UNL A   1      41.836  28.753  30.625  1.00  0.00     0.029 A 
ATOM     47  N   UNL A   1      42.787  27.209  29.280  1.00  0.00    -0.354 N 
ATOM     48  C   UNL A   1      38.658  30.917  29.223  1.00  0.00     0.074 A 
ATOM     49  C   UNL A   1      37.776  30.210  28.334  1.00  0.00     0.031 C 
ATOM     50  C   UNL A   1      43.150  28.751  30.891  1.00  0.00     0.029 A 
ATOM     51  C   UNL A   1      43.803  28.024  29.818  1.00  0.00     0.049 A 
ATOM     52  H   UNL A   1      42.904  26.332  28.849  1.00  0.00     0.167 HD
ATOM     53  C   UNL A   1      38.546  31.952  30.102  1.00  0.00     0.037 A 
ATOM     54  C   UNL A   1      44.782  28.552  29.024  1.00  0.00     0.037 A 
ATOM     55  C   UNL A   1      39.870  32.337  30.602  1.00  0.00     0.049 A 
ATOM     56  C   UNL A   1      44.806  30.065  28.998  1.00  0.00     0.074 A 
ATOM     57  C   UNL A   1      40.531  32.153  31.803  1.00  0.00     0.029 A 
ATOM     58  N   UNL A   1      40.825  32.787  29.692  1.00  0.00    -0.354 N 
ATOM     59  N   UNL A   1      43.811  30.822  29.375  1.00  0.00    -0.248 NA
ATOM     60  C   UNL A   1      45.956  30.846  28.548  1.00  0.00     0.031 C 
ATOM     61  C   UNL A   1      41.916  32.385  31.575  1.00  0.00     0.029 A 
ATOM     62  C   UNL A   1      42.087  32.761  30.252  1.00  0.00     0.049 A 
ATOM     63  H   UNL A   1      40.628  33.084  28.774  1.00  0.00     0.167 HD
ATOM     64  C   UNL A   1      44.141  32.142  29.203  1.00  0.00     0.074 A 
ATOM     65  C   UNL A   1      45.506  32.103  28.712  1.00  0.00     0.031 C 
ATOM     66  C   UNL A   1      43.258  33.152  29.472  1.00  0.00     0.037 A 
BRANCH  53  67
ATOM     67  C   UNL A   1      37.237  32.478  30.676  1.00  0.00     0.058 A 
ATOM     68  C   UNL A   1      36.875  33.834  30.498  1.00  0.00     0.135 A 
ATOM     69  C   UNL A   1      36.369  31.761  31.532  1.00  0.00     0.135 A 
ATOM     70  F   UNL A   1      37.604  34.650  29.723  1.00  0.00    -0.206 F 
ATOM     71  C   UNL A   1      35.774  34.426  31.135  1.00  0.00     0.059 A 
ATOM     72  C   UNL A   1      35.244  32.318  32.143  1.00  0.00     0.059 A 
ATOM     73  F   UNL A   1      36.587  30.490  31.884  1.00  0.00    -0.206 F 
ATOM     74  C   UNL A   1      34.966  33.660  31.964  1.00  0.00     0.060 A 
BRANCH  74  75
ATOM     75  S   UNL A   1      33.580  34.420  32.830  1.00  0.00     0.124 S 
ATOM     76  O   UNL A   1      32.933  33.260  33.436  1.00  0.00    -0.237 OA
ATOM     77  O   UNL A   1      34.248  35.331  33.751  1.00  0.00    -0.237 OA
ATOM     78  O   UNL A   1      32.824  35.065  31.760  1.00  0.00    -0.744 OA
ENDBRANCH  74  75
ENDBRANCH  53  67
BRANCH  54  79
ATOM     79  C   UNL A   1      45.176  27.650  27.907  1.00  0.00     0.058 A 
ATOM     80  C   UNL A   1      44.671  27.953  26.627  1.00  0.00     0.135 A 
ATOM     81  C   UNL A   1      46.335  26.865  27.979  1.00  0.00     0.135 A 
ATOM     82  F   UNL A   1      43.552  28.685  26.502  1.00  0.00    -0.206 F 
ATOM     83  C   UNL A   1      45.383  27.651  25.471  1.00  0.00     0.059 A 
ATOM     84  C   UNL A   1      47.060  26.540  26.829  1.00  0.00     0.059 A 
ATOM     85  F   UNL A   1      46.856  26.537  29.170  1.00  0.00    -0.206 F 
ATOM     86  C   UNL A   1      46.613  27.007  25.592  1.00  0.00     0.060 A 
BRANCH  86  87
ATOM     87  S   UNL A   1      47.689  26.979  24.137  1.00  0.00     0.124 S 
ATOM     88  O   UNL A   1      46.905  27.733  23.165  1.00  0.00    -0.237 OA
ATOM     89  O   UNL A   1      48.884  27.652  24.641  1.00  0.00    -0.237 OA
ATOM     90  O   UNL A   1      47.838  25.555  23.859  1.00  0.00    -0.744 OA
ENDBRANCH  86  87
ENDBRANCH  54  79
BRANCH  66  91
ATOM     91  C   UNL A   1      43.437  34.614  29.103  1.00  0.00     0.058 A 
ATOM     92  C   UNL A   1      43.673  35.646  30.029  1.00  0.00     0.135 A 
ATOM     93  C   UNL A   1      43.511  35.002  27.741  1.00  0.00     0.135 A 
ATOM     94  F   UNL A   1      43.762  35.400  31.344  1.00  0.00    -0.206 F 
ATOM     95  C   UNL A   1      43.883  36.973  29.643  1.00  0.00     0.059 A 
ATOM     96  C   UNL A   1      43.779  36.307  27.333  1.00  0.00     0.059 A 
ATOM     97  F   UNL A   1      43.339  34.115  26.750  1.00  0.00    -0.206 F 
ATOM     98  C   UNL A   1      43.933  37.296  28.292  1.00  0.00     0.060 A 
BRANCH  98  99
ATOM     99  S   UNL A   1      44.266  38.993  27.782  1.00  0.00     0.124 S 
ATOM    100  O   UNL A   1      45.723  38.987  27.689  1.00  0.00    -0.237 OA
ATOM    101  O   UNL A   1      43.556  39.098  26.511  1.00  0.00    -0.237 OA
ATOM    102  O   UNL A   1      43.705  39.785  28.871  1.00  0.00    -0.744 OA
ENDBRANCH  98  99
ENDBRANCH  66  91
ENDBRANCH  40  41
ENDBRANCH  32  35
ENDBRANCH  30  31
ENDBRANCH  29  30
ENDBRANCH  28  29
ENDBRANCH   1  28
TORSDOF 22
ENDMDL
MODEL 2
REMARK VINA RESULT:     -10.6      1.862      4.317
REMARK SMILES CCC(CC)([NH2+]CC(=O)Nc1ccc(C)cc1)C(=O)NCCCCCCNC(=O)c1ccc(-c2c3nc(c(-c4c(F)cc(S(=O)(=O)[O-])cc4F)c4ccc([nH]4)c(-c4c(F)cc(S(=O)(=O)[O-])cc4F)c4nc(c(-c5c(F)cc(S(=O)(=O)[O-])cc5F)c5ccc2[nH]5)C=C4)C=C3)cc1
REMARK SMILES IDX 23 1 22 2 21 3 20 4 18 5 19 6 3 8 2 9 1 10 4 11 5 12 6 13
REMARK SMILES IDX 7 16 8 17 9 18 10 19 11 21 12 22 17 23 13 24 16 25 14 26
REMARK SMILES IDX 15 27 24 28 25 29 26 30 27 31 28 32 29 34 30 35 31 36 95 37
REMARK SMILES IDX 32 38 94 39 33 40 34 41 35 42 88 43 36 44 93 45 87 46 89 47
REMARK SMILES IDX 37 48 92 49 86 50 85 51 38 53 72 54 51 55 71 56 52 57 55 58
REMARK SMILES IDX 70 59 90 60 53 61 54 62 69 64 91 65 56 66 39 67 40 68 49 69
REMARK SMILES IDX 41 70 42 71 48 72 50 73 43 74 44 75 45 76 46 77 47 78 73 79
REMARK SMILES IDX 74 80 83 81 75 82 76 83 82 84 84 85 77 86 78 87 79 88 80 89
REMARK SMILES IDX 81 90 57 91 58 92 67 93 59 94 60 95 66 96 68 97 61 98 62 99
REMARK SMILES IDX 63 100 64 101 65 102
REMARK H PARENT 20 7 6 14 6 15 10 20 27 33 89 52 55 63
REMARK Flexibility Score: inf
ROOT
ATOM      1  C   UNL A   1      36.999  23.700  25.193  1.00  0.00     0.002 C 
ENDROOT
BRANCH   1   2
ATOM      2  C   UNL A   1      35.569  23.944  25.720  1.00  0.00     0.021 C 
BRANCH   2   3
ATOM      3  C   UNL A   1      34.881  25.243  25.257  1.00  0.00     0.116 C 
BRANCH   3   4
ATOM      4  N   UNL A   1      33.965  25.040  24.105  1.00  0.00    -0.351 N 
ATOM      5  C   UNL A   1      32.650  25.515  24.042  1.00  0.00     0.281 C 
ATOM      6  O   UNL A   1      32.502  26.702  23.735  1.00  0.00    -0.268 OA
ATOM      7  H   UNL A   1      34.308  24.537  23.332  1.00  0.00     0.163 HD
BRANCH   5   8
ATOM      8  C   UNL A   1      31.394  24.443  23.982  1.00  0.00     0.175 C 
BRANCH   8   9
ATOM      9  C   UNL A   1      30.173  25.390  23.651  1.00  0.00     0.076 C 
ATOM     10  C   UNL A   1      29.443  25.948  24.903  1.00  0.00     0.011 C 
ENDBRANCH   8   9
BRANCH   8  11
ATOM     11  C   UNL A   1      30.873  23.567  25.189  1.00  0.00     0.076 C 
ATOM     12  C   UNL A   1      31.697  23.610  26.491  1.00  0.00     0.011 C 
ENDBRANCH   8  11
BRANCH   8  13
ATOM     13  N   UNL A   1      31.706  23.476  22.917  1.00  0.00    -0.326 N 
ATOM     14  H   UNL A   1      32.478  23.861  22.373  1.00  0.00     0.347 HD
ATOM     15  H   UNL A   1      30.827  23.358  22.412  1.00  0.00     0.347 HD
BRANCH  13  16
ATOM     16  C   UNL A   1      32.091  22.099  23.320  1.00  0.00     0.363 C 
BRANCH  16  17
ATOM     17  C   UNL A   1      33.563  21.649  23.555  1.00  0.00     0.279 C 
ATOM     18  O   UNL A   1      34.465  22.409  23.164  1.00  0.00    -0.268 OA
ATOM     19  N   UNL A   1      33.970  20.637  24.406  1.00  0.00    -0.321 N 
ATOM     20  H   UNL A   1      34.663  20.956  25.028  1.00  0.00     0.170 HD
BRANCH  19  21
ATOM     21  C   UNL A   1      33.672  19.264  24.635  1.00  0.00     0.041 A 
ATOM     22  C   UNL A   1      32.459  18.764  25.072  1.00  0.00     0.026 A 
ATOM     23  C   UNL A   1      34.621  18.298  24.291  1.00  0.00     0.026 A 
ATOM     24  C   UNL A   1      32.231  17.411  25.358  1.00  0.00     0.005 A 
ATOM     25  C   UNL A   1      34.408  16.923  24.555  1.00  0.00     0.005 A 
ATOM     26  C   UNL A   1      33.227  16.477  25.153  1.00  0.00    -0.051 A 
ATOM     27  C   UNL A   1      32.976  15.046  25.522  1.00  0.00     0.044 C 
ENDBRANCH  19  21
ENDBRANCH  16  17
ENDBRANCH  13  16
ENDBRANCH   8  13
ENDBRANCH   5   8
ENDBRANCH   3   4
ENDBRANCH   2   3
ENDBRANCH   1   2
BRANCH   1  28
ATOM     28  C   UNL A   1      38.074  23.175  26.160  1.00  0.00     0.002 C 
BRANCH  28  29
ATOM     29  C   UNL A   1      38.807  21.897  25.753  1.00  0.00     0.021 C 
BRANCH  29  30
ATOM     30  C   UNL A   1      39.962  21.491  26.670  1.00  0.00     0.116 C 
BRANCH  30  31
ATOM     31  N   UNL A   1      41.287  21.799  26.140  1.00  0.00    -0.352 N 
ATOM     32  C   UNL A   1      41.865  23.056  25.964  1.00  0.00     0.251 C 
ATOM     33  H   UNL A   1      41.837  21.028  25.874  1.00  0.00     0.163 HD
ATOM     34  O   UNL A   1      42.866  23.236  25.315  1.00  0.00    -0.269 OA
BRANCH  32  35
ATOM     35  C   UNL A   1      41.250  24.165  26.729  1.00  0.00     0.039 A 
ATOM     36  C   UNL A   1      40.899  25.312  26.005  1.00  0.00     0.014 A 
ATOM     37  C   UNL A   1      41.338  24.183  28.117  1.00  0.00     0.014 A 
ATOM     38  C   UNL A   1      40.852  26.539  26.656  1.00  0.00     0.010 A 
ATOM     39  C   UNL A   1      41.367  25.411  28.748  1.00  0.00     0.010 A 
ATOM     40  C   UNL A   1      41.191  26.589  28.004  1.00  0.00    -0.014 A 
BRANCH  40  41
ATOM     41  C   UNL A   1      41.478  27.825  28.720  1.00  0.00     0.031 A 
ATOM     42  C   UNL A   1      40.450  28.884  28.790  1.00  0.00     0.074 A 
ATOM     43  C   UNL A   1      42.627  27.937  29.422  1.00  0.00     0.049 A 
ATOM     44  N   UNL A   1      40.654  30.065  29.264  1.00  0.00    -0.248 NA
ATOM     45  C   UNL A   1      39.105  28.717  28.239  1.00  0.00     0.031 C 
ATOM     46  C   UNL A   1      42.912  28.867  30.512  1.00  0.00     0.029 A 
ATOM     47  N   UNL A   1      43.866  27.360  29.128  1.00  0.00    -0.354 N 
ATOM     48  C   UNL A   1      39.435  30.693  29.362  1.00  0.00     0.074 A 
ATOM     49  C   UNL A   1      38.540  29.879  28.584  1.00  0.00     0.031 C 
ATOM     50  C   UNL A   1      44.240  28.989  30.649  1.00  0.00     0.029 A 
ATOM     51  C   UNL A   1      44.851  28.280  29.539  1.00  0.00     0.049 A 
ATOM     52  H   UNL A   1      44.021  26.481  28.713  1.00  0.00     0.167 HD
ATOM     53  C   UNL A   1      39.315  31.747  30.216  1.00  0.00     0.037 A 
ATOM     54  C   UNL A   1      45.700  28.860  28.638  1.00  0.00     0.037 A 
ATOM     55  C   UNL A   1      40.639  32.265  30.573  1.00  0.00     0.049 A 
ATOM     56  C   UNL A   1      45.586  30.367  28.564  1.00  0.00     0.074 A 
ATOM     57  C   UNL A   1      41.424  32.184  31.709  1.00  0.00     0.029 A 
ATOM     58  N   UNL A   1      41.460  32.761  29.561  1.00  0.00    -0.354 N 
ATOM     59  N   UNL A   1      44.567  31.049  29.014  1.00  0.00    -0.248 NA
ATOM     60  C   UNL A   1      46.613  31.227  27.982  1.00  0.00     0.031 C 
ATOM     61  C   UNL A   1      42.756  32.526  31.340  1.00  0.00     0.029 A 
ATOM     62  C   UNL A   1      42.767  32.864  29.996  1.00  0.00     0.049 A 
ATOM     63  H   UNL A   1      41.151  33.003  28.658  1.00  0.00     0.167 HD
ATOM     64  C   UNL A   1      44.760  32.385  28.771  1.00  0.00     0.074 A 
ATOM     65  C   UNL A   1      46.070  32.446  28.151  1.00  0.00     0.031 C 
ATOM     66  C   UNL A   1      43.819  33.325  29.095  1.00  0.00     0.037 A 
BRANCH  53  67
ATOM     67  C   UNL A   1      38.023  32.181  30.899  1.00  0.00     0.058 A 
ATOM     68  C   UNL A   1      37.143  33.081  30.254  1.00  0.00     0.135 A 
ATOM     69  C   UNL A   1      37.658  31.879  32.232  1.00  0.00     0.135 A 
ATOM     70  F   UNL A   1      37.357  33.473  28.989  1.00  0.00    -0.206 F 
ATOM     71  C   UNL A   1      36.027  33.649  30.885  1.00  0.00     0.059 A 
ATOM     72  C   UNL A   1      36.529  32.401  32.866  1.00  0.00     0.059 A 
ATOM     73  F   UNL A   1      38.406  31.111  33.030  1.00  0.00    -0.206 F 
ATOM     74  C   UNL A   1      35.731  33.308  32.197  1.00  0.00     0.060 A 
BRANCH  74  75
ATOM     75  S   UNL A   1      34.331  34.072  33.036  1.00  0.00     0.124 S 
ATOM     76  O   UNL A   1      34.936  34.511  34.290  1.00  0.00    -0.237 OA
ATOM     77  O   UNL A   1      33.948  35.130  32.108  1.00  0.00    -0.237 OA
ATOM     78  O   UNL A   1      33.371  32.979  33.159  1.00  0.00    -0.744 OA
ENDBRANCH  74  75
ENDBRANCH  53  67
BRANCH  54  79
ATOM     79  C   UNL A   1      46.066  27.953  27.516  1.00  0.00     0.058 A 
ATOM     80  C   UNL A   1      45.387  28.134  26.295  1.00  0.00     0.135 A 
ATOM     81  C   UNL A   1      47.309  27.306  27.478  1.00  0.00     0.135 A 
ATOM     82  F   UNL A   1      44.183  28.730  26.278  1.00  0.00    -0.206 F 
ATOM     83  C   UNL A   1      45.992  27.856  25.074  1.00  0.00     0.059 A 
ATOM     84  C   UNL A   1      47.931  27.007  26.262  1.00  0.00     0.059 A 
ATOM     85  F   UNL A   1      47.997  27.098  28.610  1.00  0.00    -0.206 F 
ATOM     86  C   UNL A   1      47.294  27.360  25.071  1.00  0.00     0.060 A 
BRANCH  86  87
ATOM     87  S   UNL A   1      48.193  27.380  23.500  1.00  0.00     0.124 S 
ATOM     88  O   UNL A   1      47.304  28.164  22.651  1.00  0.00    -0.237 OA
ATOM     89  O   UNL A   1      49.441  28.037  23.883  1.00  0.00    -0.237 OA
ATOM     90  O   UNL A   1      48.305  25.965  23.161  1.00  0.00    -0.744 OA
ENDBRANCH  86  87
ENDBRANCH  54  79
BRANCH  66  91
ATOM     91  C   UNL A   1      43.831  34.782  28.666  1.00  0.00     0.058 A 
ATOM     92  C   UNL A   1      43.572  35.229  27.358  1.00  0.00     0.135 A 
ATOM     93  C   UNL A   1      43.978  35.808  29.633  1.00  0.00     0.135 A 
ATOM     94  F   UNL A   1      43.284  34.372  26.369  1.00  0.00    -0.206 F 
ATOM     95  C   UNL A   1      43.543  36.585  27.016  1.00  0.00     0.059 A 
ATOM     96  C   UNL A   1      43.892  37.165  29.325  1.00  0.00     0.059 A 
ATOM     97  F   UNL A   1      44.195  35.527  30.926  1.00  0.00    -0.206 F 
ATOM     98  C   UNL A   1      43.706  37.547  28.005  1.00  0.00     0.060 A 
BRANCH  98  99
ATOM     99  S   UNL A   1      43.607  39.297  27.585  1.00  0.00     0.124 S 
ATOM    100  O   UNL A   1      44.956  39.555  27.092  1.00  0.00    -0.237 OA
ATOM    101  O   UNL A   1      42.552  39.331  26.577  1.00  0.00    -0.237 OA
ATOM    102  O   UNL A   1      43.267  39.926  28.857  1.00  0.00    -0.744 OA
ENDBRANCH  98  99
ENDBRANCH  66  91
ENDBRANCH  40  41
ENDBRANCH  32  35
ENDBRANCH  30  31
ENDBRANCH  29  30
ENDBRANCH  28  29
ENDBRANCH   1  28
TORSDOF 22
ENDMDL
MODEL 3
REMARK VINA RESULT:     -10.1      4.221      8.705
REMARK SMILES CCC(CC)([NH2+]CC(=O)Nc1ccc(C)cc1)C(=O)NCCCCCCNC(=O)c1ccc(-c2c3nc(c(-c4c(F)cc(S(=O)(=O)[O-])cc4F)c4ccc([nH]4)c(-c4c(F)cc(S(=O)(=O)[O-])cc4F)c4nc(c(-c5c(F)cc(S(=O)(=O)[O-])cc5F)c5ccc2[nH]5)C=C4)C=C3)cc1
REMARK SMILES IDX 23 1 22 2 21 3 20 4 18 5 19 6 3 8 2 9 1 10 4 11 5 12 6 13
REMARK SMILES IDX 7 16 8 17 9 18 10 19 11 21 12 22 17 23 13 24 16 25 14 26
REMARK SMILES IDX 15 27 24 28 25 29 26 30 27 31 28 32 29 34 30 35 31 36 95 37
REMARK SMILES IDX 32 38 94 39 33 40 34 41 35 42 88 43 36 44 93 45 87 46 89 47
REMARK SMILES IDX 37 48 92 49 86 50 85 51 38 53 72 54 51 55 71 56 52 57 55 58
REMARK SMILES IDX 70 59 90 60 53 61 54 62 69 64 91 65 56 66 39 67 40 68 49 69
REMARK SMILES IDX 41 70 42 71 48 72 50 73 43 74 44 75 45 76 46 77 47 78 73 79
REMARK SMILES IDX 74 80 83 81 75 82 76 83 82 84 84 85 77 86 78 87 79 88 80 89
REMARK SMILES IDX 81 90 57 91 58 92 67 93 59 94 60 95 66 96 68 97 61 98 62 99
REMARK SMILES IDX 63 100 64 101 65 102
REMARK H PARENT 20 7 6 14 6 15 10 20 27 33 89 52 55 63
REMARK Flexibility Score: inf
ROOT
ATOM      1  C   UNL A   1      39.032  23.937  26.498  1.00  0.00     0.002 C 
ENDROOT
BRANCH   1   2
ATOM      2  C   UNL A   1      37.562  24.133  26.069  1.00  0.00     0.021 C 
BRANCH   2   3
ATOM      3  C   UNL A   1      36.729  22.852  25.875  1.00  0.00     0.116 C 
BRANCH   3   4
ATOM      4  N   UNL A   1      35.284  23.046  26.160  1.00  0.00    -0.351 N 
ATOM      5  C   UNL A   1      34.346  22.012  26.249  1.00  0.00     0.281 C 
ATOM      6  O   UNL A   1      34.301  21.392  27.317  1.00  0.00    -0.268 OA
ATOM      7  H   UNL A   1      34.965  23.967  26.296  1.00  0.00     0.163 HD
BRANCH   5   8
ATOM      8  C   UNL A   1      33.120  21.919  25.144  1.00  0.00     0.175 C 
BRANCH   8   9
ATOM      9  C   UNL A   1      32.119  23.020  25.674  1.00  0.00     0.076 C 
ATOM     10  C   UNL A   1      30.700  22.483  26.004  1.00  0.00     0.011 C 
ENDBRANCH   8   9
BRANCH   8  11
ATOM     11  C   UNL A   1      32.198  20.661  24.896  1.00  0.00     0.076 C 
ATOM     12  C   UNL A   1      32.890  19.371  24.413  1.00  0.00     0.011 C 
ENDBRANCH   8  11
BRANCH   8  13
ATOM     13  N   UNL A   1      33.705  22.228  23.828  1.00  0.00    -0.326 N 
ATOM     14  H   UNL A   1      34.118  21.368  23.469  1.00  0.00     0.347 HD
ATOM     15  H   UNL A   1      34.360  22.989  24.012  1.00  0.00     0.347 HD
BRANCH  13  16
ATOM     16  C   UNL A   1      32.802  22.760  22.775  1.00  0.00     0.363 C 
BRANCH  16  17
ATOM     17  C   UNL A   1      32.960  24.170  22.135  1.00  0.00     0.279 C 
ATOM     18  O   UNL A   1      33.364  24.226  20.961  1.00  0.00    -0.268 OA
ATOM     19  N   UNL A   1      32.425  25.345  22.633  1.00  0.00    -0.321 N 
ATOM     20  H   UNL A   1      31.903  25.815  21.944  1.00  0.00     0.170 HD
BRANCH  19  21
ATOM     21  C   UNL A   1      32.418  26.067  23.860  1.00  0.00     0.041 A 
ATOM     22  C   UNL A   1      31.298  26.583  24.486  1.00  0.00     0.026 A 
ATOM     23  C   UNL A   1      33.608  26.186  24.583  1.00  0.00     0.026 A 
ATOM     24  C   UNL A   1      31.345  27.354  25.656  1.00  0.00     0.005 A 
ATOM     25  C   UNL A   1      33.677  26.945  25.776  1.00  0.00     0.005 A 
ATOM     26  C   UNL A   1      32.549  27.591  26.289  1.00  0.00    -0.051 A 
ATOM     27  C   UNL A   1      32.578  28.466  27.504  1.00  0.00     0.044 C 
ENDBRANCH  19  21
ENDBRANCH  16  17
ENDBRANCH  13  16
ENDBRANCH   8  13
ENDBRANCH   5   8
ENDBRANCH   3   4
ENDBRANCH   2   3
ENDBRANCH   1   2
BRANCH   1  28
ATOM     28  C   UNL A   1      39.435  24.245  27.950  1.00  0.00     0.002 C 
BRANCH  28  29
ATOM     29  C   UNL A   1      40.327  25.466  28.177  1.00  0.00     0.021 C 
BRANCH  29  30
ATOM     30  C   UNL A   1      39.774  26.502  29.158  1.00  0.00     0.116 C 
BRANCH  30  31
ATOM     31  N   UNL A   1      38.582  27.201  28.685  1.00  0.00    -0.352 N 
ATOM     32  C   UNL A   1      38.463  28.548  28.342  1.00  0.00     0.251 C 
ATOM     33  H   UNL A   1      37.767  26.657  28.597  1.00  0.00     0.163 HD
ATOM     34  O   UNL A   1      37.399  29.093  28.179  1.00  0.00    -0.269 OA
BRANCH  32  35
ATOM     35  C   UNL A   1      39.731  29.262  28.064  1.00  0.00     0.039 A 
ATOM     36  C   UNL A   1      40.420  28.891  26.903  1.00  0.00     0.014 A 
ATOM     37  C   UNL A   1      40.347  29.997  29.070  1.00  0.00     0.014 A 
ATOM     38  C   UNL A   1      41.798  29.066  26.845  1.00  0.00     0.010 A 
ATOM     39  C   UNL A   1      41.724  30.102  29.045  1.00  0.00     0.010 A 
ATOM     40  C   UNL A   1      42.450  29.575  27.964  1.00  0.00    -0.014 A 
BRANCH  40  41
ATOM     41  C   UNL A   1      43.894  29.524  28.150  1.00  0.00     0.031 A 
ATOM     42  C   UNL A   1      44.754  30.518  27.477  1.00  0.00     0.074 A 
ATOM     43  C   UNL A   1      44.420  28.652  29.039  1.00  0.00     0.049 A 
ATOM     44  N   UNL A   1      46.042  30.469  27.454  1.00  0.00    -0.248 NA
ATOM     45  C   UNL A   1      44.213  31.622  26.685  1.00  0.00     0.031 C 
ATOM     46  C   UNL A   1      45.733  28.720  29.676  1.00  0.00     0.029 A 
ATOM     47  N   UNL A   1      43.937  27.385  29.380  1.00  0.00    -0.354 N 
ATOM     48  C   UNL A   1      46.496  31.655  26.928  1.00  0.00     0.074 A 
ATOM     49  C   UNL A   1      45.334  32.264  26.338  1.00  0.00     0.031 C 
ATOM     50  C   UNL A   1      46.067  27.502  30.124  1.00  0.00     0.029 A 
ATOM     51  C   UNL A   1      45.062  26.576  29.636  1.00  0.00     0.049 A 
ATOM     52  H   UNL A   1      42.993  27.111  29.432  1.00  0.00     0.167 HD
ATOM     53  C   UNL A   1      47.777  32.034  27.193  1.00  0.00     0.037 A 
ATOM     54  C   UNL A   1      45.342  25.486  28.860  1.00  0.00     0.037 A 
ATOM     55  C   UNL A   1      48.558  30.887  27.666  1.00  0.00     0.049 A 
ATOM     56  C   UNL A   1      46.669  25.566  28.138  1.00  0.00     0.074 A 
ATOM     57  C   UNL A   1      49.034  30.498  28.905  1.00  0.00     0.029 A 
ATOM     58  N   UNL A   1      48.714  29.788  26.822  1.00  0.00    -0.354 N 
ATOM     59  N   UNL A   1      47.337  26.672  27.951  1.00  0.00    -0.248 NA
ATOM     60  C   UNL A   1      47.351  24.405  27.573  1.00  0.00     0.031 C 
ATOM     61  C   UNL A   1      49.369  29.117  28.826  1.00  0.00     0.029 A 
ATOM     62  C   UNL A   1      49.147  28.684  27.529  1.00  0.00     0.049 A 
ATOM     63  H   UNL A   1      48.538  29.797  25.853  1.00  0.00     0.167 HD
ATOM     64  C   UNL A   1      48.481  26.409  27.241  1.00  0.00     0.074 A 
ATOM     65  C   UNL A   1      48.457  24.970  27.056  1.00  0.00     0.031 C 
ATOM     66  C   UNL A   1      49.344  27.401  26.860  1.00  0.00     0.037 A 
BRANCH  53  67
ATOM     67  C   UNL A   1      48.277  33.473  27.232  1.00  0.00     0.058 A 
ATOM     68  C   UNL A   1      47.630  34.430  28.049  1.00  0.00     0.135 A 
ATOM     69  C   UNL A   1      49.276  34.018  26.393  1.00  0.00     0.135 A 
ATOM     70  F   UNL A   1      46.653  34.073  28.895  1.00  0.00    -0.206 F 
ATOM     71  C   UNL A   1      47.927  35.800  28.010  1.00  0.00     0.059 A 
ATOM     72  C   UNL A   1      49.617  35.372  26.368  1.00  0.00     0.059 A 
ATOM     73  F   UNL A   1      49.943  33.288  25.495  1.00  0.00    -0.206 F 
ATOM     74  C   UNL A   1      48.920  36.264  27.159  1.00  0.00     0.060 A 
BRANCH  74  75
ATOM     75  S   UNL A   1      49.275  38.029  27.060  1.00  0.00     0.124 S 
ATOM     76  O   UNL A   1      48.315  38.472  26.054  1.00  0.00    -0.237 OA
ATOM     77  O   UNL A   1      49.020  38.476  28.425  1.00  0.00    -0.237 OA
ATOM     78  O   UNL A   1      50.674  38.071  26.646  1.00  0.00    -0.744 OA
ENDBRANCH  74  75
ENDBRANCH  53  67
BRANCH  54  79
ATOM     79  C   UNL A   1      44.119  24.789  28.373  1.00  0.00     0.058 A 
ATOM     80  C   UNL A   1      43.860  24.838  26.989  1.00  0.00     0.135 A 
ATOM     81  C   UNL A   1      43.531  23.750  29.108  1.00  0.00     0.135 A 
ATOM     82  F   UNL A   1      44.382  25.824  26.243  1.00  0.00    -0.206 F 
ATOM     83  C   UNL A   1      43.203  23.803  26.333  1.00  0.00     0.059 A 
ATOM     84  C   UNL A   1      42.857  22.706  28.469  1.00  0.00     0.059 A 
ATOM     85  F   UNL A   1      43.736  23.658  30.430  1.00  0.00    -0.206 F 
ATOM     86  C   UNL A   1      42.770  22.707  27.076  1.00  0.00     0.060 A 
BRANCH  86  87
ATOM     87  S   UNL A   1      42.284  21.219  26.168  1.00  0.00     0.124 S 
ATOM     88  O   UNL A   1      43.361  21.092  25.193  1.00  0.00    -0.237 OA
ATOM     89  O   UNL A   1      42.272  20.215  27.230  1.00  0.00    -0.237 OA
ATOM     90  O   UNL A   1      40.977  21.573  25.622  1.00  0.00    -0.744 OA
ENDBRANCH  86  87
ENDBRANCH  54  79
BRANCH  66  91
ATOM     91  C   UNL A   1      50.501  27.250  25.889  1.00  0.00     0.058 A 
ATOM     92  C   UNL A   1      50.360  27.155  24.493  1.00  0.00     0.135 A 
ATOM     93  C   UNL A   1      51.838  27.336  26.353  1.00  0.00     0.135 A 
ATOM     94  F   UNL A   1      49.157  27.196  23.905  1.00  0.00    -0.206 F 
ATOM     95  C   UNL A   1      51.457  27.068  23.629  1.00  0.00     0.059 A 
ATOM     96  C   UNL A   1      52.943  27.313  25.505  1.00  0.00     0.059 A 
ATOM     97  F   UNL A   1      52.120  27.464  27.658  1.00  0.00    -0.206 F 
ATOM     98  C   UNL A   1      52.746  27.146  24.143  1.00  0.00     0.060 A 
BRANCH  98  99
ATOM     99  S   UNL A   1      54.164  27.099  23.032  1.00  0.00     0.124 S 
ATOM    100  O   UNL A   1      53.637  26.313  21.920  1.00  0.00    -0.237 OA
ATOM    101  O   UNL A   1      54.401  28.511  22.746  1.00  0.00    -0.237 OA
ATOM    102  O   UNL A   1      55.195  26.450  23.834  1.00  0.00    -0.744 OA
ENDBRANCH  98  99
ENDBRANCH  66  91
ENDBRANCH  40  41
ENDBRANCH  32  35
ENDBRANCH  30  31
ENDBRANCH  29  30
ENDBRANCH  28  29
ENDBRANCH   1  28
TORSDOF 22
ENDMDL
