MODEL 1
REMARK VINA RESULT:     -11.2      0.000      0.000
REMARK SMILES Cc1nc(CCC(=O)NCCCCCCNC(=O)c2ccc(-c3c4nc(c(-c5c(F)cc(S(=O)(=O)[O-])cc5F)c5ccc([nH]5)c(-c5c(F)cc(S(=O)(=O)[O-])cc5F)c5nc(c(-c6c(F)cc(S(=O)(=O)[O-])cc6F)c6ccc3[nH]6)C=C5)C=C4)cc2)cc([C@@H]2CCC[N@@H+]2C(C)C)n1
REMARK SMILES IDX 12 1 11 2 10 3 9 4 7 5 8 6 6 8 5 9 4 10 1 11 2 12 3 13 95 14
REMARK SMILES IDX 86 15 85 16 87 17 88 18 91 19 89 20 90 21 92 23 93 24 94 25
REMARK SMILES IDX 13 26 14 27 15 28 16 29 17 30 18 32 19 33 20 34 84 35 21 36
REMARK SMILES IDX 83 37 22 38 23 39 24 40 77 41 25 42 82 43 76 44 78 45 26 46
REMARK SMILES IDX 81 47 75 48 74 49 27 51 61 52 40 53 60 54 41 55 44 56 59 57
REMARK SMILES IDX 79 58 42 59 43 60 58 62 80 63 45 64 28 65 29 66 38 67 30 68
REMARK SMILES IDX 31 69 37 70 39 71 32 72 33 73 34 74 35 75 36 76 62 77 63 78
REMARK SMILES IDX 72 79 64 80 65 81 71 82 73 83 66 84 67 85 68 86 69 87 70 88
REMARK SMILES IDX 46 89 47 90 56 91 48 92 49 93 55 94 57 95 50 96 51 97 52 98
REMARK SMILES IDX 53 99 54 100
REMARK H PARENT 9 7 91 22 16 31 78 50 44 61
REMARK Flexibility Score: inf
ROOT
ATOM      1  C   UNL A   1      32.942  28.490  26.926  1.00  0.00     0.002 C 
ENDROOT
BRANCH   1   2
ATOM      2  C   UNL A   1      32.079  29.118  25.806  1.00  0.00     0.021 C 
BRANCH   2   3
ATOM      3  C   UNL A   1      32.547  29.221  24.343  1.00  0.00     0.116 C 
BRANCH   3   4
ATOM      4  N   UNL A   1      31.365  29.505  23.514  1.00  0.00    -0.356 N 
ATOM      5  C   UNL A   1      30.767  28.850  22.484  1.00  0.00     0.220 C 
ATOM      6  O   UNL A   1      30.026  29.510  21.746  1.00  0.00    -0.275 OA
ATOM      7  H   UNL A   1      30.913  30.346  23.756  1.00  0.00     0.163 HD
BRANCH   5   8
ATOM      8  C   UNL A   1      30.878  27.351  22.299  1.00  0.00     0.106 C 
BRANCH   8   9
ATOM      9  C   UNL A   1      32.315  26.825  22.267  1.00  0.00     0.066 C 
BRANCH   9  10
ATOM     10  C   UNL A   1      32.448  25.664  23.209  1.00  0.00     0.045 A 
ATOM     11  C   UNL A   1      30.700  24.544  26.203  1.00  0.00     0.089 C 
ATOM     12  C   UNL A   1      31.512  24.580  24.961  1.00  0.00     0.126 A 
ATOM     13  N   UNL A   1      31.593  25.695  24.248  1.00  0.00    -0.238 NA
ATOM     14  N   UNL A   1      32.122  23.446  24.641  1.00  0.00    -0.232 NA
ATOM     15  C   UNL A   1      33.152  23.490  23.788  1.00  0.00     0.102 A 
ATOM     16  C   UNL A   1      33.318  24.599  22.982  1.00  0.00     0.054 A 
BRANCH  15  17
ATOM     17  C   UNL A   1      34.111  22.303  23.840  1.00  0.00     0.234 C 
ATOM     18  C   UNL A   1      33.529  21.051  24.491  1.00  0.00     0.078 C 
ATOM     19  N   UNL A   1      35.451  22.503  24.501  1.00  0.00    -0.325 N 
ATOM     20  C   UNL A   1      34.740  20.231  24.914  1.00  0.00     0.068 C 
ATOM     21  C   UNL A   1      35.949  21.148  24.781  1.00  0.00     0.263 C 
ATOM     22  H   UNL A   1      36.039  23.033  23.859  1.00  0.00     0.348 HD
BRANCH  19  23
ATOM     23  C   UNL A   1      35.521  23.390  25.682  1.00  0.00     0.178 C 
ATOM     24  C   UNL A   1      34.804  22.904  26.949  1.00  0.00     0.075 C 
ATOM     25  C   UNL A   1      36.954  23.804  26.049  1.00  0.00     0.075 C 
ENDBRANCH  19  23
ENDBRANCH  15  17
ENDBRANCH   9  10
ENDBRANCH   8   9
ENDBRANCH   5   8
ENDBRANCH   3   4
ENDBRANCH   2   3
ENDBRANCH   1   2
BRANCH   1  26
ATOM     26  C   UNL A   1      34.247  29.126  27.409  1.00  0.00     0.002 C 
BRANCH  26  27
ATOM     27  C   UNL A   1      34.405  30.654  27.380  1.00  0.00     0.021 C 
BRANCH  27  28
ATOM     28  C   UNL A   1      35.485  31.339  28.240  1.00  0.00     0.116 C 
BRANCH  28  29
ATOM     29  N   UNL A   1      35.331  31.218  29.677  1.00  0.00    -0.352 N 
ATOM     30  C   UNL A   1      36.247  30.803  30.625  1.00  0.00     0.251 C 
ATOM     31  H   UNL A   1      34.445  31.467  30.028  1.00  0.00     0.163 HD
ATOM     32  O   UNL A   1      35.936  30.825  31.811  1.00  0.00    -0.269 OA
BRANCH  30  33
ATOM     33  C   UNL A   1      37.585  30.285  30.234  1.00  0.00     0.039 A 
ATOM     34  C   UNL A   1      37.911  30.250  28.875  1.00  0.00     0.014 A 
ATOM     35  C   UNL A   1      38.498  29.789  31.165  1.00  0.00     0.014 A 
ATOM     36  C   UNL A   1      39.171  29.794  28.461  1.00  0.00     0.010 A 
ATOM     37  C   UNL A   1      39.779  29.384  30.753  1.00  0.00     0.010 A 
ATOM     38  C   UNL A   1      40.142  29.393  29.396  1.00  0.00    -0.014 A 
BRANCH  38  39
ATOM     39  C   UNL A   1      41.521  29.012  28.950  1.00  0.00     0.031 A 
ATOM     40  C   UNL A   1      42.649  30.017  28.939  1.00  0.00     0.074 A 
ATOM     41  C   UNL A   1      41.771  27.750  28.537  1.00  0.00     0.049 A 
ATOM     42  N   UNL A   1      43.905  29.848  28.603  1.00  0.00    -0.248 NA
ATOM     43  C   UNL A   1      42.322  31.394  29.341  1.00  0.00     0.031 C 
ATOM     44  C   UNL A   1      40.776  26.680  28.444  1.00  0.00     0.029 A 
ATOM     45  N   UNL A   1      42.937  27.148  28.121  1.00  0.00    -0.354 N 
ATOM     46  C   UNL A   1      44.516  31.089  28.753  1.00  0.00     0.074 A 
ATOM     47  C   UNL A   1      43.479  32.015  29.154  1.00  0.00     0.031 C 
ATOM     48  C   UNL A   1      41.377  25.549  28.035  1.00  0.00     0.029 A 
ATOM     49  C   UNL A   1      42.793  25.817  27.796  1.00  0.00     0.049 A 
ATOM     50  H   UNL A   1      43.796  27.625  28.059  1.00  0.00     0.167 HD
ATOM     51  C   UNL A   1      45.821  31.425  28.597  1.00  0.00     0.037 A 
ATOM     52  C   UNL A   1      43.688  24.909  27.353  1.00  0.00     0.037 A 
ATOM     53  C   UNL A   1      46.863  30.505  28.215  1.00  0.00     0.049 A 
ATOM     54  C   UNL A   1      45.129  25.312  27.171  1.00  0.00     0.074 A 
ATOM     55  C   UNL A   1      48.221  30.750  28.086  1.00  0.00     0.029 A 
ATOM     56  N   UNL A   1      46.671  29.170  27.894  1.00  0.00    -0.354 N 
ATOM     57  N   UNL A   1      45.695  26.475  27.390  1.00  0.00    -0.248 NA
ATOM     58  C   UNL A   1      46.056  24.278  26.686  1.00  0.00     0.031 C 
ATOM     59  C   UNL A   1      48.841  29.581  27.635  1.00  0.00     0.029 A 
ATOM     60  C   UNL A   1      47.881  28.588  27.541  1.00  0.00     0.049 A 
ATOM     61  H   UNL A   1      45.804  28.703  27.913  1.00  0.00     0.167 HD
ATOM     62  C   UNL A   1      47.045  26.302  27.099  1.00  0.00     0.074 A 
ATOM     63  C   UNL A   1      47.216  24.920  26.705  1.00  0.00     0.031 C 
ATOM     64  C   UNL A   1      48.052  27.209  27.156  1.00  0.00     0.037 A 
BRANCH  51  65
ATOM     65  C   UNL A   1      46.214  32.858  28.851  1.00  0.00     0.058 A 
ATOM     66  C   UNL A   1      46.101  33.841  27.854  1.00  0.00     0.135 A 
ATOM     67  C   UNL A   1      46.645  33.269  30.124  1.00  0.00     0.135 A 
ATOM     68  F   UNL A   1      45.703  33.505  26.616  1.00  0.00    -0.206 F 
ATOM     69  C   UNL A   1      46.423  35.171  28.102  1.00  0.00     0.059 A 
ATOM     70  C   UNL A   1      46.944  34.600  30.403  1.00  0.00     0.059 A 
ATOM     71  F   UNL A   1      46.766  32.374  31.118  1.00  0.00    -0.206 F 
ATOM     72  C   UNL A   1      46.841  35.542  29.381  1.00  0.00     0.060 A 
BRANCH  72  73
ATOM     73  S   UNL A   1      47.240  37.276  29.686  1.00  0.00     0.124 S 
ATOM     74  O   UNL A   1      46.551  37.933  28.579  1.00  0.00    -0.237 OA
ATOM     75  O   UNL A   1      46.665  37.498  31.009  1.00  0.00    -0.237 OA
ATOM     76  O   UNL A   1      48.697  37.308  29.625  1.00  0.00    -0.744 OA
ENDBRANCH  72  73
ENDBRANCH  51  65
BRANCH  52  77
ATOM     77  C   UNL A   1      43.256  23.514  27.052  1.00  0.00     0.058 A 
ATOM     78  C   UNL A   1      42.973  22.601  28.079  1.00  0.00     0.135 A 
ATOM     79  C   UNL A   1      43.137  23.060  25.729  1.00  0.00     0.135 A 
ATOM     80  F   UNL A   1      43.081  22.980  29.363  1.00  0.00    -0.206 F 
ATOM     81  C   UNL A   1      42.614  21.283  27.810  1.00  0.00     0.059 A 
ATOM     82  C   UNL A   1      42.750  21.757  25.432  1.00  0.00     0.059 A 
ATOM     83  F   UNL A   1      43.384  23.894  24.706  1.00  0.00    -0.206 F 
ATOM     84  C   UNL A   1      42.504  20.872  26.480  1.00  0.00     0.060 A 
BRANCH  84  85
ATOM     85  S   UNL A   1      42.006  19.169  26.138  1.00  0.00     0.124 S 
ATOM     86  O   UNL A   1      42.353  18.504  27.388  1.00  0.00    -0.237 OA
ATOM     87  O   UNL A   1      40.581  19.316  25.865  1.00  0.00    -0.237 OA
ATOM     88  O   UNL A   1      42.823  18.809  24.982  1.00  0.00    -0.744 OA
ENDBRANCH  84  85
ENDBRANCH  52  77
BRANCH  64  89
ATOM     89  C   UNL A   1      49.442  26.737  26.818  1.00  0.00     0.058 A 
ATOM     90  C   UNL A   1      50.323  26.259  27.800  1.00  0.00     0.135 A 
ATOM     91  C   UNL A   1      49.881  26.715  25.483  1.00  0.00     0.135 A 
ATOM     92  F   UNL A   1      49.961  26.262  29.093  1.00  0.00    -0.206 F 
ATOM     93  C   UNL A   1      51.597  25.800  27.475  1.00  0.00     0.059 A 
ATOM     94  C   UNL A   1      51.139  26.233  25.133  1.00  0.00     0.059 A 
ATOM     95  F   UNL A   1      49.078  27.152  24.500  1.00  0.00    -0.206 F 
ATOM     96  C   UNL A   1      51.995  25.788  26.138  1.00  0.00     0.060 A 
BRANCH  96  97
ATOM     97  S   UNL A   1      53.637  25.158  25.728  1.00  0.00     0.124 S 
ATOM     98  O   UNL A   1      54.317  25.248  27.017  1.00  0.00    -0.237 OA
ATOM     99  O   UNL A   1      53.344  23.808  25.259  1.00  0.00    -0.237 OA
ATOM    100  O   UNL A   1      54.111  26.083  24.703  1.00  0.00    -0.744 OA
ENDBRANCH  96  97
ENDBRANCH  64  89
ENDBRANCH  38  39
ENDBRANCH  30  33
ENDBRANCH  28  29
ENDBRANCH  27  28
ENDBRANCH  26  27
ENDBRANCH   1  26
TORSDOF 20
ENDMDL
MODEL 2
REMARK VINA RESULT:     -11.1      1.060      8.143
REMARK SMILES Cc1nc(CCC(=O)NCCCCCCNC(=O)c2ccc(-c3c4nc(c(-c5c(F)cc(S(=O)(=O)[O-])cc5F)c5ccc([nH]5)c(-c5c(F)cc(S(=O)(=O)[O-])cc5F)c5nc(c(-c6c(F)cc(S(=O)(=O)[O-])cc6F)c6ccc3[nH]6)C=C5)C=C4)cc2)cc([C@@H]2CCC[N@@H+]2C(C)C)n1
REMARK SMILES IDX 12 1 11 2 10 3 9 4 7 5 8 6 6 8 5 9 4 10 1 11 2 12 3 13 95 14
REMARK SMILES IDX 86 15 85 16 87 17 88 18 91 19 89 20 90 21 92 23 93 24 94 25
REMARK SMILES IDX 13 26 14 27 15 28 16 29 17 30 18 32 19 33 20 34 84 35 21 36
REMARK SMILES IDX 83 37 22 38 23 39 24 40 77 41 25 42 82 43 76 44 78 45 26 46
REMARK SMILES IDX 81 47 75 48 74 49 27 51 61 52 40 53 60 54 41 55 44 56 59 57
REMARK SMILES IDX 79 58 42 59 43 60 58 62 80 63 45 64 28 65 29 66 38 67 30 68
REMARK SMILES IDX 31 69 37 70 39 71 32 72 33 73 34 74 35 75 36 76 62 77 63 78
REMARK SMILES IDX 72 79 64 80 65 81 71 82 73 83 66 84 67 85 68 86 69 87 70 88
REMARK SMILES IDX 46 89 47 90 56 91 48 92 49 93 55 94 57 95 50 96 51 97 52 98
REMARK SMILES IDX 53 99 54 100
REMARK H PARENT 9 7 91 22 16 31 78 50 44 61
REMARK Flexibility Score: inf
ROOT
ATOM      1  C   UNL A   1      31.790  29.935  26.316  1.00  0.00     0.002 C 
ENDROOT
BRANCH   1   2
ATOM      2  C   UNL A   1      31.853  29.696  24.788  1.00  0.00     0.021 C 
BRANCH   2   3
ATOM      3  C   UNL A   1      30.603  29.666  23.891  1.00  0.00     0.116 C 
BRANCH   3   4
ATOM      4  N   UNL A   1      30.841  28.680  22.825  1.00  0.00    -0.356 N 
ATOM      5  C   UNL A   1      30.759  27.324  22.772  1.00  0.00     0.220 C 
ATOM      6  O   UNL A   1      31.378  26.754  21.866  1.00  0.00    -0.275 OA
ATOM      7  H   UNL A   1      31.117  29.087  21.972  1.00  0.00     0.163 HD
BRANCH   5   8
ATOM      8  C   UNL A   1      29.853  26.527  23.687  1.00  0.00     0.106 C 
BRANCH   8   9
ATOM      9  C   UNL A   1      30.344  26.431  25.133  1.00  0.00     0.066 C 
BRANCH   9  10
ATOM     10  C   UNL A   1      30.643  24.999  25.470  1.00  0.00     0.045 A 
ATOM     11  C   UNL A   1      29.248  22.527  27.753  1.00  0.00     0.089 C 
ATOM     12  C   UNL A   1      29.945  23.177  26.615  1.00  0.00     0.126 A 
ATOM     13  N   UNL A   1      29.881  24.492  26.456  1.00  0.00    -0.238 NA
ATOM     14  N   UNL A   1      30.608  22.361  25.806  1.00  0.00    -0.232 NA
ATOM     15  C   UNL A   1      31.556  22.874  25.012  1.00  0.00     0.102 A 
ATOM     16  C   UNL A   1      31.568  24.232  24.763  1.00  0.00     0.054 A 
BRANCH  15  17
ATOM     17  C   UNL A   1      32.601  21.886  24.499  1.00  0.00     0.234 C 
ATOM     18  C   UNL A   1      32.327  20.431  24.868  1.00  0.00     0.078 C 
ATOM     19  N   UNL A   1      34.042  22.122  24.874  1.00  0.00    -0.325 N 
ATOM     20  C   UNL A   1      33.678  19.738  24.751  1.00  0.00     0.068 C 
ATOM     21  C   UNL A   1      34.719  20.842  24.626  1.00  0.00     0.263 C 
ATOM     22  H   UNL A   1      34.391  22.890  24.301  1.00  0.00     0.348 HD
BRANCH  19  23
ATOM     23  C   UNL A   1      34.334  22.670  26.216  1.00  0.00     0.178 C 
ATOM     24  C   UNL A   1      34.404  21.660  27.369  1.00  0.00     0.075 C 
ATOM     25  C   UNL A   1      35.588  23.556  26.253  1.00  0.00     0.075 C 
ENDBRANCH  19  23
ENDBRANCH  15  17
ENDBRANCH   9  10
ENDBRANCH   8   9
ENDBRANCH   5   8
ENDBRANCH   3   4
ENDBRANCH   2   3
ENDBRANCH   1   2
BRANCH   1  26
ATOM     26  C   UNL A   1      32.589  29.091  27.311  1.00  0.00     0.002 C 
BRANCH  26  27
ATOM     27  C   UNL A   1      33.988  28.582  26.926  1.00  0.00     0.021 C 
BRANCH  27  28
ATOM     28  C   UNL A   1      35.245  29.319  27.426  1.00  0.00     0.116 C 
BRANCH  28  29
ATOM     29  N   UNL A   1      35.194  29.825  28.784  1.00  0.00    -0.352 N 
ATOM     30  C   UNL A   1      36.230  30.150  29.639  1.00  0.00     0.251 C 
ATOM     31  H   UNL A   1      34.289  29.956  29.150  1.00  0.00     0.163 HD
ATOM     32  O   UNL A   1      35.975  30.621  30.741  1.00  0.00    -0.269 OA
BRANCH  30  33
ATOM     33  C   UNL A   1      37.648  29.895  29.268  1.00  0.00     0.039 A 
ATOM     34  C   UNL A   1      38.580  29.714  30.295  1.00  0.00     0.014 A 
ATOM     35  C   UNL A   1      38.085  29.882  27.944  1.00  0.00     0.014 A 
ATOM     36  C   UNL A   1      39.922  29.445  29.993  1.00  0.00     0.010 A 
ATOM     37  C   UNL A   1      39.419  29.558  27.642  1.00  0.00     0.010 A 
ATOM     38  C   UNL A   1      40.357  29.321  28.662  1.00  0.00    -0.014 A 
BRANCH  38  39
ATOM     39  C   UNL A   1      41.769  28.926  28.353  1.00  0.00     0.031 A 
ATOM     40  C   UNL A   1      42.126  27.503  27.992  1.00  0.00     0.074 A 
ATOM     41  C   UNL A   1      42.754  29.850  28.404  1.00  0.00     0.049 A 
ATOM     42  N   UNL A   1      43.294  26.997  27.676  1.00  0.00    -0.248 NA
ATOM     43  C   UNL A   1      41.035  26.516  28.004  1.00  0.00     0.031 C 
ATOM     44  C   UNL A   1      42.576  31.252  28.783  1.00  0.00     0.029 A 
ATOM     45  N   UNL A   1      44.101  29.754  28.133  1.00  0.00    -0.354 N 
ATOM     46  C   UNL A   1      43.079  25.641  27.451  1.00  0.00     0.074 A 
ATOM     47  C   UNL A   1      41.680  25.391  27.724  1.00  0.00     0.031 C 
ATOM     48  C   UNL A   1      43.755  31.891  28.688  1.00  0.00     0.029 A 
ATOM     49  C   UNL A   1      44.785  30.940  28.280  1.00  0.00     0.049 A 
ATOM     50  H   UNL A   1      44.535  28.914  27.861  1.00  0.00     0.167 HD
ATOM     51  C   UNL A   1      43.955  24.694  27.033  1.00  0.00     0.037 A 
ATOM     52  C   UNL A   1      46.091  31.238  28.112  1.00  0.00     0.037 A 
ATOM     53  C   UNL A   1      45.347  24.936  26.742  1.00  0.00     0.049 A 
ATOM     54  C   UNL A   1      47.048  30.164  27.664  1.00  0.00     0.074 A 
ATOM     55  C   UNL A   1      46.292  24.045  26.262  1.00  0.00     0.029 A 
ATOM     56  N   UNL A   1      45.997  26.150  26.907  1.00  0.00    -0.354 N 
ATOM     57  N   UNL A   1      46.805  28.905  27.388  1.00  0.00    -0.248 NA
ATOM     58  C   UNL A   1      48.457  30.551  27.499  1.00  0.00     0.031 C 
ATOM     59  C   UNL A   1      47.524  24.703  26.189  1.00  0.00     0.029 A 
ATOM     60  C   UNL A   1      47.335  26.022  26.565  1.00  0.00     0.049 A 
ATOM     61  H   UNL A   1      45.571  26.981  27.221  1.00  0.00     0.167 HD
ATOM     62  C   UNL A   1      48.023  28.360  26.989  1.00  0.00     0.074 A 
ATOM     63  C   UNL A   1      48.997  29.428  27.042  1.00  0.00     0.031 C 
ATOM     64  C   UNL A   1      48.304  27.089  26.610  1.00  0.00     0.037 A 
BRANCH  51  65
ATOM     65  C   UNL A   1      43.439  23.289  26.848  1.00  0.00     0.058 A 
ATOM     66  C   UNL A   1      43.240  22.740  25.570  1.00  0.00     0.135 A 
ATOM     67  C   UNL A   1      43.206  22.458  27.957  1.00  0.00     0.135 A 
ATOM     68  F   UNL A   1      43.439  23.489  24.474  1.00  0.00    -0.206 F 
ATOM     69  C   UNL A   1      42.805  21.430  25.400  1.00  0.00     0.059 A 
ATOM     70  C   UNL A   1      42.799  21.135  27.809  1.00  0.00     0.059 A 
ATOM     71  F   UNL A   1      43.386  22.927  29.202  1.00  0.00    -0.206 F 
ATOM     72  C   UNL A   1      42.590  20.633  26.525  1.00  0.00     0.060 A 
BRANCH  72  73
ATOM     73  S   UNL A   1      42.042  18.930  26.283  1.00  0.00     0.124 S 
ATOM     74  O   UNL A   1      42.143  18.396  27.638  1.00  0.00    -0.237 OA
ATOM     75  O   UNL A   1      40.687  19.110  25.773  1.00  0.00    -0.237 OA
ATOM     76  O   UNL A   1      43.003  18.395  25.325  1.00  0.00    -0.744 OA
ENDBRANCH  72  73
ENDBRANCH  51  65
BRANCH  52  77
ATOM     77  C   UNL A   1      46.582  32.623  28.362  1.00  0.00     0.058 A 
ATOM     78  C   UNL A   1      47.026  33.021  29.633  1.00  0.00     0.135 A 
ATOM     79  C   UNL A   1      46.597  33.585  27.339  1.00  0.00     0.135 A 
ATOM     80  F   UNL A   1      47.022  32.145  30.650  1.00  0.00    -0.206 F 
ATOM     81  C   UNL A   1      47.442  34.325  29.888  1.00  0.00     0.059 A 
ATOM     82  C   UNL A   1      47.037  34.885  27.561  1.00  0.00     0.059 A 
ATOM     83  F   UNL A   1      46.194  33.256  26.101  1.00  0.00    -0.206 F 
ATOM     84  C   UNL A   1      47.445  35.250  28.843  1.00  0.00     0.060 A 
BRANCH  84  85
ATOM     85  S   UNL A   1      48.017  36.931  29.174  1.00  0.00     0.124 S 
ATOM     86  O   UNL A   1      47.948  36.984  30.629  1.00  0.00    -0.237 OA
ATOM     87  O   UNL A   1      49.356  36.918  28.596  1.00  0.00    -0.237 OA
ATOM     88  O   UNL A   1      47.046  37.760  28.465  1.00  0.00    -0.744 OA
ENDBRANCH  84  85
ENDBRANCH  52  77
BRANCH  64  89
ATOM     89  C   UNL A   1      49.716  26.778  26.188  1.00  0.00     0.058 A 
ATOM     90  C   UNL A   1      50.674  26.298  27.094  1.00  0.00     0.135 A 
ATOM     91  C   UNL A   1      50.104  26.915  24.843  1.00  0.00     0.135 A 
ATOM     92  F   UNL A   1      50.364  26.154  28.392  1.00  0.00    -0.206 F 
ATOM     93  C   UNL A   1      51.970  25.988  26.689  1.00  0.00     0.059 A 
ATOM     94  C   UNL A   1      51.384  26.582  24.411  1.00  0.00     0.059 A 
ATOM     95  F   UNL A   1      49.227  27.362  23.930  1.00  0.00    -0.206 F 
ATOM     96  C   UNL A   1      52.315  26.130  25.345  1.00  0.00     0.060 A 
BRANCH  96  97
ATOM     97  S   UNL A   1      53.989  25.692  24.829  1.00  0.00     0.124 S 
ATOM     98  O   UNL A   1      53.879  24.245  24.670  1.00  0.00    -0.237 OA
ATOM     99  O   UNL A   1      54.144  26.455  23.595  1.00  0.00    -0.237 OA
ATOM    100  O   UNL A   1      54.818  26.140  25.944  1.00  0.00    -0.744 OA
ENDBRANCH  96  97
ENDBRANCH  64  89
ENDBRANCH  38  39
ENDBRANCH  30  33
ENDBRANCH  28  29
ENDBRANCH  27  28
ENDBRANCH  26  27
ENDBRANCH   1  26
TORSDOF 20
ENDMDL
MODEL 3
REMARK VINA RESULT:     -10.8      6.178     11.843
REMARK SMILES Cc1nc(CCC(=O)NCCCCCCNC(=O)c2ccc(-c3c4nc(c(-c5c(F)cc(S(=O)(=O)[O-])cc5F)c5ccc([nH]5)c(-c5c(F)cc(S(=O)(=O)[O-])cc5F)c5nc(c(-c6c(F)cc(S(=O)(=O)[O-])cc6F)c6ccc3[nH]6)C=C5)C=C4)cc2)cc([C@@H]2CCC[N@@H+]2C(C)C)n1
REMARK SMILES IDX 12 1 11 2 10 3 9 4 7 5 8 6 6 8 5 9 4 10 1 11 2 12 3 13 95 14
REMARK SMILES IDX 86 15 85 16 87 17 88 18 91 19 89 20 90 21 92 23 93 24 94 25
REMARK SMILES IDX 13 26 14 27 15 28 16 29 17 30 18 32 19 33 20 34 84 35 21 36
REMARK SMILES IDX 83 37 22 38 23 39 24 40 77 41 25 42 82 43 76 44 78 45 26 46
REMARK SMILES IDX 81 47 75 48 74 49 27 51 61 52 40 53 60 54 41 55 44 56 59 57
REMARK SMILES IDX 79 58 42 59 43 60 58 62 80 63 45 64 28 65 29 66 38 67 30 68
REMARK SMILES IDX 31 69 37 70 39 71 32 72 33 73 34 74 35 75 36 76 62 77 63 78
REMARK SMILES IDX 72 79 64 80 65 81 71 82 73 83 66 84 67 85 68 86 69 87 70 88
REMARK SMILES IDX 46 89 47 90 56 91 48 92 49 93 55 94 57 95 50 96 51 97 52 98
REMARK SMILES IDX 53 99 54 100
REMARK H PARENT 9 7 91 22 16 31 78 50 44 61
REMARK Flexibility Score: inf
ROOT
ATOM      1  C   UNL A   1      41.828  23.465  28.524  1.00  0.00     0.002 C 
ENDROOT
BRANCH   1   2
ATOM      2  C   UNL A   1      40.809  22.784  27.578  1.00  0.00     0.021 C 
BRANCH   2   3
ATOM      3  C   UNL A   1      39.657  23.543  26.898  1.00  0.00     0.116 C 
BRANCH   3   4
ATOM      4  N   UNL A   1      39.062  22.648  25.893  1.00  0.00    -0.356 N 
ATOM      5  C   UNL A   1      37.783  22.292  25.599  1.00  0.00     0.220 C 
ATOM      6  O   UNL A   1      37.618  21.244  24.963  1.00  0.00    -0.275 OA
ATOM      7  H   UNL A   1      39.730  22.217  25.312  1.00  0.00     0.163 HD
BRANCH   5   8
ATOM      8  C   UNL A   1      36.598  23.183  25.909  1.00  0.00     0.106 C 
BRANCH   8   9
ATOM      9  C   UNL A   1      36.066  23.964  24.705  1.00  0.00     0.066 C 
BRANCH   9  10
ATOM     10  C   UNL A   1      34.621  24.305  24.925  1.00  0.00     0.045 A 
ATOM     11  C   UNL A   1      31.956  23.043  27.063  1.00  0.00     0.089 C 
ATOM     12  C   UNL A   1      32.795  23.912  26.202  1.00  0.00     0.126 A 
ATOM     13  N   UNL A   1      33.990  23.501  25.799  1.00  0.00    -0.238 NA
ATOM     14  N   UNL A   1      32.266  25.087  25.883  1.00  0.00    -0.232 NA
ATOM     15  C   UNL A   1      32.759  25.748  24.830  1.00  0.00     0.102 A 
ATOM     16  C   UNL A   1      34.008  25.414  24.343  1.00  0.00     0.054 A 
BRANCH  15  17
ATOM     17  C   UNL A   1      31.836  26.795  24.209  1.00  0.00     0.234 C 
ATOM     18  C   UNL A   1      32.387  27.449  22.945  1.00  0.00     0.078 C 
ATOM     19  N   UNL A   1      31.377  27.939  25.076  1.00  0.00    -0.325 N 
ATOM     20  C   UNL A   1      31.619  28.757  22.817  1.00  0.00     0.068 C 
ATOM     21  C   UNL A   1      30.892  28.962  24.139  1.00  0.00     0.263 C 
ATOM     22  H   UNL A   1      30.658  27.583  25.706  1.00  0.00     0.348 HD
BRANCH  19  23
ATOM     23  C   UNL A   1      32.324  28.482  26.074  1.00  0.00     0.178 C 
ATOM     24  C   UNL A   1      32.593  29.992  26.012  1.00  0.00     0.075 C 
ATOM     25  C   UNL A   1      31.974  28.097  27.519  1.00  0.00     0.075 C 
ENDBRANCH  19  23
ENDBRANCH  15  17
ENDBRANCH   9  10
ENDBRANCH   8   9
ENDBRANCH   5   8
ENDBRANCH   3   4
ENDBRANCH   2   3
ENDBRANCH   1   2
BRANCH   1  26
ATOM     26  C   UNL A   1      43.326  23.515  28.214  1.00  0.00     0.002 C 
BRANCH  26  27
ATOM     27  C   UNL A   1      43.800  23.546  26.752  1.00  0.00     0.021 C 
BRANCH  27  28
ATOM     28  C   UNL A   1      44.563  24.770  26.211  1.00  0.00     0.116 C 
BRANCH  28  29
ATOM     29  N   UNL A   1      43.892  25.540  25.181  1.00  0.00    -0.352 N 
ATOM     30  C   UNL A   1      43.133  26.689  25.299  1.00  0.00     0.251 C 
ATOM     31  H   UNL A   1      43.992  25.193  24.265  1.00  0.00     0.163 HD
ATOM     32  O   UNL A   1      42.693  27.224  24.288  1.00  0.00    -0.269 OA
BRANCH  30  33
ATOM     33  C   UNL A   1      42.799  27.263  26.629  1.00  0.00     0.039 A 
ATOM     34  C   UNL A   1      43.584  28.312  27.115  1.00  0.00     0.014 A 
ATOM     35  C   UNL A   1      41.770  26.760  27.425  1.00  0.00     0.014 A 
ATOM     36  C   UNL A   1      43.290  28.902  28.353  1.00  0.00     0.010 A 
ATOM     37  C   UNL A   1      41.443  27.387  28.639  1.00  0.00     0.010 A 
ATOM     38  C   UNL A   1      42.189  28.477  29.117  1.00  0.00    -0.014 A 
BRANCH  38  39
ATOM     39  C   UNL A   1      41.819  29.187  30.384  1.00  0.00     0.031 A 
ATOM     40  C   UNL A   1      42.631  29.016  31.646  1.00  0.00     0.074 A 
ATOM     41  C   UNL A   1      40.734  29.991  30.414  1.00  0.00     0.049 A 
ATOM     42  N   UNL A   1      42.462  29.572  32.821  1.00  0.00    -0.248 NA
ATOM     43  C   UNL A   1      43.771  28.087  31.588  1.00  0.00     0.031 C 
ATOM     44  C   UNL A   1      39.822  30.220  29.292  1.00  0.00     0.029 A 
ATOM     45  N   UNL A   1      40.211  30.770  31.422  1.00  0.00    -0.354 N 
ATOM     46  C   UNL A   1      43.468  29.065  33.638  1.00  0.00     0.074 A 
ATOM     47  C   UNL A   1      44.209  28.112  32.840  1.00  0.00     0.031 C 
ATOM     48  C   UNL A   1      38.878  31.103  29.659  1.00  0.00     0.029 A 
ATOM     49  C   UNL A   1      39.087  31.477  31.055  1.00  0.00     0.049 A 
ATOM     50  H   UNL A   1      40.604  30.817  32.323  1.00  0.00     0.167 HD
ATOM     51  C   UNL A   1      43.767  29.379  34.923  1.00  0.00     0.037 A 
ATOM     52  C   UNL A   1      38.306  32.328  31.755  1.00  0.00     0.037 A 
ATOM     53  C   UNL A   1      43.046  30.341  35.720  1.00  0.00     0.049 A 
ATOM     54  C   UNL A   1      38.649  32.647  33.187  1.00  0.00     0.074 A 
ATOM     55  C   UNL A   1      43.315  30.759  37.013  1.00  0.00     0.029 A 
ATOM     56  N   UNL A   1      41.915  31.030  35.310  1.00  0.00    -0.354 N 
ATOM     57  N   UNL A   1      39.650  32.209  33.913  1.00  0.00    -0.248 NA
ATOM     58  C   UNL A   1      37.760  33.581  33.895  1.00  0.00     0.031 C 
ATOM     59  C   UNL A   1      42.317  31.656  37.404  1.00  0.00     0.029 A 
ATOM     60  C   UNL A   1      41.460  31.847  36.334  1.00  0.00     0.049 A 
ATOM     61  H   UNL A   1      41.496  30.951  34.422  1.00  0.00     0.167 HD
ATOM     62  C   UNL A   1      39.526  32.837  35.150  1.00  0.00     0.074 A 
ATOM     63  C   UNL A   1      38.366  33.697  35.069  1.00  0.00     0.031 C 
ATOM     64  C   UNL A   1      40.308  32.711  36.251  1.00  0.00     0.037 A 
BRANCH  51  65
ATOM     65  C   UNL A   1      44.943  28.684  35.563  1.00  0.00     0.058 A 
ATOM     66  C   UNL A   1      46.240  29.217  35.494  1.00  0.00     0.135 A 
ATOM     67  C   UNL A   1      44.760  27.509  36.312  1.00  0.00     0.135 A 
ATOM     68  F   UNL A   1      46.476  30.333  34.786  1.00  0.00    -0.206 F 
ATOM     69  C   UNL A   1      47.316  28.598  36.122  1.00  0.00     0.059 A 
ATOM     70  C   UNL A   1      45.817  26.889  36.972  1.00  0.00     0.059 A 
ATOM     71  F   UNL A   1      43.540  26.958  36.417  1.00  0.00    -0.206 F 
ATOM     72  C   UNL A   1      47.095  27.436  36.862  1.00  0.00     0.060 A 
BRANCH  72  73
ATOM     73  S   UNL A   1      48.502  26.656  37.682  1.00  0.00     0.124 S 
ATOM     74  O   UNL A   1      49.279  27.821  38.095  1.00  0.00    -0.237 OA
ATOM     75  O   UNL A   1      47.859  25.910  38.758  1.00  0.00    -0.237 OA
ATOM     76  O   UNL A   1      49.102  25.843  36.630  1.00  0.00    -0.744 OA
ENDBRANCH  72  73
ENDBRANCH  51  65
BRANCH  52  77
ATOM     77  C   UNL A   1      37.115  32.952  31.112  1.00  0.00     0.058 A 
ATOM     78  C   UNL A   1      35.813  32.533  31.424  1.00  0.00     0.135 A 
ATOM     79  C   UNL A   1      37.257  33.969  30.153  1.00  0.00     0.135 A 
ATOM     80  F   UNL A   1      35.622  31.556  32.325  1.00  0.00    -0.206 F 
ATOM     81  C   UNL A   1      34.697  33.077  30.795  1.00  0.00     0.059 A 
ATOM     82  C   UNL A   1      36.156  34.551  29.533  1.00  0.00     0.059 A 
ATOM     83  F   UNL A   1      38.479  34.418  29.823  1.00  0.00    -0.206 F 
ATOM     84  C   UNL A   1      34.880  34.088  29.851  1.00  0.00     0.060 A 
BRANCH  84  85
ATOM     85  S   UNL A   1      33.425  34.812  29.062  1.00  0.00     0.124 S 
ATOM     86  O   UNL A   1      33.976  36.036  28.493  1.00  0.00    -0.237 OA
ATOM     87  O   UNL A   1      33.047  33.775  28.107  1.00  0.00    -0.237 OA
ATOM     88  O   UNL A   1      32.498  34.995  30.175  1.00  0.00    -0.744 OA
ENDBRANCH  84  85
ENDBRANCH  52  77
BRANCH  64  89
ATOM     89  C   UNL A   1      39.962  33.545  37.456  1.00  0.00     0.058 A 
ATOM     90  C   UNL A   1      40.571  34.786  37.700  1.00  0.00     0.135 A 
ATOM     91  C   UNL A   1      38.969  33.120  38.355  1.00  0.00     0.135 A 
ATOM     92  F   UNL A   1      41.531  35.241  36.879  1.00  0.00    -0.206 F 
ATOM     93  C   UNL A   1      40.226  35.564  38.803  1.00  0.00     0.059 A 
ATOM     94  C   UNL A   1      38.587  33.895  39.447  1.00  0.00     0.059 A 
ATOM     95  F   UNL A   1      38.345  31.946  38.168  1.00  0.00    -0.206 F 
ATOM     96  C   UNL A   1      39.230  35.111  39.669  1.00  0.00     0.060 A 
BRANCH  96  97
ATOM     97  S   UNL A   1      38.770  36.146  41.075  1.00  0.00     0.124 S 
ATOM     98  O   UNL A   1      39.970  36.068  41.903  1.00  0.00    -0.237 OA
ATOM     99  O   UNL A   1      38.519  37.437  40.443  1.00  0.00    -0.237 OA
ATOM    100  O   UNL A   1      37.589  35.480  41.617  1.00  0.00    -0.744 OA
ENDBRANCH  96  97
ENDBRANCH  64  89
ENDBRANCH  38  39
ENDBRANCH  30  33
ENDBRANCH  28  29
ENDBRANCH  27  28
ENDBRANCH  26  27
ENDBRANCH   1  26
TORSDOF 20
ENDMDL
