MODEL 1
REMARK VINA RESULT:     -12.1      0.000      0.000
REMARK SMILES COc1cc(/C=C2/N=C(c3ccccc3)OC2=O)ccc1OCC(=O)NCCCCCCNC(=O)c1ccc(-c2c3nc(c(-c4c(F)cc(S(=O)(=O)[O-])cc4F)c4ccc([nH]4)c(-c4c(F)cc(S(=O)(=O)[O-])cc4F)c4nc(c(-c5c(F)cc(S(=O)(=O)[O-])cc5F)c5ccc2[nH]5)C=C4)C=C3)cc1
REMARK SMILES IDX 29 1 28 2 27 3 26 4 24 5 25 6 23 8 22 9 21 10 3 11 4 12 5 13
REMARK SMILES IDX 20 14 19 15 2 16 1 17 6 18 7 19 8 20 17 21 9 22 16 23 18 24
REMARK SMILES IDX 10 25 11 26 15 27 12 28 14 29 13 30 30 31 31 32 32 33 33 34
REMARK SMILES IDX 34 35 35 37 36 38 37 39 101 40 38 41 100 42 39 43 40 44
REMARK SMILES IDX 41 45 94 46 42 47 99 48 93 49 95 50 43 51 98 52 92 53 91 54
REMARK SMILES IDX 44 56 78 57 57 58 77 59 58 60 61 61 76 62 96 63 59 64 60 65
REMARK SMILES IDX 75 67 97 68 62 69 45 70 46 71 55 72 47 73 48 74 54 75 56 76
REMARK SMILES IDX 49 77 50 78 51 79 52 80 53 81 79 82 80 83 89 84 81 85 82 86
REMARK SMILES IDX 88 87 90 88 83 89 84 90 85 91 86 92 87 93 63 94 64 95 73 96
REMARK SMILES IDX 65 97 66 98 72 99 74 100 67 101 68 102 69 103 70 104 71 105
REMARK H PARENT 26 7 33 36 95 55 61 66
REMARK Flexibility Score: inf
ROOT
ATOM      1  C   UNL A   1      34.488  29.959  27.632  1.00  0.00     0.002 C 
ENDROOT
BRANCH   1   2
ATOM      2  C   UNL A   1      33.566  29.750  26.424  1.00  0.00     0.021 C 
BRANCH   2   3
ATOM      3  C   UNL A   1      32.081  29.993  26.684  1.00  0.00     0.116 C 
BRANCH   3   4
ATOM      4  N   UNL A   1      31.375  30.442  25.503  1.00  0.00    -0.353 N 
ATOM      5  C   UNL A   1      30.811  29.695  24.512  1.00  0.00     0.257 C 
ATOM      6  O   UNL A   1      30.040  30.266  23.736  1.00  0.00    -0.271 OA
ATOM      7  H   UNL A   1      31.292  31.417  25.401  1.00  0.00     0.163 HD
BRANCH   5   8
ATOM      8  C   UNL A   1      31.077  28.187  24.427  1.00  0.00     0.329 C 
BRANCH   8   9
ATOM      9  O   UNL A   1      31.995  27.726  23.459  1.00  0.00    -0.480 OA
BRANCH   9  10
ATOM     10  C   UNL A   1      32.795  26.645  23.682  1.00  0.00     0.161 A 
ATOM     11  C   UNL A   1      33.585  25.925  22.779  1.00  0.00     0.161 A 
ATOM     12  C   UNL A   1      34.254  24.761  23.201  1.00  0.00     0.058 A 
ATOM     13  C   UNL A   1      34.135  24.310  24.523  1.00  0.00    -0.019 A 
ATOM     14  C   UNL A   1      32.722  26.205  25.012  1.00  0.00     0.051 A 
ATOM     15  C   UNL A   1      33.388  25.056  25.435  1.00  0.00     0.012 A 
BRANCH  11  16
ATOM     16  O   UNL A   1      33.567  26.211  21.441  1.00  0.00    -0.493 OA
ATOM     17  C   UNL A   1      32.444  25.641  20.771  1.00  0.00     0.278 C 
ENDBRANCH  11  16
BRANCH  13  18
ATOM     18  C   UNL A   1      34.662  23.006  24.936  1.00  0.00     0.044 C 
ATOM     19  C   UNL A   1      34.007  21.848  24.764  1.00  0.00     0.153 C 
ATOM     20  N   UNL A   1      34.488  20.620  25.157  1.00  0.00    -0.205 NA
ATOM     21  C   UNL A   1      32.681  21.683  24.080  1.00  0.00     0.363 C 
ATOM     22  C   UNL A   1      33.589  19.810  24.696  1.00  0.00     0.231 C 
ATOM     23  O   UNL A   1      32.519  20.331  24.061  1.00  0.00    -0.402 OA
ATOM     24  O   UNL A   1      31.913  22.500  23.625  1.00  0.00    -0.244 OA
BRANCH  22  25
ATOM     25  C   UNL A   1      33.547  18.353  24.782  1.00  0.00     0.037 A 
ATOM     26  C   UNL A   1      34.484  17.585  24.090  1.00  0.00     0.014 A 
ATOM     27  C   UNL A   1      32.563  17.740  25.568  1.00  0.00     0.014 A 
ATOM     28  C   UNL A   1      34.445  16.192  24.200  1.00  0.00     0.001 A 
ATOM     29  C   UNL A   1      32.518  16.350  25.658  1.00  0.00     0.001 A 
ATOM     30  C   UNL A   1      33.460  15.577  24.979  1.00  0.00     0.000 A 
ENDBRANCH  22  25
ENDBRANCH  13  18
ENDBRANCH   9  10
ENDBRANCH   8   9
ENDBRANCH   5   8
ENDBRANCH   3   4
ENDBRANCH   2   3
ENDBRANCH   1   2
BRANCH   1  31
ATOM     31  C   UNL A   1      35.451  31.146  27.541  1.00  0.00     0.002 C 
BRANCH  31  32
ATOM     32  C   UNL A   1      35.163  32.304  28.496  1.00  0.00     0.021 C 
BRANCH  32  33
ATOM     33  C   UNL A   1      36.190  32.488  29.604  1.00  0.00     0.116 C 
BRANCH  33  34
ATOM     34  N   UNL A   1      35.904  31.655  30.760  1.00  0.00    -0.352 N 
ATOM     35  C   UNL A   1      36.639  30.613  31.271  1.00  0.00     0.251 C 
ATOM     36  H   UNL A   1      35.073  31.865  31.243  1.00  0.00     0.163 HD
ATOM     37  O   UNL A   1      36.158  29.886  32.135  1.00  0.00    -0.269 OA
BRANCH  35  38
ATOM     38  C   UNL A   1      38.001  30.358  30.755  1.00  0.00     0.039 A 
ATOM     39  C   UNL A   1      39.039  30.127  31.660  1.00  0.00     0.014 A 
ATOM     40  C   UNL A   1      38.251  30.333  29.378  1.00  0.00     0.014 A 
ATOM     41  C   UNL A   1      40.313  29.812  31.184  1.00  0.00     0.010 A 
ATOM     42  C   UNL A   1      39.499  29.936  28.908  1.00  0.00     0.010 A 
ATOM     43  C   UNL A   1      40.546  29.678  29.804  1.00  0.00    -0.014 A 
BRANCH  43  44
ATOM     44  C   UNL A   1      41.877  29.273  29.284  1.00  0.00     0.031 A 
ATOM     45  C   UNL A   1      42.985  30.286  29.173  1.00  0.00     0.074 A 
ATOM     46  C   UNL A   1      42.073  28.006  28.864  1.00  0.00     0.049 A 
ATOM     47  N   UNL A   1      44.193  30.139  28.690  1.00  0.00    -0.248 NA
ATOM     48  C   UNL A   1      42.691  31.650  29.642  1.00  0.00     0.031 C 
ATOM     49  C   UNL A   1      41.064  26.944  28.881  1.00  0.00     0.029 A 
ATOM     50  N   UNL A   1      43.183  27.396  28.334  1.00  0.00    -0.354 N 
ATOM     51  C   UNL A   1      44.796  31.387  28.791  1.00  0.00     0.074 A 
ATOM     52  C   UNL A   1      43.804  32.294  29.324  1.00  0.00     0.031 C 
ATOM     53  C   UNL A   1      41.608  25.811  28.408  1.00  0.00     0.029 A 
ATOM     54  C   UNL A   1      42.988  26.073  28.012  1.00  0.00     0.049 A 
ATOM     55  H   UNL A   1      44.039  27.862  28.197  1.00  0.00     0.167 HD
ATOM     56  C   UNL A   1      46.070  31.739  28.492  1.00  0.00     0.037 A 
ATOM     57  C   UNL A   1      43.821  25.176  27.450  1.00  0.00     0.037 A 
ATOM     58  C   UNL A   1      47.057  30.824  27.979  1.00  0.00     0.049 A 
ATOM     59  C   UNL A   1      45.224  25.598  27.105  1.00  0.00     0.074 A 
ATOM     60  C   UNL A   1      48.388  31.071  27.689  1.00  0.00     0.029 A 
ATOM     61  N   UNL A   1      46.823  29.490  27.675  1.00  0.00    -0.354 N 
ATOM     62  N   UNL A   1      45.797  26.767  27.266  1.00  0.00    -0.248 NA
ATOM     63  C   UNL A   1      46.098  24.580  26.506  1.00  0.00     0.031 C 
ATOM     64  C   UNL A   1      48.942  29.903  27.158  1.00  0.00     0.029 A 
ATOM     65  C   UNL A   1      47.978  28.909  27.176  1.00  0.00     0.049 A 
ATOM     66  H   UNL A   1      45.964  29.026  27.796  1.00  0.00     0.167 HD
ATOM     67  C   UNL A   1      47.106  26.615  26.821  1.00  0.00     0.074 A 
ATOM     68  C   UNL A   1      47.243  25.237  26.397  1.00  0.00     0.031 C 
ATOM     69  C   UNL A   1      48.104  27.531  26.770  1.00  0.00     0.037 A 
BRANCH  56  70
ATOM     70  C   UNL A   1      46.476  33.171  28.716  1.00  0.00     0.058 A 
ATOM     71  C   UNL A   1      46.470  34.112  27.673  1.00  0.00     0.135 A 
ATOM     72  C   UNL A   1      46.822  33.623  30.000  1.00  0.00     0.135 A 
ATOM     73  F   UNL A   1      46.165  33.733  26.422  1.00  0.00    -0.206 F 
ATOM     74  C   UNL A   1      46.811  35.442  27.891  1.00  0.00     0.059 A 
ATOM     75  C   UNL A   1      47.136  34.957  30.247  1.00  0.00     0.059 A 
ATOM     76  F   UNL A   1      46.848  32.768  31.035  1.00  0.00    -0.206 F 
ATOM     77  C   UNL A   1      47.137  35.857  29.183  1.00  0.00     0.060 A 
BRANCH  77  78
ATOM     78  S   UNL A   1      47.552  37.593  29.449  1.00  0.00     0.124 S 
ATOM     79  O   UNL A   1      47.252  37.749  30.870  1.00  0.00    -0.237 OA
ATOM     80  O   UNL A   1      48.965  37.634  29.091  1.00  0.00    -0.237 OA
ATOM     81  O   UNL A   1      46.656  38.301  28.539  1.00  0.00    -0.744 OA
ENDBRANCH  77  78
ENDBRANCH  56  70
BRANCH  57  82
ATOM     82  C   UNL A   1      43.357  23.786  27.185  1.00  0.00     0.058 A 
ATOM     83  C   UNL A   1      42.990  23.377  25.894  1.00  0.00     0.135 A 
ATOM     84  C   UNL A   1      43.261  22.839  28.217  1.00  0.00     0.135 A 
ATOM     85  F   UNL A   1      43.059  24.244  24.871  1.00  0.00    -0.206 F 
ATOM     86  C   UNL A   1      42.518  22.093  25.639  1.00  0.00     0.059 A 
ATOM     87  C   UNL A   1      42.823  21.540  27.983  1.00  0.00     0.059 A 
ATOM     88  F   UNL A   1      43.615  23.171  29.469  1.00  0.00    -0.206 F 
ATOM     89  C   UNL A   1      42.439  21.180  26.692  1.00  0.00     0.060 A 
BRANCH  89  90
ATOM     90  S   UNL A   1      41.851  19.509  26.346  1.00  0.00     0.124 S 
ATOM     91  O   UNL A   1      42.429  19.260  25.030  1.00  0.00    -0.237 OA
ATOM     92  O   UNL A   1      42.425  18.748  27.451  1.00  0.00    -0.237 OA
ATOM     93  O   UNL A   1      40.398  19.651  26.380  1.00  0.00    -0.744 OA
ENDBRANCH  89  90
ENDBRANCH  57  82
BRANCH  69  94
ATOM     94  C   UNL A   1      49.450  27.069  26.280  1.00  0.00     0.058 A 
ATOM     95  C   UNL A   1      50.397  26.495  27.141  1.00  0.00     0.135 A 
ATOM     96  C   UNL A   1      49.773  27.154  24.915  1.00  0.00     0.135 A 
ATOM     97  F   UNL A   1      50.143  26.395  28.455  1.00  0.00    -0.206 F 
ATOM     98  C   UNL A   1      51.628  26.045  26.672  1.00  0.00     0.059 A 
ATOM     99  C   UNL A   1      50.983  26.679  24.419  1.00  0.00     0.059 A 
ATOM    100  F   UNL A   1      48.900  27.685  24.044  1.00  0.00    -0.206 F 
ATOM    101  C   UNL A   1      51.909  26.137  25.307  1.00  0.00     0.060 A 
BRANCH 101 102
ATOM    102  S   UNL A   1      53.493  25.513  24.708  1.00  0.00     0.124 S 
ATOM    103  O   UNL A   1      54.434  26.243  25.552  1.00  0.00    -0.237 OA
ATOM    104  O   UNL A   1      53.384  24.082  24.971  1.00  0.00    -0.237 OA
ATOM    105  O   UNL A   1      53.496  25.887  23.298  1.00  0.00    -0.744 OA
ENDBRANCH 101 102
ENDBRANCH  69  94
ENDBRANCH  43  44
ENDBRANCH  35  38
ENDBRANCH  33  34
ENDBRANCH  32  33
ENDBRANCH  31  32
ENDBRANCH   1  31
TORSDOF 21
ENDMDL
MODEL 2
REMARK VINA RESULT:     -11.7      6.153      8.246
REMARK SMILES COc1cc(/C=C2/N=C(c3ccccc3)OC2=O)ccc1OCC(=O)NCCCCCCNC(=O)c1ccc(-c2c3nc(c(-c4c(F)cc(S(=O)(=O)[O-])cc4F)c4ccc([nH]4)c(-c4c(F)cc(S(=O)(=O)[O-])cc4F)c4nc(c(-c5c(F)cc(S(=O)(=O)[O-])cc5F)c5ccc2[nH]5)C=C4)C=C3)cc1
REMARK SMILES IDX 29 1 28 2 27 3 26 4 24 5 25 6 23 8 22 9 21 10 3 11 4 12 5 13
REMARK SMILES IDX 20 14 19 15 2 16 1 17 6 18 7 19 8 20 17 21 9 22 16 23 18 24
REMARK SMILES IDX 10 25 11 26 15 27 12 28 14 29 13 30 30 31 31 32 32 33 33 34
REMARK SMILES IDX 34 35 35 37 36 38 37 39 101 40 38 41 100 42 39 43 40 44
REMARK SMILES IDX 41 45 94 46 42 47 99 48 93 49 95 50 43 51 98 52 92 53 91 54
REMARK SMILES IDX 44 56 78 57 57 58 77 59 58 60 61 61 76 62 96 63 59 64 60 65
REMARK SMILES IDX 75 67 97 68 62 69 45 70 46 71 55 72 47 73 48 74 54 75 56 76
REMARK SMILES IDX 49 77 50 78 51 79 52 80 53 81 79 82 80 83 89 84 81 85 82 86
REMARK SMILES IDX 88 87 90 88 83 89 84 90 85 91 86 92 87 93 63 94 64 95 73 96
REMARK SMILES IDX 65 97 66 98 72 99 74 100 67 101 68 102 69 103 70 104 71 105
REMARK H PARENT 26 7 33 36 95 55 61 66
REMARK Flexibility Score: inf
ROOT
ATOM      1  C   UNL A   1      35.688  32.410  28.037  1.00  0.00     0.002 C 
ENDROOT
BRANCH   1   2
ATOM      2  C   UNL A   1      35.945  30.898  28.086  1.00  0.00     0.021 C 
BRANCH   2   3
ATOM      3  C   UNL A   1      34.957  30.040  27.300  1.00  0.00     0.116 C 
BRANCH   3   4
ATOM      4  N   UNL A   1      33.844  30.805  26.780  1.00  0.00    -0.353 N 
ATOM      5  C   UNL A   1      32.556  30.406  26.578  1.00  0.00     0.257 C 
ATOM      6  O   UNL A   1      31.713  31.283  26.371  1.00  0.00    -0.271 OA
ATOM      7  H   UNL A   1      34.044  31.738  26.539  1.00  0.00     0.163 HD
BRANCH   5   8
ATOM      8  C   UNL A   1      32.174  28.925  26.685  1.00  0.00     0.329 C 
BRANCH   8   9
ATOM      9  O   UNL A   1      31.395  28.362  25.650  1.00  0.00    -0.480 OA
BRANCH   9  10
ATOM     10  C   UNL A   1      31.368  27.019  25.418  1.00  0.00     0.161 A 
ATOM     11  C   UNL A   1      31.000  26.327  24.259  1.00  0.00     0.161 A 
ATOM     12  C   UNL A   1      30.937  24.921  24.268  1.00  0.00     0.058 A 
ATOM     13  C   UNL A   1      31.239  24.201  25.434  1.00  0.00    -0.019 A 
ATOM     14  C   UNL A   1      31.710  26.283  26.562  1.00  0.00     0.051 A 
ATOM     15  C   UNL A   1      31.655  24.890  26.573  1.00  0.00     0.012 A 
BRANCH  11  16
ATOM     16  O   UNL A   1      30.504  26.989  23.169  1.00  0.00    -0.493 OA
ATOM     17  C   UNL A   1      31.275  26.761  21.990  1.00  0.00     0.278 C 
ENDBRANCH  11  16
BRANCH  13  18
ATOM     18  C   UNL A   1      30.999  22.758  25.524  1.00  0.00     0.044 C 
ATOM     19  C   UNL A   1      31.917  21.829  25.216  1.00  0.00     0.153 C 
ATOM     20  N   UNL A   1      31.699  20.472  25.287  1.00  0.00    -0.205 NA
ATOM     21  C   UNL A   1      33.331  22.099  24.794  1.00  0.00     0.363 C 
ATOM     22  C   UNL A   1      32.868  19.990  25.012  1.00  0.00     0.231 C 
ATOM     23  O   UNL A   1      33.866  20.849  24.720  1.00  0.00    -0.402 OA
ATOM     24  O   UNL A   1      33.912  23.137  24.576  1.00  0.00    -0.244 OA
BRANCH  22  25
ATOM     25  C   UNL A   1      33.283  18.591  24.947  1.00  0.00     0.037 A 
ATOM     26  C   UNL A   1      32.411  17.583  25.361  1.00  0.00     0.014 A 
ATOM     27  C   UNL A   1      34.557  18.275  24.460  1.00  0.00     0.014 A 
ATOM     28  C   UNL A   1      32.815  16.248  25.272  1.00  0.00     0.001 A 
ATOM     29  C   UNL A   1      34.961  16.943  24.390  1.00  0.00     0.001 A 
ATOM     30  C   UNL A   1      34.088  15.930  24.792  1.00  0.00     0.000 A 
ENDBRANCH  22  25
ENDBRANCH  13  18
ENDBRANCH   9  10
ENDBRANCH   8   9
ENDBRANCH   5   8
ENDBRANCH   3   4
ENDBRANCH   2   3
ENDBRANCH   1   2
BRANCH   1  31
ATOM     31  C   UNL A   1      34.915  32.995  29.223  1.00  0.00     0.002 C 
BRANCH  31  32
ATOM     32  C   UNL A   1      33.711  33.864  28.860  1.00  0.00     0.021 C 
BRANCH  32  33
ATOM     33  C   UNL A   1      33.839  35.329  29.253  1.00  0.00     0.116 C 
BRANCH  33  34
ATOM     34  N   UNL A   1      32.906  35.698  30.304  1.00  0.00    -0.352 N 
ATOM     35  C   UNL A   1      32.936  35.366  31.636  1.00  0.00     0.251 C 
ATOM     36  H   UNL A   1      32.150  36.264  30.023  1.00  0.00     0.163 HD
ATOM     37  O   UNL A   1      31.964  35.595  32.350  1.00  0.00    -0.269 OA
BRANCH  35  38
ATOM     38  C   UNL A   1      34.136  34.707  32.197  1.00  0.00     0.039 A 
ATOM     39  C   UNL A   1      34.007  33.445  32.779  1.00  0.00     0.014 A 
ATOM     40  C   UNL A   1      35.388  35.328  32.134  1.00  0.00     0.014 A 
ATOM     41  C   UNL A   1      35.144  32.781  33.244  1.00  0.00     0.010 A 
ATOM     42  C   UNL A   1      36.528  34.629  32.520  1.00  0.00     0.010 A 
ATOM     43  C   UNL A   1      36.418  33.351  33.086  1.00  0.00    -0.014 A 
BRANCH  43  44
ATOM     44  C   UNL A   1      37.644  32.626  33.509  1.00  0.00     0.031 A 
ATOM     45  C   UNL A   1      38.359  33.024  34.773  1.00  0.00     0.074 A 
ATOM     46  C   UNL A   1      38.143  31.645  32.729  1.00  0.00     0.049 A 
ATOM     47  N   UNL A   1      39.471  32.553  35.276  1.00  0.00    -0.248 NA
ATOM     48  C   UNL A   1      37.758  34.111  35.565  1.00  0.00     0.031 C 
ATOM     49  C   UNL A   1      37.566  31.199  31.459  1.00  0.00     0.029 A 
ATOM     50  N   UNL A   1      39.252  30.851  32.883  1.00  0.00    -0.354 N 
ATOM     51  C   UNL A   1      39.705  33.287  36.433  1.00  0.00     0.074 A 
ATOM     52  C   UNL A   1      38.653  34.275  36.527  1.00  0.00     0.031 C 
ATOM     53  C   UNL A   1      38.310  30.197  30.964  1.00  0.00     0.029 A 
ATOM     54  C   UNL A   1      39.442  29.958  31.854  1.00  0.00     0.049 A 
ATOM     55  H   UNL A   1      39.857  30.915  33.658  1.00  0.00     0.167 HD
ATOM     56  C   UNL A   1      40.692  33.134  37.348  1.00  0.00     0.037 A 
ATOM     57  C   UNL A   1      40.422  29.057  31.644  1.00  0.00     0.037 A 
ATOM     58  C   UNL A   1      41.726  32.135  37.256  1.00  0.00     0.049 A 
ATOM     59  C   UNL A   1      41.521  28.923  32.664  1.00  0.00     0.074 A 
ATOM     60  C   UNL A   1      42.743  31.867  38.155  1.00  0.00     0.029 A 
ATOM     61  N   UNL A   1      41.878  31.243  36.203  1.00  0.00    -0.354 N 
ATOM     62  N   UNL A   1      41.691  29.583  33.785  1.00  0.00    -0.248 NA
ATOM     63  C   UNL A   1      42.559  27.919  32.397  1.00  0.00     0.031 C 
ATOM     64  C   UNL A   1      43.543  30.853  37.620  1.00  0.00     0.029 A 
ATOM     65  C   UNL A   1      42.988  30.442  36.419  1.00  0.00     0.049 A 
ATOM     66  H   UNL A   1      41.285  31.188  35.420  1.00  0.00     0.167 HD
ATOM     67  C   UNL A   1      42.835  29.051  34.372  1.00  0.00     0.074 A 
ATOM     68  C   UNL A   1      43.306  28.005  33.488  1.00  0.00     0.031 C 
ATOM     69  C   UNL A   1      43.439  29.394  35.536  1.00  0.00     0.037 A 
BRANCH  56  70
ATOM     70  C   UNL A   1      40.704  34.061  38.534  1.00  0.00     0.058 A 
ATOM     71  C   UNL A   1      41.414  35.273  38.516  1.00  0.00     0.135 A 
ATOM     72  C   UNL A   1      39.951  33.762  39.681  1.00  0.00     0.135 A 
ATOM     73  F   UNL A   1      42.165  35.602  37.454  1.00  0.00    -0.206 F 
ATOM     74  C   UNL A   1      41.393  36.144  39.600  1.00  0.00     0.059 A 
ATOM     75  C   UNL A   1      39.890  34.636  40.764  1.00  0.00     0.059 A 
ATOM     76  F   UNL A   1      39.254  32.617  39.755  1.00  0.00    -0.206 F 
ATOM     77  C   UNL A   1      40.623  35.820  40.718  1.00  0.00     0.060 A 
BRANCH  77  78
ATOM     78  S   UNL A   1      40.589  36.976  42.103  1.00  0.00     0.124 S 
ATOM     79  O   UNL A   1      39.295  36.669  42.707  1.00  0.00    -0.237 OA
ATOM     80  O   UNL A   1      41.760  36.573  42.874  1.00  0.00    -0.237 OA
ATOM     81  O   UNL A   1      40.684  38.283  41.458  1.00  0.00    -0.744 OA
ENDBRANCH  77  78
ENDBRANCH  56  70
BRANCH  57  82
ATOM     82  C   UNL A   1      40.408  28.205  30.423  1.00  0.00     0.058 A 
ATOM     83  C   UNL A   1      39.523  27.123  30.305  1.00  0.00     0.135 A 
ATOM     84  C   UNL A   1      41.285  28.447  29.355  1.00  0.00     0.135 A 
ATOM     85  F   UNL A   1      38.667  26.844  31.300  1.00  0.00    -0.206 F 
ATOM     86  C   UNL A   1      39.526  26.294  29.186  1.00  0.00     0.059 A 
ATOM     87  C   UNL A   1      41.286  27.654  28.212  1.00  0.00     0.059 A 
ATOM     88  F   UNL A   1      42.142  29.480  29.408  1.00  0.00    -0.206 F 
ATOM     89  C   UNL A   1      40.413  26.569  28.143  1.00  0.00     0.060 A 
BRANCH  89  90
ATOM     90  S   UNL A   1      40.391  25.505  26.685  1.00  0.00     0.124 S 
ATOM     91  O   UNL A   1      38.972  25.185  26.577  1.00  0.00    -0.237 OA
ATOM     92  O   UNL A   1      40.928  26.387  25.654  1.00  0.00    -0.237 OA
ATOM     93  O   UNL A   1      41.261  24.396  27.066  1.00  0.00    -0.744 OA
ENDBRANCH  89  90
ENDBRANCH  57  82
BRANCH  69  94
ATOM     94  C   UNL A   1      44.651  28.606  35.952  1.00  0.00     0.058 A 
ATOM     95  C   UNL A   1      45.951  28.999  35.598  1.00  0.00     0.135 A 
ATOM     96  C   UNL A   1      44.510  27.468  36.765  1.00  0.00     0.135 A 
ATOM     97  F   UNL A   1      46.143  30.075  34.818  1.00  0.00    -0.206 F 
ATOM     98  C   UNL A   1      47.067  28.279  36.012  1.00  0.00     0.059 A 
ATOM     99  C   UNL A   1      45.614  26.753  37.219  1.00  0.00     0.059 A 
ATOM    100  F   UNL A   1      43.291  27.053  37.142  1.00  0.00    -0.206 F 
ATOM    101  C   UNL A   1      46.887  27.159  36.827  1.00  0.00     0.060 A 
BRANCH 101 102
ATOM    102  S   UNL A   1      48.347  26.257  37.389  1.00  0.00     0.124 S 
ATOM    103  O   UNL A   1      47.745  25.090  38.026  1.00  0.00    -0.237 OA
ATOM    104  O   UNL A   1      49.055  26.002  36.139  1.00  0.00    -0.237 OA
ATOM    105  O   UNL A   1      49.002  27.197  38.293  1.00  0.00    -0.744 OA
ENDBRANCH 101 102
ENDBRANCH  69  94
ENDBRANCH  43  44
ENDBRANCH  35  38
ENDBRANCH  33  34
ENDBRANCH  32  33
ENDBRANCH  31  32
ENDBRANCH   1  31
TORSDOF 21
ENDMDL
MODEL 3
REMARK VINA RESULT:     -11.6      6.201     10.511
REMARK SMILES COc1cc(/C=C2/N=C(c3ccccc3)OC2=O)ccc1OCC(=O)NCCCCCCNC(=O)c1ccc(-c2c3nc(c(-c4c(F)cc(S(=O)(=O)[O-])cc4F)c4ccc([nH]4)c(-c4c(F)cc(S(=O)(=O)[O-])cc4F)c4nc(c(-c5c(F)cc(S(=O)(=O)[O-])cc5F)c5ccc2[nH]5)C=C4)C=C3)cc1
REMARK SMILES IDX 29 1 28 2 27 3 26 4 24 5 25 6 23 8 22 9 21 10 3 11 4 12 5 13
REMARK SMILES IDX 20 14 19 15 2 16 1 17 6 18 7 19 8 20 17 21 9 22 16 23 18 24
REMARK SMILES IDX 10 25 11 26 15 27 12 28 14 29 13 30 30 31 31 32 32 33 33 34
REMARK SMILES IDX 34 35 35 37 36 38 37 39 101 40 38 41 100 42 39 43 40 44
REMARK SMILES IDX 41 45 94 46 42 47 99 48 93 49 95 50 43 51 98 52 92 53 91 54
REMARK SMILES IDX 44 56 78 57 57 58 77 59 58 60 61 61 76 62 96 63 59 64 60 65
REMARK SMILES IDX 75 67 97 68 62 69 45 70 46 71 55 72 47 73 48 74 54 75 56 76
REMARK SMILES IDX 49 77 50 78 51 79 52 80 53 81 79 82 80 83 89 84 81 85 82 86
REMARK SMILES IDX 88 87 90 88 83 89 84 90 85 91 86 92 87 93 63 94 64 95 73 96
REMARK SMILES IDX 65 97 66 98 72 99 74 100 67 101 68 102 69 103 70 104 71 105
REMARK H PARENT 26 7 33 36 95 55 61 66
REMARK Flexibility Score: inf
ROOT
ATOM      1  C   UNL A   1      35.627  32.030  28.004  1.00  0.00     0.002 C 
ENDROOT
BRANCH   1   2
ATOM      2  C   UNL A   1      35.794  30.514  28.168  1.00  0.00     0.021 C 
BRANCH   2   3
ATOM      3  C   UNL A   1      34.833  29.656  27.348  1.00  0.00     0.116 C 
BRANCH   3   4
ATOM      4  N   UNL A   1      33.758  30.428  26.763  1.00  0.00    -0.353 N 
ATOM      5  C   UNL A   1      32.446  30.086  26.616  1.00  0.00     0.257 C 
ATOM      6  O   UNL A   1      31.652  30.985  26.329  1.00  0.00    -0.271 OA
ATOM      7  H   UNL A   1      34.006  31.318  26.426  1.00  0.00     0.163 HD
BRANCH   5   8
ATOM      8  C   UNL A   1      31.983  28.648  26.878  1.00  0.00     0.329 C 
BRANCH   8   9
ATOM      9  O   UNL A   1      31.388  27.935  25.814  1.00  0.00    -0.480 OA
BRANCH   9  10
ATOM     10  C   UNL A   1      32.007  26.875  25.221  1.00  0.00     0.161 A 
ATOM     11  C   UNL A   1      31.687  26.214  24.031  1.00  0.00     0.161 A 
ATOM     12  C   UNL A   1      32.398  25.059  23.652  1.00  0.00     0.058 A 
ATOM     13  C   UNL A   1      33.428  24.559  24.463  1.00  0.00    -0.019 A 
ATOM     14  C   UNL A   1      33.069  26.388  25.997  1.00  0.00     0.051 A 
ATOM     15  C   UNL A   1      33.779  25.249  25.624  1.00  0.00     0.012 A 
BRANCH  11  16
ATOM     16  O   UNL A   1      30.567  26.545  23.318  1.00  0.00    -0.493 OA
ATOM     17  C   UNL A   1      30.790  27.621  22.409  1.00  0.00     0.278 C 
ENDBRANCH  11  16
BRANCH  13  18
ATOM     18  C   UNL A   1      34.052  23.261  24.191  1.00  0.00     0.044 C 
ATOM     19  C   UNL A   1      33.526  22.087  24.572  1.00  0.00     0.153 C 
ATOM     20  N   UNL A   1      34.108  20.863  24.332  1.00  0.00    -0.205 NA
ATOM     21  C   UNL A   1      32.211  21.900  25.270  1.00  0.00     0.363 C 
ATOM     22  C   UNL A   1      33.211  20.040  24.769  1.00  0.00     0.231 C 
ATOM     23  O   UNL A   1      32.088  20.545  25.321  1.00  0.00    -0.402 OA
ATOM     24  O   UNL A   1      31.411  22.705  25.691  1.00  0.00    -0.244 OA
BRANCH  22  25
ATOM     25  C   UNL A   1      33.241  18.579  24.775  1.00  0.00     0.037 A 
ATOM     26  C   UNL A   1      32.527  17.869  25.741  1.00  0.00     0.014 A 
ATOM     27  C   UNL A   1      33.985  17.904  23.800  1.00  0.00     0.014 A 
ATOM     28  C   UNL A   1      32.547  16.473  25.720  1.00  0.00     0.001 A 
ATOM     29  C   UNL A   1      34.016  16.511  23.795  1.00  0.00     0.001 A 
ATOM     30  C   UNL A   1      33.294  15.796  24.751  1.00  0.00     0.000 A 
ENDBRANCH  22  25
ENDBRANCH  13  18
ENDBRANCH   9  10
ENDBRANCH   8   9
ENDBRANCH   5   8
ENDBRANCH   3   4
ENDBRANCH   2   3
ENDBRANCH   1   2
BRANCH   1  31
ATOM     31  C   UNL A   1      34.942  32.757  29.166  1.00  0.00     0.002 C 
BRANCH  31  32
ATOM     32  C   UNL A   1      33.736  33.615  28.786  1.00  0.00     0.021 C 
BRANCH  32  33
ATOM     33  C   UNL A   1      33.863  35.089  29.144  1.00  0.00     0.116 C 
BRANCH  33  34
ATOM     34  N   UNL A   1      32.908  35.490  30.163  1.00  0.00    -0.352 N 
ATOM     35  C   UNL A   1      32.933  35.235  31.513  1.00  0.00     0.251 C 
ATOM     36  H   UNL A   1      32.139  36.015  29.844  1.00  0.00     0.163 HD
ATOM     37  O   UNL A   1      31.947  35.476  32.203  1.00  0.00    -0.269 OA
BRANCH  35  38
ATOM     38  C   UNL A   1      34.146  34.646  32.122  1.00  0.00     0.039 A 
ATOM     39  C   UNL A   1      34.057  33.397  32.739  1.00  0.00     0.014 A 
ATOM     40  C   UNL A   1      35.371  35.320  32.070  1.00  0.00     0.014 A 
ATOM     41  C   UNL A   1      35.209  32.797  33.251  1.00  0.00     0.010 A 
ATOM     42  C   UNL A   1      36.530  34.683  32.505  1.00  0.00     0.010 A 
ATOM     43  C   UNL A   1      36.461  33.419  33.106  1.00  0.00    -0.014 A 
BRANCH  43  44
ATOM     44  C   UNL A   1      37.706  32.760  33.580  1.00  0.00     0.031 A 
ATOM     45  C   UNL A   1      38.310  31.628  32.792  1.00  0.00     0.074 A 
ATOM     46  C   UNL A   1      38.264  33.147  34.746  1.00  0.00     0.049 A 
ATOM     47  N   UNL A   1      39.355  30.893  33.072  1.00  0.00    -0.248 NA
ATOM     48  C   UNL A   1      37.637  31.258  31.535  1.00  0.00     0.031 C 
ATOM     49  C   UNL A   1      37.748  34.202  35.622  1.00  0.00     0.029 A 
ATOM     50  N   UNL A   1      39.382  32.694  35.401  1.00  0.00    -0.354 N 
ATOM     51  C   UNL A   1      39.460  29.972  32.035  1.00  0.00     0.074 A 
ATOM     52  C   UNL A   1      38.339  30.202  31.151  1.00  0.00     0.031 C 
ATOM     53  C   UNL A   1      38.560  34.331  36.683  1.00  0.00     0.029 A 
ATOM     54  C   UNL A   1      39.627  33.340  36.590  1.00  0.00     0.049 A 
ATOM     55  H   UNL A   1      39.955  31.973  35.053  1.00  0.00     0.167 HD
ATOM     56  C   UNL A   1      40.419  29.038  31.825  1.00  0.00     0.037 A 
ATOM     57  C   UNL A   1      40.595  33.149  37.509  1.00  0.00     0.037 A 
ATOM     58  C   UNL A   1      41.542  28.829  32.703  1.00  0.00     0.049 A 
ATOM     59  C   UNL A   1      41.635  32.088  37.264  1.00  0.00     0.074 A 
ATOM     60  C   UNL A   1      42.593  27.941  32.553  1.00  0.00     0.029 A 
ATOM     61  N   UNL A   1      41.760  29.510  33.892  1.00  0.00    -0.354 N 
ATOM     62  N   UNL A   1      41.754  31.269  36.245  1.00  0.00    -0.248 NA
ATOM     63  C   UNL A   1      42.676  31.927  38.288  1.00  0.00     0.031 C 
ATOM     64  C   UNL A   1      43.415  28.045  33.679  1.00  0.00     0.029 A 
ATOM     65  C   UNL A   1      42.915  29.043  34.499  1.00  0.00     0.049 A 
ATOM     66  H   UNL A   1      41.180  30.219  34.251  1.00  0.00     0.167 HD
ATOM     67  C   UNL A   1      42.901  30.520  36.490  1.00  0.00     0.074 A 
ATOM     68  C   UNL A   1      43.446  30.994  37.745  1.00  0.00     0.031 C 
ATOM     69  C   UNL A   1      43.453  29.533  35.744  1.00  0.00     0.037 A 
BRANCH  56  70
ATOM     70  C   UNL A   1      40.303  28.173  30.599  1.00  0.00     0.058 A 
ATOM     71  C   UNL A   1      41.159  28.337  29.497  1.00  0.00     0.135 A 
ATOM     72  C   UNL A   1      39.363  27.131  30.546  1.00  0.00     0.135 A 
ATOM     73  F   UNL A   1      42.065  29.328  29.485  1.00  0.00    -0.206 F 
ATOM     74  C   UNL A   1      41.074  27.513  28.380  1.00  0.00     0.059 A 
ATOM     75  C   UNL A   1      39.282  26.274  29.451  1.00  0.00     0.059 A 
ATOM     76  F   UNL A   1      38.517  26.929  31.568  1.00  0.00    -0.206 F 
ATOM     77  C   UNL A   1      40.135  26.480  28.369  1.00  0.00     0.060 A 
BRANCH  77  78
ATOM     78  S   UNL A   1      40.058  25.405  26.921  1.00  0.00     0.124 S 
ATOM     79  O   UNL A   1      40.945  24.315  27.320  1.00  0.00    -0.237 OA
ATOM     80  O   UNL A   1      38.639  25.075  26.855  1.00  0.00    -0.237 OA
ATOM     81  O   UNL A   1      40.554  26.252  25.841  1.00  0.00    -0.744 OA
ENDBRANCH  77  78
ENDBRANCH  56  70
BRANCH  57  82
ATOM     82  C   UNL A   1      40.634  33.983  38.741  1.00  0.00     0.058 A 
ATOM     83  C   UNL A   1      39.941  33.599  39.899  1.00  0.00     0.135 A 
ATOM     84  C   UNL A   1      41.356  35.186  38.785  1.00  0.00     0.135 A 
ATOM     85  F   UNL A   1      39.231  32.461  39.909  1.00  0.00    -0.206 F 
ATOM     86  C   UNL A   1      39.938  34.389  41.045  1.00  0.00     0.059 A 
ATOM     87  C   UNL A   1      41.395  35.977  39.928  1.00  0.00     0.059 A 
ATOM     88  F   UNL A   1      42.052  35.593  37.711  1.00  0.00    -0.206 F 
ATOM     89  C   UNL A   1      40.670  35.578  41.050  1.00  0.00     0.060 A 
BRANCH  89  90
ATOM     90  S   UNL A   1      40.681  36.582  42.550  1.00  0.00     0.124 S 
ATOM     91  O   UNL A   1      41.610  37.645  42.186  1.00  0.00    -0.237 OA
ATOM     92  O   UNL A   1      39.279  36.970  42.668  1.00  0.00    -0.237 OA
ATOM     93  O   UNL A   1      41.154  35.652  43.572  1.00  0.00    -0.744 OA
ENDBRANCH  89  90
ENDBRANCH  57  82
BRANCH  69  94
ATOM     94  C   UNL A   1      44.739  28.923  36.235  1.00  0.00     0.058 A 
ATOM     95  C   UNL A   1      44.758  27.753  37.010  1.00  0.00     0.135 A 
ATOM     96  C   UNL A   1      45.973  29.492  35.877  1.00  0.00     0.135 A 
ATOM     97  F   UNL A   1      43.608  27.172  37.385  1.00  0.00    -0.206 F 
ATOM     98  C   UNL A   1      45.954  27.182  37.435  1.00  0.00     0.059 A 
ATOM     99  C   UNL A   1      47.181  28.918  36.262  1.00  0.00     0.059 A 
ATOM    100  F   UNL A   1      46.014  30.605  35.128  1.00  0.00    -0.206 F 
ATOM    101  C   UNL A   1      47.161  27.770  37.051  1.00  0.00     0.060 A 
BRANCH 101 102
ATOM    102  S   UNL A   1      48.704  26.996  37.577  1.00  0.00     0.124 S 
ATOM    103  O   UNL A   1      48.465  26.803  39.004  1.00  0.00    -0.237 OA
ATOM    104  O   UNL A   1      48.734  25.781  36.769  1.00  0.00    -0.237 OA
ATOM    105  O   UNL A   1      49.717  27.991  37.240  1.00  0.00    -0.744 OA
ENDBRANCH 101 102
ENDBRANCH  69  94
ENDBRANCH  43  44
ENDBRANCH  35  38
ENDBRANCH  33  34
ENDBRANCH  32  33
ENDBRANCH  31  32
ENDBRANCH   1  31
TORSDOF 21
ENDMDL
