MODEL 1
REMARK VINA RESULT:     -12.3      0.000      0.000
REMARK SMILES COc1cccc(NC(=O)NC2(C(=O)NCCCCCCNC(=O)c3ccc(-c4c5nc(c(-c6c(F)cc(S(=O)(=O)[O-])cc6F)c6ccc([nH]6)c(-c6c(F)cc(S(=O)(=O)[O-])cc6F)c6nc(c(-c7c(F)cc(S(=O)(=O)[O-])cc7F)c7ccc4[nH]7)C=C6)C=C5)cc3)CCCCC2)c1
REMARK SMILES IDX 18 1 17 2 16 3 15 4 13 5 14 6 12 8 91 9 95 10 92 11 94 12
REMARK SMILES IDX 93 13 11 14 8 15 9 16 10 18 7 20 3 21 4 22 96 23 5 24 6 25
REMARK SMILES IDX 2 26 1 27 19 28 20 29 21 30 22 31 23 32 24 34 25 35 26 36
REMARK SMILES IDX 90 37 27 38 89 39 28 40 29 41 30 42 83 43 31 44 88 45 82 46
REMARK SMILES IDX 84 47 32 48 87 49 81 50 80 51 33 53 67 54 46 55 66 56 47 57
REMARK SMILES IDX 50 58 65 59 85 60 48 61 49 62 64 64 86 65 51 66 34 67 35 68
REMARK SMILES IDX 44 69 36 70 37 71 43 72 45 73 38 74 39 75 40 76 41 77 42 78
REMARK SMILES IDX 68 79 69 80 78 81 70 82 71 83 77 84 79 85 72 86 73 87 74 88
REMARK SMILES IDX 75 89 76 90 52 91 53 92 62 93 54 94 55 95 61 96 63 97 56 98
REMARK SMILES IDX 57 99 58 100 59 101 60 102
REMARK H PARENT 15 7 8 17 11 19 22 33 84 52 50 63
REMARK Flexibility Score: inf
ROOT
ATOM      1  C   UNL A   1      38.067  21.154  25.081  1.00  0.00     0.002 C 
ENDROOT
BRANCH   1   2
ATOM      2  C   UNL A   1      36.555  21.114  24.830  1.00  0.00     0.021 C 
BRANCH   2   3
ATOM      3  C   UNL A   1      35.715  21.410  26.063  1.00  0.00     0.116 C 
BRANCH   3   4
ATOM      4  N   UNL A   1      34.401  20.814  26.016  1.00  0.00    -0.354 N 
ATOM      5  C   UNL A   1      33.146  21.278  25.811  1.00  0.00     0.245 C 
ATOM      6  O   UNL A   1      32.347  20.366  25.523  1.00  0.00    -0.272 OA
ATOM      7  H   UNL A   1      34.422  19.841  26.167  1.00  0.00     0.163 HD
BRANCH   5   8
ATOM      8  C   UNL A   1      32.652  22.774  25.788  1.00  0.00     0.120 C 
ATOM      9  C   UNL A   1      32.053  23.052  24.384  1.00  0.00     0.039 C 
ATOM     10  C   UNL A   1      33.570  23.942  26.182  1.00  0.00     0.039 C 
ATOM     11  C   UNL A   1      33.064  23.422  23.311  1.00  0.00     0.003 C 
ATOM     12  C   UNL A   1      34.507  24.528  25.132  1.00  0.00     0.003 C 
ATOM     13  C   UNL A   1      33.954  24.591  23.716  1.00  0.00     0.000 C 
BRANCH   8  14
ATOM     14  N   UNL A   1      31.443  22.741  26.720  1.00  0.00    -0.323 N 
ATOM     15  N   UNL A   1      29.867  24.465  26.244  1.00  0.00    -0.308 N 
ATOM     16  C   UNL A   1      30.282  23.383  26.930  1.00  0.00     0.320 C 
ATOM     17  H   UNL A   1      28.906  24.458  26.026  1.00  0.00     0.171 HD
ATOM     18  O   UNL A   1      29.487  22.857  27.718  1.00  0.00    -0.248 OA
ATOM     19  H   UNL A   1      31.548  22.017  27.379  1.00  0.00     0.166 HD
BRANCH  15  20
ATOM     20  C   UNL A   1      30.547  25.597  25.784  1.00  0.00     0.046 A 
ATOM     21  C   UNL A   1      31.134  27.033  23.931  1.00  0.00     0.120 A 
ATOM     22  C   UNL A   1      32.130  27.623  24.707  1.00  0.00     0.046 A 
ATOM     23  C   UNL A   1      30.348  26.008  24.462  1.00  0.00     0.072 A 
ATOM     24  C   UNL A   1      32.227  27.310  26.057  1.00  0.00     0.006 A 
ATOM     25  C   UNL A   1      31.403  26.327  26.601  1.00  0.00     0.026 A 
BRANCH  21  26
ATOM     26  O   UNL A   1      30.954  27.350  22.611  1.00  0.00    -0.497 OA
ATOM     27  C   UNL A   1      31.548  26.399  21.726  1.00  0.00     0.278 C 
ENDBRANCH  21  26
ENDBRANCH  15  20
ENDBRANCH   8  14
ENDBRANCH   5   8
ENDBRANCH   3   4
ENDBRANCH   2   3
ENDBRANCH   1   2
BRANCH   1  28
ATOM     28  C   UNL A   1      38.557  22.328  25.938  1.00  0.00     0.002 C 
BRANCH  28  29
ATOM     29  C   UNL A   1      39.766  22.039  26.835  1.00  0.00     0.021 C 
BRANCH  29  30
ATOM     30  C   UNL A   1      40.543  23.271  27.291  1.00  0.00     0.116 C 
BRANCH  30  31
ATOM     31  N   UNL A   1      41.208  23.937  26.185  1.00  0.00    -0.352 N 
ATOM     32  C   UNL A   1      41.459  25.274  26.017  1.00  0.00     0.251 C 
ATOM     33  H   UNL A   1      41.520  23.351  25.459  1.00  0.00     0.163 HD
ATOM     34  O   UNL A   1      41.855  25.693  24.926  1.00  0.00    -0.269 OA
BRANCH  32  35
ATOM     35  C   UNL A   1      41.240  26.211  27.137  1.00  0.00     0.039 A 
ATOM     36  C   UNL A   1      40.172  25.986  28.008  1.00  0.00     0.014 A 
ATOM     37  C   UNL A   1      42.080  27.315  27.320  1.00  0.00     0.014 A 
ATOM     38  C   UNL A   1      39.973  26.845  29.091  1.00  0.00     0.010 A 
ATOM     39  C   UNL A   1      41.917  28.134  28.436  1.00  0.00     0.010 A 
ATOM     40  C   UNL A   1      40.853  27.914  29.325  1.00  0.00    -0.014 A 
BRANCH  40  41
ATOM     41  C   UNL A   1      40.658  28.817  30.488  1.00  0.00     0.031 A 
ATOM     42  C   UNL A   1      41.508  28.658  31.720  1.00  0.00     0.074 A 
ATOM     43  C   UNL A   1      39.691  29.755  30.448  1.00  0.00     0.049 A 
ATOM     44  N   UNL A   1      41.485  29.345  32.833  1.00  0.00    -0.248 NA
ATOM     45  C   UNL A   1      42.499  27.569  31.710  1.00  0.00     0.031 C 
ATOM     46  C   UNL A   1      38.764  29.967  29.334  1.00  0.00     0.029 A 
ATOM     47  N   UNL A   1      39.324  30.703  31.369  1.00  0.00    -0.354 N 
ATOM     48  C   UNL A   1      42.442  28.765  33.658  1.00  0.00     0.074 A 
ATOM     49  C   UNL A   1      42.994  27.640  32.937  1.00  0.00     0.031 C 
ATOM     50  C   UNL A   1      37.954  30.998  29.625  1.00  0.00     0.029 A 
ATOM     51  C   UNL A   1      38.284  31.503  30.955  1.00  0.00     0.049 A 
ATOM     52  H   UNL A   1      39.763  30.802  32.244  1.00  0.00     0.167 HD
ATOM     53  C   UNL A   1      42.839  29.150  34.895  1.00  0.00     0.037 A 
ATOM     54  C   UNL A   1      37.671  32.530  31.575  1.00  0.00     0.037 A 
ATOM     55  C   UNL A   1      42.310  30.294  35.592  1.00  0.00     0.049 A 
ATOM     56  C   UNL A   1      38.152  32.955  32.936  1.00  0.00     0.074 A 
ATOM     57  C   UNL A   1      42.700  30.812  36.814  1.00  0.00     0.029 A 
ATOM     58  N   UNL A   1      41.277  31.094  35.129  1.00  0.00    -0.354 N 
ATOM     59  N   UNL A   1      39.115  32.445  33.666  1.00  0.00    -0.248 NA
ATOM     60  C   UNL A   1      37.472  34.104  33.551  1.00  0.00     0.031 C 
ATOM     61  C   UNL A   1      41.877  31.904  37.108  1.00  0.00     0.029 A 
ATOM     62  C   UNL A   1      41.002  32.092  36.049  1.00  0.00     0.049 A 
ATOM     63  H   UNL A   1      40.808  30.972  34.272  1.00  0.00     0.167 HD
ATOM     64  C   UNL A   1      39.173  33.227  34.816  1.00  0.00     0.074 A 
ATOM     65  C   UNL A   1      38.159  34.251  34.676  1.00  0.00     0.031 C 
ATOM     66  C   UNL A   1      39.992  33.107  35.890  1.00  0.00     0.037 A 
BRANCH  53  67
ATOM     67  C   UNL A   1      43.906  28.333  35.572  1.00  0.00     0.058 A 
ATOM     68  C   UNL A   1      45.270  28.627  35.417  1.00  0.00     0.135 A 
ATOM     69  C   UNL A   1      43.558  27.267  36.417  1.00  0.00     0.135 A 
ATOM     70  F   UNL A   1      45.659  29.625  34.608  1.00  0.00    -0.206 F 
ATOM     71  C   UNL A   1      46.253  27.877  36.056  1.00  0.00     0.059 A 
ATOM     72  C   UNL A   1      44.523  26.520  37.086  1.00  0.00     0.059 A 
ATOM     73  F   UNL A   1      42.269  26.942  36.600  1.00  0.00    -0.206 F 
ATOM     74  C   UNL A   1      45.870  26.824  36.888  1.00  0.00     0.060 A 
BRANCH  74  75
ATOM     75  S   UNL A   1      47.156  25.866  37.716  1.00  0.00     0.124 S 
ATOM     76  O   UNL A   1      47.988  25.460  36.587  1.00  0.00    -0.237 OA
ATOM     77  O   UNL A   1      47.748  26.849  38.617  1.00  0.00    -0.237 OA
ATOM     78  O   UNL A   1      46.413  24.791  38.367  1.00  0.00    -0.744 OA
ENDBRANCH  74  75
ENDBRANCH  53  67
BRANCH  54  79
ATOM     79  C   UNL A   1      36.557  33.249  30.902  1.00  0.00     0.058 A 
ATOM     80  C   UNL A   1      35.230  33.078  31.322  1.00  0.00     0.135 A 
ATOM     81  C   UNL A   1      36.797  34.122  29.829  1.00  0.00     0.135 A 
ATOM     82  F   UNL A   1      34.950  32.251  32.341  1.00  0.00    -0.206 F 
ATOM     83  C   UNL A   1      34.176  33.727  30.689  1.00  0.00     0.059 A 
ATOM     84  C   UNL A   1      35.761  34.802  29.197  1.00  0.00     0.059 A 
ATOM     85  F   UNL A   1      38.051  34.334  29.402  1.00  0.00    -0.206 F 
ATOM     86  C   UNL A   1      34.452  34.589  29.625  1.00  0.00     0.060 A 
BRANCH  86  87
ATOM     87  S   UNL A   1      33.082  35.459  28.834  1.00  0.00     0.124 S 
ATOM     88  O   UNL A   1      32.338  35.947  29.989  1.00  0.00    -0.237 OA
ATOM     89  O   UNL A   1      33.775  36.472  28.044  1.00  0.00    -0.237 OA
ATOM     90  O   UNL A   1      32.427  34.410  28.056  1.00  0.00    -0.744 OA
ENDBRANCH  86  87
ENDBRANCH  54  79
BRANCH  66  91
ATOM     91  C   UNL A   1      39.845  34.129  36.982  1.00  0.00     0.058 A 
ATOM     92  C   UNL A   1      40.452  35.391  36.897  1.00  0.00     0.135 A 
ATOM     93  C   UNL A   1      39.060  33.853  38.114  1.00  0.00     0.135 A 
ATOM     94  F   UNL A   1      41.218  35.702  35.839  1.00  0.00    -0.206 F 
ATOM     95  C   UNL A   1      40.313  36.334  37.910  1.00  0.00     0.059 A 
ATOM     96  C   UNL A   1      38.884  34.790  39.126  1.00  0.00     0.059 A 
ATOM     97  F   UNL A   1      38.447  32.664  38.238  1.00  0.00    -0.206 F 
ATOM     98  C   UNL A   1      39.527  36.023  39.023  1.00  0.00     0.060 A 
BRANCH  98  99
ATOM     99  S   UNL A   1      39.338  37.260  40.323  1.00  0.00     0.124 S 
ATOM    100  O   UNL A   1      40.729  37.552  40.654  1.00  0.00    -0.237 OA
ATOM    101  O   UNL A   1      38.611  38.326  39.641  1.00  0.00    -0.237 OA
ATOM    102  O   UNL A   1      38.581  36.554  41.353  1.00  0.00    -0.744 OA
ENDBRANCH  98  99
ENDBRANCH  66  91
ENDBRANCH  40  41
ENDBRANCH  32  35
ENDBRANCH  30  31
ENDBRANCH  29  30
ENDBRANCH  28  29
ENDBRANCH   1  28
TORSDOF 19
ENDMDL
MODEL 2
REMARK VINA RESULT:     -12.2      6.493     12.074
REMARK SMILES COc1cccc(NC(=O)NC2(C(=O)NCCCCCCNC(=O)c3ccc(-c4c5nc(c(-c6c(F)cc(S(=O)(=O)[O-])cc6F)c6ccc([nH]6)c(-c6c(F)cc(S(=O)(=O)[O-])cc6F)c6nc(c(-c7c(F)cc(S(=O)(=O)[O-])cc7F)c7ccc4[nH]7)C=C6)C=C5)cc3)CCCCC2)c1
REMARK SMILES IDX 18 1 17 2 16 3 15 4 13 5 14 6 12 8 91 9 95 10 92 11 94 12
REMARK SMILES IDX 93 13 11 14 8 15 9 16 10 18 7 20 3 21 4 22 96 23 5 24 6 25
REMARK SMILES IDX 2 26 1 27 19 28 20 29 21 30 22 31 23 32 24 34 25 35 26 36
REMARK SMILES IDX 90 37 27 38 89 39 28 40 29 41 30 42 83 43 31 44 88 45 82 46
REMARK SMILES IDX 84 47 32 48 87 49 81 50 80 51 33 53 67 54 46 55 66 56 47 57
REMARK SMILES IDX 50 58 65 59 85 60 48 61 49 62 64 64 86 65 51 66 34 67 35 68
REMARK SMILES IDX 44 69 36 70 37 71 43 72 45 73 38 74 39 75 40 76 41 77 42 78
REMARK SMILES IDX 68 79 69 80 78 81 70 82 71 83 77 84 79 85 72 86 73 87 74 88
REMARK SMILES IDX 75 89 76 90 52 91 53 92 62 93 54 94 55 95 61 96 63 97 56 98
REMARK SMILES IDX 57 99 58 100 59 101 60 102
REMARK H PARENT 15 7 8 17 11 19 22 33 84 52 50 63
REMARK Flexibility Score: inf
ROOT
ATOM      1  C   UNL A   1      34.623  29.942  27.855  1.00  0.00     0.002 C 
ENDROOT
BRANCH   1   2
ATOM      2  C   UNL A   1      34.475  29.447  26.412  1.00  0.00     0.021 C 
BRANCH   2   3
ATOM      3  C   UNL A   1      33.056  29.532  25.871  1.00  0.00     0.116 C 
BRANCH   3   4
ATOM      4  N   UNL A   1      32.997  29.583  24.429  1.00  0.00    -0.354 N 
ATOM      5  C   UNL A   1      32.772  28.678  23.448  1.00  0.00     0.245 C 
ATOM      6  O   UNL A   1      32.482  29.220  22.363  1.00  0.00    -0.272 OA
ATOM      7  H   UNL A   1      33.157  30.488  24.077  1.00  0.00     0.163 HD
BRANCH   5   8
ATOM      8  C   UNL A   1      32.731  27.107  23.561  1.00  0.00     0.120 C 
ATOM      9  C   UNL A   1      31.260  26.691  23.826  1.00  0.00     0.039 C 
ATOM     10  C   UNL A   1      33.651  26.335  24.520  1.00  0.00     0.039 C 
ATOM     11  C   UNL A   1      30.820  26.758  25.280  1.00  0.00     0.003 C 
ATOM     12  C   UNL A   1      33.227  26.173  25.976  1.00  0.00     0.003 C 
ATOM     13  C   UNL A   1      31.737  25.974  26.211  1.00  0.00     0.000 C 
BRANCH   8  14
ATOM     14  N   UNL A   1      33.003  26.660  22.127  1.00  0.00    -0.323 N 
ATOM     15  N   UNL A   1      32.399  24.387  21.741  1.00  0.00    -0.308 N 
ATOM     16  C   UNL A   1      32.864  25.584  21.336  1.00  0.00     0.320 C 
ATOM     17  H   UNL A   1      31.797  23.950  21.094  1.00  0.00     0.171 HD
ATOM     18  O   UNL A   1      33.052  25.752  20.125  1.00  0.00    -0.248 OA
ATOM     19  H   UNL A   1      33.412  27.398  21.618  1.00  0.00     0.166 HD
BRANCH  15  20
ATOM     20  C   UNL A   1      32.612  23.648  22.909  1.00  0.00     0.046 A 
ATOM     21  C   UNL A   1      34.131  22.365  24.283  1.00  0.00     0.120 A 
ATOM     22  C   UNL A   1      33.051  21.885  25.023  1.00  0.00     0.046 A 
ATOM     23  C   UNL A   1      33.913  23.237  23.214  1.00  0.00     0.072 A 
ATOM     24  C   UNL A   1      31.782  22.405  24.806  1.00  0.00     0.006 A 
ATOM     25  C   UNL A   1      31.575  23.320  23.776  1.00  0.00     0.026 A 
BRANCH  21  26
ATOM     26  O   UNL A   1      35.412  21.932  24.497  1.00  0.00    -0.497 OA
ATOM     27  C   UNL A   1      35.470  20.585  24.970  1.00  0.00     0.278 C 
ENDBRANCH  21  26
ENDBRANCH  15  20
ENDBRANCH   8  14
ENDBRANCH   5   8
ENDBRANCH   3   4
ENDBRANCH   2   3
ENDBRANCH   1   2
BRANCH   1  28
ATOM     28  C   UNL A   1      34.546  31.464  28.036  1.00  0.00     0.002 C 
BRANCH  28  29
ATOM     29  C   UNL A   1      35.875  32.217  27.910  1.00  0.00     0.021 C 
BRANCH  29  30
ATOM     30  C   UNL A   1      36.529  32.602  29.234  1.00  0.00     0.116 C 
BRANCH  30  31
ATOM     31  N   UNL A   1      36.146  31.709  30.313  1.00  0.00    -0.352 N 
ATOM     32  C   UNL A   1      36.761  30.558  30.732  1.00  0.00     0.251 C 
ATOM     33  H   UNL A   1      35.335  31.964  30.810  1.00  0.00     0.163 HD
ATOM     34  O   UNL A   1      36.191  29.812  31.533  1.00  0.00    -0.269 OA
BRANCH  32  35
ATOM     35  C   UNL A   1      38.097  30.206  30.211  1.00  0.00     0.039 A 
ATOM     36  C   UNL A   1      39.171  30.130  31.100  1.00  0.00     0.014 A 
ATOM     37  C   UNL A   1      38.290  29.961  28.847  1.00  0.00     0.014 A 
ATOM     38  C   UNL A   1      40.433  29.766  30.628  1.00  0.00     0.010 A 
ATOM     39  C   UNL A   1      39.537  29.537  28.389  1.00  0.00     0.010 A 
ATOM     40  C   UNL A   1      40.623  29.448  29.273  1.00  0.00    -0.014 A 
BRANCH  40  41
ATOM     41  C   UNL A   1      41.959  29.038  28.769  1.00  0.00     0.031 A 
ATOM     42  C   UNL A   1      43.073  30.047  28.675  1.00  0.00     0.074 A 
ATOM     43  C   UNL A   1      42.158  27.769  28.364  1.00  0.00     0.049 A 
ATOM     44  N   UNL A   1      44.303  29.881  28.260  1.00  0.00    -0.248 NA
ATOM     45  C   UNL A   1      42.759  31.427  29.077  1.00  0.00     0.031 C 
ATOM     46  C   UNL A   1      41.140  26.716  28.351  1.00  0.00     0.029 A 
ATOM     47  N   UNL A   1      43.282  27.148  27.880  1.00  0.00    -0.354 N 
ATOM     48  C   UNL A   1      44.902  31.133  28.336  1.00  0.00     0.074 A 
ATOM     49  C   UNL A   1      43.888  32.059  28.791  1.00  0.00     0.031 C 
ATOM     50  C   UNL A   1      41.692  25.574  27.909  1.00  0.00     0.029 A 
ATOM     51  C   UNL A   1      43.094  25.818  27.583  1.00  0.00     0.049 A 
ATOM     52  H   UNL A   1      44.141  27.611  27.757  1.00  0.00     0.167 HD
ATOM     53  C   UNL A   1      46.186  31.476  28.073  1.00  0.00     0.037 A 
ATOM     54  C   UNL A   1      43.956  24.900  27.106  1.00  0.00     0.037 A 
ATOM     55  C   UNL A   1      47.200  30.542  27.656  1.00  0.00     0.049 A 
ATOM     56  C   UNL A   1      45.384  25.299  26.850  1.00  0.00     0.074 A 
ATOM     57  C   UNL A   1      48.546  30.774  27.439  1.00  0.00     0.029 A 
ATOM     58  N   UNL A   1      46.978  29.199  27.391  1.00  0.00    -0.354 N 
ATOM     59  N   UNL A   1      45.953  26.471  27.007  1.00  0.00    -0.248 NA
ATOM     60  C   UNL A   1      46.290  24.249  26.365  1.00  0.00     0.031 C 
ATOM     61  C   UNL A   1      49.132  29.579  27.006  1.00  0.00     0.029 A 
ATOM     62  C   UNL A   1      48.158  28.592  26.994  1.00  0.00     0.049 A 
ATOM     63  H   UNL A   1      46.109  28.742  27.473  1.00  0.00     0.167 HD
ATOM     64  C   UNL A   1      47.289  26.292  26.664  1.00  0.00     0.074 A 
ATOM     65  C   UNL A   1      47.446  24.897  26.307  1.00  0.00     0.031 C 
ATOM     66  C   UNL A   1      48.296  27.201  26.647  1.00  0.00     0.037 A 
BRANCH  53  67
ATOM     67  C   UNL A   1      46.572  32.920  28.238  1.00  0.00     0.058 A 
ATOM     68  C   UNL A   1      47.087  33.413  29.448  1.00  0.00     0.135 A 
ATOM     69  C   UNL A   1      46.463  33.815  27.161  1.00  0.00     0.135 A 
ATOM     70  F   UNL A   1      47.198  32.605  30.514  1.00  0.00    -0.206 F 
ATOM     71  C   UNL A   1      47.456  34.747  29.592  1.00  0.00     0.059 A 
ATOM     72  C   UNL A   1      46.850  35.147  27.276  1.00  0.00     0.059 A 
ATOM     73  F   UNL A   1      45.976  33.397  25.982  1.00  0.00    -0.206 F 
ATOM     74  C   UNL A   1      47.332  35.607  28.500  1.00  0.00     0.060 A 
BRANCH  74  75
ATOM     75  S   UNL A   1      47.822  37.333  28.701  1.00  0.00     0.124 S 
ATOM     76  O   UNL A   1      49.256  37.261  28.433  1.00  0.00    -0.237 OA
ATOM     77  O   UNL A   1      47.021  38.006  27.684  1.00  0.00    -0.237 OA
ATOM     78  O   UNL A   1      47.456  37.631  30.082  1.00  0.00    -0.744 OA
ENDBRANCH  74  75
ENDBRANCH  53  67
BRANCH  54  79
ATOM     79  C   UNL A   1      43.503  23.503  26.870  1.00  0.00     0.058 A 
ATOM     80  C   UNL A   1      43.262  23.032  25.572  1.00  0.00     0.135 A 
ATOM     81  C   UNL A   1      43.303  22.613  27.937  1.00  0.00     0.135 A 
ATOM     82  F   UNL A   1      43.436  23.847  24.520  1.00  0.00    -0.206 F 
ATOM     83  C   UNL A   1      42.818  21.735  25.337  1.00  0.00     0.059 A 
ATOM     84  C   UNL A   1      42.882  21.304  27.725  1.00  0.00     0.059 A 
ATOM     85  F   UNL A   1      43.537  23.010  29.197  1.00  0.00    -0.206 F 
ATOM     86  C   UNL A   1      42.630  20.877  26.422  1.00  0.00     0.060 A 
BRANCH  86  87
ATOM     87  S   UNL A   1      42.091  19.183  26.107  1.00  0.00     0.124 S 
ATOM     88  O   UNL A   1      42.905  18.825  24.953  1.00  0.00    -0.237 OA
ATOM     89  O   UNL A   1      42.427  18.514  27.361  1.00  0.00    -0.237 OA
ATOM     90  O   UNL A   1      40.660  19.332  25.851  1.00  0.00    -0.744 OA
ENDBRANCH  86  87
ENDBRANCH  54  79
BRANCH  66  91
ATOM     91  C   UNL A   1      49.661  26.706  26.259  1.00  0.00     0.058 A 
ATOM     92  C   UNL A   1      50.147  26.837  24.950  1.00  0.00     0.135 A 
ATOM     93  C   UNL A   1      50.505  26.124  27.219  1.00  0.00     0.135 A 
ATOM     94  F   UNL A   1      49.377  27.381  23.994  1.00  0.00    -0.206 F 
ATOM     95  C   UNL A   1      51.413  26.379  24.596  1.00  0.00     0.059 A 
ATOM     96  C   UNL A   1      51.784  25.683  26.894  1.00  0.00     0.059 A 
ATOM     97  F   UNL A   1      50.092  25.987  28.489  1.00  0.00    -0.206 F 
ATOM     98  C   UNL A   1      52.223  25.802  25.576  1.00  0.00     0.060 A 
BRANCH  98  99
ATOM     99  S   UNL A   1      53.869  25.226  25.111  1.00  0.00     0.124 S 
ATOM    100  O   UNL A   1      54.111  25.987  23.888  1.00  0.00    -0.237 OA
ATOM    101  O   UNL A   1      54.676  25.610  26.265  1.00  0.00    -0.237 OA
ATOM    102  O   UNL A   1      53.688  23.789  24.932  1.00  0.00    -0.744 OA
ENDBRANCH  98  99
ENDBRANCH  66  91
ENDBRANCH  40  41
ENDBRANCH  32  35
ENDBRANCH  30  31
ENDBRANCH  29  30
ENDBRANCH  28  29
ENDBRANCH   1  28
TORSDOF 19
ENDMDL
MODEL 3
REMARK VINA RESULT:     -12.1      6.018      8.223
REMARK SMILES COc1cccc(NC(=O)NC2(C(=O)NCCCCCCNC(=O)c3ccc(-c4c5nc(c(-c6c(F)cc(S(=O)(=O)[O-])cc6F)c6ccc([nH]6)c(-c6c(F)cc(S(=O)(=O)[O-])cc6F)c6nc(c(-c7c(F)cc(S(=O)(=O)[O-])cc7F)c7ccc4[nH]7)C=C6)C=C5)cc3)CCCCC2)c1
REMARK SMILES IDX 18 1 17 2 16 3 15 4 13 5 14 6 12 8 91 9 95 10 92 11 94 12
REMARK SMILES IDX 93 13 11 14 8 15 9 16 10 18 7 20 3 21 4 22 96 23 5 24 6 25
REMARK SMILES IDX 2 26 1 27 19 28 20 29 21 30 22 31 23 32 24 34 25 35 26 36
REMARK SMILES IDX 90 37 27 38 89 39 28 40 29 41 30 42 83 43 31 44 88 45 82 46
REMARK SMILES IDX 84 47 32 48 87 49 81 50 80 51 33 53 67 54 46 55 66 56 47 57
REMARK SMILES IDX 50 58 65 59 85 60 48 61 49 62 64 64 86 65 51 66 34 67 35 68
REMARK SMILES IDX 44 69 36 70 37 71 43 72 45 73 38 74 39 75 40 76 41 77 42 78
REMARK SMILES IDX 68 79 69 80 78 81 70 82 71 83 77 84 79 85 72 86 73 87 74 88
REMARK SMILES IDX 75 89 76 90 52 91 53 92 62 93 54 94 55 95 61 96 63 97 56 98
REMARK SMILES IDX 57 99 58 100 59 101 60 102
REMARK H PARENT 15 7 8 17 11 19 22 33 84 52 50 63
REMARK Flexibility Score: inf
ROOT
ATOM      1  C   UNL A   1      37.343  21.774  25.360  1.00  0.00     0.002 C 
ENDROOT
BRANCH   1   2
ATOM      2  C   UNL A   1      36.875  22.899  24.430  1.00  0.00     0.021 C 
BRANCH   2   3
ATOM      3  C   UNL A   1      35.559  22.611  23.722  1.00  0.00     0.116 C 
BRANCH   3   4
ATOM      4  N   UNL A   1      34.627  21.863  24.533  1.00  0.00    -0.354 N 
ATOM      5  C   UNL A   1      33.403  22.107  25.056  1.00  0.00     0.245 C 
ATOM      6  O   UNL A   1      32.823  21.062  25.408  1.00  0.00    -0.272 OA
ATOM      7  H   UNL A   1      34.960  20.963  24.758  1.00  0.00     0.163 HD
BRANCH   5   8
ATOM      8  C   UNL A   1      32.641  23.482  25.151  1.00  0.00     0.120 C 
ATOM      9  C   UNL A   1      31.774  23.631  23.873  1.00  0.00     0.039 C 
ATOM     10  C   UNL A   1      33.376  24.806  25.414  1.00  0.00     0.039 C 
ATOM     11  C   UNL A   1      32.503  24.177  22.656  1.00  0.00     0.003 C 
ATOM     12  C   UNL A   1      33.998  25.549  24.238  1.00  0.00     0.003 C 
ATOM     13  C   UNL A   1      33.214  25.495  22.935  1.00  0.00     0.000 C 
BRANCH   8  14
ATOM     14  N   UNL A   1      31.633  23.230  26.270  1.00  0.00    -0.323 N 
ATOM     15  N   UNL A   1      29.810  24.766  26.230  1.00  0.00    -0.308 N 
ATOM     16  C   UNL A   1      30.464  23.702  26.734  1.00  0.00     0.320 C 
ATOM     17  H   UNL A   1      28.833  24.650  26.182  1.00  0.00     0.171 HD
ATOM     18  O   UNL A   1      29.891  23.025  27.596  1.00  0.00    -0.248 OA
ATOM     19  H   UNL A   1      31.938  22.482  26.833  1.00  0.00     0.166 HD
BRANCH  15  20
ATOM     20  C   UNL A   1      30.261  26.005  25.765  1.00  0.00     0.046 A 
ATOM     21  C   UNL A   1      30.445  27.573  23.936  1.00  0.00     0.120 A 
ATOM     22  C   UNL A   1      31.406  28.288  24.649  1.00  0.00     0.046 A 
ATOM     23  C   UNL A   1      29.880  26.421  24.486  1.00  0.00     0.072 A 
ATOM     24  C   UNL A   1      31.675  27.953  25.970  1.00  0.00     0.006 A 
ATOM     25  C   UNL A   1      31.067  26.835  26.537  1.00  0.00     0.026 A 
BRANCH  21  26
ATOM     26  O   UNL A   1      30.097  27.899  22.653  1.00  0.00    -0.497 OA
ATOM     27  C   UNL A   1      30.438  29.243  22.309  1.00  0.00     0.278 C 
ENDBRANCH  21  26
ENDBRANCH  15  20
ENDBRANCH   8  14
ENDBRANCH   5   8
ENDBRANCH   3   4
ENDBRANCH   2   3
ENDBRANCH   1   2
BRANCH   1  28
ATOM     28  C   UNL A   1      37.321  20.367  24.747  1.00  0.00     0.002 C 
BRANCH  28  29
ATOM     29  C   UNL A   1      38.475  19.446  25.153  1.00  0.00     0.021 C 
BRANCH  29  30
ATOM     30  C   UNL A   1      39.610  20.126  25.914  1.00  0.00     0.116 C 
BRANCH  30  31
ATOM     31  N   UNL A   1      40.692  19.206  26.218  1.00  0.00    -0.352 N 
ATOM     32  C   UNL A   1      42.008  19.488  26.477  1.00  0.00     0.251 C 
ATOM     33  H   UNL A   1      40.448  18.253  26.240  1.00  0.00     0.163 HD
ATOM     34  O   UNL A   1      42.836  18.574  26.518  1.00  0.00    -0.269 OA
BRANCH  32  35
ATOM     35  C   UNL A   1      42.434  20.885  26.691  1.00  0.00     0.039 A 
ATOM     36  C   UNL A   1      42.651  21.334  27.996  1.00  0.00     0.014 A 
ATOM     37  C   UNL A   1      42.610  21.753  25.608  1.00  0.00     0.014 A 
ATOM     38  C   UNL A   1      43.086  22.643  28.212  1.00  0.00     0.010 A 
ATOM     39  C   UNL A   1      43.104  23.038  25.822  1.00  0.00     0.010 A 
ATOM     40  C   UNL A   1      43.334  23.500  27.127  1.00  0.00    -0.014 A 
BRANCH  40  41
ATOM     41  C   UNL A   1      43.818  24.886  27.350  1.00  0.00     0.031 A 
ATOM     42  C   UNL A   1      45.262  25.232  27.102  1.00  0.00     0.074 A 
ATOM     43  C   UNL A   1      42.967  25.823  27.811  1.00  0.00     0.049 A 
ATOM     44  N   UNL A   1      45.871  26.381  27.243  1.00  0.00    -0.248 NA
ATOM     45  C   UNL A   1      46.144  24.139  26.661  1.00  0.00     0.031 C 
ATOM     46  C   UNL A   1      41.559  25.595  28.146  1.00  0.00     0.029 A 
ATOM     47  N   UNL A   1      43.160  27.154  28.083  1.00  0.00    -0.354 N 
ATOM     48  C   UNL A   1      47.204  26.147  26.923  1.00  0.00     0.074 A 
ATOM     49  C   UNL A   1      47.326  24.736  26.628  1.00  0.00     0.031 C 
ATOM     50  C   UNL A   1      41.009  26.751  28.551  1.00  0.00     0.029 A 
ATOM     51  C   UNL A   1      42.029  27.797  28.530  1.00  0.00     0.049 A 
ATOM     52  H   UNL A   1      44.026  27.607  27.967  1.00  0.00     0.167 HD
ATOM     53  C   UNL A   1      48.228  27.031  26.859  1.00  0.00     0.037 A 
ATOM     54  C   UNL A   1      41.836  29.083  28.880  1.00  0.00     0.037 A 
ATOM     55  C   UNL A   1      48.092  28.442  27.118  1.00  0.00     0.049 A 
ATOM     56  C   UNL A   1      42.983  30.051  28.771  1.00  0.00     0.074 A 
ATOM     57  C   UNL A   1      49.050  29.433  27.005  1.00  0.00     0.029 A 
ATOM     58  N   UNL A   1      46.926  29.059  27.544  1.00  0.00    -0.354 N 
ATOM     59  N   UNL A   1      44.217  29.827  28.388  1.00  0.00    -0.248 NA
ATOM     60  C   UNL A   1      42.707  31.449  29.131  1.00  0.00     0.031 C 
ATOM     61  C   UNL A   1      48.473  30.646  27.399  1.00  0.00     0.029 A 
ATOM     62  C   UNL A   1      47.144  30.416  27.717  1.00  0.00     0.049 A 
ATOM     63  H   UNL A   1      46.068  28.601  27.700  1.00  0.00     0.167 HD
ATOM     64  C   UNL A   1      44.859  31.060  28.435  1.00  0.00     0.074 A 
ATOM     65  C   UNL A   1      43.872  32.028  28.870  1.00  0.00     0.031 C 
ATOM     66  C   UNL A   1      46.148  31.365  28.145  1.00  0.00     0.037 A 
BRANCH  53  67
ATOM     67  C   UNL A   1      49.586  26.503  26.485  1.00  0.00     0.058 A 
ATOM     68  C   UNL A   1      50.446  25.937  27.439  1.00  0.00     0.135 A 
ATOM     69  C   UNL A   1      50.017  26.528  25.149  1.00  0.00     0.135 A 
ATOM     70  F   UNL A   1      50.091  25.901  28.733  1.00  0.00    -0.206 F 
ATOM     71  C   UNL A   1      51.696  25.437  27.086  1.00  0.00     0.059 A 
ATOM     72  C   UNL A   1      51.252  26.011  24.769  1.00  0.00     0.059 A 
ATOM     73  F   UNL A   1      49.234  27.060  24.196  1.00  0.00    -0.206 F 
ATOM     74  C   UNL A   1      52.091  25.480  25.748  1.00  0.00     0.060 A 
BRANCH  74  75
ATOM     75  S   UNL A   1      53.712  24.820  25.305  1.00  0.00     0.124 S 
ATOM     76  O   UNL A   1      54.483  25.111  26.510  1.00  0.00    -0.237 OA
ATOM     77  O   UNL A   1      53.421  23.410  25.064  1.00  0.00    -0.237 OA
ATOM     78  O   UNL A   1      54.080  25.591  24.122  1.00  0.00    -0.744 OA
ENDBRANCH  74  75
ENDBRANCH  53  67
BRANCH  54  79
ATOM     79  C   UNL A   1      40.495  29.540  29.334  1.00  0.00     0.058 A 
ATOM     80  C   UNL A   1      39.456  29.747  28.416  1.00  0.00     0.135 A 
ATOM     81  C   UNL A   1      40.227  29.775  30.691  1.00  0.00     0.135 A 
ATOM     82  F   UNL A   1      39.665  29.540  27.107  1.00  0.00    -0.206 F 
ATOM     83  C   UNL A   1      38.203  30.194  28.822  1.00  0.00     0.059 A 
ATOM     84  C   UNL A   1      38.975  30.198  31.124  1.00  0.00     0.059 A 
ATOM     85  F   UNL A   1      41.183  29.573  31.611  1.00  0.00    -0.206 F 
ATOM     86  C   UNL A   1      37.972  30.417  30.181  1.00  0.00     0.060 A 
BRANCH  86  87
ATOM     87  S   UNL A   1      36.331  30.960  30.705  1.00  0.00     0.124 S 
ATOM     88  O   UNL A   1      35.536  30.684  29.515  1.00  0.00    -0.237 OA
ATOM     89  O   UNL A   1      36.076  30.101  31.859  1.00  0.00    -0.237 OA
ATOM     90  O   UNL A   1      36.532  32.372  31.020  1.00  0.00    -0.744 OA
ENDBRANCH  86  87
ENDBRANCH  54  79
BRANCH  66  91
ATOM     91  C   UNL A   1      46.555  32.807  28.258  1.00  0.00     0.058 A 
ATOM     92  C   UNL A   1      47.134  33.320  29.428  1.00  0.00     0.135 A 
ATOM     93  C   UNL A   1      46.394  33.679  27.168  1.00  0.00     0.135 A 
ATOM     94  F   UNL A   1      47.304  32.530  30.500  1.00  0.00    -0.206 F 
ATOM     95  C   UNL A   1      47.511  34.656  29.527  1.00  0.00     0.059 A 
ATOM     96  C   UNL A   1      46.788  35.011  27.235  1.00  0.00     0.059 A 
ATOM     97  F   UNL A   1      45.856  33.234  26.021  1.00  0.00    -0.206 F 
ATOM     98  C   UNL A   1      47.332  35.494  28.425  1.00  0.00     0.060 A 
BRANCH  98  99
ATOM     99  S   UNL A   1      47.840  37.221  28.557  1.00  0.00     0.124 S 
ATOM    100  O   UNL A   1      46.557  37.890  28.752  1.00  0.00    -0.237 OA
ATOM    101  O   UNL A   1      48.727  37.201  29.716  1.00  0.00    -0.237 OA
ATOM    102  O   UNL A   1      48.496  37.480  27.279  1.00  0.00    -0.744 OA
ENDBRANCH  98  99
ENDBRANCH  66  91
ENDBRANCH  40  41
ENDBRANCH  32  35
ENDBRANCH  30  31
ENDBRANCH  29  30
ENDBRANCH  28  29
ENDBRANCH   1  28
TORSDOF 19
ENDMDL
