MODEL 1
REMARK VINA RESULT:     -11.1      0.000      0.000
REMARK SMILES C[C@@]1(C(=O)NCCCCCCNC(=O)c2ccc(-c3c4nc(c(-c5c(F)cc(S(=O)(=O)[O-])cc5F)c5ccc([nH]5)c(-c5c(F)cc(S(=O)(=O)[O-])cc5F)c5nc(c(-c6c(F)cc(S(=O)(=O)[O-])cc6F)c6ccc3[nH]6)C=C5)C=C4)cc2)COC[C@H]1NC(=O)C[C@@H]1C[NH2+]CCO1
REMARK SMILES IDX 8 1 7 2 6 3 5 4 3 5 4 6 2 8 1 9 81 10 84 11 82 12 83 13
REMARK SMILES IDX 85 14 86 15 87 17 88 18 89 19 90 20 94 21 91 22 93 23 92 24
REMARK SMILES IDX 9 27 10 28 11 29 12 30 13 31 14 33 15 34 16 35 80 36 17 37
REMARK SMILES IDX 79 38 18 39 19 40 20 41 73 42 21 43 78 44 72 45 74 46 22 47
REMARK SMILES IDX 77 48 71 49 70 50 23 52 57 53 36 54 56 55 37 56 40 57 55 58
REMARK SMILES IDX 75 59 38 60 39 61 54 63 76 64 41 65 24 66 25 67 34 68 26 69
REMARK SMILES IDX 27 70 33 71 35 72 28 73 29 74 30 75 31 76 32 77 58 78 59 79
REMARK SMILES IDX 68 80 60 81 61 82 67 83 69 84 62 85 63 86 64 87 65 88 66 89
REMARK SMILES IDX 42 90 43 91 52 92 44 93 45 94 51 95 53 96 46 97 47 98 48 99
REMARK SMILES IDX 49 100 50 101
REMARK H PARENT 5 7 85 16 91 25 91 26 12 32 74 51 40 62
REMARK Flexibility Score: inf
ROOT
ATOM      1  C   UNL A   1      33.179  28.631  27.150  1.00  0.00     0.002 C 
ENDROOT
BRANCH   1   2
ATOM      2  C   UNL A   1      31.766  28.134  27.469  1.00  0.00     0.021 C 
BRANCH   2   3
ATOM      3  C   UNL A   1      31.194  27.121  26.479  1.00  0.00     0.116 C 
BRANCH   3   4
ATOM      4  N   UNL A   1      31.557  25.757  26.801  1.00  0.00    -0.355 N 
ATOM      5  C   UNL A   1      32.089  24.747  26.065  1.00  0.00     0.230 C 
ATOM      6  O   UNL A   1      32.504  23.786  26.723  1.00  0.00    -0.274 OA
ATOM      7  H   UNL A   1      31.386  25.513  27.740  1.00  0.00     0.163 HD
BRANCH   5   8
ATOM      8  C   UNL A   1      32.209  24.754  24.523  1.00  0.00     0.092 C 
ATOM      9  C   UNL A   1      33.182  25.897  24.141  1.00  0.00     0.026 C 
ATOM     10  C   UNL A   1      30.843  25.068  23.914  1.00  0.00     0.179 C 
ATOM     11  C   UNL A   1      32.612  23.389  23.920  1.00  0.00     0.125 C 
ATOM     12  O   UNL A   1      30.335  23.874  23.316  1.00  0.00    -0.378 OA
ATOM     13  C   UNL A   1      31.433  23.014  23.014  1.00  0.00     0.186 C 
BRANCH  11  14
ATOM     14  N   UNL A   1      33.855  23.398  23.136  1.00  0.00    -0.350 N 
ATOM     15  C   UNL A   1      35.163  23.240  23.476  1.00  0.00     0.223 C 
ATOM     16  H   UNL A   1      33.714  23.549  22.174  1.00  0.00     0.163 HD
ATOM     17  O   UNL A   1      35.978  23.213  22.551  1.00  0.00    -0.275 OA
BRANCH  15  18
ATOM     18  C   UNL A   1      35.601  23.058  24.915  1.00  0.00     0.138 C 
BRANCH  18  19
ATOM     19  C   UNL A   1      37.102  23.256  25.162  1.00  0.00     0.182 C 
ATOM     20  C   UNL A   1      37.837  21.917  25.351  1.00  0.00     0.293 C 
ATOM     21  O   UNL A   1      37.305  24.130  26.284  1.00  0.00    -0.366 OA
ATOM     22  N   UNL A   1      39.264  22.063  25.669  1.00  0.00    -0.342 N 
ATOM     23  C   UNL A   1      38.695  24.281  26.603  1.00  0.00     0.222 C 
ATOM     24  C   UNL A   1      39.362  22.924  26.860  1.00  0.00     0.289 C 
ATOM     25  H   UNL A   1      39.754  22.495  24.885  1.00  0.00     0.346 HD
ATOM     26  H   UNL A   1      39.690  21.154  25.845  1.00  0.00     0.346 HD
ENDBRANCH  18  19
ENDBRANCH  15  18
ENDBRANCH  11  14
ENDBRANCH   5   8
ENDBRANCH   3   4
ENDBRANCH   2   3
ENDBRANCH   1   2
BRANCH   1  27
ATOM     27  C   UNL A   1      33.330  30.148  26.984  1.00  0.00     0.002 C 
BRANCH  27  28
ATOM     28  C   UNL A   1      34.631  30.754  27.521  1.00  0.00     0.021 C 
BRANCH  28  29
ATOM     29  C   UNL A   1      35.415  29.875  28.491  1.00  0.00     0.116 C 
BRANCH  29  30
ATOM     30  N   UNL A   1      35.545  30.483  29.803  1.00  0.00    -0.352 N 
ATOM     31  C   UNL A   1      36.649  30.615  30.608  1.00  0.00     0.251 C 
ATOM     32  H   UNL A   1      34.713  30.860  30.170  1.00  0.00     0.163 HD
ATOM     33  O   UNL A   1      36.502  30.998  31.765  1.00  0.00    -0.269 OA
BRANCH  31  34
ATOM     34  C   UNL A   1      38.003  30.285  30.105  1.00  0.00     0.039 A 
ATOM     35  C   UNL A   1      39.004  29.989  31.034  1.00  0.00     0.014 A 
ATOM     36  C   UNL A   1      38.306  30.310  28.740  1.00  0.00     0.014 A 
ATOM     37  C   UNL A   1      40.291  29.671  30.594  1.00  0.00     0.010 A 
ATOM     38  C   UNL A   1      39.575  29.930  28.299  1.00  0.00     0.010 A 
ATOM     39  C   UNL A   1      40.582  29.610  29.220  1.00  0.00    -0.014 A 
BRANCH  39  40
ATOM     40  C   UNL A   1      41.932  29.197  28.751  1.00  0.00     0.031 A 
ATOM     41  C   UNL A   1      43.057  30.194  28.669  1.00  0.00     0.074 A 
ATOM     42  C   UNL A   1      42.133  27.921  28.367  1.00  0.00     0.049 A 
ATOM     43  N   UNL A   1      44.298  30.007  28.296  1.00  0.00    -0.248 NA
ATOM     44  C   UNL A   1      42.745  31.585  29.032  1.00  0.00     0.031 C 
ATOM     45  C   UNL A   1      41.107  26.876  28.343  1.00  0.00     0.029 A 
ATOM     46  N   UNL A   1      43.265  27.284  27.923  1.00  0.00    -0.354 N 
ATOM     47  C   UNL A   1      44.911  31.252  28.371  1.00  0.00     0.074 A 
ATOM     48  C   UNL A   1      43.893  32.196  28.777  1.00  0.00     0.031 C 
ATOM     49  C   UNL A   1      41.662  25.723  27.936  1.00  0.00     0.029 A 
ATOM     50  C   UNL A   1      43.074  25.951  27.644  1.00  0.00     0.049 A 
ATOM     51  H   UNL A   1      44.132  27.738  27.816  1.00  0.00     0.167 HD
ATOM     52  C   UNL A   1      46.209  31.573  28.147  1.00  0.00     0.037 A 
ATOM     53  C   UNL A   1      43.938  25.015  27.206  1.00  0.00     0.037 A 
ATOM     54  C   UNL A   1      47.223  30.623  27.765  1.00  0.00     0.049 A 
ATOM     55  C   UNL A   1      45.377  25.393  26.981  1.00  0.00     0.074 A 
ATOM     56  C   UNL A   1      48.578  30.839  27.577  1.00  0.00     0.029 A 
ATOM     57  N   UNL A   1      46.995  29.280  27.506  1.00  0.00    -0.354 N 
ATOM     58  N   UNL A   1      45.955  26.560  27.134  1.00  0.00    -0.248 NA
ATOM     59  C   UNL A   1      46.281  24.324  26.537  1.00  0.00     0.031 C 
ATOM     60  C   UNL A   1      49.161  29.635  27.165  1.00  0.00     0.029 A 
ATOM     61  C   UNL A   1      48.178  28.658  27.140  1.00  0.00     0.049 A 
ATOM     62  H   UNL A   1      46.120  28.833  27.573  1.00  0.00     0.167 HD
ATOM     63  C   UNL A   1      47.295  26.363  26.821  1.00  0.00     0.074 A 
ATOM     64  C   UNL A   1      47.444  24.959  26.492  1.00  0.00     0.031 C 
ATOM     65  C   UNL A   1      48.310  27.262  26.808  1.00  0.00     0.037 A 
BRANCH  52  66
ATOM     66  C   UNL A   1      46.611  33.014  28.316  1.00  0.00     0.058 A 
ATOM     67  C   UNL A   1      46.534  33.929  27.255  1.00  0.00     0.135 A 
ATOM     68  C   UNL A   1      47.041  33.495  29.564  1.00  0.00     0.135 A 
ATOM     69  F   UNL A   1      46.142  33.522  26.037  1.00  0.00    -0.206 F 
ATOM     70  C   UNL A   1      46.895  35.264  27.415  1.00  0.00     0.059 A 
ATOM     71  C   UNL A   1      47.382  34.832  29.755  1.00  0.00     0.059 A 
ATOM     72  F   UNL A   1      47.134  32.665  30.614  1.00  0.00    -0.206 F 
ATOM     73  C   UNL A   1      47.320  35.705  28.669  1.00  0.00     0.060 A 
BRANCH  73  74
ATOM     74  S   UNL A   1      47.782  37.440  28.862  1.00  0.00     0.124 S 
ATOM     75  O   UNL A   1      48.928  37.336  29.760  1.00  0.00    -0.237 OA
ATOM     76  O   UNL A   1      48.085  37.838  27.492  1.00  0.00    -0.237 OA
ATOM     77  O   UNL A   1      46.587  38.048  29.438  1.00  0.00    -0.744 OA
ENDBRANCH  73  74
ENDBRANCH  52  66
BRANCH  53  78
ATOM     78  C   UNL A   1      43.469  23.622  26.979  1.00  0.00     0.058 A 
ATOM     79  C   UNL A   1      43.160  22.780  28.056  1.00  0.00     0.135 A 
ATOM     80  C   UNL A   1      43.302  23.114  25.682  1.00  0.00     0.135 A 
ATOM     81  F   UNL A   1      43.309  23.220  29.316  1.00  0.00    -0.206 F 
ATOM     82  C   UNL A   1      42.715  21.477  27.859  1.00  0.00     0.059 A 
ATOM     83  C   UNL A   1      42.834  21.823  25.458  1.00  0.00     0.059 A 
ATOM     84  F   UNL A   1      43.567  23.886  24.617  1.00  0.00    -0.206 F 
ATOM     85  C   UNL A   1      42.552  21.008  26.555  1.00  0.00     0.060 A 
BRANCH  85  86
ATOM     86  S   UNL A   1      41.922  19.333  26.307  1.00  0.00     0.124 S 
ATOM     87  O   UNL A   1      42.477  18.638  27.460  1.00  0.00    -0.237 OA
ATOM     88  O   UNL A   1      40.478  19.545  26.321  1.00  0.00    -0.237 OA
ATOM     89  O   UNL A   1      42.478  18.956  25.010  1.00  0.00    -0.744 OA
ENDBRANCH  85  86
ENDBRANCH  53  78
BRANCH  65  90
ATOM     90  C   UNL A   1      49.676  26.750  26.438  1.00  0.00     0.058 A 
ATOM     91  C   UNL A   1      50.188  26.893  25.140  1.00  0.00     0.135 A 
ATOM     92  C   UNL A   1      50.491  26.133  27.401  1.00  0.00     0.135 A 
ATOM     93  F   UNL A   1      49.447  27.470  24.181  1.00  0.00    -0.206 F 
ATOM     94  C   UNL A   1      51.448  26.413  24.799  1.00  0.00     0.059 A 
ATOM     95  C   UNL A   1      51.765  25.670  27.089  1.00  0.00     0.059 A 
ATOM     96  F   UNL A   1      50.053  25.981  28.661  1.00  0.00    -0.206 F 
ATOM     97  C   UNL A   1      52.229  25.800  25.781  1.00  0.00     0.060 A 
BRANCH  97  98
ATOM     98  S   UNL A   1      53.868  25.193  25.331  1.00  0.00     0.124 S 
ATOM     99  O   UNL A   1      53.967  25.619  23.938  1.00  0.00    -0.237 OA
ATOM    100  O   UNL A   1      54.734  25.899  26.272  1.00  0.00    -0.237 OA
ATOM    101  O   UNL A   1      53.767  23.753  25.542  1.00  0.00    -0.744 OA
ENDBRANCH  97  98
ENDBRANCH  65  90
ENDBRANCH  39  40
ENDBRANCH  31  34
ENDBRANCH  29  30
ENDBRANCH  28  29
ENDBRANCH  27  28
ENDBRANCH   1  27
TORSDOF 19
ENDMDL
MODEL 2
REMARK VINA RESULT:     -11.0      1.552      2.217
REMARK SMILES C[C@@]1(C(=O)NCCCCCCNC(=O)c2ccc(-c3c4nc(c(-c5c(F)cc(S(=O)(=O)[O-])cc5F)c5ccc([nH]5)c(-c5c(F)cc(S(=O)(=O)[O-])cc5F)c5nc(c(-c6c(F)cc(S(=O)(=O)[O-])cc6F)c6ccc3[nH]6)C=C5)C=C4)cc2)COC[C@H]1NC(=O)C[C@@H]1C[NH2+]CCO1
REMARK SMILES IDX 8 1 7 2 6 3 5 4 3 5 4 6 2 8 1 9 81 10 84 11 82 12 83 13
REMARK SMILES IDX 85 14 86 15 87 17 88 18 89 19 90 20 94 21 91 22 93 23 92 24
REMARK SMILES IDX 9 27 10 28 11 29 12 30 13 31 14 33 15 34 16 35 80 36 17 37
REMARK SMILES IDX 79 38 18 39 19 40 20 41 73 42 21 43 78 44 72 45 74 46 22 47
REMARK SMILES IDX 77 48 71 49 70 50 23 52 57 53 36 54 56 55 37 56 40 57 55 58
REMARK SMILES IDX 75 59 38 60 39 61 54 63 76 64 41 65 24 66 25 67 34 68 26 69
REMARK SMILES IDX 27 70 33 71 35 72 28 73 29 74 30 75 31 76 32 77 58 78 59 79
REMARK SMILES IDX 68 80 60 81 61 82 67 83 69 84 62 85 63 86 64 87 65 88 66 89
REMARK SMILES IDX 42 90 43 91 52 92 44 93 45 94 51 95 53 96 46 97 47 98 48 99
REMARK SMILES IDX 49 100 50 101
REMARK H PARENT 5 7 85 16 91 25 91 26 12 32 74 51 40 62
REMARK Flexibility Score: inf
ROOT
ATOM      1  C   UNL A   1      33.163  29.071  27.259  1.00  0.00     0.002 C 
ENDROOT
BRANCH   1   2
ATOM      2  C   UNL A   1      31.765  28.461  27.395  1.00  0.00     0.021 C 
BRANCH   2   3
ATOM      3  C   UNL A   1      31.388  27.450  26.313  1.00  0.00     0.116 C 
BRANCH   3   4
ATOM      4  N   UNL A   1      31.188  26.116  26.840  1.00  0.00    -0.355 N 
ATOM      5  C   UNL A   1      31.597  24.890  26.421  1.00  0.00     0.230 C 
ATOM      6  O   UNL A   1      31.456  23.983  27.250  1.00  0.00    -0.274 OA
ATOM      7  H   UNL A   1      30.650  26.092  27.664  1.00  0.00     0.163 HD
BRANCH   5   8
ATOM      8  C   UNL A   1      32.216  24.598  25.034  1.00  0.00     0.092 C 
ATOM      9  C   UNL A   1      33.477  25.487  24.895  1.00  0.00     0.026 C 
ATOM     10  C   UNL A   1      31.224  25.003  23.945  1.00  0.00     0.179 C 
ATOM     11  C   UNL A   1      32.501  23.100  24.778  1.00  0.00     0.125 C 
ATOM     12  O   UNL A   1      30.704  23.815  23.349  1.00  0.00    -0.378 OA
ATOM     13  C   UNL A   1      31.635  22.754  23.561  1.00  0.00     0.186 C 
BRANCH  11  14
ATOM     14  N   UNL A   1      33.906  22.773  24.496  1.00  0.00    -0.350 N 
ATOM     15  C   UNL A   1      34.667  21.674  24.745  1.00  0.00     0.223 C 
ATOM     16  H   UNL A   1      34.393  23.494  24.035  1.00  0.00     0.163 HD
ATOM     17  O   UNL A   1      35.814  21.678  24.293  1.00  0.00    -0.275 OA
BRANCH  15  18
ATOM     18  C   UNL A   1      34.124  20.478  25.501  1.00  0.00     0.138 C 
BRANCH  18  19
ATOM     19  C   UNL A   1      33.775  19.267  24.625  1.00  0.00     0.182 C 
ATOM     20  C   UNL A   1      32.482  18.573  25.088  1.00  0.00     0.293 C 
ATOM     21  O   UNL A   1      34.880  18.350  24.591  1.00  0.00    -0.366 OA
ATOM     22  N   UNL A   1      32.153  17.361  24.326  1.00  0.00    -0.342 N 
ATOM     23  C   UNL A   1      34.571  17.163  23.849  1.00  0.00     0.222 C 
ATOM     24  C   UNL A   1      33.320  16.466  24.400  1.00  0.00     0.289 C 
ATOM     25  H   UNL A   1      31.958  17.602  23.354  1.00  0.00     0.346 HD
ATOM     26  H   UNL A   1      31.325  16.906  24.711  1.00  0.00     0.346 HD
ENDBRANCH  18  19
ENDBRANCH  15  18
ENDBRANCH  11  14
ENDBRANCH   5   8
ENDBRANCH   3   4
ENDBRANCH   2   3
ENDBRANCH   1   2
BRANCH   1  27
ATOM     27  C   UNL A   1      33.221  30.602  27.224  1.00  0.00     0.002 C 
BRANCH  27  28
ATOM     28  C   UNL A   1      34.513  31.236  27.752  1.00  0.00     0.021 C 
BRANCH  28  29
ATOM     29  C   UNL A   1      35.419  30.309  28.557  1.00  0.00     0.116 C 
BRANCH  29  30
ATOM     30  N   UNL A   1      35.552  30.734  29.938  1.00  0.00    -0.352 N 
ATOM     31  C   UNL A   1      36.644  30.700  30.771  1.00  0.00     0.251 C 
ATOM     32  H   UNL A   1      34.735  31.107  30.340  1.00  0.00     0.163 HD
ATOM     33  O   UNL A   1      36.493  30.937  31.965  1.00  0.00    -0.269 OA
BRANCH  31  34
ATOM     34  C   UNL A   1      37.989  30.362  30.249  1.00  0.00     0.039 A 
ATOM     35  C   UNL A   1      38.973  29.957  31.156  1.00  0.00     0.014 A 
ATOM     36  C   UNL A   1      38.303  30.482  28.891  1.00  0.00     0.014 A 
ATOM     37  C   UNL A   1      40.251  29.629  30.698  1.00  0.00     0.010 A 
ATOM     38  C   UNL A   1      39.560  30.091  28.427  1.00  0.00     0.010 A 
ATOM     39  C   UNL A   1      40.549  29.665  29.325  1.00  0.00    -0.014 A 
BRANCH  39  40
ATOM     40  C   UNL A   1      41.886  29.242  28.831  1.00  0.00     0.031 A 
ATOM     41  C   UNL A   1      43.020  30.227  28.738  1.00  0.00     0.074 A 
ATOM     42  C   UNL A   1      42.068  27.967  28.434  1.00  0.00     0.049 A 
ATOM     43  N   UNL A   1      44.252  30.030  28.342  1.00  0.00    -0.248 NA
ATOM     44  C   UNL A   1      42.729  31.619  29.116  1.00  0.00     0.031 C 
ATOM     45  C   UNL A   1      41.031  26.932  28.419  1.00  0.00     0.029 A 
ATOM     46  N   UNL A   1      43.186  27.321  27.967  1.00  0.00    -0.354 N 
ATOM     47  C   UNL A   1      44.880  31.268  28.417  1.00  0.00     0.074 A 
ATOM     48  C   UNL A   1      43.879  32.220  28.846  1.00  0.00     0.031 C 
ATOM     49  C   UNL A   1      41.567  25.777  27.995  1.00  0.00     0.029 A 
ATOM     50  C   UNL A   1      42.977  25.992  27.680  1.00  0.00     0.049 A 
ATOM     51  H   UNL A   1      44.055  27.767  27.849  1.00  0.00     0.167 HD
ATOM     52  C   UNL A   1      46.177  31.578  28.173  1.00  0.00     0.037 A 
ATOM     53  C   UNL A   1      43.823  25.051  27.221  1.00  0.00     0.037 A 
ATOM     54  C   UNL A   1      47.175  30.621  27.768  1.00  0.00     0.049 A 
ATOM     55  C   UNL A   1      45.262  25.416  26.976  1.00  0.00     0.074 A 
ATOM     56  C   UNL A   1      48.529  30.824  27.559  1.00  0.00     0.029 A 
ATOM     57  N   UNL A   1      46.929  29.281  27.503  1.00  0.00    -0.354 N 
ATOM     58  N   UNL A   1      45.854  26.576  27.128  1.00  0.00    -0.248 NA
ATOM     59  C   UNL A   1      46.148  24.341  26.509  1.00  0.00     0.031 C 
ATOM     60  C   UNL A   1      49.092  29.617  27.129  1.00  0.00     0.029 A 
ATOM     61  C   UNL A   1      48.100  28.651  27.113  1.00  0.00     0.049 A 
ATOM     62  H   UNL A   1      46.051  28.843  27.581  1.00  0.00     0.167 HD
ATOM     63  C   UNL A   1      47.187  26.367  26.792  1.00  0.00     0.074 A 
ATOM     64  C   UNL A   1      47.316  24.965  26.450  1.00  0.00     0.031 C 
ATOM     65  C   UNL A   1      48.212  27.255  26.768  1.00  0.00     0.037 A 
BRANCH  52  66
ATOM     66  C   UNL A   1      46.597  33.013  28.347  1.00  0.00     0.058 A 
ATOM     67  C   UNL A   1      47.078  33.496  29.575  1.00  0.00     0.135 A 
ATOM     68  C   UNL A   1      46.557  33.908  27.265  1.00  0.00     0.135 A 
ATOM     69  F   UNL A   1      47.127  32.689  30.647  1.00  0.00    -0.206 F 
ATOM     70  C   UNL A   1      47.477  34.820  29.732  1.00  0.00     0.059 A 
ATOM     71  C   UNL A   1      46.976  35.229  27.391  1.00  0.00     0.059 A 
ATOM     72  F   UNL A   1      46.107  33.500  26.068  1.00  0.00    -0.206 F 
ATOM     73  C   UNL A   1      47.420  35.679  28.634  1.00  0.00     0.060 A 
BRANCH  73  74
ATOM     74  S   UNL A   1      47.945  37.394  28.853  1.00  0.00     0.124 S 
ATOM     75  O   UNL A   1      49.398  37.263  28.788  1.00  0.00    -0.237 OA
ATOM     76  O   UNL A   1      47.318  38.061  27.717  1.00  0.00    -0.237 OA
ATOM     77  O   UNL A   1      47.405  37.750  30.162  1.00  0.00    -0.744 OA
ENDBRANCH  73  74
ENDBRANCH  52  66
BRANCH  53  78
ATOM     78  C   UNL A   1      43.336  23.665  26.992  1.00  0.00     0.058 A 
ATOM     79  C   UNL A   1      43.143  22.781  28.063  1.00  0.00     0.135 A 
ATOM     80  C   UNL A   1      43.035  23.204  25.701  1.00  0.00     0.135 A 
ATOM     81  F   UNL A   1      43.421  23.174  29.316  1.00  0.00    -0.206 F 
ATOM     82  C   UNL A   1      42.682  21.484  27.864  1.00  0.00     0.059 A 
ATOM     83  C   UNL A   1      42.550  21.920  25.479  1.00  0.00     0.059 A 
ATOM     84  F   UNL A   1      43.186  24.017  24.644  1.00  0.00    -0.206 F 
ATOM     85  C   UNL A   1      42.385  21.063  26.567  1.00  0.00     0.060 A 
BRANCH  85  86
ATOM     86  S   UNL A   1      41.736  19.395  26.322  1.00  0.00     0.124 S 
ATOM     87  O   UNL A   1      42.102  18.751  27.577  1.00  0.00    -0.237 OA
ATOM     88  O   UNL A   1      40.312  19.647  26.123  1.00  0.00    -0.237 OA
ATOM     89  O   UNL A   1      42.452  18.929  25.138  1.00  0.00    -0.744 OA
ENDBRANCH  85  86
ENDBRANCH  53  78
BRANCH  65  90
ATOM     90  C   UNL A   1      49.566  26.733  26.372  1.00  0.00     0.058 A 
ATOM     91  C   UNL A   1      50.062  26.888  25.069  1.00  0.00     0.135 A 
ATOM     92  C   UNL A   1      50.386  26.092  27.315  1.00  0.00     0.135 A 
ATOM     93  F   UNL A   1      49.315  27.489  24.129  1.00  0.00    -0.206 F 
ATOM     94  C   UNL A   1      51.311  26.398  24.704  1.00  0.00     0.059 A 
ATOM     95  C   UNL A   1      51.650  25.617  26.978  1.00  0.00     0.059 A 
ATOM     96  F   UNL A   1      49.963  25.926  28.579  1.00  0.00    -0.206 F 
ATOM     97  C   UNL A   1      52.097  25.761  25.666  1.00  0.00     0.060 A 
BRANCH  97  98
ATOM     98  S   UNL A   1      53.723  25.141  25.185  1.00  0.00     0.124 S 
ATOM     99  O   UNL A   1      53.555  23.703  25.375  1.00  0.00    -0.237 OA
ATOM    100  O   UNL A   1      53.834  25.588  23.800  1.00  0.00    -0.237 OA
ATOM    101  O   UNL A   1      54.628  25.796  26.123  1.00  0.00    -0.744 OA
ENDBRANCH  97  98
ENDBRANCH  65  90
ENDBRANCH  39  40
ENDBRANCH  31  34
ENDBRANCH  29  30
ENDBRANCH  28  29
ENDBRANCH  27  28
ENDBRANCH   1  27
TORSDOF 19
ENDMDL
MODEL 3
REMARK VINA RESULT:     -10.9      3.106      9.397
REMARK SMILES C[C@@]1(C(=O)NCCCCCCNC(=O)c2ccc(-c3c4nc(c(-c5c(F)cc(S(=O)(=O)[O-])cc5F)c5ccc([nH]5)c(-c5c(F)cc(S(=O)(=O)[O-])cc5F)c5nc(c(-c6c(F)cc(S(=O)(=O)[O-])cc6F)c6ccc3[nH]6)C=C5)C=C4)cc2)COC[C@H]1NC(=O)C[C@@H]1C[NH2+]CCO1
REMARK SMILES IDX 8 1 7 2 6 3 5 4 3 5 4 6 2 8 1 9 81 10 84 11 82 12 83 13
REMARK SMILES IDX 85 14 86 15 87 17 88 18 89 19 90 20 94 21 91 22 93 23 92 24
REMARK SMILES IDX 9 27 10 28 11 29 12 30 13 31 14 33 15 34 16 35 80 36 17 37
REMARK SMILES IDX 79 38 18 39 19 40 20 41 73 42 21 43 78 44 72 45 74 46 22 47
REMARK SMILES IDX 77 48 71 49 70 50 23 52 57 53 36 54 56 55 37 56 40 57 55 58
REMARK SMILES IDX 75 59 38 60 39 61 54 63 76 64 41 65 24 66 25 67 34 68 26 69
REMARK SMILES IDX 27 70 33 71 35 72 28 73 29 74 30 75 31 76 32 77 58 78 59 79
REMARK SMILES IDX 68 80 60 81 61 82 67 83 69 84 62 85 63 86 64 87 65 88 66 89
REMARK SMILES IDX 42 90 43 91 52 92 44 93 45 94 51 95 53 96 46 97 47 98 48 99
REMARK SMILES IDX 49 100 50 101
REMARK H PARENT 5 7 85 16 91 25 91 26 12 32 74 51 40 62
REMARK Flexibility Score: inf
ROOT
ATOM      1  C   UNL A   1      34.193  21.667  24.606  1.00  0.00     0.002 C 
ENDROOT
BRANCH   1   2
ATOM      2  C   UNL A   1      32.877  21.550  23.831  1.00  0.00     0.021 C 
BRANCH   2   3
ATOM      3  C   UNL A   1      31.816  22.589  24.189  1.00  0.00     0.116 C 
BRANCH   3   4
ATOM      4  N   UNL A   1      32.304  23.592  25.112  1.00  0.00    -0.355 N 
ATOM      5  C   UNL A   1      32.312  24.950  25.076  1.00  0.00     0.230 C 
ATOM      6  O   UNL A   1      32.585  25.497  26.151  1.00  0.00    -0.274 OA
ATOM      7  H   UNL A   1      32.711  23.217  25.926  1.00  0.00     0.163 HD
BRANCH   5   8
ATOM      8  C   UNL A   1      31.991  25.797  23.822  1.00  0.00     0.092 C 
ATOM      9  C   UNL A   1      30.450  25.830  23.669  1.00  0.00     0.026 C 
ATOM     10  C   UNL A   1      32.578  25.111  22.590  1.00  0.00     0.179 C 
ATOM     11  C   UNL A   1      32.628  27.205  23.838  1.00  0.00     0.125 C 
ATOM     12  O   UNL A   1      33.697  25.877  22.142  1.00  0.00    -0.378 OA
ATOM     13  C   UNL A   1      33.549  27.217  22.612  1.00  0.00     0.186 C 
BRANCH  11  14
ATOM     14  N   UNL A   1      31.675  28.320  23.752  1.00  0.00    -0.350 N 
ATOM     15  C   UNL A   1      31.259  29.252  24.652  1.00  0.00     0.223 C 
ATOM     16  H   UNL A   1      31.253  28.411  22.868  1.00  0.00     0.163 HD
ATOM     17  O   UNL A   1      30.497  30.127  24.233  1.00  0.00    -0.275 OA
BRANCH  15  18
ATOM     18  C   UNL A   1      31.742  29.251  26.088  1.00  0.00     0.138 C 
BRANCH  18  19
ATOM     19  C   UNL A   1      33.057  30.003  26.327  1.00  0.00     0.182 C 
ATOM     20  C   UNL A   1      34.224  29.046  26.628  1.00  0.00     0.293 C 
ATOM     21  O   UNL A   1      32.887  30.969  27.376  1.00  0.00    -0.366 OA
ATOM     22  N   UNL A   1      35.487  29.728  26.941  1.00  0.00    -0.342 N 
ATOM     23  C   UNL A   1      34.113  31.643  27.690  1.00  0.00     0.222 C 
ATOM     24  C   UNL A   1      35.221  30.649  28.060  1.00  0.00     0.289 C 
ATOM     25  H   UNL A   1      35.812  30.252  26.128  1.00  0.00     0.346 HD
ATOM     26  H   UNL A   1      36.209  29.054  27.193  1.00  0.00     0.346 HD
ENDBRANCH  18  19
ENDBRANCH  15  18
ENDBRANCH  11  14
ENDBRANCH   5   8
ENDBRANCH   3   4
ENDBRANCH   2   3
ENDBRANCH   1   2
BRANCH   1  27
ATOM     27  C   UNL A   1      35.343  22.357  23.864  1.00  0.00     0.002 C 
BRANCH  27  28
ATOM     28  C   UNL A   1      35.789  23.710  24.430  1.00  0.00     0.021 C 
BRANCH  28  29
ATOM     29  C   UNL A   1      36.348  23.676  25.850  1.00  0.00     0.116 C 
BRANCH  29  30
ATOM     30  N   UNL A   1      37.317  22.610  26.034  1.00  0.00    -0.352 N 
ATOM     31  C   UNL A   1      38.650  22.676  26.355  1.00  0.00     0.251 C 
ATOM     32  H   UNL A   1      36.963  21.700  25.911  1.00  0.00     0.163 HD
ATOM     33  O   UNL A   1      39.334  21.660  26.279  1.00  0.00    -0.269 OA
BRANCH  31  34
ATOM     34  C   UNL A   1      39.271  23.955  26.772  1.00  0.00     0.039 A 
ATOM     35  C   UNL A   1      39.229  24.306  28.124  1.00  0.00     0.014 A 
ATOM     36  C   UNL A   1      39.850  24.828  25.844  1.00  0.00     0.014 A 
ATOM     37  C   UNL A   1      39.807  25.504  28.552  1.00  0.00     0.010 A 
ATOM     38  C   UNL A   1      40.483  25.992  26.282  1.00  0.00     0.010 A 
ATOM     39  C   UNL A   1      40.465  26.345  27.639  1.00  0.00    -0.014 A 
BRANCH  39  40
ATOM     40  C   UNL A   1      41.146  27.582  28.107  1.00  0.00     0.031 A 
ATOM     41  C   UNL A   1      42.642  27.723  28.005  1.00  0.00     0.074 A 
ATOM     42  C   UNL A   1      40.413  28.570  28.655  1.00  0.00     0.049 A 
ATOM     43  N   UNL A   1      43.399  28.733  28.351  1.00  0.00    -0.248 NA
ATOM     44  C   UNL A   1      43.386  26.575  27.465  1.00  0.00     0.031 C 
ATOM     45  C   UNL A   1      38.964  28.528  28.865  1.00  0.00     0.029 A 
ATOM     46  N   UNL A   1      40.781  29.802  29.137  1.00  0.00    -0.354 N 
ATOM     47  C   UNL A   1      44.706  28.342  28.079  1.00  0.00     0.074 A 
ATOM     48  C   UNL A   1      44.641  26.983  27.587  1.00  0.00     0.031 C 
ATOM     49  C   UNL A   1      38.563  29.689  29.405  1.00  0.00     0.029 A 
ATOM     50  C   UNL A   1      39.725  30.549  29.607  1.00  0.00     0.049 A 
ATOM     51  H   UNL A   1      41.712  30.120  29.146  1.00  0.00     0.167 HD
ATOM     52  C   UNL A   1      45.849  29.058  28.205  1.00  0.00     0.037 A 
ATOM     53  C   UNL A   1      39.695  31.787  30.135  1.00  0.00     0.037 A 
ATOM     54  C   UNL A   1      45.904  30.419  28.674  1.00  0.00     0.049 A 
ATOM     55  C   UNL A   1      40.975  32.568  30.248  1.00  0.00     0.074 A 
ATOM     56  C   UNL A   1      47.006  31.252  28.776  1.00  0.00     0.029 A 
ATOM     57  N   UNL A   1      44.813  31.148  29.125  1.00  0.00    -0.354 N 
ATOM     58  N   UNL A   1      42.191  32.209  29.912  1.00  0.00    -0.248 NA
ATOM     59  C   UNL A   1      40.878  33.926  30.799  1.00  0.00     0.031 C 
ATOM     60  C   UNL A   1      46.587  32.468  29.327  1.00  0.00     0.029 A 
ATOM     61  C   UNL A   1      45.217  32.411  29.526  1.00  0.00     0.049 A 
ATOM     62  H   UNL A   1      43.887  30.815  29.156  1.00  0.00     0.167 HD
ATOM     63  C   UNL A   1      43.002  33.302  30.195  1.00  0.00     0.074 A 
ATOM     64  C   UNL A   1      42.133  34.342  30.709  1.00  0.00     0.031 C 
ATOM     65  C   UNL A   1      44.343  33.434  30.043  1.00  0.00     0.037 A 
BRANCH  52  66
ATOM     66  C   UNL A   1      47.141  28.386  27.821  1.00  0.00     0.058 A 
ATOM     67  C   UNL A   1      47.921  27.698  28.765  1.00  0.00     0.135 A 
ATOM     68  C   UNL A   1      47.584  28.393  26.488  1.00  0.00     0.135 A 
ATOM     69  F   UNL A   1      47.553  27.669  30.055  1.00  0.00    -0.206 F 
ATOM     70  C   UNL A   1      49.109  27.067  28.407  1.00  0.00     0.059 A 
ATOM     71  C   UNL A   1      48.754  27.745  26.103  1.00  0.00     0.059 A 
ATOM     72  F   UNL A   1      46.877  29.034  25.545  1.00  0.00    -0.206 F 
ATOM     73  C   UNL A   1      49.518  27.098  27.074  1.00  0.00     0.060 A 
BRANCH  73  74
ATOM     74  S   UNL A   1      51.060  26.271  26.625  1.00  0.00     0.124 S 
ATOM     75  O   UNL A   1      50.835  24.931  27.160  1.00  0.00    -0.237 OA
ATOM     76  O   UNL A   1      51.062  26.380  25.171  1.00  0.00    -0.237 OA
ATOM     77  O   UNL A   1      52.079  27.058  27.312  1.00  0.00    -0.744 OA
ENDBRANCH  73  74
ENDBRANCH  52  66
BRANCH  53  78
ATOM     78  C   UNL A   1      38.400  32.374  30.571  1.00  0.00     0.058 A 
ATOM     79  C   UNL A   1      37.619  33.135  29.690  1.00  0.00     0.135 A 
ATOM     80  C   UNL A   1      37.909  32.169  31.870  1.00  0.00     0.135 A 
ATOM     81  F   UNL A   1      38.049  33.363  28.439  1.00  0.00    -0.206 F 
ATOM     82  C   UNL A   1      36.404  33.686  30.082  1.00  0.00     0.059 A 
ATOM     83  C   UNL A   1      36.685  32.688  32.278  1.00  0.00     0.059 A 
ATOM     84  F   UNL A   1      38.611  31.432  32.746  1.00  0.00    -0.206 F 
ATOM     85  C   UNL A   1      35.944  33.454  31.379  1.00  0.00     0.060 A 
BRANCH  85  86
ATOM     86  S   UNL A   1      34.339  34.126  31.864  1.00  0.00     0.124 S 
ATOM     87  O   UNL A   1      33.827  33.070  32.727  1.00  0.00    -0.237 OA
ATOM     88  O   UNL A   1      34.716  35.370  32.529  1.00  0.00    -0.237 OA
ATOM     89  O   UNL A   1      33.648  34.294  30.589  1.00  0.00    -0.744 OA
ENDBRANCH  85  86
ENDBRANCH  53  78
BRANCH  65  90
ATOM     90  C   UNL A   1      44.951  34.756  30.425  1.00  0.00     0.058 A 
ATOM     91  C   UNL A   1      45.350  35.028  31.742  1.00  0.00     0.135 A 
ATOM     92  C   UNL A   1      45.160  35.751  29.457  1.00  0.00     0.135 A 
ATOM     93  F   UNL A   1      45.167  34.113  32.707  1.00  0.00    -0.206 F 
ATOM     94  C   UNL A   1      45.906  36.254  32.094  1.00  0.00     0.059 A 
ATOM     95  C   UNL A   1      45.739  36.974  29.781  1.00  0.00     0.059 A 
ATOM     96  F   UNL A   1      44.806  35.537  28.179  1.00  0.00    -0.206 F 
ATOM     97  C   UNL A   1      46.094  37.222  31.106  1.00  0.00     0.060 A 
BRANCH  97  98
ATOM     98  S   UNL A   1      46.829  38.804  31.571  1.00  0.00     0.124 S 
ATOM     99  O   UNL A   1      47.253  39.321  30.273  1.00  0.00    -0.237 OA
ATOM    100  O   UNL A   1      45.707  39.501  32.194  1.00  0.00    -0.237 OA
ATOM    101  O   UNL A   1      47.906  38.425  32.479  1.00  0.00    -0.744 OA
ENDBRANCH  97  98
ENDBRANCH  65  90
ENDBRANCH  39  40
ENDBRANCH  31  34
ENDBRANCH  29  30
ENDBRANCH  28  29
ENDBRANCH  27  28
ENDBRANCH   1  27
TORSDOF 19
ENDMDL
