MODEL 1
REMARK VINA RESULT:     -12.3      0.000      0.000
REMARK SMILES Cc1ccc(S(=O)(=O)n2cc(C(=O)C(=O)NCC(=O)NCCCCCCNC(=O)c3ccc(-c4c5nc(c(-c6c(F)cc(S(=O)(=O)[O-])cc6F)c6ccc([nH]6)c(-c6c(F)cc(S(=O)(=O)[O-])cc6F)c6nc(c(-c7c(F)cc(S(=O)(=O)[O-])cc7F)c7ccc4[nH]7)C=C6)C=C5)cc3)c3ccccc32)cc1
REMARK SMILES IDX 22 1 21 2 20 3 18 4 19 5 17 7 16 8 14 9 15 10 12 12 13 13
REMARK SMILES IDX 11 14 9 15 10 16 101 17 96 18 100 19 97 20 99 21 98 22 6 23
REMARK SMILES IDX 7 24 8 25 5 26 1 27 2 28 3 29 103 30 4 31 102 32 23 33 24 34
REMARK SMILES IDX 25 35 26 36 27 37 28 38 29 40 30 41 31 42 95 43 32 44 94 45
REMARK SMILES IDX 33 46 34 47 35 48 88 49 36 50 93 51 87 52 89 53 37 54 92 55
REMARK SMILES IDX 86 56 85 57 38 59 72 60 51 61 71 62 52 63 55 64 70 65 90 66
REMARK SMILES IDX 53 67 54 68 69 70 91 71 56 72 39 73 40 74 49 75 41 76 42 77
REMARK SMILES IDX 48 78 50 79 43 80 44 81 45 82 46 83 47 84 73 85 74 86 83 87
REMARK SMILES IDX 75 88 76 89 82 90 84 91 77 92 78 93 79 94 80 95 81 96 57 97
REMARK SMILES IDX 58 98 67 99 59 100 60 101 66 102 68 103 61 104 62 105 63 106
REMARK SMILES IDX 64 107 65 108
REMARK H PARENT 20 6 16 11 27 39 89 58 55 69
REMARK Flexibility Score: inf
ROOT
ATOM      1  C   UNL A   1      33.794  27.731  24.875  1.00  0.00     0.021 C 
ENDROOT
BRANCH   1   2
ATOM      2  C   UNL A   1      33.602  28.906  23.918  1.00  0.00     0.116 C 
BRANCH   2   3
ATOM      3  N   UNL A   1      32.354  29.593  24.172  1.00  0.00    -0.355 N 
ATOM      4  C   UNL A   1      31.108  29.332  23.685  1.00  0.00     0.239 C 
ATOM      5  O   UNL A   1      30.161  30.001  24.106  1.00  0.00    -0.273 OA
ATOM      6  H   UNL A   1      32.413  30.361  24.786  1.00  0.00     0.163 HD
BRANCH   4   7
ATOM      7  C   UNL A   1      30.873  28.132  22.762  1.00  0.00     0.216 C 
BRANCH   7   8
ATOM      8  N   UNL A   1      29.696  27.334  23.087  1.00  0.00    -0.340 N 
ATOM      9  C   UNL A   1      29.424  26.513  24.163  1.00  0.00     0.292 C 
ATOM     10  O   UNL A   1      28.310  26.008  24.244  1.00  0.00    -0.265 OA
ATOM     11  H   UNL A   1      28.970  27.390  22.425  1.00  0.00     0.164 HD
BRANCH   9  12
ATOM     12  C   UNL A   1      30.500  26.213  25.242  1.00  0.00     0.252 C 
ATOM     13  O   UNL A   1      30.560  26.950  26.223  1.00  0.00    -0.283 OA
BRANCH  12  14
ATOM     14  C   UNL A   1      31.431  25.077  25.121  1.00  0.00     0.054 A 
ATOM     15  N   UNL A   1      32.802  23.375  25.599  1.00  0.00    -0.240 N 
ATOM     16  C   UNL A   1      31.898  24.258  26.134  1.00  0.00     0.117 A 
ATOM     17  C   UNL A   1      32.932  23.557  24.239  1.00  0.00     0.065 A 
ATOM     18  C   UNL A   1      32.079  24.622  23.912  1.00  0.00     0.012 A 
ATOM     19  C   UNL A   1      33.734  22.922  23.273  1.00  0.00     0.028 A 
ATOM     20  C   UNL A   1      32.022  25.037  22.562  1.00  0.00     0.011 A 
ATOM     21  C   UNL A   1      33.673  23.376  21.954  1.00  0.00     0.002 A 
ATOM     22  C   UNL A   1      32.822  24.415  21.599  1.00  0.00     0.001 A 
BRANCH  15  23
ATOM     23  S   UNL A   1      33.728  22.287  26.530  1.00  0.00     0.268 S 
ATOM     24  O   UNL A   1      32.965  22.089  27.744  1.00  0.00    -0.201 OA
ATOM     25  O   UNL A   1      35.075  22.830  26.533  1.00  0.00    -0.201 OA
BRANCH  23  26
ATOM     26  C   UNL A   1      33.785  20.736  25.668  1.00  0.00     0.088 A 
ATOM     27  C   UNL A   1      33.647  17.122  23.336  1.00  0.00     0.044 C 
ATOM     28  C   UNL A   1      33.703  18.370  24.165  1.00  0.00    -0.051 A 
ATOM     29  C   UNL A   1      32.516  18.974  24.598  1.00  0.00     0.005 A 
ATOM     30  C   UNL A   1      34.929  18.945  24.520  1.00  0.00     0.005 A 
ATOM     31  C   UNL A   1      32.554  20.154  25.342  1.00  0.00     0.022 A 
ATOM     32  C   UNL A   1      34.976  20.118  25.281  1.00  0.00     0.022 A 
ENDBRANCH  23  26
ENDBRANCH  15  23
ENDBRANCH  12  14
ENDBRANCH   9  12
ENDBRANCH   7   8
ENDBRANCH   4   7
ENDBRANCH   2   3
ENDBRANCH   1   2
BRANCH   1  33
ATOM     33  C   UNL A   1      34.268  28.139  26.278  1.00  0.00     0.002 C 
BRANCH  33  34
ATOM     34  C   UNL A   1      33.165  28.556  27.265  1.00  0.00     0.002 C 
BRANCH  34  35
ATOM     35  C   UNL A   1      33.148  30.036  27.640  1.00  0.00     0.021 C 
BRANCH  35  36
ATOM     36  C   UNL A   1      34.323  30.821  27.080  1.00  0.00     0.116 C 
BRANCH  36  37
ATOM     37  N   UNL A   1      34.883  31.733  28.070  1.00  0.00    -0.352 N 
ATOM     38  C   UNL A   1      35.540  31.396  29.242  1.00  0.00     0.251 C 
ATOM     39  H   UNL A   1      34.783  32.696  27.885  1.00  0.00     0.163 HD
ATOM     40  O   UNL A   1      35.500  32.067  30.264  1.00  0.00    -0.269 OA
BRANCH  38  41
ATOM     41  C   UNL A   1      36.472  30.260  29.135  1.00  0.00     0.039 A 
ATOM     42  C   UNL A   1      36.616  29.466  30.283  1.00  0.00     0.014 A 
ATOM     43  C   UNL A   1      37.442  30.301  28.143  1.00  0.00     0.014 A 
ATOM     44  C   UNL A   1      37.849  28.908  30.564  1.00  0.00     0.010 A 
ATOM     45  C   UNL A   1      38.696  29.878  28.486  1.00  0.00     0.010 A 
ATOM     46  C   UNL A   1      38.896  29.234  29.717  1.00  0.00    -0.014 A 
BRANCH  46  47
ATOM     47  C   UNL A   1      40.273  28.868  29.943  1.00  0.00     0.031 A 
ATOM     48  C   UNL A   1      40.646  27.513  29.517  1.00  0.00     0.074 A 
ATOM     49  C   UNL A   1      41.129  29.868  30.238  1.00  0.00     0.049 A 
ATOM     50  N   UNL A   1      41.782  26.964  29.729  1.00  0.00    -0.248 NA
ATOM     51  C   UNL A   1      39.712  26.635  28.813  1.00  0.00     0.031 C 
ATOM     52  C   UNL A   1      42.578  29.907  30.091  1.00  0.00     0.029 A 
ATOM     53  N   UNL A   1      40.825  31.030  30.957  1.00  0.00    -0.354 N 
ATOM     54  C   UNL A   1      41.854  25.844  28.923  1.00  0.00     0.074 A 
ATOM     55  C   UNL A   1      40.508  25.622  28.470  1.00  0.00     0.031 C 
ATOM     56  C   UNL A   1      43.070  30.839  30.929  1.00  0.00     0.029 A 
ATOM     57  C   UNL A   1      41.959  31.298  31.750  1.00  0.00     0.049 A 
ATOM     58  H   UNL A   1      39.991  31.552  30.918  1.00  0.00     0.167 HD
ATOM     59  C   UNL A   1      43.096  25.364  28.630  1.00  0.00     0.037 A 
ATOM     60  C   UNL A   1      41.877  31.107  33.103  1.00  0.00     0.037 A 
ATOM     61  C   UNL A   1      44.077  26.056  29.474  1.00  0.00     0.049 A 
ATOM     62  C   UNL A   1      42.754  29.960  33.568  1.00  0.00     0.074 A 
ATOM     63  C   UNL A   1      44.902  27.147  29.250  1.00  0.00     0.029 A 
ATOM     64  N   UNL A   1      43.982  25.914  30.856  1.00  0.00    -0.354 N 
ATOM     65  N   UNL A   1      43.102  28.942  32.824  1.00  0.00    -0.248 NA
ATOM     66  C   UNL A   1      43.397  29.939  34.877  1.00  0.00     0.031 C 
ATOM     67  C   UNL A   1      45.210  27.724  30.514  1.00  0.00     0.029 A 
ATOM     68  C   UNL A   1      44.594  26.971  31.503  1.00  0.00     0.049 A 
ATOM     69  H   UNL A   1      43.537  25.163  31.311  1.00  0.00     0.167 HD
ATOM     70  C   UNL A   1      44.012  28.165  33.499  1.00  0.00     0.074 A 
ATOM     71  C   UNL A   1      44.165  28.841  34.776  1.00  0.00     0.031 C 
ATOM     72  C   UNL A   1      44.596  27.047  32.960  1.00  0.00     0.037 A 
BRANCH  59  73
ATOM     73  C   UNL A   1      43.462  24.507  27.429  1.00  0.00     0.058 A 
ATOM     74  C   UNL A   1      43.264  23.108  27.483  1.00  0.00     0.135 A 
ATOM     75  C   UNL A   1      44.069  24.954  26.235  1.00  0.00     0.135 A 
ATOM     76  F   UNL A   1      42.666  22.525  28.532  1.00  0.00    -0.206 F 
ATOM     77  C   UNL A   1      43.677  22.232  26.474  1.00  0.00     0.059 A 
ATOM     78  C   UNL A   1      44.509  24.096  25.221  1.00  0.00     0.059 A 
ATOM     79  F   UNL A   1      44.239  26.247  25.960  1.00  0.00    -0.206 F 
ATOM     80  C   UNL A   1      44.312  22.732  25.348  1.00  0.00     0.060 A 
BRANCH  80  81
ATOM     81  S   UNL A   1      44.831  21.593  24.053  1.00  0.00     0.124 S 
ATOM     82  O   UNL A   1      44.170  20.355  24.452  1.00  0.00    -0.237 OA
ATOM     83  O   UNL A   1      44.306  22.236  22.854  1.00  0.00    -0.237 OA
ATOM     84  O   UNL A   1      46.287  21.584  24.167  1.00  0.00    -0.744 OA
ENDBRANCH  80  81
ENDBRANCH  59  73
BRANCH  60  85
ATOM     85  C   UNL A   1      40.543  31.520  33.647  1.00  0.00     0.058 A 
ATOM     86  C   UNL A   1      39.703  30.487  34.123  1.00  0.00     0.135 A 
ATOM     87  C   UNL A   1      40.301  32.809  34.143  1.00  0.00     0.135 A 
ATOM     88  F   UNL A   1      39.866  29.232  33.669  1.00  0.00    -0.206 F 
ATOM     89  C   UNL A   1      38.808  30.682  35.172  1.00  0.00     0.059 A 
ATOM     90  C   UNL A   1      39.389  33.032  35.184  1.00  0.00     0.059 A 
ATOM     91  F   UNL A   1      41.048  33.843  33.728  1.00  0.00    -0.206 F 
ATOM     92  C   UNL A   1      38.705  31.947  35.741  1.00  0.00     0.060 A 
BRANCH  92  93
ATOM     93  S   UNL A   1      37.813  32.098  37.312  1.00  0.00     0.124 S 
ATOM     94  O   UNL A   1      36.788  33.082  36.981  1.00  0.00    -0.237 OA
ATOM     95  O   UNL A   1      37.333  30.731  37.528  1.00  0.00    -0.237 OA
ATOM     96  O   UNL A   1      38.841  32.551  38.239  1.00  0.00    -0.744 OA
ENDBRANCH  92  93
ENDBRANCH  60  85
BRANCH  72  97
ATOM     97  C   UNL A   1      45.317  25.954  33.735  1.00  0.00     0.058 A 
ATOM     98  C   UNL A   1      46.713  25.787  33.758  1.00  0.00     0.135 A 
ATOM     99  C   UNL A   1      44.604  25.105  34.625  1.00  0.00     0.135 A 
ATOM    100  F   UNL A   1      47.534  26.608  33.091  1.00  0.00    -0.206 F 
ATOM    101  C   UNL A   1      47.341  24.798  34.515  1.00  0.00     0.059 A 
ATOM    102  C   UNL A   1      45.219  24.171  35.455  1.00  0.00     0.059 A 
ATOM    103  F   UNL A   1      43.270  25.157  34.745  1.00  0.00    -0.206 F 
ATOM    104  C   UNL A   1      46.586  23.994  35.361  1.00  0.00     0.060 A 
BRANCH 104 105
ATOM    105  S   UNL A   1      47.409  22.747  36.360  1.00  0.00     0.124 S 
ATOM    106  O   UNL A   1      48.706  22.658  35.697  1.00  0.00    -0.237 OA
ATOM    107  O   UNL A   1      47.418  23.356  37.686  1.00  0.00    -0.237 OA
ATOM    108  O   UNL A   1      46.547  21.577  36.222  1.00  0.00    -0.744 OA
ENDBRANCH 104 105
ENDBRANCH  72  97
ENDBRANCH  46  47
ENDBRANCH  38  41
ENDBRANCH  36  37
ENDBRANCH  35  36
ENDBRANCH  34  35
ENDBRANCH  33  34
ENDBRANCH   1  33
TORSDOF 21
ENDMDL
MODEL 2
REMARK VINA RESULT:     -11.2      4.256     10.495
REMARK SMILES Cc1ccc(S(=O)(=O)n2cc(C(=O)C(=O)NCC(=O)NCCCCCCNC(=O)c3ccc(-c4c5nc(c(-c6c(F)cc(S(=O)(=O)[O-])cc6F)c6ccc([nH]6)c(-c6c(F)cc(S(=O)(=O)[O-])cc6F)c6nc(c(-c7c(F)cc(S(=O)(=O)[O-])cc7F)c7ccc4[nH]7)C=C6)C=C5)cc3)c3ccccc32)cc1
REMARK SMILES IDX 22 1 21 2 20 3 18 4 19 5 17 7 16 8 14 9 15 10 12 12 13 13
REMARK SMILES IDX 11 14 9 15 10 16 101 17 96 18 100 19 97 20 99 21 98 22 6 23
REMARK SMILES IDX 7 24 8 25 5 26 1 27 2 28 3 29 103 30 4 31 102 32 23 33 24 34
REMARK SMILES IDX 25 35 26 36 27 37 28 38 29 40 30 41 31 42 95 43 32 44 94 45
REMARK SMILES IDX 33 46 34 47 35 48 88 49 36 50 93 51 87 52 89 53 37 54 92 55
REMARK SMILES IDX 86 56 85 57 38 59 72 60 51 61 71 62 52 63 55 64 70 65 90 66
REMARK SMILES IDX 53 67 54 68 69 70 91 71 56 72 39 73 40 74 49 75 41 76 42 77
REMARK SMILES IDX 48 78 50 79 43 80 44 81 45 82 46 83 47 84 73 85 74 86 83 87
REMARK SMILES IDX 75 88 76 89 82 90 84 91 77 92 78 93 79 94 80 95 81 96 57 97
REMARK SMILES IDX 58 98 67 99 59 100 60 101 66 102 68 103 61 104 62 105 63 106
REMARK SMILES IDX 64 107 65 108
REMARK H PARENT 20 6 16 11 27 39 89 58 55 69
REMARK Flexibility Score: inf
ROOT
ATOM      1  C   UNL A   1      35.481  24.079  25.951  1.00  0.00     0.021 C 
ENDROOT
BRANCH   1   2
ATOM      2  C   UNL A   1      34.913  22.788  26.537  1.00  0.00     0.116 C 
BRANCH   2   3
ATOM      3  N   UNL A   1      35.410  21.626  25.832  1.00  0.00    -0.355 N 
ATOM      4  C   UNL A   1      34.726  20.563  25.325  1.00  0.00     0.239 C 
ATOM      5  O   UNL A   1      35.349  19.717  24.679  1.00  0.00    -0.273 OA
ATOM      6  H   UNL A   1      36.385  21.601  25.698  1.00  0.00     0.163 HD
BRANCH   4   7
ATOM      7  C   UNL A   1      33.197  20.508  25.422  1.00  0.00     0.216 C 
BRANCH   7   8
ATOM      8  N   UNL A   1      32.506  20.472  24.137  1.00  0.00    -0.340 N 
ATOM      9  C   UNL A   1      32.504  21.363  23.083  1.00  0.00     0.292 C 
ATOM     10  O   UNL A   1      31.892  21.059  22.064  1.00  0.00    -0.265 OA
ATOM     11  H   UNL A   1      31.945  19.676  23.999  1.00  0.00     0.164 HD
BRANCH   9  12
ATOM     12  C   UNL A   1      33.237  22.729  23.177  1.00  0.00     0.252 C 
ATOM     13  O   UNL A   1      34.449  22.753  22.977  1.00  0.00    -0.283 OA
BRANCH  12  14
ATOM     14  C   UNL A   1      32.521  23.979  23.488  1.00  0.00     0.054 A 
ATOM     15  N   UNL A   1      31.848  26.112  23.500  1.00  0.00    -0.240 N 
ATOM     16  C   UNL A   1      32.634  25.198  22.844  1.00  0.00     0.117 A 
ATOM     17  C   UNL A   1      31.180  25.530  24.555  1.00  0.00     0.065 A 
ATOM     18  C   UNL A   1      31.585  24.186  24.569  1.00  0.00     0.012 A 
ATOM     19  C   UNL A   1      30.293  26.051  25.515  1.00  0.00     0.028 A 
ATOM     20  C   UNL A   1      31.056  23.344  25.574  1.00  0.00     0.011 A 
ATOM     21  C   UNL A   1      29.812  25.196  26.509  1.00  0.00     0.002 A 
ATOM     22  C   UNL A   1      30.180  23.857  26.536  1.00  0.00     0.001 A 
BRANCH  15  23
ATOM     23  S   UNL A   1      31.815  27.775  23.122  1.00  0.00     0.268 S 
ATOM     24  O   UNL A   1      30.417  28.083  22.906  1.00  0.00    -0.201 OA
ATOM     25  O   UNL A   1      32.824  27.959  22.094  1.00  0.00    -0.201 OA
BRANCH  23  26
ATOM     26  C   UNL A   1      32.351  28.675  24.556  1.00  0.00     0.088 A 
ATOM     27  C   UNL A   1      34.004  30.892  27.853  1.00  0.00     0.044 C 
ATOM     28  C   UNL A   1      33.413  30.111  26.717  1.00  0.00    -0.051 A 
ATOM     29  C   UNL A   1      34.125  29.040  26.162  1.00  0.00     0.005 A 
ATOM     30  C   UNL A   1      32.153  30.434  26.200  1.00  0.00     0.005 A 
ATOM     31  C   UNL A   1      33.600  28.328  25.083  1.00  0.00     0.022 A 
ATOM     32  C   UNL A   1      31.613  29.712  25.130  1.00  0.00     0.022 A 
ENDBRANCH  23  26
ENDBRANCH  15  23
ENDBRANCH  12  14
ENDBRANCH   9  12
ENDBRANCH   7   8
ENDBRANCH   4   7
ENDBRANCH   2   3
ENDBRANCH   1   2
BRANCH   1  33
ATOM     33  C   UNL A   1      36.924  23.950  25.439  1.00  0.00     0.002 C 
BRANCH  33  34
ATOM     34  C   UNL A   1      38.019  23.922  26.517  1.00  0.00     0.002 C 
BRANCH  34  35
ATOM     35  C   UNL A   1      38.347  25.272  27.152  1.00  0.00     0.021 C 
BRANCH  35  36
ATOM     36  C   UNL A   1      39.824  25.460  27.457  1.00  0.00     0.116 C 
BRANCH  36  37
ATOM     37  N   UNL A   1      40.579  24.230  27.250  1.00  0.00    -0.352 N 
ATOM     38  C   UNL A   1      41.916  24.117  26.904  1.00  0.00     0.251 C 
ATOM     39  H   UNL A   1      40.084  23.387  27.369  1.00  0.00     0.163 HD
ATOM     40  O   UNL A   1      42.370  23.208  26.223  1.00  0.00    -0.269 OA
BRANCH  38  41
ATOM     41  C   UNL A   1      42.822  25.064  27.578  1.00  0.00     0.039 A 
ATOM     42  C   UNL A   1      42.721  25.128  28.977  1.00  0.00     0.014 A 
ATOM     43  C   UNL A   1      43.354  26.104  26.831  1.00  0.00     0.014 A 
ATOM     44  C   UNL A   1      42.918  26.341  29.609  1.00  0.00     0.010 A 
ATOM     45  C   UNL A   1      43.406  27.332  27.428  1.00  0.00     0.010 A 
ATOM     46  C   UNL A   1      43.135  27.445  28.801  1.00  0.00    -0.014 A 
BRANCH  46  47
ATOM     47  C   UNL A   1      43.207  28.805  29.279  1.00  0.00     0.031 A 
ATOM     48  C   UNL A   1      41.949  29.560  29.233  1.00  0.00     0.074 A 
ATOM     49  C   UNL A   1      44.310  29.148  29.976  1.00  0.00     0.049 A 
ATOM     50  N   UNL A   1      41.828  30.804  29.507  1.00  0.00    -0.248 NA
ATOM     51  C   UNL A   1      40.686  28.941  28.831  1.00  0.00     0.031 C 
ATOM     52  C   UNL A   1      44.491  30.236  30.928  1.00  0.00     0.029 A 
ATOM     53  N   UNL A   1      45.603  28.649  29.775  1.00  0.00    -0.354 N 
ATOM     54  C   UNL A   1      40.480  31.064  29.653  1.00  0.00     0.074 A 
ATOM     55  C   UNL A   1      39.815  29.912  29.109  1.00  0.00     0.031 C 
ATOM     56  C   UNL A   1      45.803  30.527  31.005  1.00  0.00     0.029 A 
ATOM     57  C   UNL A   1      46.471  29.741  29.977  1.00  0.00     0.049 A 
ATOM     58  H   UNL A   1      45.854  27.727  29.541  1.00  0.00     0.167 HD
ATOM     59  C   UNL A   1      40.130  32.167  30.374  1.00  0.00     0.037 A 
ATOM     60  C   UNL A   1      47.111  30.282  28.895  1.00  0.00     0.037 A 
ATOM     61  C   UNL A   1      41.338  32.962  30.628  1.00  0.00     0.049 A 
ATOM     62  C   UNL A   1      46.630  31.688  28.595  1.00  0.00     0.074 A 
ATOM     63  C   UNL A   1      42.198  33.040  31.711  1.00  0.00     0.029 A 
ATOM     64  N   UNL A   1      42.032  33.481  29.538  1.00  0.00    -0.354 N 
ATOM     65  N   UNL A   1      45.442  32.147  28.898  1.00  0.00    -0.248 NA
ATOM     66  C   UNL A   1      47.496  32.716  28.030  1.00  0.00     0.031 C 
ATOM     67  C   UNL A   1      43.454  33.508  31.234  1.00  0.00     0.029 A 
ATOM     68  C   UNL A   1      43.349  33.738  29.871  1.00  0.00     0.049 A 
ATOM     69  H   UNL A   1      41.639  33.642  28.650  1.00  0.00     0.167 HD
ATOM     70  C   UNL A   1      45.381  33.491  28.621  1.00  0.00     0.074 A 
ATOM     71  C   UNL A   1      46.698  33.795  28.087  1.00  0.00     0.031 C 
ATOM     72  C   UNL A   1      44.277  34.263  28.873  1.00  0.00     0.037 A 
BRANCH  59  73
ATOM     73  C   UNL A   1      38.802  32.392  31.077  1.00  0.00     0.058 A 
ATOM     74  C   UNL A   1      37.700  32.892  30.345  1.00  0.00     0.135 A 
ATOM     75  C   UNL A   1      38.543  32.218  32.455  1.00  0.00     0.135 A 
ATOM     76  F   UNL A   1      37.767  33.078  29.020  1.00  0.00    -0.206 F 
ATOM     77  C   UNL A   1      36.478  33.235  30.932  1.00  0.00     0.059 A 
ATOM     78  C   UNL A   1      37.337  32.574  33.068  1.00  0.00     0.059 A 
ATOM     79  F   UNL A   1      39.426  31.660  33.283  1.00  0.00    -0.206 F 
ATOM     80  C   UNL A   1      36.306  33.086  32.299  1.00  0.00     0.060 A 
BRANCH  80  81
ATOM     81  S   UNL A   1      34.724  33.526  33.039  1.00  0.00     0.124 S 
ATOM     82  O   UNL A   1      34.637  34.953  32.750  1.00  0.00    -0.237 OA
ATOM     83  O   UNL A   1      33.798  32.671  32.307  1.00  0.00    -0.237 OA
ATOM     84  O   UNL A   1      34.900  33.189  34.450  1.00  0.00    -0.744 OA
ENDBRANCH  80  81
ENDBRANCH  59  73
BRANCH  60  85
ATOM     85  C   UNL A   1      47.542  29.230  27.917  1.00  0.00     0.058 A 
ATOM     86  C   UNL A   1      48.565  28.351  28.339  1.00  0.00     0.135 A 
ATOM     87  C   UNL A   1      46.707  28.780  26.884  1.00  0.00     0.135 A 
ATOM     88  F   UNL A   1      49.415  28.732  29.308  1.00  0.00    -0.206 F 
ATOM     89  C   UNL A   1      48.636  27.030  27.902  1.00  0.00     0.059 A 
ATOM     90  C   UNL A   1      46.775  27.460  26.414  1.00  0.00     0.059 A 
ATOM     91  F   UNL A   1      45.722  29.563  26.421  1.00  0.00    -0.206 F 
ATOM     92  C   UNL A   1      47.693  26.575  26.985  1.00  0.00     0.060 A 
BRANCH  92  93
ATOM     93  S   UNL A   1      47.584  24.787  26.702  1.00  0.00     0.124 S 
ATOM     94  O   UNL A   1      46.558  24.394  27.661  1.00  0.00    -0.237 OA
ATOM     95  O   UNL A   1      47.193  24.721  25.293  1.00  0.00    -0.237 OA
ATOM     96  O   UNL A   1      48.931  24.319  26.998  1.00  0.00    -0.744 OA
ENDBRANCH  92  93
ENDBRANCH  60  85
BRANCH  72  97
ATOM     97  C   UNL A   1      43.995  35.639  28.286  1.00  0.00     0.058 A 
ATOM     98  C   UNL A   1      43.198  35.869  27.151  1.00  0.00     0.135 A 
ATOM     99  C   UNL A   1      44.417  36.816  28.963  1.00  0.00     0.135 A 
ATOM    100  F   UNL A   1      42.601  34.868  26.492  1.00  0.00    -0.206 F 
ATOM    101  C   UNL A   1      42.928  37.150  26.667  1.00  0.00     0.059 A 
ATOM    102  C   UNL A   1      44.085  38.102  28.546  1.00  0.00     0.059 A 
ATOM    103  F   UNL A   1      45.160  36.770  30.078  1.00  0.00    -0.206 F 
ATOM    104  C   UNL A   1      43.376  38.261  27.371  1.00  0.00     0.060 A 
BRANCH 104 105
ATOM    105  S   UNL A   1      42.992  39.906  26.759  1.00  0.00     0.124 S 
ATOM    106  O   UNL A   1      41.646  39.709  26.230  1.00  0.00    -0.237 OA
ATOM    107  O   UNL A   1      43.082  40.723  27.965  1.00  0.00    -0.237 OA
ATOM    108  O   UNL A   1      44.032  40.152  25.765  1.00  0.00    -0.744 OA
ENDBRANCH 104 105
ENDBRANCH  72  97
ENDBRANCH  46  47
ENDBRANCH  38  41
ENDBRANCH  36  37
ENDBRANCH  35  36
ENDBRANCH  34  35
ENDBRANCH  33  34
ENDBRANCH   1  33
TORSDOF 21
ENDMDL
MODEL 3
REMARK VINA RESULT:     -11.1      4.453     10.645
REMARK SMILES Cc1ccc(S(=O)(=O)n2cc(C(=O)C(=O)NCC(=O)NCCCCCCNC(=O)c3ccc(-c4c5nc(c(-c6c(F)cc(S(=O)(=O)[O-])cc6F)c6ccc([nH]6)c(-c6c(F)cc(S(=O)(=O)[O-])cc6F)c6nc(c(-c7c(F)cc(S(=O)(=O)[O-])cc7F)c7ccc4[nH]7)C=C6)C=C5)cc3)c3ccccc32)cc1
REMARK SMILES IDX 22 1 21 2 20 3 18 4 19 5 17 7 16 8 14 9 15 10 12 12 13 13
REMARK SMILES IDX 11 14 9 15 10 16 101 17 96 18 100 19 97 20 99 21 98 22 6 23
REMARK SMILES IDX 7 24 8 25 5 26 1 27 2 28 3 29 103 30 4 31 102 32 23 33 24 34
REMARK SMILES IDX 25 35 26 36 27 37 28 38 29 40 30 41 31 42 95 43 32 44 94 45
REMARK SMILES IDX 33 46 34 47 35 48 88 49 36 50 93 51 87 52 89 53 37 54 92 55
REMARK SMILES IDX 86 56 85 57 38 59 72 60 51 61 71 62 52 63 55 64 70 65 90 66
REMARK SMILES IDX 53 67 54 68 69 70 91 71 56 72 39 73 40 74 49 75 41 76 42 77
REMARK SMILES IDX 48 78 50 79 43 80 44 81 45 82 46 83 47 84 73 85 74 86 83 87
REMARK SMILES IDX 75 88 76 89 82 90 84 91 77 92 78 93 79 94 80 95 81 96 57 97
REMARK SMILES IDX 58 98 67 99 59 100 60 101 66 102 68 103 61 104 62 105 63 106
REMARK SMILES IDX 64 107 65 108
REMARK H PARENT 20 6 16 11 27 39 89 58 55 69
REMARK Flexibility Score: inf
ROOT
ATOM      1  C   UNL A   1      36.231  23.285  25.103  1.00  0.00     0.021 C 
ENDROOT
BRANCH   1   2
ATOM      2  C   UNL A   1      35.743  22.411  26.257  1.00  0.00     0.116 C 
BRANCH   2   3
ATOM      3  N   UNL A   1      34.612  23.013  26.931  1.00  0.00    -0.355 N 
ATOM      4  C   UNL A   1      33.279  22.814  26.731  1.00  0.00     0.239 C 
ATOM      5  O   UNL A   1      32.482  23.374  27.487  1.00  0.00    -0.273 OA
ATOM      6  H   UNL A   1      34.839  23.659  27.639  1.00  0.00     0.163 HD
BRANCH   4   7
ATOM      7  C   UNL A   1      32.796  21.793  25.695  1.00  0.00     0.216 C 
BRANCH   7   8
ATOM      8  N   UNL A   1      33.131  22.122  24.314  1.00  0.00    -0.340 N 
ATOM      9  C   UNL A   1      32.741  23.176  23.512  1.00  0.00     0.292 C 
ATOM     10  O   UNL A   1      33.234  23.270  22.392  1.00  0.00    -0.265 OA
ATOM     11  H   UNL A   1      33.740  21.484  23.879  1.00  0.00     0.164 HD
BRANCH   9  12
ATOM     12  C   UNL A   1      31.690  24.212  23.994  1.00  0.00     0.252 C 
ATOM     13  O   UNL A   1      30.511  23.869  24.034  1.00  0.00    -0.283 OA
BRANCH  12  14
ATOM     14  C   UNL A   1      32.070  25.576  24.405  1.00  0.00     0.054 A 
ATOM     15  N   UNL A   1      32.252  27.494  25.542  1.00  0.00    -0.240 N 
ATOM     16  C   UNL A   1      31.774  26.209  25.600  1.00  0.00     0.117 A 
ATOM     17  C   UNL A   1      32.894  27.734  24.346  1.00  0.00     0.065 A 
ATOM     18  C   UNL A   1      32.795  26.542  23.613  1.00  0.00     0.012 A 
ATOM     19  C   UNL A   1      33.518  28.881  23.822  1.00  0.00     0.028 A 
ATOM     20  C   UNL A   1      33.366  26.508  22.320  1.00  0.00     0.011 A 
ATOM     21  C   UNL A   1      34.047  28.819  22.531  1.00  0.00     0.002 A 
ATOM     22  C   UNL A   1      33.981  27.647  21.790  1.00  0.00     0.001 A 
BRANCH  15  23
ATOM     23  S   UNL A   1      31.968  28.665  26.748  1.00  0.00     0.268 S 
ATOM     24  O   UNL A   1      31.538  27.913  27.908  1.00  0.00    -0.201 OA
ATOM     25  O   UNL A   1      31.135  29.675  26.119  1.00  0.00    -0.201 OA
BRANCH  23  26
ATOM     26  C   UNL A   1      33.519  29.432  27.146  1.00  0.00     0.088 A 
ATOM     27  C   UNL A   1      37.088  31.484  28.400  1.00  0.00     0.044 C 
ATOM     28  C   UNL A   1      35.853  30.766  27.944  1.00  0.00    -0.051 A 
ATOM     29  C   UNL A   1      34.661  31.477  27.758  1.00  0.00     0.005 A 
ATOM     30  C   UNL A   1      35.871  29.388  27.695  1.00  0.00     0.005 A 
ATOM     31  C   UNL A   1      33.497  30.814  27.366  1.00  0.00     0.022 A 
ATOM     32  C   UNL A   1      34.713  28.720  27.284  1.00  0.00     0.022 A 
ENDBRANCH  23  26
ENDBRANCH  15  23
ENDBRANCH  12  14
ENDBRANCH   9  12
ENDBRANCH   7   8
ENDBRANCH   4   7
ENDBRANCH   2   3
ENDBRANCH   1   2
BRANCH   1  33
ATOM     33  C   UNL A   1      37.553  24.013  25.387  1.00  0.00     0.002 C 
BRANCH  33  34
ATOM     34  C   UNL A   1      38.142  23.813  26.792  1.00  0.00     0.002 C 
BRANCH  34  35
ATOM     35  C   UNL A   1      39.077  24.919  27.275  1.00  0.00     0.021 C 
BRANCH  35  36
ATOM     36  C   UNL A   1      40.360  25.028  26.467  1.00  0.00     0.116 C 
BRANCH  36  37
ATOM     37  N   UNL A   1      40.928  23.718  26.176  1.00  0.00    -0.352 N 
ATOM     38  C   UNL A   1      42.227  23.436  25.787  1.00  0.00     0.251 C 
ATOM     39  H   UNL A   1      40.321  22.948  26.264  1.00  0.00     0.163 HD
ATOM     40  O   UNL A   1      42.534  22.511  25.047  1.00  0.00    -0.269 OA
BRANCH  38  41
ATOM     41  C   UNL A   1      43.273  24.207  26.484  1.00  0.00     0.039 A 
ATOM     42  C   UNL A   1      43.240  24.166  27.887  1.00  0.00     0.014 A 
ATOM     43  C   UNL A   1      43.900  25.233  25.792  1.00  0.00     0.014 A 
ATOM     44  C   UNL A   1      43.615  25.290  28.599  1.00  0.00     0.010 A 
ATOM     45  C   UNL A   1      44.130  26.392  26.479  1.00  0.00     0.010 A 
ATOM     46  C   UNL A   1      43.934  26.423  27.868  1.00  0.00    -0.014 A 
BRANCH  46  47
ATOM     47  C   UNL A   1      44.196  27.719  28.445  1.00  0.00     0.031 A 
ATOM     48  C   UNL A   1      43.015  28.563  28.669  1.00  0.00     0.074 A 
ATOM     49  C   UNL A   1      45.418  27.911  28.983  1.00  0.00     0.049 A 
ATOM     50  N   UNL A   1      43.047  29.779  29.067  1.00  0.00    -0.248 NA
ATOM     51  C   UNL A   1      41.657  28.079  28.423  1.00  0.00     0.031 C 
ATOM     52  C   UNL A   1      45.837  28.883  29.984  1.00  0.00     0.029 A 
ATOM     53  N   UNL A   1      46.617  27.343  28.533  1.00  0.00    -0.354 N 
ATOM     54  C   UNL A   1      41.764  30.119  29.451  1.00  0.00     0.074 A 
ATOM     55  C   UNL A   1      40.926  29.077  28.922  1.00  0.00     0.031 C 
ATOM     56  C   UNL A   1      47.165  29.071  29.873  1.00  0.00     0.029 A 
ATOM     57  C   UNL A   1      47.596  28.345  28.687  1.00  0.00     0.049 A 
ATOM     58  H   UNL A   1      46.748  26.433  28.182  1.00  0.00     0.167 HD
ATOM     59  C   UNL A   1      41.627  31.167  30.312  1.00  0.00     0.037 A 
ATOM     60  C   UNL A   1      48.107  28.944  27.567  1.00  0.00     0.037 A 
ATOM     61  C   UNL A   1      42.923  31.844  30.436  1.00  0.00     0.049 A 
ATOM     62  C   UNL A   1      47.708  30.404  27.472  1.00  0.00     0.074 A 
ATOM     63  C   UNL A   1      43.943  31.751  31.369  1.00  0.00     0.029 A 
ATOM     64  N   UNL A   1      43.484  32.418  29.297  1.00  0.00    -0.354 N 
ATOM     65  N   UNL A   1      46.626  30.914  28.001  1.00  0.00    -0.248 NA
ATOM     66  C   UNL A   1      48.563  31.418  26.867  1.00  0.00     0.031 C 
ATOM     67  C   UNL A   1      45.147  32.174  30.738  1.00  0.00     0.029 A 
ATOM     68  C   UNL A   1      44.854  32.546  29.434  1.00  0.00     0.049 A 
ATOM     69  H   UNL A   1      42.974  32.695  28.502  1.00  0.00     0.167 HD
ATOM     70  C   UNL A   1      46.639  32.280  27.856  1.00  0.00     0.074 A 
ATOM     71  C   UNL A   1      47.880  32.541  27.145  1.00  0.00     0.031 C 
ATOM     72  C   UNL A   1      45.658  33.100  28.350  1.00  0.00     0.037 A 
BRANCH  59  73
ATOM     73  C   UNL A   1      40.447  31.415  31.237  1.00  0.00     0.058 A 
ATOM     74  C   UNL A   1      39.535  32.455  30.943  1.00  0.00     0.135 A 
ATOM     75  C   UNL A   1      40.178  30.744  32.450  1.00  0.00     0.135 A 
ATOM     76  F   UNL A   1      39.626  33.166  29.811  1.00  0.00    -0.206 F 
ATOM     77  C   UNL A   1      38.490  32.827  31.794  1.00  0.00     0.059 A 
ATOM     78  C   UNL A   1      39.153  31.111  33.329  1.00  0.00     0.059 A 
ATOM     79  F   UNL A   1      40.866  29.670  32.841  1.00  0.00    -0.206 F 
ATOM     80  C   UNL A   1      38.311  32.158  32.996  1.00  0.00     0.060 A 
BRANCH  80  81
ATOM     81  S   UNL A   1      36.957  32.643  34.079  1.00  0.00     0.124 S 
ATOM     82  O   UNL A   1      35.791  32.165  33.343  1.00  0.00    -0.237 OA
ATOM     83  O   UNL A   1      37.275  31.922  35.305  1.00  0.00    -0.237 OA
ATOM     84  O   UNL A   1      37.086  34.096  34.160  1.00  0.00    -0.744 OA
ENDBRANCH  80  81
ENDBRANCH  59  73
BRANCH  60  85
ATOM     85  C   UNL A   1      48.289  27.967  26.444  1.00  0.00     0.058 A 
ATOM     86  C   UNL A   1      47.340  28.019  25.398  1.00  0.00     0.135 A 
ATOM     87  C   UNL A   1      49.534  27.396  26.140  1.00  0.00     0.135 A 
ATOM     88  F   UNL A   1      46.120  28.532  25.628  1.00  0.00    -0.206 F 
ATOM     89  C   UNL A   1      47.669  27.704  24.081  1.00  0.00     0.059 A 
ATOM     90  C   UNL A   1      49.878  27.051  24.825  1.00  0.00     0.059 A 
ATOM     91  F   UNL A   1      50.481  27.300  27.085  1.00  0.00    -0.206 F 
ATOM     92  C   UNL A   1      48.963  27.282  23.794  1.00  0.00     0.060 A 
BRANCH  92  93
ATOM     93  S   UNL A   1      49.465  27.219  22.053  1.00  0.00     0.124 S 
ATOM     94  O   UNL A   1      50.902  26.992  22.164  1.00  0.00    -0.237 OA
ATOM     95  O   UNL A   1      48.683  26.090  21.546  1.00  0.00    -0.237 OA
ATOM     96  O   UNL A   1      49.074  28.527  21.544  1.00  0.00    -0.744 OA
ENDBRANCH  92  93
ENDBRANCH  60  85
BRANCH  72  97
ATOM     97  C   UNL A   1      45.410  34.544  27.939  1.00  0.00     0.058 A 
ATOM     98  C   UNL A   1      44.385  34.956  27.069  1.00  0.00     0.135 A 
ATOM     99  C   UNL A   1      46.133  35.606  28.547  1.00  0.00     0.135 A 
ATOM    100  F   UNL A   1      43.520  34.085  26.532  1.00  0.00    -0.206 F 
ATOM    101  C   UNL A   1      44.162  36.295  26.747  1.00  0.00     0.059 A 
ATOM    102  C   UNL A   1      45.868  36.952  28.308  1.00  0.00     0.059 A 
ATOM    103  F   UNL A   1      47.123  35.384  29.422  1.00  0.00    -0.206 F 
ATOM    104  C   UNL A   1      44.908  37.287  27.371  1.00  0.00     0.060 A 
BRANCH 104 105
ATOM    105  S   UNL A   1      44.588  39.011  26.979  1.00  0.00     0.124 S 
ATOM    106  O   UNL A   1      44.782  39.642  28.281  1.00  0.00    -0.237 OA
ATOM    107  O   UNL A   1      45.609  39.304  25.977  1.00  0.00    -0.237 OA
ATOM    108  O   UNL A   1      43.217  38.999  26.480  1.00  0.00    -0.744 OA
ENDBRANCH 104 105
ENDBRANCH  72  97
ENDBRANCH  46  47
ENDBRANCH  38  41
ENDBRANCH  36  37
ENDBRANCH  35  36
ENDBRANCH  34  35
ENDBRANCH  33  34
ENDBRANCH   1  33
TORSDOF 21
ENDMDL
