MODEL 1
REMARK VINA RESULT:     -10.8      0.000      0.000
REMARK SMILES C[C@@H]1[C@H](C(=O)NCCCCCCNC(=O)c2ccc(-c3c4nc(c(-c5c(F)cc(S(=O)(=O)[O-])cc5F)c5ccc([nH]5)c(-c5c(F)cc(S(=O)(=O)[O-])cc5F)c5nc(c(-c6c(F)cc(S(=O)(=O)[O-])cc6F)c6ccc3[nH]6)C=C5)C=C4)cc2)CCN1C(=O)COCc1ccccc1
REMARK SMILES IDX 8 1 7 2 6 3 4 4 5 5 3 7 1 8 2 9 84 10 82 11 83 12 85 13
REMARK SMILES IDX 86 14 87 15 88 16 89 17 90 18 91 19 95 20 92 21 94 22 93 23
REMARK SMILES IDX 9 24 10 25 11 26 12 27 13 28 14 29 15 31 16 32 17 33 81 34
REMARK SMILES IDX 18 35 80 36 19 37 20 38 21 39 74 40 22 41 79 42 73 43 75 44
REMARK SMILES IDX 23 45 78 46 72 47 71 48 24 50 58 51 37 52 57 53 38 54 41 55
REMARK SMILES IDX 56 56 76 57 39 58 40 59 55 61 77 62 42 63 25 64 26 65 35 66
REMARK SMILES IDX 27 67 28 68 34 69 36 70 29 71 30 72 31 73 32 74 33 75 59 76
REMARK SMILES IDX 60 77 69 78 61 79 62 80 68 81 70 82 63 83 64 84 65 85 66 86
REMARK SMILES IDX 67 87 43 88 44 89 53 90 45 91 46 92 52 93 54 94 47 95 48 96
REMARK SMILES IDX 49 97 50 98 51 99
REMARK H PARENT 6 6 13 30 75 49 41 60
REMARK Flexibility Score: inf
ROOT
ATOM      1  C   UNL A   1      39.216  23.328  26.882  1.00  0.00     0.021 C 
ENDROOT
BRANCH   1   2
ATOM      2  C   UNL A   1      37.912  23.190  26.096  1.00  0.00     0.116 C 
BRANCH   2   3
ATOM      3  N   UNL A   1      37.700  21.823  25.655  1.00  0.00    -0.356 N 
ATOM      4  C   UNL A   1      36.599  21.177  25.191  1.00  0.00     0.225 C 
ATOM      5  O   UNL A   1      36.709  19.963  24.987  1.00  0.00    -0.275 OA
ATOM      6  H   UNL A   1      38.505  21.258  25.701  1.00  0.00     0.163 HD
BRANCH   4   7
ATOM      7  C   UNL A   1      35.271  21.863  24.916  1.00  0.00     0.102 C 
ATOM      8  C   UNL A   1      36.325  22.962  22.789  1.00  0.00     0.032 C 
ATOM      9  C   UNL A   1      35.200  22.947  23.817  1.00  0.00     0.094 C 
ATOM     10  N   UNL A   1      33.852  22.786  23.241  1.00  0.00    -0.337 N 
ATOM     11  C   UNL A   1      34.094  20.918  24.680  1.00  0.00     0.037 C 
ATOM     12  C   UNL A   1      33.086  21.766  23.936  1.00  0.00     0.121 C 
BRANCH  10  13
ATOM     13  C   UNL A   1      33.181  23.615  22.360  1.00  0.00     0.248 C 
ATOM     14  O   UNL A   1      33.314  23.494  21.139  1.00  0.00    -0.272 OA
BRANCH  13  15
ATOM     15  C   UNL A   1      32.279  24.715  22.927  1.00  0.00     0.260 C 
BRANCH  15  16
ATOM     16  O   UNL A   1      32.549  25.143  24.257  1.00  0.00    -0.367 OA
BRANCH  16  17
ATOM     17  C   UNL A   1      33.451  26.249  24.328  1.00  0.00     0.196 C 
BRANCH  17  18
ATOM     18  C   UNL A   1      32.914  27.343  25.212  1.00  0.00    -0.022 A 
ATOM     19  C   UNL A   1      33.193  28.687  24.926  1.00  0.00     0.006 A 
ATOM     20  C   UNL A   1      32.199  27.023  26.375  1.00  0.00     0.006 A 
ATOM     21  C   UNL A   1      32.786  29.689  25.804  1.00  0.00     0.000 A 
ATOM     22  C   UNL A   1      31.799  28.028  27.254  1.00  0.00     0.000 A 
ATOM     23  C   UNL A   1      32.096  29.359  26.970  1.00  0.00     0.000 A 
ENDBRANCH  17  18
ENDBRANCH  16  17
ENDBRANCH  15  16
ENDBRANCH  13  15
ENDBRANCH  10  13
ENDBRANCH   4   7
ENDBRANCH   2   3
ENDBRANCH   1   2
BRANCH   1  24
ATOM     24  C   UNL A   1      40.127  22.100  26.841  1.00  0.00     0.002 C 
BRANCH  24  25
ATOM     25  C   UNL A   1      41.139  21.999  27.982  1.00  0.00     0.002 C 
BRANCH  25  26
ATOM     26  C   UNL A   1      42.610  21.940  27.558  1.00  0.00     0.021 C 
BRANCH  26  27
ATOM     27  C   UNL A   1      43.324  23.287  27.472  1.00  0.00     0.116 C 
BRANCH  27  28
ATOM     28  N   UNL A   1      42.997  24.009  26.257  1.00  0.00    -0.352 N 
ATOM     29  C   UNL A   1      42.358  25.213  26.100  1.00  0.00     0.251 C 
ATOM     30  H   UNL A   1      43.273  23.569  25.421  1.00  0.00     0.163 HD
ATOM     31  O   UNL A   1      42.008  25.573  24.980  1.00  0.00    -0.269 OA
BRANCH  29  32
ATOM     32  C   UNL A   1      42.077  26.070  27.273  1.00  0.00     0.039 A 
ATOM     33  C   UNL A   1      42.855  27.214  27.468  1.00  0.00     0.014 A 
ATOM     34  C   UNL A   1      41.083  25.734  28.199  1.00  0.00     0.014 A 
ATOM     35  C   UNL A   1      42.612  28.041  28.567  1.00  0.00     0.010 A 
ATOM     36  C   UNL A   1      40.801  26.592  29.261  1.00  0.00     0.010 A 
ATOM     37  C   UNL A   1      41.571  27.748  29.463  1.00  0.00    -0.014 A 
BRANCH  37  38
ATOM     38  C   UNL A   1      41.295  28.634  30.623  1.00  0.00     0.031 A 
ATOM     39  C   UNL A   1      42.123  28.522  31.875  1.00  0.00     0.074 A 
ATOM     40  C   UNL A   1      40.279  29.516  30.561  1.00  0.00     0.049 A 
ATOM     41  N   UNL A   1      42.023  29.194  32.993  1.00  0.00    -0.248 NA
ATOM     42  C   UNL A   1      43.187  27.506  31.880  1.00  0.00     0.031 C 
ATOM     43  C   UNL A   1      39.374  29.685  29.420  1.00  0.00     0.029 A 
ATOM     44  N   UNL A   1      39.832  30.435  31.476  1.00  0.00    -0.354 N 
ATOM     45  C   UNL A   1      43.001  28.677  33.835  1.00  0.00     0.074 A 
ATOM     46  C   UNL A   1      43.650  27.602  33.118  1.00  0.00     0.031 C 
ATOM     47  C   UNL A   1      38.498  30.664  29.697  1.00  0.00     0.029 A 
ATOM     48  C   UNL A   1      38.758  31.174  31.040  1.00  0.00     0.049 A 
ATOM     49  H   UNL A   1      40.243  30.555  32.363  1.00  0.00     0.167 HD
ATOM     50  C   UNL A   1      43.344  29.079  35.083  1.00  0.00     0.037 A 
ATOM     51  C   UNL A   1      38.064  32.152  31.652  1.00  0.00     0.037 A 
ATOM     52  C   UNL A   1      42.714  30.169  35.782  1.00  0.00     0.049 A 
ATOM     53  C   UNL A   1      38.471  32.590  33.032  1.00  0.00     0.074 A 
ATOM     54  C   UNL A   1      43.028  30.691  37.024  1.00  0.00     0.029 A 
ATOM     55  N   UNL A   1      41.641  30.904  35.299  1.00  0.00    -0.354 N 
ATOM     56  N   UNL A   1      39.442  32.134  33.787  1.00  0.00    -0.248 NA
ATOM     57  C   UNL A   1      37.697  33.681  33.639  1.00  0.00     0.031 C 
ATOM     58  C   UNL A   1      42.123  31.721  37.308  1.00  0.00     0.029 A 
ATOM     59  C   UNL A   1      41.271  31.866  36.225  1.00  0.00     0.049 A 
ATOM     60  H   UNL A   1      41.208  30.764  34.427  1.00  0.00     0.167 HD
ATOM     61  C   UNL A   1      39.407  32.895  34.950  1.00  0.00     0.074 A 
ATOM     62  C   UNL A   1      38.330  33.850  34.792  1.00  0.00     0.031 C 
ATOM     63  C   UNL A   1      40.195  32.810  36.051  1.00  0.00     0.037 A 
BRANCH  50  64
ATOM     64  C   UNL A   1      44.460  28.341  35.769  1.00  0.00     0.058 A 
ATOM     65  C   UNL A   1      45.805  28.697  35.575  1.00  0.00     0.135 A 
ATOM     66  C   UNL A   1      44.184  27.284  36.652  1.00  0.00     0.135 A 
ATOM     67  F   UNL A   1      46.126  29.689  34.729  1.00  0.00    -0.206 F 
ATOM     68  C   UNL A   1      46.837  28.013  36.207  1.00  0.00     0.059 A 
ATOM     69  C   UNL A   1      45.200  26.603  37.316  1.00  0.00     0.059 A 
ATOM     70  F   UNL A   1      42.916  26.902  36.874  1.00  0.00    -0.206 F 
ATOM     71  C   UNL A   1      46.525  26.964  37.074  1.00  0.00     0.060 A 
BRANCH  71  72
ATOM     72  S   UNL A   1      47.877  26.085  37.887  1.00  0.00     0.124 S 
ATOM     73  O   UNL A   1      47.698  26.498  39.275  1.00  0.00    -0.237 OA
ATOM     74  O   UNL A   1      47.562  24.690  37.596  1.00  0.00    -0.237 OA
ATOM     75  O   UNL A   1      49.067  26.606  37.225  1.00  0.00    -0.744 OA
ENDBRANCH  71  72
ENDBRANCH  50  64
BRANCH  51  76
ATOM     76  C   UNL A   1      36.927  32.805  30.950  1.00  0.00     0.058 A 
ATOM     77  C   UNL A   1      37.151  33.805  29.992  1.00  0.00     0.135 A 
ATOM     78  C   UNL A   1      35.600  32.433  31.211  1.00  0.00     0.135 A 
ATOM     79  F   UNL A   1      38.403  34.198  29.714  1.00  0.00    -0.206 F 
ATOM     80  C   UNL A   1      36.099  34.426  29.328  1.00  0.00     0.059 A 
ATOM     81  C   UNL A   1      34.531  33.022  30.542  1.00  0.00     0.059 A 
ATOM     82  F   UNL A   1      35.334  31.468  32.106  1.00  0.00    -0.206 F 
ATOM     83  C   UNL A   1      34.791  34.025  29.608  1.00  0.00     0.060 A 
BRANCH  83  84
ATOM     84  S   UNL A   1      33.433  34.799  28.703  1.00  0.00     0.124 S 
ATOM     85  O   UNL A   1      33.013  33.715  27.821  1.00  0.00    -0.237 OA
ATOM     86  O   UNL A   1      32.506  35.145  29.776  1.00  0.00    -0.237 OA
ATOM     87  O   UNL A   1      34.074  35.936  28.048  1.00  0.00    -0.744 OA
ENDBRANCH  83  84
ENDBRANCH  51  76
BRANCH  63  88
ATOM     88  C   UNL A   1      39.936  33.788  37.160  1.00  0.00     0.058 A 
ATOM     89  C   UNL A   1      40.570  35.040  37.199  1.00  0.00     0.135 A 
ATOM     90  C   UNL A   1      39.009  33.489  38.172  1.00  0.00     0.135 A 
ATOM     91  F   UNL A   1      41.469  35.370  36.259  1.00  0.00    -0.206 F 
ATOM     92  C   UNL A   1      40.314  35.952  38.217  1.00  0.00     0.059 A 
ATOM     93  C   UNL A   1      38.719  34.397  39.186  1.00  0.00     0.059 A 
ATOM     94  F   UNL A   1      38.367  32.310  38.175  1.00  0.00    -0.206 F 
ATOM     95  C   UNL A   1      39.386  35.621  39.206  1.00  0.00     0.060 A 
BRANCH  95  96
ATOM     96  S   UNL A   1      39.039  36.825  40.507  1.00  0.00     0.124 S 
ATOM     97  O   UNL A   1      38.457  37.923  39.743  1.00  0.00    -0.237 OA
ATOM     98  O   UNL A   1      38.117  36.096  41.373  1.00  0.00    -0.237 OA
ATOM     99  O   UNL A   1      40.354  37.088  41.084  1.00  0.00    -0.744 OA
ENDBRANCH  95  96
ENDBRANCH  63  88
ENDBRANCH  37  38
ENDBRANCH  29  32
ENDBRANCH  27  28
ENDBRANCH  26  27
ENDBRANCH  25  26
ENDBRANCH  24  25
ENDBRANCH   1  24
TORSDOF 21
ENDMDL
MODEL 2
REMARK VINA RESULT:     -10.7      1.178      2.189
REMARK SMILES C[C@@H]1[C@H](C(=O)NCCCCCCNC(=O)c2ccc(-c3c4nc(c(-c5c(F)cc(S(=O)(=O)[O-])cc5F)c5ccc([nH]5)c(-c5c(F)cc(S(=O)(=O)[O-])cc5F)c5nc(c(-c6c(F)cc(S(=O)(=O)[O-])cc6F)c6ccc3[nH]6)C=C5)C=C4)cc2)CCN1C(=O)COCc1ccccc1
REMARK SMILES IDX 8 1 7 2 6 3 4 4 5 5 3 7 1 8 2 9 84 10 82 11 83 12 85 13
REMARK SMILES IDX 86 14 87 15 88 16 89 17 90 18 91 19 95 20 92 21 94 22 93 23
REMARK SMILES IDX 9 24 10 25 11 26 12 27 13 28 14 29 15 31 16 32 17 33 81 34
REMARK SMILES IDX 18 35 80 36 19 37 20 38 21 39 74 40 22 41 79 42 73 43 75 44
REMARK SMILES IDX 23 45 78 46 72 47 71 48 24 50 58 51 37 52 57 53 38 54 41 55
REMARK SMILES IDX 56 56 76 57 39 58 40 59 55 61 77 62 42 63 25 64 26 65 35 66
REMARK SMILES IDX 27 67 28 68 34 69 36 70 29 71 30 72 31 73 32 74 33 75 59 76
REMARK SMILES IDX 60 77 69 78 61 79 62 80 68 81 70 82 63 83 64 84 65 85 66 86
REMARK SMILES IDX 67 87 43 88 44 89 53 90 45 91 46 92 52 93 54 94 47 95 48 96
REMARK SMILES IDX 49 97 50 98 51 99
REMARK H PARENT 6 6 13 30 75 49 41 60
REMARK Flexibility Score: inf
ROOT
ATOM      1  C   UNL A   1      38.998  21.458  26.130  1.00  0.00     0.021 C 
ENDROOT
BRANCH   1   2
ATOM      2  C   UNL A   1      38.007  22.262  25.288  1.00  0.00     0.116 C 
BRANCH   2   3
ATOM      3  N   UNL A   1      36.643  21.811  25.498  1.00  0.00    -0.356 N 
ATOM      4  C   UNL A   1      35.450  22.453  25.409  1.00  0.00     0.225 C 
ATOM      5  O   UNL A   1      34.447  21.816  25.753  1.00  0.00    -0.275 OA
ATOM      6  H   UNL A   1      36.570  20.863  25.753  1.00  0.00     0.163 HD
BRANCH   4   7
ATOM      7  C   UNL A   1      35.293  23.882  24.917  1.00  0.00     0.102 C 
ATOM      8  C   UNL A   1      34.032  22.977  22.812  1.00  0.00     0.032 C 
ATOM      9  C   UNL A   1      34.767  24.129  23.485  1.00  0.00     0.094 C 
ATOM     10  N   UNL A   1      33.977  25.369  23.603  1.00  0.00    -0.337 N 
ATOM     11  C   UNL A   1      34.497  24.800  25.844  1.00  0.00     0.037 C 
ATOM     12  C   UNL A   1      34.043  25.926  24.942  1.00  0.00     0.121 C 
BRANCH  10  13
ATOM     13  C   UNL A   1      33.444  26.155  22.597  1.00  0.00     0.248 C 
ATOM     14  O   UNL A   1      33.867  26.088  21.440  1.00  0.00    -0.272 OA
BRANCH  13  15
ATOM     15  C   UNL A   1      32.325  27.141  22.949  1.00  0.00     0.260 C 
BRANCH  15  16
ATOM     16  O   UNL A   1      31.006  26.776  22.561  1.00  0.00    -0.367 OA
BRANCH  16  17
ATOM     17  C   UNL A   1      30.107  26.629  23.663  1.00  0.00     0.196 C 
BRANCH  17  18
ATOM     18  C   UNL A   1      30.372  25.359  24.425  1.00  0.00    -0.022 A 
ATOM     19  C   UNL A   1      30.492  25.381  25.822  1.00  0.00     0.006 A 
ATOM     20  C   UNL A   1      30.584  24.155  23.738  1.00  0.00     0.006 A 
ATOM     21  C   UNL A   1      30.843  24.224  26.514  1.00  0.00     0.000 A 
ATOM     22  C   UNL A   1      30.941  23.001  24.433  1.00  0.00     0.000 A 
ATOM     23  C   UNL A   1      31.075  23.037  25.819  1.00  0.00     0.000 A 
ENDBRANCH  17  18
ENDBRANCH  16  17
ENDBRANCH  15  16
ENDBRANCH  13  15
ENDBRANCH  10  13
ENDBRANCH   4   7
ENDBRANCH   2   3
ENDBRANCH   1   2
BRANCH   1  24
ATOM     24  C   UNL A   1      40.396  22.069  26.238  1.00  0.00     0.002 C 
BRANCH  24  25
ATOM     25  C   UNL A   1      40.949  22.188  27.659  1.00  0.00     0.002 C 
BRANCH  25  26
ATOM     26  C   UNL A   1      42.474  22.105  27.785  1.00  0.00     0.021 C 
BRANCH  26  27
ATOM     27  C   UNL A   1      43.221  23.424  27.603  1.00  0.00     0.116 C 
BRANCH  27  28
ATOM     28  N   UNL A   1      42.865  24.094  26.366  1.00  0.00    -0.352 N 
ATOM     29  C   UNL A   1      42.226  25.293  26.173  1.00  0.00     0.251 C 
ATOM     30  H   UNL A   1      43.119  23.617  25.543  1.00  0.00     0.163 HD
ATOM     31  O   UNL A   1      41.849  25.605  25.048  1.00  0.00    -0.269 OA
BRANCH  29  32
ATOM     32  C   UNL A   1      41.976  26.201  27.315  1.00  0.00     0.039 A 
ATOM     33  C   UNL A   1      40.895  25.932  28.158  1.00  0.00     0.014 A 
ATOM     34  C   UNL A   1      42.771  27.330  27.536  1.00  0.00     0.014 A 
ATOM     35  C   UNL A   1      40.635  26.772  29.244  1.00  0.00     0.010 A 
ATOM     36  C   UNL A   1      42.548  28.132  28.654  1.00  0.00     0.010 A 
ATOM     37  C   UNL A   1      41.470  27.868  29.512  1.00  0.00    -0.014 A 
BRANCH  37  38
ATOM     38  C   UNL A   1      41.209  28.753  30.676  1.00  0.00     0.031 A 
ATOM     39  C   UNL A   1      42.047  28.635  31.921  1.00  0.00     0.074 A 
ATOM     40  C   UNL A   1      40.197  29.641  30.625  1.00  0.00     0.049 A 
ATOM     41  N   UNL A   1      41.961  29.306  33.041  1.00  0.00    -0.248 NA
ATOM     42  C   UNL A   1      43.107  27.614  31.915  1.00  0.00     0.031 C 
ATOM     43  C   UNL A   1      39.284  29.817  29.493  1.00  0.00     0.029 A 
ATOM     44  N   UNL A   1      39.763  30.561  31.546  1.00  0.00    -0.354 N 
ATOM     45  C   UNL A   1      42.944  28.783  33.874  1.00  0.00     0.074 A 
ATOM     46  C   UNL A   1      43.581  27.706  33.149  1.00  0.00     0.031 C 
ATOM     47  C   UNL A   1      38.415  30.800  29.778  1.00  0.00     0.029 A 
ATOM     48  C   UNL A   1      38.689  31.306  31.120  1.00  0.00     0.049 A 
ATOM     49  H   UNL A   1      40.182  30.677  32.429  1.00  0.00     0.167 HD
ATOM     50  C   UNL A   1      43.300  29.181  35.119  1.00  0.00     0.037 A 
ATOM     51  C   UNL A   1      38.005  32.287  31.739  1.00  0.00     0.037 A 
ATOM     52  C   UNL A   1      42.681  30.273  35.826  1.00  0.00     0.049 A 
ATOM     53  C   UNL A   1      38.428  32.721  33.117  1.00  0.00     0.074 A 
ATOM     54  C   UNL A   1      43.009  30.792  37.065  1.00  0.00     0.029 A 
ATOM     55  N   UNL A   1      41.608  31.015  35.353  1.00  0.00    -0.354 N 
ATOM     56  N   UNL A   1      39.403  32.258  33.862  1.00  0.00    -0.248 NA
ATOM     57  C   UNL A   1      37.664  33.814  33.732  1.00  0.00     0.031 C 
ATOM     58  C   UNL A   1      42.112  31.825  37.359  1.00  0.00     0.029 A 
ATOM     59  C   UNL A   1      41.251  31.976  36.284  1.00  0.00     0.049 A 
ATOM     60  H   UNL A   1      41.167  30.878  34.485  1.00  0.00     0.167 HD
ATOM     61  C   UNL A   1      39.382  33.017  35.027  1.00  0.00     0.074 A 
ATOM     62  C   UNL A   1      38.308  33.979  34.880  1.00  0.00     0.031 C 
ATOM     63  C   UNL A   1      40.179  32.926  36.121  1.00  0.00     0.037 A 
BRANCH  50  64
ATOM     64  C   UNL A   1      44.418  28.436  35.794  1.00  0.00     0.058 A 
ATOM     65  C   UNL A   1      44.177  27.277  36.549  1.00  0.00     0.135 A 
ATOM     66  C   UNL A   1      45.748  28.866  35.663  1.00  0.00     0.135 A 
ATOM     67  F   UNL A   1      42.923  26.829  36.720  1.00  0.00    -0.206 F 
ATOM     68  C   UNL A   1      45.210  26.589  37.176  1.00  0.00     0.059 A 
ATOM     69  C   UNL A   1      46.801  28.179  36.260  1.00  0.00     0.059 A 
ATOM     70  F   UNL A   1      46.035  29.969  34.952  1.00  0.00    -0.206 F 
ATOM     71  C   UNL A   1      46.520  27.049  37.028  1.00  0.00     0.060 A 
BRANCH  71  72
ATOM     72  S   UNL A   1      47.851  26.146  37.849  1.00  0.00     0.124 S 
ATOM     73  O   UNL A   1      48.633  27.238  38.419  1.00  0.00    -0.237 OA
ATOM     74  O   UNL A   1      47.124  25.320  38.807  1.00  0.00    -0.237 OA
ATOM     75  O   UNL A   1      48.490  25.419  36.757  1.00  0.00    -0.744 OA
ENDBRANCH  71  72
ENDBRANCH  50  64
BRANCH  51  76
ATOM     76  C   UNL A   1      36.866  32.947  31.049  1.00  0.00     0.058 A 
ATOM     77  C   UNL A   1      35.541  32.637  31.388  1.00  0.00     0.135 A 
ATOM     78  C   UNL A   1      37.079  33.908  30.049  1.00  0.00     0.135 A 
ATOM     79  F   UNL A   1      35.289  31.720  32.334  1.00  0.00    -0.206 F 
ATOM     80  C   UNL A   1      34.465  33.245  30.751  1.00  0.00     0.059 A 
ATOM     81  C   UNL A   1      36.019  34.547  29.413  1.00  0.00     0.059 A 
ATOM     82  F   UNL A   1      38.329  34.252  29.700  1.00  0.00    -0.206 F 
ATOM     83  C   UNL A   1      34.714  34.202  29.766  1.00  0.00     0.060 A 
BRANCH  83  84
ATOM     84  S   UNL A   1      33.312  35.025  28.980  1.00  0.00     0.124 S 
ATOM     85  O   UNL A   1      32.837  33.990  28.068  1.00  0.00    -0.237 OA
ATOM     86  O   UNL A   1      32.448  35.317  30.120  1.00  0.00    -0.237 OA
ATOM     87  O   UNL A   1      33.920  36.193  28.349  1.00  0.00    -0.744 OA
ENDBRANCH  83  84
ENDBRANCH  51  76
BRANCH  63  88
ATOM     88  C   UNL A   1      39.934  33.904  37.234  1.00  0.00     0.058 A 
ATOM     89  C   UNL A   1      40.600  35.139  37.287  1.00  0.00     0.135 A 
ATOM     90  C   UNL A   1      38.991  33.623  38.235  1.00  0.00     0.135 A 
ATOM     91  F   UNL A   1      41.516  35.452  36.357  1.00  0.00    -0.206 F 
ATOM     92  C   UNL A   1      40.358  36.051  38.308  1.00  0.00     0.059 A 
ATOM     93  C   UNL A   1      38.714  34.531  39.253  1.00  0.00     0.059 A 
ATOM     94  F   UNL A   1      38.319  32.461  38.225  1.00  0.00    -0.206 F 
ATOM     95  C   UNL A   1      39.412  35.738  39.286  1.00  0.00     0.060 A 
BRANCH  95  96
ATOM     96  S   UNL A   1      39.084  36.942  40.591  1.00  0.00     0.124 S 
ATOM     97  O   UNL A   1      40.431  37.401  40.913  1.00  0.00    -0.237 OA
ATOM     98  O   UNL A   1      38.228  37.912  39.916  1.00  0.00    -0.237 OA
ATOM     99  O   UNL A   1      38.426  36.149  41.626  1.00  0.00    -0.744 OA
ENDBRANCH  95  96
ENDBRANCH  63  88
ENDBRANCH  37  38
ENDBRANCH  29  32
ENDBRANCH  27  28
ENDBRANCH  26  27
ENDBRANCH  25  26
ENDBRANCH  24  25
ENDBRANCH   1  24
TORSDOF 21
ENDMDL
MODEL 3
REMARK VINA RESULT:     -10.6      1.652      2.483
REMARK SMILES C[C@@H]1[C@H](C(=O)NCCCCCCNC(=O)c2ccc(-c3c4nc(c(-c5c(F)cc(S(=O)(=O)[O-])cc5F)c5ccc([nH]5)c(-c5c(F)cc(S(=O)(=O)[O-])cc5F)c5nc(c(-c6c(F)cc(S(=O)(=O)[O-])cc6F)c6ccc3[nH]6)C=C5)C=C4)cc2)CCN1C(=O)COCc1ccccc1
REMARK SMILES IDX 8 1 7 2 6 3 4 4 5 5 3 7 1 8 2 9 84 10 82 11 83 12 85 13
REMARK SMILES IDX 86 14 87 15 88 16 89 17 90 18 91 19 95 20 92 21 94 22 93 23
REMARK SMILES IDX 9 24 10 25 11 26 12 27 13 28 14 29 15 31 16 32 17 33 81 34
REMARK SMILES IDX 18 35 80 36 19 37 20 38 21 39 74 40 22 41 79 42 73 43 75 44
REMARK SMILES IDX 23 45 78 46 72 47 71 48 24 50 58 51 37 52 57 53 38 54 41 55
REMARK SMILES IDX 56 56 76 57 39 58 40 59 55 61 77 62 42 63 25 64 26 65 35 66
REMARK SMILES IDX 27 67 28 68 34 69 36 70 29 71 30 72 31 73 32 74 33 75 59 76
REMARK SMILES IDX 60 77 69 78 61 79 62 80 68 81 70 82 63 83 64 84 65 85 66 86
REMARK SMILES IDX 67 87 43 88 44 89 53 90 45 91 46 92 52 93 54 94 47 95 48 96
REMARK SMILES IDX 49 97 50 98 51 99
REMARK H PARENT 6 6 13 30 75 49 41 60
REMARK Flexibility Score: inf
ROOT
ATOM      1  C   UNL A   1      36.653  23.707  25.721  1.00  0.00     0.021 C 
ENDROOT
BRANCH   1   2
ATOM      2  C   UNL A   1      36.499  22.878  24.445  1.00  0.00     0.116 C 
BRANCH   2   3
ATOM      3  N   UNL A   1      35.498  21.839  24.605  1.00  0.00    -0.356 N 
ATOM      4  C   UNL A   1      34.146  21.853  24.480  1.00  0.00     0.225 C 
ATOM      5  O   UNL A   1      33.547  20.815  24.784  1.00  0.00    -0.275 OA
ATOM      6  H   UNL A   1      35.868  20.960  24.849  1.00  0.00     0.163 HD
BRANCH   4   7
ATOM      7  C   UNL A   1      33.354  23.056  23.995  1.00  0.00     0.102 C 
ATOM      8  C   UNL A   1      33.278  23.946  26.453  1.00  0.00     0.032 C 
ATOM      9  C   UNL A   1      32.722  24.007  25.037  1.00  0.00     0.094 C 
ATOM     10  N   UNL A   1      32.808  25.337  24.406  1.00  0.00    -0.337 N 
ATOM     11  C   UNL A   1      34.076  23.936  22.976  1.00  0.00     0.037 C 
ATOM     12  C   UNL A   1      33.357  25.264  23.064  1.00  0.00     0.121 C 
BRANCH  10  13
ATOM     13  C   UNL A   1      32.219  26.524  24.803  1.00  0.00     0.248 C 
ATOM     14  O   UNL A   1      32.901  27.486  25.168  1.00  0.00    -0.272 OA
BRANCH  13  15
ATOM     15  C   UNL A   1      30.691  26.623  24.808  1.00  0.00     0.260 C 
BRANCH  15  16
ATOM     16  O   UNL A   1      30.044  26.612  23.541  1.00  0.00    -0.367 OA
BRANCH  16  17
ATOM     17  C   UNL A   1      30.336  27.759  22.741  1.00  0.00     0.196 C 
BRANCH  17  18
ATOM     18  C   UNL A   1      29.432  28.914  23.081  1.00  0.00    -0.022 A 
ATOM     19  C   UNL A   1      28.075  28.878  22.736  1.00  0.00     0.006 A 
ATOM     20  C   UNL A   1      29.959  30.071  23.674  1.00  0.00     0.006 A 
ATOM     21  C   UNL A   1      27.265  29.991  22.956  1.00  0.00     0.000 A 
ATOM     22  C   UNL A   1      29.149  31.184  23.886  1.00  0.00     0.000 A 
ATOM     23  C   UNL A   1      27.804  31.145  23.524  1.00  0.00     0.000 A 
ENDBRANCH  17  18
ENDBRANCH  16  17
ENDBRANCH  15  16
ENDBRANCH  13  15
ENDBRANCH  10  13
ENDBRANCH   4   7
ENDBRANCH   2   3
ENDBRANCH   1   2
BRANCH   1  24
ATOM     24  C   UNL A   1      38.024  23.611  26.391  1.00  0.00     0.002 C 
BRANCH  24  25
ATOM     25  C   UNL A   1      38.899  22.448  25.924  1.00  0.00     0.002 C 
BRANCH  25  26
ATOM     26  C   UNL A   1      39.942  21.958  26.935  1.00  0.00     0.021 C 
BRANCH  26  27
ATOM     27  C   UNL A   1      40.986  22.990  27.355  1.00  0.00     0.116 C 
BRANCH  27  28
ATOM     28  N   UNL A   1      41.484  23.760  26.230  1.00  0.00    -0.352 N 
ATOM     29  C   UNL A   1      41.608  25.120  26.088  1.00  0.00     0.251 C 
ATOM     30  H   UNL A   1      41.776  23.229  25.455  1.00  0.00     0.163 HD
ATOM     31  O   UNL A   1      41.880  25.591  24.988  1.00  0.00    -0.269 OA
BRANCH  29  32
ATOM     32  C   UNL A   1      41.400  26.016  27.247  1.00  0.00     0.039 A 
ATOM     33  C   UNL A   1      42.320  27.044  27.470  1.00  0.00     0.014 A 
ATOM     34  C   UNL A   1      40.334  25.827  28.132  1.00  0.00     0.014 A 
ATOM     35  C   UNL A   1      42.149  27.905  28.557  1.00  0.00     0.010 A 
ATOM     36  C   UNL A   1      40.131  26.724  29.180  1.00  0.00     0.010 A 
ATOM     37  C   UNL A   1      41.043  27.765  29.410  1.00  0.00    -0.014 A 
BRANCH  37  38
ATOM     38  C   UNL A   1      40.846  28.689  30.556  1.00  0.00     0.031 A 
ATOM     39  C   UNL A   1      41.714  28.575  31.780  1.00  0.00     0.074 A 
ATOM     40  C   UNL A   1      39.863  29.609  30.508  1.00  0.00     0.049 A 
ATOM     41  N   UNL A   1      41.683  29.278  32.882  1.00  0.00    -0.248 NA
ATOM     42  C   UNL A   1      42.738  27.518  31.772  1.00  0.00     0.031 C 
ATOM     43  C   UNL A   1      38.923  29.786  29.397  1.00  0.00     0.029 A 
ATOM     44  N   UNL A   1      39.487  30.568  31.415  1.00  0.00    -0.354 N 
ATOM     45  C   UNL A   1      42.671  28.744  33.702  1.00  0.00     0.074 A 
ATOM     46  C   UNL A   1      43.250  27.627  32.989  1.00  0.00     0.031 C 
ATOM     47  C   UNL A   1      38.097  30.806  29.680  1.00  0.00     0.029 A 
ATOM     48  C   UNL A   1      38.426  31.338  30.999  1.00  0.00     0.049 A 
ATOM     49  H   UNL A   1      39.935  30.693  32.283  1.00  0.00     0.167 HD
ATOM     50  C   UNL A   1      43.076  29.162  34.925  1.00  0.00     0.037 A 
ATOM     51  C   UNL A   1      37.794  32.358  31.610  1.00  0.00     0.037 A 
ATOM     52  C   UNL A   1      42.515  30.293  35.618  1.00  0.00     0.049 A 
ATOM     53  C   UNL A   1      38.270  32.813  32.962  1.00  0.00     0.074 A 
ATOM     54  C   UNL A   1      42.895  30.833  36.834  1.00  0.00     0.029 A 
ATOM     55  N   UNL A   1      41.455  31.059  35.156  1.00  0.00    -0.354 N 
ATOM     56  N   UNL A   1      39.250  32.337  33.693  1.00  0.00    -0.248 NA
ATOM     57  C   UNL A   1      37.562  33.948  33.568  1.00  0.00     0.031 C 
ATOM     58  C   UNL A   1      42.043  31.905  37.123  1.00  0.00     0.029 A 
ATOM     59  C   UNL A   1      41.157  32.057  36.069  1.00  0.00     0.049 A 
ATOM     60  H   UNL A   1      40.984  30.914  34.304  1.00  0.00     0.167 HD
ATOM     61  C   UNL A   1      39.288  33.127  34.836  1.00  0.00     0.074 A 
ATOM     62  C   UNL A   1      38.244  34.121  34.693  1.00  0.00     0.031 C 
ATOM     63  C   UNL A   1      40.113  33.038  35.910  1.00  0.00     0.037 A 
BRANCH  50  64
ATOM     64  C   UNL A   1      44.187  28.397  35.589  1.00  0.00     0.058 A 
ATOM     65  C   UNL A   1      43.924  27.326  36.458  1.00  0.00     0.135 A 
ATOM     66  C   UNL A   1      45.531  28.719  35.335  1.00  0.00     0.135 A 
ATOM     67  F   UNL A   1      42.658  26.986  36.748  1.00  0.00    -0.206 F 
ATOM     68  C   UNL A   1      44.951  26.620  37.074  1.00  0.00     0.059 A 
ATOM     69  C   UNL A   1      46.575  28.009  35.920  1.00  0.00     0.059 A 
ATOM     70  F   UNL A   1      45.839  29.734  34.512  1.00  0.00    -0.206 F 
ATOM     71  C   UNL A   1      46.275  26.971  36.801  1.00  0.00     0.060 A 
BRANCH  71  72
ATOM     72  S   UNL A   1      47.598  26.046  37.610  1.00  0.00     0.124 S 
ATOM     73  O   UNL A   1      48.301  25.481  36.462  1.00  0.00    -0.237 OA
ATOM     74  O   UNL A   1      48.311  27.091  38.338  1.00  0.00    -0.237 OA
ATOM     75  O   UNL A   1      46.881  25.085  38.442  1.00  0.00    -0.744 OA
ENDBRANCH  71  72
ENDBRANCH  50  64
BRANCH  51  76
ATOM     76  C   UNL A   1      36.659  33.038  30.933  1.00  0.00     0.058 A 
ATOM     77  C   UNL A   1      35.348  32.904  31.415  1.00  0.00     0.135 A 
ATOM     78  C   UNL A   1      36.862  33.846  29.803  1.00  0.00     0.135 A 
ATOM     79  F   UNL A   1      35.105  32.137  32.488  1.00  0.00    -0.206 F 
ATOM     80  C   UNL A   1      34.275  33.532  30.793  1.00  0.00     0.059 A 
ATOM     81  C   UNL A   1      35.808  34.504  29.178  1.00  0.00     0.059 A 
ATOM     82  F   UNL A   1      38.099  34.020  29.315  1.00  0.00    -0.206 F 
ATOM     83  C   UNL A   1      34.516  34.334  29.675  1.00  0.00     0.060 A 
BRANCH  83  84
ATOM     84  S   UNL A   1      33.124  35.189  28.905  1.00  0.00     0.124 S 
ATOM     85  O   UNL A   1      33.778  36.366  28.343  1.00  0.00    -0.237 OA
ATOM     86  O   UNL A   1      32.651  34.201  27.940  1.00  0.00    -0.237 OA
ATOM     87  O   UNL A   1      32.223  35.440  30.026  1.00  0.00    -0.744 OA
ENDBRANCH  83  84
ENDBRANCH  51  76
BRANCH  63  88
ATOM     88  C   UNL A   1      39.933  34.054  37.002  1.00  0.00     0.058 A 
ATOM     89  C   UNL A   1      40.509  35.331  36.919  1.00  0.00     0.135 A 
ATOM     90  C   UNL A   1      39.141  33.761  38.123  1.00  0.00     0.135 A 
ATOM     91  F   UNL A   1      41.280  35.657  35.870  1.00  0.00    -0.206 F 
ATOM     92  C   UNL A   1      40.325  36.277  37.922  1.00  0.00     0.059 A 
ATOM     93  C   UNL A   1      38.924  34.699  39.128  1.00  0.00     0.059 A 
ATOM     94  F   UNL A   1      38.560  32.557  38.246  1.00  0.00    -0.206 F 
ATOM     95  C   UNL A   1      39.530  35.951  39.023  1.00  0.00     0.060 A 
BRANCH  95  96
ATOM     96  S   UNL A   1      39.275  37.196  40.306  1.00  0.00     0.124 S 
ATOM     97  O   UNL A   1      38.512  38.209  39.584  1.00  0.00    -0.237 OA
ATOM     98  O   UNL A   1      38.539  36.453  41.323  1.00  0.00    -0.237 OA
ATOM     99  O   UNL A   1      40.633  37.579  40.681  1.00  0.00    -0.744 OA
ENDBRANCH  95  96
ENDBRANCH  63  88
ENDBRANCH  37  38
ENDBRANCH  29  32
ENDBRANCH  27  28
ENDBRANCH  26  27
ENDBRANCH  25  26
ENDBRANCH  24  25
ENDBRANCH   1  24
TORSDOF 21
ENDMDL
