MODEL 1
REMARK VINA RESULT:     -11.7      0.000      0.000
REMARK SMILES CC(C)(C)N(CC(=O)NCCCCCCNC(=O)c1ccc(-c2c3nc(c(-c4c(F)cc(S(=O)(=O)[O-])cc4F)c4ccc([nH]4)c(-c4c(F)cc(S(=O)(=O)[O-])cc4F)c4nc(c(-c5c(F)cc(S(=O)(=O)[O-])cc5F)c5ccc2[nH]5)C=C4)C=C3)cc1)C(=O)c1cc2ccccc2o1
REMARK SMILES IDX 12 1 11 2 10 3 9 4 7 5 8 6 6 8 5 9 2 10 1 11 3 12 4 13 85 14
REMARK SMILES IDX 86 15 87 16 88 17 95 18 89 19 94 20 90 21 93 22 91 23 92 24
REMARK SMILES IDX 13 25 14 26 15 27 16 28 17 29 18 31 19 32 20 33 84 34 21 35
REMARK SMILES IDX 83 36 22 37 23 38 24 39 77 40 25 41 82 42 76 43 78 44 26 45
REMARK SMILES IDX 81 46 75 47 74 48 27 50 61 51 40 52 60 53 41 54 44 55 59 56
REMARK SMILES IDX 79 57 42 58 43 59 58 61 80 62 45 63 28 64 29 65 38 66 30 67
REMARK SMILES IDX 31 68 37 69 39 70 32 71 33 72 34 73 35 74 36 75 62 76 63 77
REMARK SMILES IDX 72 78 64 79 65 80 71 81 73 82 66 83 67 84 68 85 69 86 70 87
REMARK SMILES IDX 46 88 47 89 56 90 48 91 49 92 55 93 57 94 50 95 51 96 52 97
REMARK SMILES IDX 53 98 54 99
REMARK H PARENT 9 7 16 30 78 49 44 60
REMARK Flexibility Score: inf
ROOT
ATOM      1  C   UNL A   1      30.811  27.712  24.468  1.00  0.00     0.002 C 
ENDROOT
BRANCH   1   2
ATOM      2  C   UNL A   1      29.779  26.582  24.460  1.00  0.00     0.021 C 
BRANCH   2   3
ATOM      3  C   UNL A   1      30.362  25.177  24.305  1.00  0.00     0.116 C 
BRANCH   3   4
ATOM      4  N   UNL A   1      30.264  24.412  25.535  1.00  0.00    -0.355 N 
ATOM      5  C   UNL A   1      31.241  23.863  26.313  1.00  0.00     0.239 C 
ATOM      6  O   UNL A   1      30.891  23.363  27.387  1.00  0.00    -0.273 OA
ATOM      7  H   UNL A   1      29.345  24.267  25.860  1.00  0.00     0.163 HD
BRANCH   5   8
ATOM      8  C   UNL A   1      32.745  24.006  25.977  1.00  0.00     0.220 C 
BRANCH   8   9
ATOM      9  N   UNL A   1      33.230  23.117  24.916  1.00  0.00    -0.322 N 
BRANCH   9  10
ATOM     10  C   UNL A   1      33.868  23.651  23.660  1.00  0.00     0.035 C 
ATOM     11  C   UNL A   1      35.258  23.046  23.370  1.00  0.00     0.034 C 
ATOM     12  C   UNL A   1      34.068  25.187  23.702  1.00  0.00     0.034 C 
ATOM     13  C   UNL A   1      32.951  23.320  22.462  1.00  0.00     0.034 C 
ENDBRANCH   9  10
BRANCH   9  14
ATOM     14  C   UNL A   1      33.462  21.774  25.230  1.00  0.00     0.290 C 
ATOM     15  O   UNL A   1      34.382  21.446  25.978  1.00  0.00    -0.265 OA
BRANCH  14  16
ATOM     16  C   UNL A   1      32.546  20.754  24.759  1.00  0.00     0.192 A 
ATOM     17  C   UNL A   1      32.471  20.198  23.492  1.00  0.00     0.065 A 
ATOM     18  O   UNL A   1      32.260  19.786  25.691  1.00  0.00    -0.451 OA
ATOM     19  C   UNL A   1      32.672  18.803  23.709  1.00  0.00     0.021 A 
ATOM     20  C   UNL A   1      32.535  18.604  25.077  1.00  0.00     0.135 A 
ATOM     21  C   UNL A   1      33.103  17.726  22.917  1.00  0.00     0.012 A 
ATOM     22  C   UNL A   1      32.795  17.408  25.735  1.00  0.00     0.048 A 
ATOM     23  C   UNL A   1      33.465  16.533  23.561  1.00  0.00     0.001 A 
ATOM     24  C   UNL A   1      33.317  16.380  24.944  1.00  0.00     0.004 A 
ENDBRANCH  14  16
ENDBRANCH   9  14
ENDBRANCH   8   9
ENDBRANCH   5   8
ENDBRANCH   3   4
ENDBRANCH   2   3
ENDBRANCH   1   2
BRANCH   1  25
ATOM     25  C   UNL A   1      31.455  28.008  25.825  1.00  0.00     0.002 C 
BRANCH  25  26
ATOM     26  C   UNL A   1      32.985  27.945  25.863  1.00  0.00     0.021 C 
BRANCH  26  27
ATOM     27  C   UNL A   1      33.617  28.291  27.210  1.00  0.00     0.116 C 
BRANCH  27  28
ATOM     28  N   UNL A   1      33.504  29.708  27.522  1.00  0.00    -0.352 N 
ATOM     29  C   UNL A   1      34.412  30.544  28.124  1.00  0.00     0.251 C 
ATOM     30  H   UNL A   1      32.652  30.127  27.265  1.00  0.00     0.163 HD
ATOM     31  O   UNL A   1      34.065  31.668  28.480  1.00  0.00    -0.269 OA
BRANCH  29  32
ATOM     32  C   UNL A   1      35.798  30.089  28.360  1.00  0.00     0.039 A 
ATOM     33  C   UNL A   1      36.711  30.113  27.300  1.00  0.00     0.014 A 
ATOM     34  C   UNL A   1      36.195  29.623  29.617  1.00  0.00     0.014 A 
ATOM     35  C   UNL A   1      38.038  29.733  27.518  1.00  0.00     0.010 A 
ATOM     36  C   UNL A   1      37.529  29.297  29.845  1.00  0.00     0.010 A 
ATOM     37  C   UNL A   1      38.465  29.351  28.799  1.00  0.00    -0.014 A 
BRANCH  37  38
ATOM     38  C   UNL A   1      39.881  28.997  29.078  1.00  0.00     0.031 A 
ATOM     39  C   UNL A   1      40.823  30.044  29.605  1.00  0.00     0.074 A 
ATOM     40  C   UNL A   1      40.334  27.762  28.782  1.00  0.00     0.049 A 
ATOM     41  N   UNL A   1      42.119  29.982  29.769  1.00  0.00    -0.248 NA
ATOM     42  C   UNL A   1      40.232  31.340  29.973  1.00  0.00     0.031 C 
ATOM     43  C   UNL A   1      39.523  26.668  28.245  1.00  0.00     0.029 A 
ATOM     44  N   UNL A   1      41.595  27.227  28.872  1.00  0.00    -0.354 N 
ATOM     45  C   UNL A   1      42.501  31.230  30.245  1.00  0.00     0.074 A 
ATOM     46  C   UNL A   1      41.306  32.044  30.302  1.00  0.00     0.031 C 
ATOM     47  C   UNL A   1      40.306  25.593  28.055  1.00  0.00     0.029 A 
ATOM     48  C   UNL A   1      41.678  25.931  28.417  1.00  0.00     0.049 A 
ATOM     49  H   UNL A   1      42.366  27.724  29.228  1.00  0.00     0.167 HD
ATOM     50  C   UNL A   1      43.733  31.654  30.618  1.00  0.00     0.037 A 
ATOM     51  C   UNL A   1      42.744  25.117  28.287  1.00  0.00     0.037 A 
ATOM     52  C   UNL A   1      44.915  30.835  30.578  1.00  0.00     0.049 A 
ATOM     53  C   UNL A   1      44.106  25.618  28.692  1.00  0.00     0.074 A 
ATOM     54  C   UNL A   1      46.205  31.165  30.954  1.00  0.00     0.029 A 
ATOM     55  N   UNL A   1      44.950  29.518  30.143  1.00  0.00    -0.354 N 
ATOM     56  N   UNL A   1      44.445  26.794  29.162  1.00  0.00    -0.248 NA
ATOM     57  C   UNL A   1      45.229  24.681  28.549  1.00  0.00     0.031 C 
ATOM     58  C   UNL A   1      47.026  30.057  30.722  1.00  0.00     0.029 A 
ATOM     59  C   UNL A   1      46.240  29.024  30.238  1.00  0.00     0.049 A 
ATOM     60  H   UNL A   1      44.173  29.010  29.817  1.00  0.00     0.167 HD
ATOM     61  C   UNL A   1      45.812  26.728  29.401  1.00  0.00     0.074 A 
ATOM     62  C   UNL A   1      46.240  25.396  29.027  1.00  0.00     0.031 C 
ATOM     63  C   UNL A   1      46.641  27.686  29.885  1.00  0.00     0.037 A 
BRANCH  50  64
ATOM     64  C   UNL A   1      43.859  33.067  31.114  1.00  0.00     0.058 A 
ATOM     65  C   UNL A   1      44.173  34.122  30.241  1.00  0.00     0.135 A 
ATOM     66  C   UNL A   1      43.635  33.379  32.464  1.00  0.00     0.135 A 
ATOM     67  F   UNL A   1      44.414  33.876  28.944  1.00  0.00    -0.206 F 
ATOM     68  C   UNL A   1      44.286  35.432  30.695  1.00  0.00     0.059 A 
ATOM     69  C   UNL A   1      43.718  34.686  32.935  1.00  0.00     0.059 A 
ATOM     70  F   UNL A   1      43.331  32.408  33.341  1.00  0.00    -0.206 F 
ATOM     71  C   UNL A   1      44.059  35.703  32.045  1.00  0.00     0.060 A 
BRANCH  71  72
ATOM     72  S   UNL A   1      44.207  37.409  32.618  1.00  0.00     0.124 S 
ATOM     73  O   UNL A   1      43.195  37.450  33.670  1.00  0.00    -0.237 OA
ATOM     74  O   UNL A   1      45.593  37.470  33.071  1.00  0.00    -0.237 OA
ATOM     75  O   UNL A   1      43.905  38.196  31.426  1.00  0.00    -0.744 OA
ENDBRANCH  71  72
ENDBRANCH  50  64
BRANCH  51  76
ATOM     76  C   UNL A   1      42.572  23.741  27.752  1.00  0.00     0.058 A 
ATOM     77  C   UNL A   1      42.421  23.518  26.374  1.00  0.00     0.135 A 
ATOM     78  C   UNL A   1      42.545  22.625  28.601  1.00  0.00     0.135 A 
ATOM     79  F   UNL A   1      42.434  24.555  25.523  1.00  0.00    -0.206 F 
ATOM     80  C   UNL A   1      42.225  22.241  25.859  1.00  0.00     0.059 A 
ATOM     81  C   UNL A   1      42.375  21.335  28.108  1.00  0.00     0.059 A 
ATOM     82  F   UNL A   1      42.704  22.783  29.925  1.00  0.00    -0.206 F 
ATOM     83  C   UNL A   1      42.200  21.155  26.736  1.00  0.00     0.060 A 
BRANCH  83  84
ATOM     84  S   UNL A   1      41.974  19.496  26.059  1.00  0.00     0.124 S 
ATOM     85  O   UNL A   1      40.534  19.469  25.831  1.00  0.00    -0.237 OA
ATOM     86  O   UNL A   1      42.810  19.533  24.864  1.00  0.00    -0.237 OA
ATOM     87  O   UNL A   1      42.462  18.631  27.129  1.00  0.00    -0.744 OA
ENDBRANCH  83  84
ENDBRANCH  51  76
BRANCH  63  88
ATOM     88  C   UNL A   1      48.083  27.318  30.089  1.00  0.00     0.058 A 
ATOM     89  C   UNL A   1      49.041  27.507  29.082  1.00  0.00     0.135 A 
ATOM     90  C   UNL A   1      48.522  26.841  31.335  1.00  0.00     0.135 A 
ATOM     91  F   UNL A   1      48.669  27.954  27.872  1.00  0.00    -0.206 F 
ATOM     92  C   UNL A   1      50.385  27.228  29.300  1.00  0.00     0.059 A 
ATOM     93  C   UNL A   1      49.864  26.575  31.582  1.00  0.00     0.059 A 
ATOM     94  F   UNL A   1      47.643  26.649  32.332  1.00  0.00    -0.206 F 
ATOM     95  C   UNL A   1      50.789  26.766  30.556  1.00  0.00     0.060 A 
BRANCH  95  96
ATOM     96  S   UNL A   1      52.546  26.465  30.846  1.00  0.00     0.124 S 
ATOM     97  O   UNL A   1      52.506  25.245  31.646  1.00  0.00    -0.237 OA
ATOM     98  O   UNL A   1      53.066  26.318  29.491  1.00  0.00    -0.237 OA
ATOM     99  O   UNL A   1      52.983  27.665  31.552  1.00  0.00    -0.744 OA
ENDBRANCH  95  96
ENDBRANCH  63  88
ENDBRANCH  37  38
ENDBRANCH  29  32
ENDBRANCH  27  28
ENDBRANCH  26  27
ENDBRANCH  25  26
ENDBRANCH   1  25
TORSDOF 20
ENDMDL
MODEL 2
REMARK VINA RESULT:     -11.2      3.092      4.200
REMARK SMILES CC(C)(C)N(CC(=O)NCCCCCCNC(=O)c1ccc(-c2c3nc(c(-c4c(F)cc(S(=O)(=O)[O-])cc4F)c4ccc([nH]4)c(-c4c(F)cc(S(=O)(=O)[O-])cc4F)c4nc(c(-c5c(F)cc(S(=O)(=O)[O-])cc5F)c5ccc2[nH]5)C=C4)C=C3)cc1)C(=O)c1cc2ccccc2o1
REMARK SMILES IDX 12 1 11 2 10 3 9 4 7 5 8 6 6 8 5 9 2 10 1 11 3 12 4 13 85 14
REMARK SMILES IDX 86 15 87 16 88 17 95 18 89 19 94 20 90 21 93 22 91 23 92 24
REMARK SMILES IDX 13 25 14 26 15 27 16 28 17 29 18 31 19 32 20 33 84 34 21 35
REMARK SMILES IDX 83 36 22 37 23 38 24 39 77 40 25 41 82 42 76 43 78 44 26 45
REMARK SMILES IDX 81 46 75 47 74 48 27 50 61 51 40 52 60 53 41 54 44 55 59 56
REMARK SMILES IDX 79 57 42 58 43 59 58 61 80 62 45 63 28 64 29 65 38 66 30 67
REMARK SMILES IDX 31 68 37 69 39 70 32 71 33 72 34 73 35 74 36 75 62 76 63 77
REMARK SMILES IDX 72 78 64 79 65 80 71 81 73 82 66 83 67 84 68 85 69 86 70 87
REMARK SMILES IDX 46 88 47 89 56 90 48 91 49 92 55 93 57 94 50 95 51 96 52 97
REMARK SMILES IDX 53 98 54 99
REMARK H PARENT 9 7 16 30 78 49 44 60
REMARK Flexibility Score: inf
ROOT
ATOM      1  C   UNL A   1      31.736  27.323  23.262  1.00  0.00     0.002 C 
ENDROOT
BRANCH   1   2
ATOM      2  C   UNL A   1      30.941  26.228  23.977  1.00  0.00     0.021 C 
BRANCH   2   3
ATOM      3  C   UNL A   1      30.736  24.947  23.167  1.00  0.00     0.116 C 
BRANCH   3   4
ATOM      4  N   UNL A   1      31.925  24.585  22.415  1.00  0.00    -0.355 N 
ATOM      5  C   UNL A   1      32.767  23.521  22.554  1.00  0.00     0.239 C 
ATOM      6  O   UNL A   1      33.643  23.379  21.694  1.00  0.00    -0.273 OA
ATOM      7  H   UNL A   1      32.159  25.207  21.687  1.00  0.00     0.163 HD
BRANCH   5   8
ATOM      8  C   UNL A   1      32.547  22.426  23.626  1.00  0.00     0.220 C 
BRANCH   8   9
ATOM      9  N   UNL A   1      33.468  22.482  24.766  1.00  0.00    -0.322 N 
BRANCH   9  10
ATOM     10  C   UNL A   1      33.035  22.993  26.115  1.00  0.00     0.035 C 
ATOM     11  C   UNL A   1      33.861  22.420  27.286  1.00  0.00     0.034 C 
ATOM     12  C   UNL A   1      31.555  22.659  26.430  1.00  0.00     0.034 C 
ATOM     13  C   UNL A   1      33.193  24.529  26.134  1.00  0.00     0.034 C 
ENDBRANCH   9  10
BRANCH   9  14
ATOM     14  C   UNL A   1      34.628  21.702  24.721  1.00  0.00     0.290 C 
ATOM     15  O   UNL A   1      34.585  20.486  24.904  1.00  0.00    -0.265 OA
BRANCH  14  16
ATOM     16  C   UNL A   1      35.890  22.307  24.345  1.00  0.00     0.192 A 
ATOM     17  C   UNL A   1      36.351  23.576  24.659  1.00  0.00     0.065 A 
ATOM     18  O   UNL A   1      36.951  21.434  24.341  1.00  0.00    -0.451 OA
ATOM     19  C   UNL A   1      37.572  23.343  25.358  1.00  0.00     0.021 A 
ATOM     20  C   UNL A   1      37.894  22.010  25.133  1.00  0.00     0.135 A 
ATOM     21  C   UNL A   1      38.347  24.072  26.275  1.00  0.00     0.012 A 
ATOM     22  C   UNL A   1      38.937  21.330  25.752  1.00  0.00     0.048 A 
ATOM     23  C   UNL A   1      39.346  23.392  26.987  1.00  0.00     0.001 A 
ATOM     24  C   UNL A   1      39.632  22.046  26.732  1.00  0.00     0.004 A 
ENDBRANCH  14  16
ENDBRANCH   9  14
ENDBRANCH   8   9
ENDBRANCH   5   8
ENDBRANCH   3   4
ENDBRANCH   2   3
ENDBRANCH   1   2
BRANCH   1  25
ATOM     25  C   UNL A   1      32.373  28.377  24.172  1.00  0.00     0.002 C 
BRANCH  25  26
ATOM     26  C   UNL A   1      33.702  27.979  24.820  1.00  0.00     0.021 C 
BRANCH  26  27
ATOM     27  C   UNL A   1      33.862  28.392  26.282  1.00  0.00     0.116 C 
BRANCH  27  28
ATOM     28  N   UNL A   1      33.737  29.830  26.463  1.00  0.00    -0.352 N 
ATOM     29  C   UNL A   1      34.464  30.676  27.264  1.00  0.00     0.251 C 
ATOM     30  H   UNL A   1      33.026  30.259  25.935  1.00  0.00     0.163 HD
ATOM     31  O   UNL A   1      34.087  31.834  27.432  1.00  0.00    -0.269 OA
BRANCH  29  32
ATOM     32  C   UNL A   1      35.689  30.192  27.936  1.00  0.00     0.039 A 
ATOM     33  C   UNL A   1      36.905  30.237  27.248  1.00  0.00     0.014 A 
ATOM     34  C   UNL A   1      35.636  29.680  29.236  1.00  0.00     0.014 A 
ATOM     35  C   UNL A   1      38.079  29.829  27.886  1.00  0.00     0.010 A 
ATOM     36  C   UNL A   1      36.814  29.326  29.889  1.00  0.00     0.010 A 
ATOM     37  C   UNL A   1      38.048  29.399  29.221  1.00  0.00    -0.014 A 
BRANCH  37  38
ATOM     38  C   UNL A   1      39.286  29.015  29.948  1.00  0.00     0.031 A 
ATOM     39  C   UNL A   1      39.712  29.791  31.162  1.00  0.00     0.074 A 
ATOM     40  C   UNL A   1      40.063  28.023  29.469  1.00  0.00     0.049 A 
ATOM     41  N   UNL A   1      40.826  29.715  31.843  1.00  0.00    -0.248 NA
ATOM     42  C   UNL A   1      38.770  30.805  31.662  1.00  0.00     0.031 C 
ATOM     43  C   UNL A   1      39.769  27.211  28.286  1.00  0.00     0.029 A 
ATOM     44  N   UNL A   1      41.273  27.543  29.908  1.00  0.00    -0.354 N 
ATOM     45  C   UNL A   1      40.726  30.677  32.842  1.00  0.00     0.074 A 
ATOM     46  C   UNL A   1      39.462  31.354  32.651  1.00  0.00     0.031 C 
ATOM     47  C   UNL A   1      40.769  26.334  28.095  1.00  0.00     0.029 A 
ATOM     48  C   UNL A   1      41.792  26.546  29.114  1.00  0.00     0.049 A 
ATOM     49  H   UNL A   1      41.725  27.881  30.714  1.00  0.00     0.167 HD
ATOM     50  C   UNL A   1      41.600  30.958  33.838  1.00  0.00     0.037 A 
ATOM     51  C   UNL A   1      42.968  25.894  29.188  1.00  0.00     0.037 A 
ATOM     52  C   UNL A   1      42.848  30.269  34.035  1.00  0.00     0.049 A 
ATOM     53  C   UNL A   1      43.932  26.237  30.293  1.00  0.00     0.074 A 
ATOM     54  C   UNL A   1      43.794  30.465  35.026  1.00  0.00     0.029 A 
ATOM     55  N   UNL A   1      43.321  29.243  33.230  1.00  0.00    -0.354 N 
ATOM     56  N   UNL A   1      43.811  27.133  31.243  1.00  0.00    -0.248 NA
ATOM     57  C   UNL A   1      45.191  25.479  30.339  1.00  0.00     0.031 C 
ATOM     58  C   UNL A   1      44.850  29.576  34.806  1.00  0.00     0.029 A 
ATOM     59  C   UNL A   1      44.546  28.800  33.699  1.00  0.00     0.049 A 
ATOM     60  H   UNL A   1      42.854  28.883  32.442  1.00  0.00     0.167 HD
ATOM     61  C   UNL A   1      44.961  27.026  32.016  1.00  0.00     0.074 A 
ATOM     62  C   UNL A   1      45.765  25.975  31.427  1.00  0.00     0.031 C 
ATOM     63  C   UNL A   1      45.319  27.735  33.114  1.00  0.00     0.037 A 
BRANCH  50  64
ATOM     64  C   UNL A   1      41.230  32.053  34.799  1.00  0.00     0.058 A 
ATOM     65  C   UNL A   1      40.451  31.792  35.938  1.00  0.00     0.135 A 
ATOM     66  C   UNL A   1      41.681  33.367  34.599  1.00  0.00     0.135 A 
ATOM     67  F   UNL A   1      39.980  30.556  36.166  1.00  0.00    -0.206 F 
ATOM     68  C   UNL A   1      40.110  32.802  36.832  1.00  0.00     0.059 A 
ATOM     69  C   UNL A   1      41.373  34.388  35.495  1.00  0.00     0.059 A 
ATOM     70  F   UNL A   1      42.429  33.670  33.527  1.00  0.00    -0.206 F 
ATOM     71  C   UNL A   1      40.574  34.097  36.600  1.00  0.00     0.060 A 
BRANCH  71  72
ATOM     72  S   UNL A   1      40.126  35.396  37.771  1.00  0.00     0.124 S 
ATOM     73  O   UNL A   1      41.292  35.410  38.650  1.00  0.00    -0.237 OA
ATOM     74  O   UNL A   1      39.973  36.561  36.906  1.00  0.00    -0.237 OA
ATOM     75  O   UNL A   1      38.892  34.900  38.374  1.00  0.00    -0.744 OA
ENDBRANCH  71  72
ENDBRANCH  50  64
BRANCH  51  76
ATOM     76  C   UNL A   1      43.306  24.847  28.187  1.00  0.00     0.058 A 
ATOM     77  C   UNL A   1      44.005  25.171  27.014  1.00  0.00     0.135 A 
ATOM     78  C   UNL A   1      42.931  23.508  28.376  1.00  0.00     0.135 A 
ATOM     79  F   UNL A   1      44.379  26.439  26.787  1.00  0.00    -0.206 F 
ATOM     80  C   UNL A   1      44.300  24.211  26.052  1.00  0.00     0.059 A 
ATOM     81  C   UNL A   1      43.235  22.525  27.440  1.00  0.00     0.059 A 
ATOM     82  F   UNL A   1      42.277  23.143  29.490  1.00  0.00    -0.206 F 
ATOM     83  C   UNL A   1      43.907  22.890  26.273  1.00  0.00     0.060 A 
BRANCH  83  84
ATOM     84  S   UNL A   1      44.316  21.642  25.034  1.00  0.00     0.124 S 
ATOM     85  O   UNL A   1      43.324  20.612  25.318  1.00  0.00    -0.237 OA
ATOM     86  O   UNL A   1      44.137  22.375  23.785  1.00  0.00    -0.237 OA
ATOM     87  O   UNL A   1      45.698  21.296  25.353  1.00  0.00    -0.744 OA
ENDBRANCH  83  84
ENDBRANCH  51  76
BRANCH  63  88
ATOM     88  C   UNL A   1      46.613  27.369  33.786  1.00  0.00     0.058 A 
ATOM     89  C   UNL A   1      47.819  28.002  33.454  1.00  0.00     0.135 A 
ATOM     90  C   UNL A   1      46.627  26.425  34.825  1.00  0.00     0.135 A 
ATOM     91  F   UNL A   1      47.858  28.906  32.463  1.00  0.00    -0.206 F 
ATOM     92  C   UNL A   1      49.000  27.706  34.126  1.00  0.00     0.059 A 
ATOM     93  C   UNL A   1      47.792  26.128  35.524  1.00  0.00     0.059 A 
ATOM     94  F   UNL A   1      45.496  25.795  35.182  1.00  0.00    -0.206 F 
ATOM     95  C   UNL A   1      48.976  26.771  35.164  1.00  0.00     0.060 A 
BRANCH  95  96
ATOM     96  S   UNL A   1      50.503  26.440  36.069  1.00  0.00     0.124 S 
ATOM     97  O   UNL A   1      51.358  25.901  35.015  1.00  0.00    -0.237 OA
ATOM     98  O   UNL A   1      50.867  27.763  36.565  1.00  0.00    -0.237 OA
ATOM     99  O   UNL A   1      50.091  25.484  37.092  1.00  0.00    -0.744 OA
ENDBRANCH  95  96
ENDBRANCH  63  88
ENDBRANCH  37  38
ENDBRANCH  29  32
ENDBRANCH  27  28
ENDBRANCH  26  27
ENDBRANCH  25  26
ENDBRANCH   1  25
TORSDOF 20
ENDMDL
MODEL 3
REMARK VINA RESULT:     -11.1      1.297      2.460
REMARK SMILES CC(C)(C)N(CC(=O)NCCCCCCNC(=O)c1ccc(-c2c3nc(c(-c4c(F)cc(S(=O)(=O)[O-])cc4F)c4ccc([nH]4)c(-c4c(F)cc(S(=O)(=O)[O-])cc4F)c4nc(c(-c5c(F)cc(S(=O)(=O)[O-])cc5F)c5ccc2[nH]5)C=C4)C=C3)cc1)C(=O)c1cc2ccccc2o1
REMARK SMILES IDX 12 1 11 2 10 3 9 4 7 5 8 6 6 8 5 9 2 10 1 11 3 12 4 13 85 14
REMARK SMILES IDX 86 15 87 16 88 17 95 18 89 19 94 20 90 21 93 22 91 23 92 24
REMARK SMILES IDX 13 25 14 26 15 27 16 28 17 29 18 31 19 32 20 33 84 34 21 35
REMARK SMILES IDX 83 36 22 37 23 38 24 39 77 40 25 41 82 42 76 43 78 44 26 45
REMARK SMILES IDX 81 46 75 47 74 48 27 50 61 51 40 52 60 53 41 54 44 55 59 56
REMARK SMILES IDX 79 57 42 58 43 59 58 61 80 62 45 63 28 64 29 65 38 66 30 67
REMARK SMILES IDX 31 68 37 69 39 70 32 71 33 72 34 73 35 74 36 75 62 76 63 77
REMARK SMILES IDX 72 78 64 79 65 80 71 81 73 82 66 83 67 84 68 85 69 86 70 87
REMARK SMILES IDX 46 88 47 89 56 90 48 91 49 92 55 93 57 94 50 95 51 96 52 97
REMARK SMILES IDX 53 98 54 99
REMARK H PARENT 9 7 16 30 78 49 44 60
REMARK Flexibility Score: inf
ROOT
ATOM      1  C   UNL A   1      31.726  28.828  23.722  1.00  0.00     0.002 C 
ENDROOT
BRANCH   1   2
ATOM      2  C   UNL A   1      30.226  28.532  23.767  1.00  0.00     0.021 C 
BRANCH   2   3
ATOM      3  C   UNL A   1      29.840  27.095  23.411  1.00  0.00     0.116 C 
BRANCH   3   4
ATOM      4  N   UNL A   1      30.920  26.396  22.736  1.00  0.00    -0.355 N 
ATOM      5  C   UNL A   1      31.388  25.126  22.903  1.00  0.00     0.239 C 
ATOM      6  O   UNL A   1      32.245  24.733  22.104  1.00  0.00    -0.273 OA
ATOM      7  H   UNL A   1      31.385  26.923  22.046  1.00  0.00     0.163 HD
BRANCH   5   8
ATOM      8  C   UNL A   1      30.767  24.142  23.922  1.00  0.00     0.220 C 
BRANCH   8   9
ATOM      9  N   UNL A   1      31.705  23.596  24.908  1.00  0.00    -0.322 N 
BRANCH   9  10
ATOM     10  C   UNL A   1      32.182  24.405  26.086  1.00  0.00     0.035 C 
ATOM     11  C   UNL A   1      31.284  25.620  26.403  1.00  0.00     0.034 C 
ATOM     12  C   UNL A   1      33.610  24.968  25.881  1.00  0.00     0.034 C 
ATOM     13  C   UNL A   1      32.201  23.496  27.334  1.00  0.00     0.034 C 
ENDBRANCH   9  10
BRANCH   9  14
ATOM     14  C   UNL A   1      31.857  22.208  24.983  1.00  0.00     0.290 C 
ATOM     15  O   UNL A   1      30.947  21.490  25.398  1.00  0.00    -0.265 OA
BRANCH  14  16
ATOM     16  C   UNL A   1      33.058  21.583  24.466  1.00  0.00     0.192 A 
ATOM     17  C   UNL A   1      33.778  21.933  23.333  1.00  0.00     0.065 A 
ATOM     18  O   UNL A   1      33.931  21.158  25.437  1.00  0.00    -0.451 OA
ATOM     19  C   UNL A   1      35.085  22.222  23.825  1.00  0.00     0.021 A 
ATOM     20  C   UNL A   1      35.125  21.727  25.122  1.00  0.00     0.135 A 
ATOM     21  C   UNL A   1      36.175  22.979  23.363  1.00  0.00     0.012 A 
ATOM     22  C   UNL A   1      36.172  21.926  26.015  1.00  0.00     0.048 A 
ATOM     23  C   UNL A   1      37.205  23.277  24.269  1.00  0.00     0.001 A 
ATOM     24  C   UNL A   1      37.200  22.763  25.570  1.00  0.00     0.004 A 
ENDBRANCH  14  16
ENDBRANCH   9  14
ENDBRANCH   8   9
ENDBRANCH   5   8
ENDBRANCH   3   4
ENDBRANCH   2   3
ENDBRANCH   1   2
BRANCH   1  25
ATOM     25  C   UNL A   1      32.345  29.305  25.038  1.00  0.00     0.002 C 
BRANCH  25  26
ATOM     26  C   UNL A   1      33.556  28.507  25.532  1.00  0.00     0.021 C 
BRANCH  26  27
ATOM     27  C   UNL A   1      33.794  28.552  27.040  1.00  0.00     0.116 C 
BRANCH  27  28
ATOM     28  N   UNL A   1      33.646  29.895  27.579  1.00  0.00    -0.352 N 
ATOM     29  C   UNL A   1      34.526  30.636  28.330  1.00  0.00     0.251 C 
ATOM     30  H   UNL A   1      32.790  30.337  27.377  1.00  0.00     0.163 HD
ATOM     31  O   UNL A   1      34.150  31.680  28.859  1.00  0.00    -0.269 OA
BRANCH  29  32
ATOM     32  C   UNL A   1      35.917  30.173  28.515  1.00  0.00     0.039 A 
ATOM     33  C   UNL A   1      36.798  30.217  27.431  1.00  0.00     0.014 A 
ATOM     34  C   UNL A   1      36.348  29.680  29.750  1.00  0.00     0.014 A 
ATOM     35  C   UNL A   1      38.130  29.829  27.602  1.00  0.00     0.010 A 
ATOM     36  C   UNL A   1      37.688  29.346  29.934  1.00  0.00     0.010 A 
ATOM     37  C   UNL A   1      38.593  29.419  28.862  1.00  0.00    -0.014 A 
BRANCH  37  38
ATOM     38  C   UNL A   1      40.015  29.056  29.092  1.00  0.00     0.031 A 
ATOM     39  C   UNL A   1      40.981  30.095  29.590  1.00  0.00     0.074 A 
ATOM     40  C   UNL A   1      40.451  27.820  28.778  1.00  0.00     0.049 A 
ATOM     41  N   UNL A   1      42.282  30.025  29.711  1.00  0.00    -0.248 NA
ATOM     42  C   UNL A   1      40.410  31.394  29.982  1.00  0.00     0.031 C 
ATOM     43  C   UNL A   1      39.616  26.732  28.265  1.00  0.00     0.029 A 
ATOM     44  N   UNL A   1      41.711  27.277  28.824  1.00  0.00    -0.354 N 
ATOM     45  C   UNL A   1      42.686  31.270  30.178  1.00  0.00     0.074 A 
ATOM     46  C   UNL A   1      41.499  32.090  30.277  1.00  0.00     0.031 C 
ATOM     47  C   UNL A   1      40.386  25.653  28.045  1.00  0.00     0.029 A 
ATOM     48  C   UNL A   1      41.771  25.982  28.363  1.00  0.00     0.049 A 
ATOM     49  H   UNL A   1      42.497  27.768  29.155  1.00  0.00     0.167 HD
ATOM     50  C   UNL A   1      43.932  31.686  30.511  1.00  0.00     0.037 A 
ATOM     51  C   UNL A   1      42.827  25.162  28.194  1.00  0.00     0.037 A 
ATOM     52  C   UNL A   1      45.108  30.859  30.429  1.00  0.00     0.049 A 
ATOM     53  C   UNL A   1      44.204  25.653  28.555  1.00  0.00     0.074 A 
ATOM     54  C   UNL A   1      46.412  31.181  30.762  1.00  0.00     0.029 A 
ATOM     55  N   UNL A   1      45.121  29.543  29.989  1.00  0.00    -0.354 N 
ATOM     56  N   UNL A   1      44.566  26.826  29.017  1.00  0.00    -0.248 NA
ATOM     57  C   UNL A   1      45.317  24.710  28.372  1.00  0.00     0.031 C 
ATOM     58  C   UNL A   1      47.218  30.068  30.500  1.00  0.00     0.029 A 
ATOM     59  C   UNL A   1      46.410  29.041  30.039  1.00  0.00     0.049 A 
ATOM     60  H   UNL A   1      44.330  29.042  29.687  1.00  0.00     0.167 HD
ATOM     61  C   UNL A   1      45.941  26.751  29.210  1.00  0.00     0.074 A 
ATOM     62  C   UNL A   1      46.347  25.417  28.818  1.00  0.00     0.031 C 
ATOM     63  C   UNL A   1      46.790  27.702  29.669  1.00  0.00     0.037 A 
BRANCH  50  64
ATOM     64  C   UNL A   1      44.084  33.096  31.006  1.00  0.00     0.058 A 
ATOM     65  C   UNL A   1      44.063  33.395  32.379  1.00  0.00     0.135 A 
ATOM     66  C   UNL A   1      44.285  34.156  30.108  1.00  0.00     0.135 A 
ATOM     67  F   UNL A   1      43.856  32.420  33.279  1.00  0.00    -0.206 F 
ATOM     68  C   UNL A   1      44.208  34.698  32.841  1.00  0.00     0.059 A 
ATOM     69  C   UNL A   1      44.458  35.465  30.551  1.00  0.00     0.059 A 
ATOM     70  F   UNL A   1      44.315  33.926  28.786  1.00  0.00    -0.206 F 
ATOM     71  C   UNL A   1      44.403  35.727  31.919  1.00  0.00     0.060 A 
BRANCH  71  72
ATOM     72  S   UNL A   1      44.593  37.413  32.535  1.00  0.00     0.124 S 
ATOM     73  O   UNL A   1      43.512  37.488  33.514  1.00  0.00    -0.237 OA
ATOM     74  O   UNL A   1      45.945  37.397  33.085  1.00  0.00    -0.237 OA
ATOM     75  O   UNL A   1      44.415  38.234  31.341  1.00  0.00    -0.744 OA
ENDBRANCH  71  72
ENDBRANCH  50  64
BRANCH  51  76
ATOM     76  C   UNL A   1      42.629  23.789  27.661  1.00  0.00     0.058 A 
ATOM     77  C   UNL A   1      42.527  22.688  28.525  1.00  0.00     0.135 A 
ATOM     78  C   UNL A   1      42.546  23.546  26.281  1.00  0.00     0.135 A 
ATOM     79  F   UNL A   1      42.606  22.869  29.852  1.00  0.00    -0.206 F 
ATOM     80  C   UNL A   1      42.375  21.393  28.042  1.00  0.00     0.059 A 
ATOM     81  C   UNL A   1      42.370  22.263  25.774  1.00  0.00     0.059 A 
ATOM     82  F   UNL A   1      42.619  24.567  25.413  1.00  0.00    -0.206 F 
ATOM     83  C   UNL A   1      42.301  21.190  26.663  1.00  0.00     0.060 A 
BRANCH  83  84
ATOM     84  S   UNL A   1      42.076  19.509  26.042  1.00  0.00     0.124 S 
ATOM     85  O   UNL A   1      42.941  19.514  24.868  1.00  0.00    -0.237 OA
ATOM     86  O   UNL A   1      42.531  18.700  27.167  1.00  0.00    -0.237 OA
ATOM     87  O   UNL A   1      40.643  19.443  25.773  1.00  0.00    -0.744 OA
ENDBRANCH  83  84
ENDBRANCH  51  76
BRANCH  63  88
ATOM     88  C   UNL A   1      48.237  27.325  29.823  1.00  0.00     0.058 A 
ATOM     89  C   UNL A   1      49.198  27.689  28.869  1.00  0.00     0.135 A 
ATOM     90  C   UNL A   1      48.674  26.657  30.978  1.00  0.00     0.135 A 
ATOM     91  F   UNL A   1      48.829  28.322  27.745  1.00  0.00    -0.206 F 
ATOM     92  C   UNL A   1      50.545  27.396  29.051  1.00  0.00     0.059 A 
ATOM     93  C   UNL A   1      50.018  26.372  31.191  1.00  0.00     0.059 A 
ATOM     94  F   UNL A   1      47.791  26.293  31.923  1.00  0.00    -0.206 F 
ATOM     95  C   UNL A   1      50.947  26.741  30.218  1.00  0.00     0.060 A 
BRANCH  95  96
ATOM     96  S   UNL A   1      52.706  26.420  30.472  1.00  0.00     0.124 S 
ATOM     97  O   UNL A   1      53.116  25.972  29.144  1.00  0.00    -0.237 OA
ATOM     98  O   UNL A   1      53.207  27.727  30.883  1.00  0.00    -0.237 OA
ATOM     99  O   UNL A   1      52.717  25.395  31.511  1.00  0.00    -0.744 OA
ENDBRANCH  95  96
ENDBRANCH  63  88
ENDBRANCH  37  38
ENDBRANCH  29  32
ENDBRANCH  27  28
ENDBRANCH  26  27
ENDBRANCH  25  26
ENDBRANCH   1  25
TORSDOF 20
ENDMDL
