MODEL 1
REMARK VINA RESULT:     -10.6      0.000      0.000
REMARK SMILES CCCc1nsc(N2CCO[C@H](CC(=O)NCCCCCCNC(=O)c3ccc(-c4c5nc(c(-c6c(F)cc(S(=O)(=O)[O-])cc6F)c6ccc([nH]6)c(-c6c(F)cc(S(=O)(=O)[O-])cc6F)c6nc(c(-c7c(F)cc(S(=O)(=O)[O-])cc7F)c7ccc4[nH]7)C=C6)C=C5)cc3)C2)n1
REMARK SMILES IDX 19 1 18 2 17 3 16 4 14 5 15 6 13 8 12 9 8 10 9 11 92 12
REMARK SMILES IDX 10 13 11 14 7 15 4 16 5 17 93 18 6 19 3 20 2 21 1 22 20 23
REMARK SMILES IDX 21 24 22 25 23 26 24 27 25 29 26 30 27 31 91 32 28 33 90 34
REMARK SMILES IDX 29 35 30 36 31 37 84 38 32 39 89 40 83 41 85 42 33 43 88 44
REMARK SMILES IDX 82 45 81 46 34 48 68 49 47 50 67 51 48 52 51 53 66 54 86 55
REMARK SMILES IDX 49 56 50 57 65 59 87 60 52 61 35 62 36 63 45 64 37 65 38 66
REMARK SMILES IDX 44 67 46 68 39 69 40 70 41 71 42 72 43 73 69 74 70 75 79 76
REMARK SMILES IDX 71 77 72 78 78 79 80 80 73 81 74 82 75 83 76 84 77 85 53 86
REMARK SMILES IDX 54 87 63 88 55 89 56 90 62 91 64 92 57 93 58 94 59 95 60 96
REMARK SMILES IDX 61 97
REMARK H PARENT 16 7 23 28 85 47 51 58
REMARK Flexibility Score: inf
ROOT
ATOM      1  C   UNL A   1      33.339  22.058  24.168  1.00  0.00     0.002 C 
ENDROOT
BRANCH   1   2
ATOM      2  C   UNL A   1      32.326  22.521  23.115  1.00  0.00     0.021 C 
BRANCH   2   3
ATOM      3  C   UNL A   1      31.223  23.421  23.682  1.00  0.00     0.116 C 
BRANCH   3   4
ATOM      4  N   UNL A   1      31.141  23.244  25.121  1.00  0.00    -0.356 N 
ATOM      5  C   UNL A   1      31.155  24.184  26.104  1.00  0.00     0.222 C 
ATOM      6  O   UNL A   1      31.277  23.818  27.272  1.00  0.00    -0.275 OA
ATOM      7  H   UNL A   1      31.063  22.312  25.428  1.00  0.00     0.163 HD
BRANCH   5   8
ATOM      8  C   UNL A   1      30.969  25.638  25.752  1.00  0.00     0.133 C 
BRANCH   8   9
ATOM      9  C   UNL A   1      32.030  26.572  26.339  1.00  0.00     0.147 C 
ATOM     10  N   UNL A   1      32.048  28.475  24.764  1.00  0.00    -0.342 N 
ATOM     11  C   UNL A   1      33.324  28.012  24.218  1.00  0.00     0.147 C 
ATOM     12  C   UNL A   1      31.753  28.080  26.135  1.00  0.00     0.151 C 
ATOM     13  C   UNL A   1      33.511  26.514  24.463  1.00  0.00     0.182 C 
ATOM     14  O   UNL A   1      33.338  26.192  25.852  1.00  0.00    -0.374 OA
BRANCH  10  15
ATOM     15  C   UNL A   1      31.074  28.917  23.934  1.00  0.00     0.205 A 
ATOM     16  C   UNL A   1      29.374  30.085  23.164  1.00  0.00     0.144 A 
ATOM     17  N   UNL A   1      29.387  29.233  22.136  1.00  0.00    -0.174 NA
ATOM     18  N   UNL A   1      30.283  29.930  24.198  1.00  0.00    -0.203 NA
ATOM     19  S   UNL A   1      30.659  28.187  22.417  1.00  0.00     0.004 S 
BRANCH  16  20
ATOM     20  C   UNL A   1      28.421  31.230  23.193  1.00  0.00     0.078 C 
BRANCH  20  21
ATOM     21  C   UNL A   1      28.783  32.372  22.241  1.00  0.00     0.005 C 
ATOM     22  C   UNL A   1      28.024  32.345  20.919  1.00  0.00     0.004 C 
ENDBRANCH  20  21
ENDBRANCH  16  20
ENDBRANCH  10  15
ENDBRANCH   8   9
ENDBRANCH   5   8
ENDBRANCH   3   4
ENDBRANCH   2   3
ENDBRANCH   1   2
BRANCH   1  23
ATOM     23  C   UNL A   1      34.571  22.955  24.300  1.00  0.00     0.002 C 
BRANCH  23  24
ATOM     24  C   UNL A   1      35.108  23.090  25.726  1.00  0.00     0.021 C 
BRANCH  24  25
ATOM     25  C   UNL A   1      36.529  23.638  25.807  1.00  0.00     0.116 C 
BRANCH  25  26
ATOM     26  N   UNL A   1      37.492  22.587  26.104  1.00  0.00    -0.352 N 
ATOM     27  C   UNL A   1      38.806  22.703  26.476  1.00  0.00     0.251 C 
ATOM     28  H   UNL A   1      37.152  21.667  26.026  1.00  0.00     0.163 HD
ATOM     29  O   UNL A   1      39.541  21.716  26.457  1.00  0.00    -0.269 OA
BRANCH  27  30
ATOM     30  C   UNL A   1      39.336  24.018  26.888  1.00  0.00     0.039 A 
ATOM     31  C   UNL A   1      39.291  24.378  28.236  1.00  0.00     0.014 A 
ATOM     32  C   UNL A   1      39.879  24.894  25.942  1.00  0.00     0.014 A 
ATOM     33  C   UNL A   1      39.841  25.595  28.642  1.00  0.00     0.010 A 
ATOM     34  C   UNL A   1      40.496  26.069  26.360  1.00  0.00     0.010 A 
ATOM     35  C   UNL A   1      40.477  26.435  27.713  1.00  0.00    -0.014 A 
BRANCH  35  36
ATOM     36  C   UNL A   1      41.127  27.701  28.139  1.00  0.00     0.031 A 
ATOM     37  C   UNL A   1      42.621  27.855  28.041  1.00  0.00     0.074 A 
ATOM     38  C   UNL A   1      40.377  28.689  28.667  1.00  0.00     0.049 A 
ATOM     39  N   UNL A   1      43.374  28.856  28.417  1.00  0.00    -0.248 NA
ATOM     40  C   UNL A   1      43.370  26.723  27.471  1.00  0.00     0.031 C 
ATOM     41  C   UNL A   1      38.925  28.639  28.857  1.00  0.00     0.029 A 
ATOM     42  N   UNL A   1      40.731  29.924  29.151  1.00  0.00    -0.354 N 
ATOM     43  C   UNL A   1      44.681  28.474  28.139  1.00  0.00     0.074 A 
ATOM     44  C   UNL A   1      44.624  27.126  27.617  1.00  0.00     0.031 C 
ATOM     45  C   UNL A   1      38.511  29.797  29.394  1.00  0.00     0.029 A 
ATOM     46  C   UNL A   1      39.668  30.656  29.626  1.00  0.00     0.049 A 
ATOM     47  H   UNL A   1      41.657  30.254  29.157  1.00  0.00     0.167 HD
ATOM     48  C   UNL A   1      45.822  29.190  28.283  1.00  0.00     0.037 A 
ATOM     49  C   UNL A   1      39.630  31.878  30.193  1.00  0.00     0.037 A 
ATOM     50  C   UNL A   1      45.866  30.539  28.786  1.00  0.00     0.049 A 
ATOM     51  C   UNL A   1      40.912  32.650  30.353  1.00  0.00     0.074 A 
ATOM     52  C   UNL A   1      46.964  31.370  28.918  1.00  0.00     0.029 A 
ATOM     53  N   UNL A   1      44.767  31.252  29.244  1.00  0.00    -0.354 N 
ATOM     54  N   UNL A   1      42.133  32.298  30.024  1.00  0.00    -0.248 NA
ATOM     55  C   UNL A   1      40.814  33.985  30.956  1.00  0.00     0.031 C 
ATOM     56  C   UNL A   1      46.539  32.566  29.507  1.00  0.00     0.029 A 
ATOM     57  C   UNL A   1      45.165  32.504  29.683  1.00  0.00     0.049 A 
ATOM     58  H   UNL A   1      43.841  30.918  29.254  1.00  0.00     0.167 HD
ATOM     59  C   UNL A   1      42.942  33.380  30.351  1.00  0.00     0.074 A 
ATOM     60  C   UNL A   1      42.071  34.403  30.893  1.00  0.00     0.031 C 
ATOM     61  C   UNL A   1      44.285  33.516  30.214  1.00  0.00     0.037 A 
BRANCH  48  62
ATOM     62  C   UNL A   1      47.117  28.530  27.891  1.00  0.00     0.058 A 
ATOM     63  C   UNL A   1      47.903  27.831  28.823  1.00  0.00     0.135 A 
ATOM     64  C   UNL A   1      47.559  28.561  26.558  1.00  0.00     0.135 A 
ATOM     65  F   UNL A   1      47.537  27.782  30.114  1.00  0.00    -0.206 F 
ATOM     66  C   UNL A   1      49.093  27.213  28.454  1.00  0.00     0.059 A 
ATOM     67  C   UNL A   1      48.731  27.922  26.160  1.00  0.00     0.059 A 
ATOM     68  F   UNL A   1      46.849  29.213  25.625  1.00  0.00    -0.206 F 
ATOM     69  C   UNL A   1      49.498  27.263  27.119  1.00  0.00     0.060 A 
BRANCH  69  70
ATOM     70  S   UNL A   1      51.040  26.447  26.658  1.00  0.00     0.124 S 
ATOM     71  O   UNL A   1      52.024  27.263  27.365  1.00  0.00    -0.237 OA
ATOM     72  O   UNL A   1      50.846  25.097  27.177  1.00  0.00    -0.237 OA
ATOM     73  O   UNL A   1      51.064  26.560  25.203  1.00  0.00    -0.744 OA
ENDBRANCH  69  70
ENDBRANCH  48  62
BRANCH  49  74
ATOM     74  C   UNL A   1      38.330  32.453  30.636  1.00  0.00     0.058 A 
ATOM     75  C   UNL A   1      37.870  32.274  31.949  1.00  0.00     0.135 A 
ATOM     76  C   UNL A   1      37.528  33.202  29.760  1.00  0.00     0.135 A 
ATOM     77  F   UNL A   1      38.597  31.559  32.822  1.00  0.00    -0.206 F 
ATOM     78  C   UNL A   1      36.654  32.798  32.374  1.00  0.00     0.059 A 
ATOM     79  C   UNL A   1      36.323  33.762  30.170  1.00  0.00     0.059 A 
ATOM     80  F   UNL A   1      37.931  33.418  28.498  1.00  0.00    -0.206 F 
ATOM     81  C   UNL A   1      35.889  33.545  31.477  1.00  0.00     0.060 A 
BRANCH  81  82
ATOM     82  S   UNL A   1      34.335  34.262  32.052  1.00  0.00     0.124 S 
ATOM     83  O   UNL A   1      33.650  34.530  30.793  1.00  0.00    -0.237 OA
ATOM     84  O   UNL A   1      33.782  33.182  32.864  1.00  0.00    -0.237 OA
ATOM     85  O   UNL A   1      34.765  35.440  32.800  1.00  0.00    -0.744 OA
ENDBRANCH  81  82
ENDBRANCH  49  74
BRANCH  61  86
ATOM     86  C   UNL A   1      44.895  34.830  30.620  1.00  0.00     0.058 A 
ATOM     87  C   UNL A   1      44.989  35.910  29.728  1.00  0.00     0.135 A 
ATOM     88  C   UNL A   1      45.343  35.027  31.937  1.00  0.00     0.135 A 
ATOM     89  F   UNL A   1      44.583  35.774  28.455  1.00  0.00    -0.206 F 
ATOM     90  C   UNL A   1      45.529  37.131  30.120  1.00  0.00     0.059 A 
ATOM     91  C   UNL A   1      45.856  36.248  32.359  1.00  0.00     0.059 A 
ATOM     92  F   UNL A   1      45.265  34.031  32.833  1.00  0.00    -0.206 F 
ATOM     93  C   UNL A   1      45.957  37.292  31.440  1.00  0.00     0.060 A 
BRANCH  93  94
ATOM     94  S   UNL A   1      46.622  38.892  31.944  1.00  0.00     0.124 S 
ATOM     95  O   UNL A   1      46.874  39.525  30.654  1.00  0.00    -0.237 OA
ATOM     96  O   UNL A   1      45.524  39.454  32.723  1.00  0.00    -0.237 OA
ATOM     97  O   UNL A   1      47.811  38.540  32.714  1.00  0.00    -0.744 OA
ENDBRANCH  93  94
ENDBRANCH  61  86
ENDBRANCH  35  36
ENDBRANCH  27  30
ENDBRANCH  25  26
ENDBRANCH  24  25
ENDBRANCH  23  24
ENDBRANCH   1  23
TORSDOF 20
ENDMDL
MODEL 2
REMARK VINA RESULT:     -10.4      3.581      9.126
REMARK SMILES CCCc1nsc(N2CCO[C@H](CC(=O)NCCCCCCNC(=O)c3ccc(-c4c5nc(c(-c6c(F)cc(S(=O)(=O)[O-])cc6F)c6ccc([nH]6)c(-c6c(F)cc(S(=O)(=O)[O-])cc6F)c6nc(c(-c7c(F)cc(S(=O)(=O)[O-])cc7F)c7ccc4[nH]7)C=C6)C=C5)cc3)C2)n1
REMARK SMILES IDX 19 1 18 2 17 3 16 4 14 5 15 6 13 8 12 9 8 10 9 11 92 12
REMARK SMILES IDX 10 13 11 14 7 15 4 16 5 17 93 18 6 19 3 20 2 21 1 22 20 23
REMARK SMILES IDX 21 24 22 25 23 26 24 27 25 29 26 30 27 31 91 32 28 33 90 34
REMARK SMILES IDX 29 35 30 36 31 37 84 38 32 39 89 40 83 41 85 42 33 43 88 44
REMARK SMILES IDX 82 45 81 46 34 48 68 49 47 50 67 51 48 52 51 53 66 54 86 55
REMARK SMILES IDX 49 56 50 57 65 59 87 60 52 61 35 62 36 63 45 64 37 65 38 66
REMARK SMILES IDX 44 67 46 68 39 69 40 70 41 71 42 72 43 73 69 74 70 75 79 76
REMARK SMILES IDX 71 77 72 78 78 79 80 80 73 81 74 82 75 83 76 84 77 85 53 86
REMARK SMILES IDX 54 87 63 88 55 89 56 90 62 91 64 92 57 93 58 94 59 95 60 96
REMARK SMILES IDX 61 97
REMARK H PARENT 16 7 23 28 85 47 51 58
REMARK Flexibility Score: inf
ROOT
ATOM      1  C   UNL A   1      33.956  28.803  26.010  1.00  0.00     0.002 C 
ENDROOT
BRANCH   1   2
ATOM      2  C   UNL A   1      33.905  27.291  25.762  1.00  0.00     0.021 C 
BRANCH   2   3
ATOM      3  C   UNL A   1      32.773  26.865  24.823  1.00  0.00     0.116 C 
BRANCH   3   4
ATOM      4  N   UNL A   1      31.556  26.656  25.587  1.00  0.00    -0.356 N 
ATOM      5  C   UNL A   1      31.022  25.495  26.051  1.00  0.00     0.222 C 
ATOM      6  O   UNL A   1      29.878  25.508  26.504  1.00  0.00    -0.275 OA
ATOM      7  H   UNL A   1      31.046  27.471  25.798  1.00  0.00     0.163 HD
BRANCH   5   8
ATOM      8  C   UNL A   1      31.852  24.236  26.051  1.00  0.00     0.133 C 
BRANCH   8   9
ATOM      9  C   UNL A   1      31.162  23.024  25.421  1.00  0.00     0.147 C 
ATOM     10  N   UNL A   1      33.022  21.811  24.338  1.00  0.00    -0.342 N 
ATOM     11  C   UNL A   1      32.553  22.261  23.028  1.00  0.00     0.147 C 
ATOM     12  C   UNL A   1      32.016  21.735  25.389  1.00  0.00     0.151 C 
ATOM     13  C   UNL A   1      31.722  23.540  23.155  1.00  0.00     0.182 C 
ATOM     14  O   UNL A   1      30.662  23.373  24.110  1.00  0.00    -0.374 OA
BRANCH  10  15
ATOM     15  C   UNL A   1      34.344  21.821  24.628  1.00  0.00     0.205 A 
ATOM     16  C   UNL A   1      36.402  22.550  24.911  1.00  0.00     0.144 A 
ATOM     17  N   UNL A   1      36.717  21.268  25.115  1.00  0.00    -0.174 NA
ATOM     18  N   UNL A   1      35.094  22.897  24.615  1.00  0.00    -0.203 NA
ATOM     19  S   UNL A   1      35.287  20.415  25.000  1.00  0.00     0.004 S 
BRANCH  16  20
ATOM     20  C   UNL A   1      37.432  23.619  25.041  1.00  0.00     0.078 C 
BRANCH  20  21
ATOM     21  C   UNL A   1      38.133  23.652  26.401  1.00  0.00     0.005 C 
ATOM     22  C   UNL A   1      39.347  22.736  26.498  1.00  0.00     0.004 C 
ENDBRANCH  20  21
ENDBRANCH  16  20
ENDBRANCH  10  15
ENDBRANCH   8   9
ENDBRANCH   5   8
ENDBRANCH   3   4
ENDBRANCH   2   3
ENDBRANCH   1   2
BRANCH   1  23
ATOM     23  C   UNL A   1      34.569  29.205  27.354  1.00  0.00     0.002 C 
BRANCH  23  24
ATOM     24  C   UNL A   1      34.604  30.713  27.610  1.00  0.00     0.021 C 
BRANCH  24  25
ATOM     25  C   UNL A   1      35.823  31.183  28.396  1.00  0.00     0.116 C 
BRANCH  25  26
ATOM     26  N   UNL A   1      35.704  30.863  29.811  1.00  0.00    -0.352 N 
ATOM     27  C   UNL A   1      36.523  30.089  30.591  1.00  0.00     0.251 C 
ATOM     28  H   UNL A   1      34.928  31.257  30.270  1.00  0.00     0.163 HD
ATOM     29  O   UNL A   1      36.149  29.728  31.707  1.00  0.00    -0.269 OA
BRANCH  27  30
ATOM     30  C   UNL A   1      37.847  29.682  30.081  1.00  0.00     0.039 A 
ATOM     31  C   UNL A   1      38.083  29.708  28.705  1.00  0.00     0.014 A 
ATOM     32  C   UNL A   1      38.855  29.277  30.962  1.00  0.00     0.014 A 
ATOM     33  C   UNL A   1      39.349  29.379  28.218  1.00  0.00     0.010 A 
ATOM     34  C   UNL A   1      40.136  29.026  30.481  1.00  0.00     0.010 A 
ATOM     35  C   UNL A   1      40.395  29.068  29.103  1.00  0.00    -0.014 A 
BRANCH  35  36
ATOM     36  C   UNL A   1      41.765  28.782  28.606  1.00  0.00     0.031 A 
ATOM     37  C   UNL A   1      42.138  27.391  28.168  1.00  0.00     0.074 A 
ATOM     38  C   UNL A   1      42.689  29.764  28.604  1.00  0.00     0.049 A 
ATOM     39  N   UNL A   1      43.294  26.936  27.763  1.00  0.00    -0.248 NA
ATOM     40  C   UNL A   1      41.076  26.372  28.218  1.00  0.00     0.031 C 
ATOM     41  C   UNL A   1      42.461  31.141  29.049  1.00  0.00     0.029 A 
ATOM     42  N   UNL A   1      44.009  29.754  28.226  1.00  0.00    -0.354 N 
ATOM     43  C   UNL A   1      43.105  25.580  27.520  1.00  0.00     0.074 A 
ATOM     44  C   UNL A   1      41.737  25.275  27.878  1.00  0.00     0.031 C 
ATOM     45  C   UNL A   1      43.593  31.847  28.896  1.00  0.00     0.029 A 
ATOM     46  C   UNL A   1      44.638  30.966  28.384  1.00  0.00     0.049 A 
ATOM     47  H   UNL A   1      44.462  28.954  27.874  1.00  0.00     0.167 HD
ATOM     48  C   UNL A   1      43.984  24.678  27.021  1.00  0.00     0.037 A 
ATOM     49  C   UNL A   1      45.916  31.327  28.150  1.00  0.00     0.037 A 
ATOM     50  C   UNL A   1      45.338  24.996  26.649  1.00  0.00     0.049 A 
ATOM     51  C   UNL A   1      46.877  30.304  27.607  1.00  0.00     0.074 A 
ATOM     52  C   UNL A   1      46.290  24.167  26.083  1.00  0.00     0.029 A 
ATOM     53  N   UNL A   1      45.934  26.239  26.811  1.00  0.00    -0.354 N 
ATOM     54  N   UNL A   1      46.662  29.041  27.321  1.00  0.00    -0.248 NA
ATOM     55  C   UNL A   1      48.251  30.753  27.348  1.00  0.00     0.031 C 
ATOM     56  C   UNL A   1      47.479  24.892  25.952  1.00  0.00     0.029 A 
ATOM     57  C   UNL A   1      47.250  26.191  26.378  1.00  0.00     0.049 A 
ATOM     58  H   UNL A   1      45.489  27.036  27.177  1.00  0.00     0.167 HD
ATOM     59  C   UNL A   1      47.865  28.554  26.821  1.00  0.00     0.074 A 
ATOM     60  C   UNL A   1      48.798  29.661  26.832  1.00  0.00     0.031 C 
ATOM     61  C   UNL A   1      48.168  27.305  26.389  1.00  0.00     0.037 A 
BRANCH  48  62
ATOM     62  C   UNL A   1      43.508  23.260  26.846  1.00  0.00     0.058 A 
ATOM     63  C   UNL A   1      43.279  22.416  27.946  1.00  0.00     0.135 A 
ATOM     64  C   UNL A   1      43.237  22.751  25.565  1.00  0.00     0.135 A 
ATOM     65  F   UNL A   1      43.536  22.844  29.192  1.00  0.00    -0.206 F 
ATOM     66  C   UNL A   1      42.829  21.110  27.781  1.00  0.00     0.059 A 
ATOM     67  C   UNL A   1      42.755  21.458  25.378  1.00  0.00     0.059 A 
ATOM     68  F   UNL A   1      43.437  23.512  24.478  1.00  0.00    -0.206 F 
ATOM     69  C   UNL A   1      42.568  20.640  26.492  1.00  0.00     0.060 A 
BRANCH  69  70
ATOM     70  S   UNL A   1      41.976  18.947  26.298  1.00  0.00     0.124 S 
ATOM     71  O   UNL A   1      42.065  18.449  27.668  1.00  0.00    -0.237 OA
ATOM     72  O   UNL A   1      40.625  19.147  25.784  1.00  0.00    -0.237 OA
ATOM     73  O   UNL A   1      42.923  18.360  25.356  1.00  0.00    -0.744 OA
ENDBRANCH  69  70
ENDBRANCH  48  62
BRANCH  49  74
ATOM     74  C   UNL A   1      46.354  32.724  28.415  1.00  0.00     0.058 A 
ATOM     75  C   UNL A   1      46.814  33.110  29.683  1.00  0.00     0.135 A 
ATOM     76  C   UNL A   1      46.335  33.698  27.404  1.00  0.00     0.135 A 
ATOM     77  F   UNL A   1      46.845  32.218  30.685  1.00  0.00    -0.206 F 
ATOM     78  C   UNL A   1      47.219  34.414  29.947  1.00  0.00     0.059 A 
ATOM     79  C   UNL A   1      46.764  35.001  27.635  1.00  0.00     0.059 A 
ATOM     80  F   UNL A   1      45.921  33.377  26.168  1.00  0.00    -0.206 F 
ATOM     81  C   UNL A   1      47.194  35.353  28.914  1.00  0.00     0.060 A 
BRANCH  81  82
ATOM     82  S   UNL A   1      47.767  37.030  29.254  1.00  0.00     0.124 S 
ATOM     83  O   UNL A   1      46.677  37.555  30.066  1.00  0.00    -0.237 OA
ATOM     84  O   UNL A   1      49.026  36.788  29.952  1.00  0.00    -0.237 OA
ATOM     85  O   UNL A   1      47.901  37.616  27.923  1.00  0.00    -0.744 OA
ENDBRANCH  81  82
ENDBRANCH  49  74
BRANCH  61  86
ATOM     86  C   UNL A   1      49.555  27.071  25.856  1.00  0.00     0.058 A 
ATOM     87  C   UNL A   1      50.622  26.718  26.697  1.00  0.00     0.135 A 
ATOM     88  C   UNL A   1      49.807  27.150  24.476  1.00  0.00     0.135 A 
ATOM     89  F   UNL A   1      50.440  26.635  28.024  1.00  0.00    -0.206 F 
ATOM     90  C   UNL A   1      51.896  26.476  26.191  1.00  0.00     0.059 A 
ATOM     91  C   UNL A   1      51.063  26.881  23.945  1.00  0.00     0.059 A 
ATOM     92  F   UNL A   1      48.819  27.473  23.626  1.00  0.00    -0.206 F 
ATOM     93  C   UNL A   1      52.106  26.556  24.812  1.00  0.00     0.060 A 
BRANCH  93  94
ATOM     94  S   UNL A   1      53.755  26.205  24.167  1.00  0.00     0.124 S 
ATOM     95  O   UNL A   1      53.967  24.838  24.631  1.00  0.00    -0.237 OA
ATOM     96  O   UNL A   1      53.567  26.365  22.729  1.00  0.00    -0.237 OA
ATOM     97  O   UNL A   1      54.591  27.220  24.800  1.00  0.00    -0.744 OA
ENDBRANCH  93  94
ENDBRANCH  61  86
ENDBRANCH  35  36
ENDBRANCH  27  30
ENDBRANCH  25  26
ENDBRANCH  24  25
ENDBRANCH  23  24
ENDBRANCH   1  23
TORSDOF 20
ENDMDL
MODEL 3
REMARK VINA RESULT:     -10.3      5.304      8.746
REMARK SMILES CCCc1nsc(N2CCO[C@H](CC(=O)NCCCCCCNC(=O)c3ccc(-c4c5nc(c(-c6c(F)cc(S(=O)(=O)[O-])cc6F)c6ccc([nH]6)c(-c6c(F)cc(S(=O)(=O)[O-])cc6F)c6nc(c(-c7c(F)cc(S(=O)(=O)[O-])cc7F)c7ccc4[nH]7)C=C6)C=C5)cc3)C2)n1
REMARK SMILES IDX 19 1 18 2 17 3 16 4 14 5 15 6 13 8 12 9 8 10 9 11 92 12
REMARK SMILES IDX 10 13 11 14 7 15 4 16 5 17 93 18 6 19 3 20 2 21 1 22 20 23
REMARK SMILES IDX 21 24 22 25 23 26 24 27 25 29 26 30 27 31 91 32 28 33 90 34
REMARK SMILES IDX 29 35 30 36 31 37 84 38 32 39 89 40 83 41 85 42 33 43 88 44
REMARK SMILES IDX 82 45 81 46 34 48 68 49 47 50 67 51 48 52 51 53 66 54 86 55
REMARK SMILES IDX 49 56 50 57 65 59 87 60 52 61 35 62 36 63 45 64 37 65 38 66
REMARK SMILES IDX 44 67 46 68 39 69 40 70 41 71 42 72 43 73 69 74 70 75 79 76
REMARK SMILES IDX 71 77 72 78 78 79 80 80 73 81 74 82 75 83 76 84 77 85 53 86
REMARK SMILES IDX 54 87 63 88 55 89 56 90 62 91 64 92 57 93 58 94 59 95 60 96
REMARK SMILES IDX 61 97
REMARK H PARENT 16 7 23 28 85 47 51 58
REMARK Flexibility Score: inf
ROOT
ATOM      1  C   UNL A   1      32.211  29.746  27.257  1.00  0.00     0.002 C 
ENDROOT
BRANCH   1   2
ATOM      2  C   UNL A   1      33.613  29.145  27.106  1.00  0.00     0.021 C 
BRANCH   2   3
ATOM      3  C   UNL A   1      33.637  27.851  26.285  1.00  0.00     0.116 C 
BRANCH   3   4
ATOM      4  N   UNL A   1      32.371  27.157  26.430  1.00  0.00    -0.356 N 
ATOM      5  C   UNL A   1      31.477  26.792  25.471  1.00  0.00     0.222 C 
ATOM      6  O   UNL A   1      30.367  26.390  25.818  1.00  0.00    -0.275 OA
ATOM      7  H   UNL A   1      32.124  26.916  27.352  1.00  0.00     0.163 HD
BRANCH   5   8
ATOM      8  C   UNL A   1      31.878  26.836  24.019  1.00  0.00     0.133 C 
BRANCH   8   9
ATOM      9  C   UNL A   1      31.103  25.869  23.119  1.00  0.00     0.147 C 
ATOM     10  N   UNL A   1      32.683  23.996  22.805  1.00  0.00    -0.342 N 
ATOM     11  C   UNL A   1      32.939  24.442  21.435  1.00  0.00     0.147 C 
ATOM     12  C   UNL A   1      31.395  24.372  23.373  1.00  0.00     0.151 C 
ATOM     13  C   UNL A   1      32.627  25.931  21.278  1.00  0.00     0.182 C 
ATOM     14  O   UNL A   1      31.297  26.230  21.733  1.00  0.00    -0.374 OA
BRANCH  10  15
ATOM     15  C   UNL A   1      33.707  23.590  23.591  1.00  0.00     0.205 A 
ATOM     16  C   UNL A   1      35.108  22.270  24.660  1.00  0.00     0.144 A 
ATOM     17  N   UNL A   1      35.569  23.388  25.225  1.00  0.00    -0.174 NA
ATOM     18  N   UNL A   1      34.056  22.337  23.760  1.00  0.00    -0.203 NA
ATOM     19  S   UNL A   1      34.690  24.642  24.557  1.00  0.00     0.004 S 
BRANCH  16  20
ATOM     20  C   UNL A   1      35.739  20.952  24.951  1.00  0.00     0.078 C 
BRANCH  20  21
ATOM     21  C   UNL A   1      37.268  20.987  25.003  1.00  0.00     0.005 C 
ATOM     22  C   UNL A   1      37.927  19.618  24.883  1.00  0.00     0.004 C 
ENDBRANCH  20  21
ENDBRANCH  16  20
ENDBRANCH  10  15
ENDBRANCH   8   9
ENDBRANCH   5   8
ENDBRANCH   3   4
ENDBRANCH   2   3
ENDBRANCH   1   2
BRANCH   1  23
ATOM     23  C   UNL A   1      31.836  30.762  26.175  1.00  0.00     0.002 C 
BRANCH  23  24
ATOM     24  C   UNL A   1      31.576  32.177  26.696  1.00  0.00     0.021 C 
BRANCH  24  25
ATOM     25  C   UNL A   1      32.753  32.790  27.446  1.00  0.00     0.116 C 
BRANCH  25  26
ATOM     26  N   UNL A   1      32.534  34.202  27.724  1.00  0.00    -0.352 N 
ATOM     27  C   UNL A   1      33.079  34.981  28.712  1.00  0.00     0.251 C 
ATOM     28  H   UNL A   1      31.907  34.660  27.119  1.00  0.00     0.163 HD
ATOM     29  O   UNL A   1      32.607  36.092  28.951  1.00  0.00    -0.269 OA
BRANCH  27  30
ATOM     30  C   UNL A   1      34.225  34.474  29.493  1.00  0.00     0.039 A 
ATOM     31  C   UNL A   1      33.995  33.912  30.751  1.00  0.00     0.014 A 
ATOM     32  C   UNL A   1      35.525  34.552  28.982  1.00  0.00     0.014 A 
ATOM     33  C   UNL A   1      35.065  33.380  31.472  1.00  0.00     0.010 A 
ATOM     34  C   UNL A   1      36.575  33.951  29.667  1.00  0.00     0.010 A 
ATOM     35  C   UNL A   1      36.358  33.365  30.923  1.00  0.00    -0.014 A 
BRANCH  35  36
ATOM     36  C   UNL A   1      37.495  32.741  31.646  1.00  0.00     0.031 A 
ATOM     37  C   UNL A   1      38.185  31.532  31.075  1.00  0.00     0.074 A 
ATOM     38  C   UNL A   1      37.868  33.230  32.846  1.00  0.00     0.049 A 
ATOM     39  N   UNL A   1      39.152  30.815  31.586  1.00  0.00    -0.248 NA
ATOM     40  C   UNL A   1      37.705  31.048  29.770  1.00  0.00     0.031 C 
ATOM     41  C   UNL A   1      37.246  34.369  33.525  1.00  0.00     0.029 A 
ATOM     42  N   UNL A   1      38.853  32.827  33.713  1.00  0.00    -0.354 N 
ATOM     43  C   UNL A   1      39.390  29.793  30.674  1.00  0.00     0.074 A 
ATOM     44  C   UNL A   1      38.427  29.949  29.605  1.00  0.00     0.031 C 
ATOM     45  C   UNL A   1      37.877  34.587  34.690  1.00  0.00     0.029 A 
ATOM     46  C   UNL A   1      38.920  33.581  34.862  1.00  0.00     0.049 A 
ATOM     47  H   UNL A   1      39.454  32.070  33.530  1.00  0.00     0.167 HD
ATOM     48  C   UNL A   1      40.341  28.828  30.711  1.00  0.00     0.037 A 
ATOM     49  C   UNL A   1      39.725  33.468  35.937  1.00  0.00     0.037 A 
ATOM     50  C   UNL A   1      41.307  28.694  31.770  1.00  0.00     0.049 A 
ATOM     51  C   UNL A   1      40.765  32.381  35.961  1.00  0.00     0.074 A 
ATOM     52  C   UNL A   1      42.345  27.784  31.875  1.00  0.00     0.029 A 
ATOM     53  N   UNL A   1      41.352  29.484  32.910  1.00  0.00    -0.354 N 
ATOM     54  N   UNL A   1      41.020  31.463  35.058  1.00  0.00    -0.248 NA
ATOM     55  C   UNL A   1      41.632  32.316  37.145  1.00  0.00     0.031 C 
ATOM     56  C   UNL A   1      42.985  27.990  33.102  1.00  0.00     0.029 A 
ATOM     57  C   UNL A   1      42.384  29.067  33.734  1.00  0.00     0.049 A 
ATOM     58  H   UNL A   1      40.742  30.231  33.104  1.00  0.00     0.167 HD
ATOM     59  C   UNL A   1      42.095  30.732  35.552  1.00  0.00     0.074 A 
ATOM     60  C   UNL A   1      42.450  31.322  36.826  1.00  0.00     0.031 C 
ATOM     61  C   UNL A   1      42.731  29.669  34.999  1.00  0.00     0.037 A 
BRANCH  48  62
ATOM     62  C   UNL A   1      40.383  27.843  29.574  1.00  0.00     0.058 A 
ATOM     63  C   UNL A   1      41.300  27.972  28.517  1.00  0.00     0.135 A 
ATOM     64  C   UNL A   1      39.524  26.732  29.560  1.00  0.00     0.135 A 
ATOM     65  F   UNL A   1      42.134  29.023  28.470  1.00  0.00    -0.206 F 
ATOM     66  C   UNL A   1      41.343  27.053  27.474  1.00  0.00     0.059 A 
ATOM     67  C   UNL A   1      39.572  25.781  28.543  1.00  0.00     0.059 A 
ATOM     68  F   UNL A   1      38.628  26.557  30.543  1.00  0.00    -0.206 F 
ATOM     69  C   UNL A   1      40.476  25.960  27.496  1.00  0.00     0.060 A 
BRANCH  69  70
ATOM     70  S   UNL A   1      40.553  24.773  26.139  1.00  0.00     0.124 S 
ATOM     71  O   UNL A   1      41.092  25.598  25.062  1.00  0.00    -0.237 OA
ATOM     72  O   UNL A   1      41.454  23.754  26.668  1.00  0.00    -0.237 OA
ATOM     73  O   UNL A   1      39.165  24.354  25.972  1.00  0.00    -0.744 OA
ENDBRANCH  69  70
ENDBRANCH  48  62
BRANCH  49  74
ATOM     74  C   UNL A   1      39.588  34.422  37.071  1.00  0.00     0.058 A 
ATOM     75  C   UNL A   1      38.970  34.037  38.270  1.00  0.00     0.135 A 
ATOM     76  C   UNL A   1      40.084  35.734  36.985  1.00  0.00     0.135 A 
ATOM     77  F   UNL A   1      38.474  32.797  38.399  1.00  0.00    -0.206 F 
ATOM     78  C   UNL A   1      38.828  34.920  39.334  1.00  0.00     0.059 A 
ATOM     79  C   UNL A   1      39.981  36.626  38.047  1.00  0.00     0.059 A 
ATOM     80  F   UNL A   1      40.700  36.148  35.867  1.00  0.00    -0.206 F 
ATOM     81  C   UNL A   1      39.341  36.213  39.215  1.00  0.00     0.060 A 
BRANCH  81  82
ATOM     82  S   UNL A   1      39.195  37.336  40.620  1.00  0.00     0.124 S 
ATOM     83  O   UNL A   1      38.424  38.431  40.043  1.00  0.00    -0.237 OA
ATOM     84  O   UNL A   1      38.497  36.510  41.601  1.00  0.00    -0.237 OA
ATOM     85  O   UNL A   1      40.583  37.646  40.949  1.00  0.00    -0.744 OA
ENDBRANCH  81  82
ENDBRANCH  49  74
BRANCH  61  86
ATOM     86  C   UNL A   1      43.903  29.095  35.747  1.00  0.00     0.058 A 
ATOM     87  C   UNL A   1      45.202  29.605  35.593  1.00  0.00     0.135 A 
ATOM     88  C   UNL A   1      43.713  28.055  36.673  1.00  0.00     0.135 A 
ATOM     89  F   UNL A   1      45.442  30.593  34.717  1.00  0.00    -0.206 F 
ATOM     90  C   UNL A   1      46.276  29.087  36.311  1.00  0.00     0.059 A 
ATOM     91  C   UNL A   1      44.766  27.544  37.424  1.00  0.00     0.059 A 
ATOM     92  F   UNL A   1      42.489  27.540  36.867  1.00  0.00    -0.206 F 
ATOM     93  C   UNL A   1      46.046  28.058  37.228  1.00  0.00     0.060 A 
BRANCH  93  94
ATOM     94  S   UNL A   1      47.442  27.420  38.178  1.00  0.00     0.124 S 
ATOM     95  O   UNL A   1      47.125  25.998  38.247  1.00  0.00    -0.237 OA
ATOM     96  O   UNL A   1      48.580  27.777  37.337  1.00  0.00    -0.237 OA
ATOM     97  O   UNL A   1      47.354  28.145  39.442  1.00  0.00    -0.744 OA
ENDBRANCH  93  94
ENDBRANCH  61  86
ENDBRANCH  35  36
ENDBRANCH  27  30
ENDBRANCH  25  26
ENDBRANCH  24  25
ENDBRANCH  23  24
ENDBRANCH   1  23
TORSDOF 20
ENDMDL
