MODEL 1
REMARK VINA RESULT:     -11.5      0.000      0.000
REMARK SMILES Cc1ccc(C(=O)N[C@@H]2C=C[C@H](C(=O)NCCCCCCNC(=O)c3ccc(-c4c5nc(c(-c6c(F)cc(S(=O)(=O)[O-])cc6F)c6ccc([nH]6)c(-c6c(F)cc(S(=O)(=O)[O-])cc6F)c6nc(c(-c7c(F)cc(S(=O)(=O)[O-])cc7F)c7ccc4[nH]7)C=C6)C=C5)cc3)C2)c(F)c1
REMARK SMILES IDX 19 1 18 2 17 3 16 4 15 5 13 6 14 7 12 9 9 10 10 11 91 12
REMARK SMILES IDX 11 13 8 14 6 15 7 16 5 18 1 19 2 20 3 21 94 22 4 23 92 24
REMARK SMILES IDX 93 25 20 26 21 27 22 28 23 29 24 31 25 32 26 33 90 34 27 35
REMARK SMILES IDX 89 36 28 37 29 38 30 39 83 40 31 41 88 42 82 43 84 44 32 45
REMARK SMILES IDX 87 46 81 47 80 48 33 50 67 51 46 52 66 53 47 54 50 55 65 56
REMARK SMILES IDX 85 57 48 58 49 59 64 61 86 62 51 63 34 64 35 65 44 66 36 67
REMARK SMILES IDX 37 68 43 69 45 70 38 71 39 72 40 73 41 74 42 75 68 76 69 77
REMARK SMILES IDX 78 78 70 79 71 80 77 81 79 82 72 83 73 84 74 85 75 86 76 87
REMARK SMILES IDX 52 88 53 89 62 90 54 91 55 92 61 93 63 94 56 95 57 96 58 97
REMARK SMILES IDX 59 98 60 99
REMARK H PARENT 15 8 8 17 22 30 84 49 50 60
REMARK Flexibility Score: inf
ROOT
ATOM      1  C   UNL A   1      42.846  21.593  26.648  1.00  0.00     0.002 C 
ENDROOT
BRANCH   1   2
ATOM      2  C   UNL A   1      41.463  21.064  27.039  1.00  0.00     0.002 C 
BRANCH   2   3
ATOM      3  C   UNL A   1      40.443  22.127  27.467  1.00  0.00     0.021 C 
BRANCH   3   4
ATOM      4  C   UNL A   1      39.452  22.562  26.387  1.00  0.00     0.116 C 
BRANCH   4   5
ATOM      5  N   UNL A   1      38.496  21.522  26.051  1.00  0.00    -0.356 N 
ATOM      6  C   UNL A   1      37.384  21.596  25.257  1.00  0.00     0.227 C 
ATOM      7  O   UNL A   1      36.784  20.554  24.995  1.00  0.00    -0.274 OA
ATOM      8  H   UNL A   1      38.674  20.639  26.448  1.00  0.00     0.163 HD
BRANCH   6   9
ATOM      9  C   UNL A   1      36.913  22.976  24.792  1.00  0.00     0.103 C 
ATOM     10  C   UNL A   1      34.488  23.404  25.074  1.00  0.00     0.106 C 
ATOM     11  C   UNL A   1      34.877  23.215  23.639  1.00  0.00    -0.006 C 
ATOM     12  C   UNL A   1      35.857  23.499  25.769  1.00  0.00     0.047 C 
ATOM     13  C   UNL A   1      36.183  22.968  23.489  1.00  0.00    -0.016 C 
BRANCH  10  14
ATOM     14  N   UNL A   1      33.593  22.316  25.429  1.00  0.00    -0.346 N 
ATOM     15  C   UNL A   1      32.269  22.067  25.153  1.00  0.00     0.254 C 
ATOM     16  O   UNL A   1      31.830  20.927  25.275  1.00  0.00    -0.269 OA
ATOM     17  H   UNL A   1      34.018  21.618  25.977  1.00  0.00     0.164 HD
BRANCH  15  18
ATOM     18  C   UNL A   1      31.352  23.167  24.812  1.00  0.00     0.075 A 
ATOM     19  C   UNL A   1      29.612  26.988  23.928  1.00  0.00     0.044 C 
ATOM     20  C   UNL A   1      30.116  25.610  24.239  1.00  0.00    -0.048 A 
ATOM     21  C   UNL A   1      30.397  24.701  23.209  1.00  0.00     0.004 A 
ATOM     22  C   UNL A   1      30.317  25.219  25.566  1.00  0.00     0.043 A 
ATOM     23  C   UNL A   1      30.992  23.467  23.495  1.00  0.00     0.017 A 
ATOM     24  C   UNL A   1      30.942  24.008  25.847  1.00  0.00     0.136 A 
ATOM     25  F   UNL A   1      31.202  23.715  27.129  1.00  0.00    -0.206 F 
ENDBRANCH  15  18
ENDBRANCH  10  14
ENDBRANCH   6   9
ENDBRANCH   4   5
ENDBRANCH   3   4
ENDBRANCH   2   3
ENDBRANCH   1   2
BRANCH   1  26
ATOM     26  C   UNL A   1      43.354  22.775  27.475  1.00  0.00     0.021 C 
BRANCH  26  27
ATOM     27  C   UNL A   1      43.938  23.929  26.665  1.00  0.00     0.116 C 
BRANCH  27  28
ATOM     28  N   UNL A   1      42.987  24.479  25.713  1.00  0.00    -0.352 N 
ATOM     29  C   UNL A   1      42.009  25.428  25.898  1.00  0.00     0.251 C 
ATOM     30  H   UNL A   1      43.052  24.118  24.799  1.00  0.00     0.163 HD
ATOM     31  O   UNL A   1      41.183  25.635  25.017  1.00  0.00    -0.269 OA
BRANCH  29  32
ATOM     32  C   UNL A   1      41.939  26.179  27.172  1.00  0.00     0.039 A 
ATOM     33  C   UNL A   1      42.793  27.269  27.359  1.00  0.00     0.014 A 
ATOM     34  C   UNL A   1      41.033  25.819  28.175  1.00  0.00     0.014 A 
ATOM     35  C   UNL A   1      42.684  28.043  28.516  1.00  0.00     0.010 A 
ATOM     36  C   UNL A   1      40.878  26.634  29.295  1.00  0.00     0.010 A 
ATOM     37  C   UNL A   1      41.694  27.761  29.472  1.00  0.00    -0.014 A 
BRANCH  37  38
ATOM     38  C   UNL A   1      41.466  28.667  30.629  1.00  0.00     0.031 A 
ATOM     39  C   UNL A   1      42.282  28.530  31.885  1.00  0.00     0.074 A 
ATOM     40  C   UNL A   1      40.470  29.574  30.568  1.00  0.00     0.049 A 
ATOM     41  N   UNL A   1      42.183  29.193  33.009  1.00  0.00    -0.248 NA
ATOM     42  C   UNL A   1      43.332  27.499  31.889  1.00  0.00     0.031 C 
ATOM     43  C   UNL A   1      39.574  29.768  29.424  1.00  0.00     0.029 A 
ATOM     44  N   UNL A   1      40.031  30.495  31.488  1.00  0.00    -0.354 N 
ATOM     45  C   UNL A   1      43.147  28.657  33.855  1.00  0.00     0.074 A 
ATOM     46  C   UNL A   1      43.790  27.582  33.131  1.00  0.00     0.031 C 
ATOM     47  C   UNL A   1      38.709  30.755  29.703  1.00  0.00     0.029 A 
ATOM     48  C   UNL A   1      38.954  31.235  31.059  1.00  0.00     0.049 A 
ATOM     49  H   UNL A   1      40.449  30.614  32.371  1.00  0.00     0.167 HD
ATOM     50  C   UNL A   1      43.476  29.040  35.112  1.00  0.00     0.037 A 
ATOM     51  C   UNL A   1      38.232  32.182  31.689  1.00  0.00     0.037 A 
ATOM     52  C   UNL A   1      42.841  30.124  35.820  1.00  0.00     0.049 A 
ATOM     53  C   UNL A   1      38.609  32.579  33.091  1.00  0.00     0.074 A 
ATOM     54  C   UNL A   1      43.153  30.634  37.068  1.00  0.00     0.029 A 
ATOM     55  N   UNL A   1      41.759  30.856  35.350  1.00  0.00    -0.354 N 
ATOM     56  N   UNL A   1      39.580  32.118  33.844  1.00  0.00    -0.248 NA
ATOM     57  C   UNL A   1      37.797  33.623  33.730  1.00  0.00     0.031 C 
ATOM     58  C   UNL A   1      42.223  31.631  37.378  1.00  0.00     0.029 A 
ATOM     59  C   UNL A   1      41.369  31.786  36.299  1.00  0.00     0.049 A 
ATOM     60  H   UNL A   1      41.333  30.732  34.471  1.00  0.00     0.167 HD
ATOM     61  C   UNL A   1      39.505  32.827  35.037  1.00  0.00     0.074 A 
ATOM     62  C   UNL A   1      38.410  33.765  34.897  1.00  0.00     0.031 C 
ATOM     63  C   UNL A   1      40.271  32.710  36.150  1.00  0.00     0.037 A 
BRANCH  50  64
ATOM     64  C   UNL A   1      44.573  28.286  35.815  1.00  0.00     0.058 A 
ATOM     65  C   UNL A   1      45.920  28.666  35.706  1.00  0.00     0.135 A 
ATOM     66  C   UNL A   1      44.266  27.206  36.659  1.00  0.00     0.135 A 
ATOM     67  F   UNL A   1      46.273  29.681  34.903  1.00  0.00    -0.206 F 
ATOM     68  C   UNL A   1      46.925  27.990  36.390  1.00  0.00     0.059 A 
ATOM     69  C   UNL A   1      45.252  26.534  37.377  1.00  0.00     0.059 A 
ATOM     70  F   UNL A   1      42.995  26.798  36.802  1.00  0.00    -0.206 F 
ATOM     71  C   UNL A   1      46.580  26.927  37.227  1.00  0.00     0.060 A 
BRANCH  71  72
ATOM     72  S   UNL A   1      47.896  26.074  38.122  1.00  0.00     0.124 S 
ATOM     73  O   UNL A   1      47.560  26.395  39.507  1.00  0.00    -0.237 OA
ATOM     74  O   UNL A   1      47.691  24.684  37.727  1.00  0.00    -0.237 OA
ATOM     75  O   UNL A   1      49.114  26.696  37.613  1.00  0.00    -0.744 OA
ENDBRANCH  71  72
ENDBRANCH  50  64
BRANCH  51  76
ATOM     76  C   UNL A   1      37.075  32.818  31.002  1.00  0.00     0.058 A 
ATOM     77  C   UNL A   1      35.763  32.377  31.228  1.00  0.00     0.135 A 
ATOM     78  C   UNL A   1      37.259  33.886  30.110  1.00  0.00     0.135 A 
ATOM     79  F   UNL A   1      35.535  31.354  32.066  1.00  0.00    -0.206 F 
ATOM     80  C   UNL A   1      34.676  32.956  30.581  1.00  0.00     0.059 A 
ATOM     81  C   UNL A   1      36.187  34.502  29.473  1.00  0.00     0.059 A 
ATOM     82  F   UNL A   1      38.492  34.359  29.869  1.00  0.00    -0.206 F 
ATOM     83  C   UNL A   1      34.900  34.022  29.706  1.00  0.00     0.060 A 
BRANCH  83  84
ATOM     84  S   UNL A   1      33.478  34.795  28.903  1.00  0.00     0.124 S 
ATOM     85  O   UNL A   1      34.072  36.013  28.363  1.00  0.00    -0.237 OA
ATOM     86  O   UNL A   1      33.092  33.783  27.926  1.00  0.00    -0.237 OA
ATOM     87  O   UNL A   1      32.536  34.986  30.003  1.00  0.00    -0.744 OA
ENDBRANCH  83  84
ENDBRANCH  51  76
BRANCH  63  88
ATOM     88  C   UNL A   1      39.962  33.626  37.304  1.00  0.00     0.058 A 
ATOM     89  C   UNL A   1      40.640  34.842  37.481  1.00  0.00     0.135 A 
ATOM     90  C   UNL A   1      38.941  33.308  38.215  1.00  0.00     0.135 A 
ATOM     91  F   UNL A   1      41.630  35.191  36.645  1.00  0.00    -0.206 F 
ATOM     92  C   UNL A   1      40.335  35.699  38.534  1.00  0.00     0.059 A 
ATOM     93  C   UNL A   1      38.596  34.164  39.257  1.00  0.00     0.059 A 
ATOM     94  F   UNL A   1      38.253  32.161  38.088  1.00  0.00    -0.206 F 
ATOM     95  C   UNL A   1      39.308  35.353  39.414  1.00  0.00     0.060 A 
BRANCH  95  96
ATOM     96  S   UNL A   1      38.899  36.492  40.753  1.00  0.00     0.124 S 
ATOM     97  O   UNL A   1      37.916  35.720  41.506  1.00  0.00    -0.237 OA
ATOM     98  O   UNL A   1      40.191  36.682  41.406  1.00  0.00    -0.237 OA
ATOM     99  O   UNL A   1      38.376  37.663  40.057  1.00  0.00    -0.744 OA
ENDBRANCH  95  96
ENDBRANCH  63  88
ENDBRANCH  37  38
ENDBRANCH  29  32
ENDBRANCH  27  28
ENDBRANCH  26  27
ENDBRANCH   1  26
TORSDOF 18
ENDMDL
MODEL 2
REMARK VINA RESULT:     -11.1      1.069      2.174
REMARK SMILES Cc1ccc(C(=O)N[C@@H]2C=C[C@H](C(=O)NCCCCCCNC(=O)c3ccc(-c4c5nc(c(-c6c(F)cc(S(=O)(=O)[O-])cc6F)c6ccc([nH]6)c(-c6c(F)cc(S(=O)(=O)[O-])cc6F)c6nc(c(-c7c(F)cc(S(=O)(=O)[O-])cc7F)c7ccc4[nH]7)C=C6)C=C5)cc3)C2)c(F)c1
REMARK SMILES IDX 19 1 18 2 17 3 16 4 15 5 13 6 14 7 12 9 9 10 10 11 91 12
REMARK SMILES IDX 11 13 8 14 6 15 7 16 5 18 1 19 2 20 3 21 94 22 4 23 92 24
REMARK SMILES IDX 93 25 20 26 21 27 22 28 23 29 24 31 25 32 26 33 90 34 27 35
REMARK SMILES IDX 89 36 28 37 29 38 30 39 83 40 31 41 88 42 82 43 84 44 32 45
REMARK SMILES IDX 87 46 81 47 80 48 33 50 67 51 46 52 66 53 47 54 50 55 65 56
REMARK SMILES IDX 85 57 48 58 49 59 64 61 86 62 51 63 34 64 35 65 44 66 36 67
REMARK SMILES IDX 37 68 43 69 45 70 38 71 39 72 40 73 41 74 42 75 68 76 69 77
REMARK SMILES IDX 78 78 70 79 71 80 77 81 79 82 72 83 73 84 74 85 75 86 76 87
REMARK SMILES IDX 52 88 53 89 62 90 54 91 55 92 61 93 63 94 56 95 57 96 58 97
REMARK SMILES IDX 59 98 60 99
REMARK H PARENT 15 8 8 17 22 30 84 49 50 60
REMARK Flexibility Score: inf
ROOT
ATOM      1  C   UNL A   1      42.050  21.228  26.581  1.00  0.00     0.002 C 
ENDROOT
BRANCH   1   2
ATOM      2  C   UNL A   1      40.584  20.852  26.352  1.00  0.00     0.002 C 
BRANCH   2   3
ATOM      3  C   UNL A   1      39.567  21.977  26.577  1.00  0.00     0.021 C 
BRANCH   3   4
ATOM      4  C   UNL A   1      38.409  22.028  25.579  1.00  0.00     0.116 C 
BRANCH   4   5
ATOM      5  N   UNL A   1      37.129  21.714  26.188  1.00  0.00    -0.356 N 
ATOM      6  C   UNL A   1      35.867  21.906  25.693  1.00  0.00     0.227 C 
ATOM      7  O   UNL A   1      34.917  21.441  26.322  1.00  0.00    -0.274 OA
ATOM      8  H   UNL A   1      37.175  21.304  27.081  1.00  0.00     0.163 HD
BRANCH   6   9
ATOM      9  C   UNL A   1      35.705  22.741  24.421  1.00  0.00     0.103 C 
ATOM     10  C   UNL A   1      34.111  24.630  24.606  1.00  0.00     0.106 C 
ATOM     11  C   UNL A   1      33.581  23.511  23.764  1.00  0.00    -0.006 C 
ATOM     12  C   UNL A   1      35.579  24.218  24.806  1.00  0.00     0.047 C 
ATOM     13  C   UNL A   1      34.435  22.484  23.677  1.00  0.00    -0.016 C 
BRANCH  10  14
ATOM     14  N   UNL A   1      33.248  24.744  25.771  1.00  0.00    -0.346 N 
ATOM     15  C   UNL A   1      32.036  25.360  25.979  1.00  0.00     0.254 C 
ATOM     16  O   UNL A   1      31.351  25.033  26.944  1.00  0.00    -0.269 OA
ATOM     17  H   UNL A   1      33.602  24.291  26.570  1.00  0.00     0.164 HD
BRANCH  15  18
ATOM     18  C   UNL A   1      31.601  26.473  25.120  1.00  0.00     0.075 A 
ATOM     19  C   UNL A   1      29.398  29.635  23.234  1.00  0.00     0.044 C 
ATOM     20  C   UNL A   1      30.245  28.540  23.812  1.00  0.00    -0.048 A 
ATOM     21  C   UNL A   1      31.266  28.832  24.728  1.00  0.00     0.004 A 
ATOM     22  C   UNL A   1      30.018  27.210  23.445  1.00  0.00     0.043 A 
ATOM     23  C   UNL A   1      31.964  27.800  25.365  1.00  0.00     0.017 A 
ATOM     24  C   UNL A   1      30.687  26.184  24.106  1.00  0.00     0.136 A 
ATOM     25  F   UNL A   1      30.371  24.920  23.790  1.00  0.00    -0.206 F 
ENDBRANCH  15  18
ENDBRANCH  10  14
ENDBRANCH   6   9
ENDBRANCH   4   5
ENDBRANCH   3   4
ENDBRANCH   2   3
ENDBRANCH   1   2
BRANCH   1  26
ATOM     26  C   UNL A   1      42.364  21.841  27.947  1.00  0.00     0.021 C 
BRANCH  26  27
ATOM     27  C   UNL A   1      42.843  23.290  27.913  1.00  0.00     0.116 C 
BRANCH  27  28
ATOM     28  N   UNL A   1      42.759  23.873  26.583  1.00  0.00    -0.352 N 
ATOM     29  C   UNL A   1      42.279  25.100  26.193  1.00  0.00     0.251 C 
ATOM     30  H   UNL A   1      43.097  23.304  25.854  1.00  0.00     0.163 HD
ATOM     31  O   UNL A   1      42.124  25.346  25.002  1.00  0.00    -0.269 OA
BRANCH  29  32
ATOM     32  C   UNL A   1      41.924  26.115  27.211  1.00  0.00     0.039 A 
ATOM     33  C   UNL A   1      40.856  25.858  28.075  1.00  0.00     0.014 A 
ATOM     34  C   UNL A   1      42.642  27.310  27.322  1.00  0.00     0.014 A 
ATOM     35  C   UNL A   1      40.559  26.761  29.097  1.00  0.00     0.010 A 
ATOM     36  C   UNL A   1      42.389  28.175  28.386  1.00  0.00     0.010 A 
ATOM     37  C   UNL A   1      41.353  27.904  29.291  1.00  0.00    -0.014 A 
BRANCH  37  38
ATOM     38  C   UNL A   1      41.144  28.791  30.467  1.00  0.00     0.031 A 
ATOM     39  C   UNL A   1      41.972  28.625  31.711  1.00  0.00     0.074 A 
ATOM     40  C   UNL A   1      40.156  29.708  30.431  1.00  0.00     0.049 A 
ATOM     41  N   UNL A   1      41.890  29.270  32.847  1.00  0.00    -0.248 NA
ATOM     42  C   UNL A   1      43.013  27.586  31.686  1.00  0.00     0.031 C 
ATOM     43  C   UNL A   1      39.251  29.930  29.300  1.00  0.00     0.029 A 
ATOM     44  N   UNL A   1      39.736  30.617  31.371  1.00  0.00    -0.354 N 
ATOM     45  C   UNL A   1      42.858  28.711  33.674  1.00  0.00     0.074 A 
ATOM     46  C   UNL A   1      43.484  27.642  32.925  1.00  0.00     0.031 C 
ATOM     47  C   UNL A   1      38.398  30.920  29.605  1.00  0.00     0.029 A 
ATOM     48  C   UNL A   1      38.661  31.374  30.966  1.00  0.00     0.049 A 
ATOM     49  H   UNL A   1      40.163  30.717  32.251  1.00  0.00     0.167 HD
ATOM     50  C   UNL A   1      43.204  29.069  34.934  1.00  0.00     0.037 A 
ATOM     51  C   UNL A   1      37.954  32.316  31.620  1.00  0.00     0.037 A 
ATOM     52  C   UNL A   1      42.586  30.146  35.666  1.00  0.00     0.049 A 
ATOM     53  C   UNL A   1      38.349  32.685  33.024  1.00  0.00     0.074 A 
ATOM     54  C   UNL A   1      42.915  30.632  36.920  1.00  0.00     0.029 A 
ATOM     55  N   UNL A   1      41.506  30.895  35.220  1.00  0.00    -0.354 N 
ATOM     56  N   UNL A   1      39.323  32.203  33.760  1.00  0.00    -0.248 NA
ATOM     57  C   UNL A   1      37.553  33.726  33.689  1.00  0.00     0.031 C 
ATOM     58  C   UNL A   1      41.998  31.631  37.257  1.00  0.00     0.029 A 
ATOM     59  C   UNL A   1      41.133  31.812  36.189  1.00  0.00     0.049 A 
ATOM     60  H   UNL A   1      41.070  30.791  34.344  1.00  0.00     0.167 HD
ATOM     61  C   UNL A   1      39.267  32.892  34.965  1.00  0.00     0.074 A 
ATOM     62  C   UNL A   1      38.179  33.842  34.852  1.00  0.00     0.031 C 
ATOM     63  C   UNL A   1      40.043  32.749  36.068  1.00  0.00     0.037 A 
BRANCH  50  64
ATOM     64  C   UNL A   1      44.300  28.293  35.612  1.00  0.00     0.058 A 
ATOM     65  C   UNL A   1      44.031  27.159  36.395  1.00  0.00     0.135 A 
ATOM     66  C   UNL A   1      45.646  28.652  35.426  1.00  0.00     0.135 A 
ATOM     67  F   UNL A   1      42.763  26.778  36.619  1.00  0.00    -0.206 F 
ATOM     68  C   UNL A   1      45.052  26.422  36.986  1.00  0.00     0.059 A 
ATOM     69  C   UNL A   1      46.686  27.911  35.983  1.00  0.00     0.059 A 
ATOM     70  F   UNL A   1      45.964  29.727  34.688  1.00  0.00    -0.206 F 
ATOM     71  C   UNL A   1      46.377  26.804  36.771  1.00  0.00     0.060 A 
BRANCH  71  72
ATOM     72  S   UNL A   1      47.691  25.824  37.530  1.00  0.00     0.124 S 
ATOM     73  O   UNL A   1      48.875  26.601  37.174  1.00  0.00    -0.237 OA
ATOM     74  O   UNL A   1      47.319  25.847  38.941  1.00  0.00    -0.237 OA
ATOM     75  O   UNL A   1      47.571  24.527  36.873  1.00  0.00    -0.744 OA
ENDBRANCH  71  72
ENDBRANCH  50  64
BRANCH  51  76
ATOM     76  C   UNL A   1      36.796  32.974  30.955  1.00  0.00     0.058 A 
ATOM     77  C   UNL A   1      36.984  33.925  29.941  1.00  0.00     0.135 A 
ATOM     78  C   UNL A   1      35.477  32.659  31.316  1.00  0.00     0.135 A 
ATOM     79  F   UNL A   1      38.226  34.267  29.565  1.00  0.00    -0.206 F 
ATOM     80  C   UNL A   1      35.908  34.555  29.323  1.00  0.00     0.059 A 
ATOM     81  C   UNL A   1      34.385  33.252  30.692  1.00  0.00     0.059 A 
ATOM     82  F   UNL A   1      35.239  31.743  32.269  1.00  0.00    -0.206 F 
ATOM     83  C   UNL A   1      34.611  34.208  29.705  1.00  0.00     0.060 A 
BRANCH  83  84
ATOM     84  S   UNL A   1      33.221  35.000  28.866  1.00  0.00     0.124 S 
ATOM     85  O   UNL A   1      32.795  33.950  27.947  1.00  0.00    -0.237 OA
ATOM     86  O   UNL A   1      32.317  35.284  29.976  1.00  0.00    -0.237 OA
ATOM     87  O   UNL A   1      33.829  36.174  28.246  1.00  0.00    -0.744 OA
ENDBRANCH  83  84
ENDBRANCH  51  76
BRANCH  63  88
ATOM     88  C   UNL A   1      39.754  33.648  37.240  1.00  0.00     0.058 A 
ATOM     89  C   UNL A   1      38.876  33.261  38.265  1.00  0.00     0.135 A 
ATOM     90  C   UNL A   1      40.399  34.890  37.365  1.00  0.00     0.135 A 
ATOM     91  F   UNL A   1      38.227  32.088  38.192  1.00  0.00    -0.206 F 
ATOM     92  C   UNL A   1      38.630  34.083  39.360  1.00  0.00     0.059 A 
ATOM     93  C   UNL A   1      40.192  35.714  38.467  1.00  0.00     0.059 A 
ATOM     94  F   UNL A   1      41.255  35.306  36.418  1.00  0.00    -0.206 F 
ATOM     95  C   UNL A   1      39.296  35.306  39.454  1.00  0.00     0.060 A 
BRANCH  95  96
ATOM     96  S   UNL A   1      38.994  36.344  40.899  1.00  0.00     0.124 S 
ATOM     97  O   UNL A   1      37.912  35.622  41.560  1.00  0.00    -0.237 OA
ATOM     98  O   UNL A   1      40.285  36.313  41.581  1.00  0.00    -0.237 OA
ATOM     99  O   UNL A   1      38.627  37.634  40.323  1.00  0.00    -0.744 OA
ENDBRANCH  95  96
ENDBRANCH  63  88
ENDBRANCH  37  38
ENDBRANCH  29  32
ENDBRANCH  27  28
ENDBRANCH  26  27
ENDBRANCH   1  26
TORSDOF 18
ENDMDL
MODEL 3
REMARK VINA RESULT:     -11.1      2.586      8.627
REMARK SMILES Cc1ccc(C(=O)N[C@@H]2C=C[C@H](C(=O)NCCCCCCNC(=O)c3ccc(-c4c5nc(c(-c6c(F)cc(S(=O)(=O)[O-])cc6F)c6ccc([nH]6)c(-c6c(F)cc(S(=O)(=O)[O-])cc6F)c6nc(c(-c7c(F)cc(S(=O)(=O)[O-])cc7F)c7ccc4[nH]7)C=C6)C=C5)cc3)C2)c(F)c1
REMARK SMILES IDX 19 1 18 2 17 3 16 4 15 5 13 6 14 7 12 9 9 10 10 11 91 12
REMARK SMILES IDX 11 13 8 14 6 15 7 16 5 18 1 19 2 20 3 21 94 22 4 23 92 24
REMARK SMILES IDX 93 25 20 26 21 27 22 28 23 29 24 31 25 32 26 33 90 34 27 35
REMARK SMILES IDX 89 36 28 37 29 38 30 39 83 40 31 41 88 42 82 43 84 44 32 45
REMARK SMILES IDX 87 46 81 47 80 48 33 50 67 51 46 52 66 53 47 54 50 55 65 56
REMARK SMILES IDX 85 57 48 58 49 59 64 61 86 62 51 63 34 64 35 65 44 66 36 67
REMARK SMILES IDX 37 68 43 69 45 70 38 71 39 72 40 73 41 74 42 75 68 76 69 77
REMARK SMILES IDX 78 78 70 79 71 80 77 81 79 82 72 83 73 84 74 85 75 86 76 87
REMARK SMILES IDX 52 88 53 89 62 90 54 91 55 92 61 93 63 94 56 95 57 96 58 97
REMARK SMILES IDX 59 98 60 99
REMARK H PARENT 15 8 8 17 22 30 84 49 50 60
REMARK Flexibility Score: inf
ROOT
ATOM      1  C   UNL A   1      32.143  30.287  26.193  1.00  0.00     0.002 C 
ENDROOT
BRANCH   1   2
ATOM      2  C   UNL A   1      31.828  29.008  26.974  1.00  0.00     0.002 C 
BRANCH   2   3
ATOM      3  C   UNL A   1      31.625  27.746  26.127  1.00  0.00     0.021 C 
BRANCH   3   4
ATOM      4  C   UNL A   1      32.457  26.532  26.541  1.00  0.00     0.116 C 
BRANCH   4   5
ATOM      5  N   UNL A   1      31.659  25.328  26.687  1.00  0.00    -0.356 N 
ATOM      6  C   UNL A   1      32.068  24.048  26.945  1.00  0.00     0.227 C 
ATOM      7  O   UNL A   1      31.209  23.194  27.164  1.00  0.00    -0.274 OA
ATOM      8  H   UNL A   1      30.688  25.450  26.589  1.00  0.00     0.163 HD
BRANCH   6   9
ATOM      9  C   UNL A   1      33.565  23.737  26.884  1.00  0.00     0.103 C 
ATOM     10  C   UNL A   1      34.232  22.146  25.103  1.00  0.00     0.106 C 
ATOM     11  C   UNL A   1      34.311  21.544  26.473  1.00  0.00    -0.006 C 
ATOM     12  C   UNL A   1      33.994  23.633  25.418  1.00  0.00     0.047 C 
ATOM     13  C   UNL A   1      33.936  22.397  27.432  1.00  0.00    -0.016 C 
BRANCH  10  14
ATOM     14  N   UNL A   1      33.217  21.413  24.364  1.00  0.00    -0.346 N 
ATOM     15  C   UNL A   1      32.509  21.695  23.220  1.00  0.00     0.254 C 
ATOM     16  O   UNL A   1      31.960  20.782  22.609  1.00  0.00    -0.269 OA
ATOM     17  H   UNL A   1      32.992  20.541  24.762  1.00  0.00     0.164 HD
BRANCH  15  18
ATOM     18  C   UNL A   1      32.316  23.086  22.778  1.00  0.00     0.075 A 
ATOM     19  C   UNL A   1      32.234  27.365  22.479  1.00  0.00     0.044 C 
ATOM     20  C   UNL A   1      32.199  25.866  22.491  1.00  0.00    -0.048 A 
ATOM     21  C   UNL A   1      33.154  25.121  21.784  1.00  0.00     0.004 A 
ATOM     22  C   UNL A   1      31.211  25.193  23.216  1.00  0.00     0.043 A 
ATOM     23  C   UNL A   1      33.199  23.727  21.905  1.00  0.00     0.017 A 
ATOM     24  C   UNL A   1      31.280  23.811  23.366  1.00  0.00     0.136 A 
ATOM     25  F   UNL A   1      30.367  23.216  24.147  1.00  0.00    -0.206 F 
ENDBRANCH  15  18
ENDBRANCH  10  14
ENDBRANCH   6   9
ENDBRANCH   4   5
ENDBRANCH   3   4
ENDBRANCH   2   3
ENDBRANCH   1   2
BRANCH   1  26
ATOM     26  C   UNL A   1      31.792  31.594  26.907  1.00  0.00     0.021 C 
BRANCH  26  27
ATOM     27  C   UNL A   1      32.988  32.411  27.389  1.00  0.00     0.116 C 
BRANCH  27  28
ATOM     28  N   UNL A   1      32.646  33.801  27.645  1.00  0.00    -0.352 N 
ATOM     29  C   UNL A   1      33.147  34.668  28.586  1.00  0.00     0.251 C 
ATOM     30  H   UNL A   1      31.952  34.177  27.056  1.00  0.00     0.163 HD
ATOM     31  O   UNL A   1      32.607  35.753  28.767  1.00  0.00    -0.269 OA
BRANCH  29  32
ATOM     32  C   UNL A   1      34.323  34.281  29.399  1.00  0.00     0.039 A 
ATOM     33  C   UNL A   1      34.113  33.693  30.649  1.00  0.00     0.014 A 
ATOM     34  C   UNL A   1      35.624  34.487  28.932  1.00  0.00     0.014 A 
ATOM     35  C   UNL A   1      35.205  33.242  31.394  1.00  0.00     0.010 A 
ATOM     36  C   UNL A   1      36.707  33.973  29.643  1.00  0.00     0.010 A 
ATOM     37  C   UNL A   1      36.508  33.335  30.876  1.00  0.00    -0.014 A 
BRANCH  37  38
ATOM     38  C   UNL A   1      37.661  32.720  31.588  1.00  0.00     0.031 A 
ATOM     39  C   UNL A   1      38.352  31.508  31.027  1.00  0.00     0.074 A 
ATOM     40  C   UNL A   1      38.040  33.222  32.781  1.00  0.00     0.049 A 
ATOM     41  N   UNL A   1      39.334  30.810  31.538  1.00  0.00    -0.248 NA
ATOM     42  C   UNL A   1      37.865  31.000  29.734  1.00  0.00     0.031 C 
ATOM     43  C   UNL A   1      37.413  34.363  33.454  1.00  0.00     0.029 A 
ATOM     44  N   UNL A   1      39.033  32.835  33.646  1.00  0.00    -0.354 N 
ATOM     45  C   UNL A   1      39.576  29.778  30.639  1.00  0.00     0.074 A 
ATOM     46  C   UNL A   1      38.607  29.913  29.572  1.00  0.00     0.031 C 
ATOM     47  C   UNL A   1      38.047  34.593  34.615  1.00  0.00     0.029 A 
ATOM     48  C   UNL A   1      39.093  33.591  34.794  1.00  0.00     0.049 A 
ATOM     49  H   UNL A   1      39.644  32.085  33.463  1.00  0.00     0.167 HD
ATOM     50  C   UNL A   1      40.531  28.817  30.690  1.00  0.00     0.037 A 
ATOM     51  C   UNL A   1      39.888  33.484  35.876  1.00  0.00     0.037 A 
ATOM     52  C   UNL A   1      41.503  28.700  31.748  1.00  0.00     0.049 A 
ATOM     53  C   UNL A   1      40.930  32.399  35.915  1.00  0.00     0.074 A 
ATOM     54  C   UNL A   1      42.554  27.806  31.853  1.00  0.00     0.029 A 
ATOM     55  N   UNL A   1      41.537  29.490  32.889  1.00  0.00    -0.354 N 
ATOM     56  N   UNL A   1      41.199  31.483  35.015  1.00  0.00    -0.248 NA
ATOM     57  C   UNL A   1      41.778  32.332  37.113  1.00  0.00     0.031 C 
ATOM     58  C   UNL A   1      43.185  28.014  33.083  1.00  0.00     0.029 A 
ATOM     59  C   UNL A   1      42.567  29.078  33.719  1.00  0.00     0.049 A 
ATOM     60  H   UNL A   1      40.921  30.233  33.080  1.00  0.00     0.167 HD
ATOM     61  C   UNL A   1      42.257  30.743  35.530  1.00  0.00     0.074 A 
ATOM     62  C   UNL A   1      42.594  31.333  36.809  1.00  0.00     0.031 C 
ATOM     63  C   UNL A   1      42.889  29.670  34.995  1.00  0.00     0.037 A 
BRANCH  50  64
ATOM     64  C   UNL A   1      40.578  27.809  29.574  1.00  0.00     0.058 A 
ATOM     65  C   UNL A   1      41.549  27.871  28.561  1.00  0.00     0.135 A 
ATOM     66  C   UNL A   1      39.679  26.730  29.550  1.00  0.00     0.135 A 
ATOM     67  F   UNL A   1      42.425  28.887  28.525  1.00  0.00    -0.206 F 
ATOM     68  C   UNL A   1      41.613  26.913  27.554  1.00  0.00     0.059 A 
ATOM     69  C   UNL A   1      39.744  25.743  28.569  1.00  0.00     0.059 A 
ATOM     70  F   UNL A   1      38.730  26.620  30.492  1.00  0.00    -0.206 F 
ATOM     71  C   UNL A   1      40.708  25.850  27.569  1.00  0.00     0.060 A 
BRANCH  71  72
ATOM     72  S   UNL A   1      40.819  24.606  26.265  1.00  0.00     0.124 S 
ATOM     73  O   UNL A   1      41.130  25.432  25.101  1.00  0.00    -0.237 OA
ATOM     74  O   UNL A   1      41.901  23.751  26.743  1.00  0.00    -0.237 OA
ATOM     75  O   UNL A   1      39.494  23.994  26.263  1.00  0.00    -0.744 OA
ENDBRANCH  71  72
ENDBRANCH  50  64
BRANCH  51  76
ATOM     76  C   UNL A   1      39.726  34.428  37.016  1.00  0.00     0.058 A 
ATOM     77  C   UNL A   1      40.307  35.704  36.991  1.00  0.00     0.135 A 
ATOM     78  C   UNL A   1      38.979  34.074  38.150  1.00  0.00     0.135 A 
ATOM     79  F   UNL A   1      41.037  36.087  35.933  1.00  0.00    -0.206 F 
ATOM     80  C   UNL A   1      40.172  36.588  38.057  1.00  0.00     0.059 A 
ATOM     81  C   UNL A   1      38.803  34.951  39.215  1.00  0.00     0.059 A 
ATOM     82  F   UNL A   1      38.386  32.871  38.219  1.00  0.00    -0.206 F 
ATOM     83  C   UNL A   1      39.414  36.202  39.164  1.00  0.00     0.060 A 
BRANCH  83  84
ATOM     84  S   UNL A   1      39.208  37.373  40.524  1.00  0.00     0.124 S 
ATOM     85  O   UNL A   1      38.704  36.507  41.584  1.00  0.00    -0.237 OA
ATOM     86  O   UNL A   1      40.566  37.877  40.700  1.00  0.00    -0.237 OA
ATOM     87  O   UNL A   1      38.253  38.340  39.991  1.00  0.00    -0.744 OA
ENDBRANCH  83  84
ENDBRANCH  51  76
BRANCH  63  88
ATOM     88  C   UNL A   1      44.020  29.066  35.784  1.00  0.00     0.058 A 
ATOM     89  C   UNL A   1      45.333  29.550  35.676  1.00  0.00     0.135 A 
ATOM     90  C   UNL A   1      43.779  28.025  36.696  1.00  0.00     0.135 A 
ATOM     91  F   UNL A   1      45.620  30.538  34.814  1.00  0.00    -0.206 F 
ATOM     92  C   UNL A   1      46.372  29.007  36.426  1.00  0.00     0.059 A 
ATOM     93  C   UNL A   1      44.797  27.488  37.479  1.00  0.00     0.059 A 
ATOM     94  F   UNL A   1      42.540  27.529  36.846  1.00  0.00    -0.206 F 
ATOM     95  C   UNL A   1      46.093  27.979  37.328  1.00  0.00     0.060 A 
BRANCH  95  96
ATOM     96  S   UNL A   1      47.444  27.311  38.320  1.00  0.00     0.124 S 
ATOM     97  O   UNL A   1      47.658  26.013  37.690  1.00  0.00    -0.237 OA
ATOM     98  O   UNL A   1      48.500  28.298  38.113  1.00  0.00    -0.237 OA
ATOM     99  O   UNL A   1      46.889  27.269  39.669  1.00  0.00    -0.744 OA
ENDBRANCH  95  96
ENDBRANCH  63  88
ENDBRANCH  37  38
ENDBRANCH  29  32
ENDBRANCH  27  28
ENDBRANCH  26  27
ENDBRANCH   1  26
TORSDOF 18
ENDMDL
