MODEL 1
REMARK VINA RESULT:     -10.9      0.000      0.000
REMARK SMILES CC[C@@](C)(NC(=O)c1cccc(Br)c1C)C(=O)NCCCCCCNC(=O)c1ccc(-c2c3nc(c(-c4c(F)cc(S(=O)(=O)[O-])cc4F)c4ccc([nH]4)c(-c4c(F)cc(S(=O)(=O)[O-])cc4F)c4nc(c(-c5c(F)cc(S(=O)(=O)[O-])cc5F)c5ccc2[nH]5)C=C4)C=C3)cc1
REMARK SMILES IDX 22 1 21 2 20 3 19 4 18 5 16 6 17 7 3 9 4 10 2 11 1 12 5 13
REMARK SMILES IDX 6 14 7 16 8 17 9 18 14 19 10 20 12 21 15 22 11 23 13 24
REMARK SMILES IDX 23 25 24 26 25 27 26 28 27 30 28 31 29 32 93 33 30 34 92 35
REMARK SMILES IDX 31 36 32 37 33 38 86 39 34 40 91 41 85 42 87 43 35 44 90 45
REMARK SMILES IDX 84 46 83 47 36 49 70 50 49 51 69 52 50 53 53 54 68 55 88 56
REMARK SMILES IDX 51 57 52 58 67 60 89 61 54 62 37 63 38 64 47 65 39 66 40 67
REMARK SMILES IDX 46 68 48 69 41 70 42 71 43 72 44 73 45 74 71 75 72 76 81 77
REMARK SMILES IDX 73 78 74 79 80 80 82 81 75 82 76 83 77 84 78 85 79 86 55 87
REMARK SMILES IDX 56 88 65 89 57 90 58 91 64 92 66 93 59 94 60 95 61 96 62 97
REMARK SMILES IDX 63 98
REMARK H PARENT 18 8 5 15 25 29 87 48 53 59
REMARK Flexibility Score: inf
ROOT
ATOM      1  C   UNL A   1      31.927  30.660  26.353  1.00  0.00     0.002 C 
ENDROOT
BRANCH   1   2
ATOM      2  C   UNL A   1      33.331  30.153  26.584  1.00  0.00     0.002 C 
BRANCH   2   3
ATOM      3  C   UNL A   1      33.503  28.754  27.198  1.00  0.00     0.021 C 
BRANCH   3   4
ATOM      4  C   UNL A   1      33.278  27.353  26.538  1.00  0.00     0.116 C 
BRANCH   4   5
ATOM      5  N   UNL A   1      31.882  26.814  26.396  1.00  0.00    -0.354 N 
ATOM      6  C   UNL A   1      30.817  26.488  25.603  1.00  0.00     0.245 C 
ATOM      7  O   UNL A   1      29.978  25.881  26.305  1.00  0.00    -0.272 OA
ATOM      8  H   UNL A   1      31.598  26.588  27.312  1.00  0.00     0.163 HD
BRANCH   6   9
ATOM      9  C   UNL A   1      30.476  26.550  23.997  1.00  0.00     0.116 C 
ATOM     10  C   UNL A   1      28.936  26.439  23.936  1.00  0.00     0.045 C 
BRANCH   9  11
ATOM     11  C   UNL A   1      30.910  27.961  23.414  1.00  0.00     0.035 C 
ATOM     12  C   UNL A   1      30.015  29.182  23.595  1.00  0.00     0.007 C 
ENDBRANCH   9  11
BRANCH   9  13
ATOM     13  N   UNL A   1      30.970  25.620  22.890  1.00  0.00    -0.338 N 
ATOM     14  C   UNL A   1      32.255  25.169  22.592  1.00  0.00     0.252 C 
ATOM     15  H   UNL A   1      30.266  25.285  22.288  1.00  0.00     0.164 HD
ATOM     16  O   UNL A   1      32.639  25.088  21.429  1.00  0.00    -0.269 OA
BRANCH  14  17
ATOM     17  C   UNL A   1      33.084  24.608  23.680  1.00  0.00     0.043 A 
ATOM     18  C   UNL A   1      34.385  25.027  23.977  1.00  0.00     0.014 A 
ATOM     19  C   UNL A   1      32.648  23.418  24.231  1.00  0.00    -0.024 A 
ATOM     20  C   UNL A   1      35.113  24.410  25.004  1.00  0.00     0.002 A 
ATOM     21  C   UNL A   1      33.211  23.043  25.469  1.00  0.00     0.021 A 
ATOM     22  C   UNL A   1      32.084  22.473  23.143  1.00  0.00     0.046 C 
ATOM     23  C   UNL A   1      34.491  23.471  25.804  1.00  0.00     0.016 A 
ATOM     24  Br  UNL A   1      32.181  23.000  27.116  1.00  0.00    -0.051 Br
ENDBRANCH  14  17
ENDBRANCH   9  13
ENDBRANCH   6   9
ENDBRANCH   4   5
ENDBRANCH   3   4
ENDBRANCH   2   3
ENDBRANCH   1   2
BRANCH   1  25
ATOM     25  C   UNL A   1      31.684  32.074  26.868  1.00  0.00     0.021 C 
BRANCH  25  26
ATOM     26  C   UNL A   1      32.904  32.745  27.501  1.00  0.00     0.116 C 
BRANCH  26  27
ATOM     27  N   UNL A   1      32.704  34.180  27.653  1.00  0.00    -0.352 N 
ATOM     28  C   UNL A   1      33.143  34.971  28.682  1.00  0.00     0.251 C 
ATOM     29  H   UNL A   1      32.199  34.631  26.939  1.00  0.00     0.163 HD
ATOM     30  O   UNL A   1      32.626  36.067  28.910  1.00  0.00    -0.269 OA
BRANCH  28  31
ATOM     31  C   UNL A   1      34.260  34.478  29.502  1.00  0.00     0.039 A 
ATOM     32  C   UNL A   1      34.012  33.841  30.717  1.00  0.00     0.014 A 
ATOM     33  C   UNL A   1      35.563  34.605  29.008  1.00  0.00     0.014 A 
ATOM     34  C   UNL A   1      35.081  33.291  31.425  1.00  0.00     0.010 A 
ATOM     35  C   UNL A   1      36.610  33.984  29.671  1.00  0.00     0.010 A 
ATOM     36  C   UNL A   1      36.383  33.340  30.895  1.00  0.00    -0.014 A 
BRANCH  36  37
ATOM     37  C   UNL A   1      37.534  32.755  31.623  1.00  0.00     0.031 A 
ATOM     38  C   UNL A   1      38.251  31.568  31.037  1.00  0.00     0.074 A 
ATOM     39  C   UNL A   1      37.885  33.247  32.826  1.00  0.00     0.049 A 
ATOM     40  N   UNL A   1      39.233  30.868  31.538  1.00  0.00    -0.248 NA
ATOM     41  C   UNL A   1      37.778  31.080  29.727  1.00  0.00     0.031 C 
ATOM     42  C   UNL A   1      37.224  34.362  33.512  1.00  0.00     0.029 A 
ATOM     43  N   UNL A   1      38.877  32.869  33.695  1.00  0.00    -0.354 N 
ATOM     44  C   UNL A   1      39.478  29.851  30.623  1.00  0.00     0.074 A 
ATOM     45  C   UNL A   1      38.510  29.990  29.560  1.00  0.00     0.031 C 
ATOM     46  C   UNL A   1      37.846  34.593  34.680  1.00  0.00     0.029 A 
ATOM     47  C   UNL A   1      38.920  33.620  34.847  1.00  0.00     0.049 A 
ATOM     48  H   UNL A   1      39.500  32.130  33.511  1.00  0.00     0.167 HD
ATOM     49  C   UNL A   1      40.440  28.900  30.659  1.00  0.00     0.037 A 
ATOM     50  C   UNL A   1      39.731  33.523  35.919  1.00  0.00     0.037 A 
ATOM     51  C   UNL A   1      41.425  28.803  31.703  1.00  0.00     0.049 A 
ATOM     52  C   UNL A   1      40.796  32.458  35.926  1.00  0.00     0.074 A 
ATOM     53  C   UNL A   1      42.498  27.936  31.791  1.00  0.00     0.029 A 
ATOM     54  N   UNL A   1      41.452  29.595  32.841  1.00  0.00    -0.354 N 
ATOM     55  N   UNL A   1      41.074  31.564  35.008  1.00  0.00    -0.248 NA
ATOM     56  C   UNL A   1      41.663  32.392  37.111  1.00  0.00     0.031 C 
ATOM     57  C   UNL A   1      43.138  28.160  33.013  1.00  0.00     0.029 A 
ATOM     58  C   UNL A   1      42.504  29.213  33.655  1.00  0.00     0.049 A 
ATOM     59  H   UNL A   1      40.818  30.321  33.040  1.00  0.00     0.167 HD
ATOM     60  C   UNL A   1      42.171  30.854  35.488  1.00  0.00     0.074 A 
ATOM     61  C   UNL A   1      42.511  31.432  36.771  1.00  0.00     0.031 C 
ATOM     62  C   UNL A   1      42.837  29.818  34.920  1.00  0.00     0.037 A 
BRANCH  49  63
ATOM     63  C   UNL A   1      40.483  27.888  29.547  1.00  0.00     0.058 A 
ATOM     64  C   UNL A   1      41.437  27.955  28.518  1.00  0.00     0.135 A 
ATOM     65  C   UNL A   1      39.602  26.795  29.553  1.00  0.00     0.135 A 
ATOM     66  F   UNL A   1      42.290  28.988  28.451  1.00  0.00    -0.206 F 
ATOM     67  C   UNL A   1      41.507  26.978  27.529  1.00  0.00     0.059 A 
ATOM     68  C   UNL A   1      39.675  25.791  28.591  1.00  0.00     0.059 A 
ATOM     69  F   UNL A   1      38.665  26.686  30.509  1.00  0.00    -0.206 F 
ATOM     70  C   UNL A   1      40.628  25.896  27.580  1.00  0.00     0.060 A 
BRANCH  70  71
ATOM     71  S   UNL A   1      40.768  24.613  26.317  1.00  0.00     0.124 S 
ATOM     72  O   UNL A   1      41.137  25.398  25.144  1.00  0.00    -0.237 OA
ATOM     73  O   UNL A   1      41.817  23.757  26.861  1.00  0.00    -0.237 OA
ATOM     74  O   UNL A   1      39.435  24.022  26.282  1.00  0.00    -0.744 OA
ENDBRANCH  70  71
ENDBRANCH  49  63
BRANCH  50  75
ATOM     75  C   UNL A   1      39.581  34.458  37.068  1.00  0.00     0.058 A 
ATOM     76  C   UNL A   1      40.161  35.735  37.043  1.00  0.00     0.135 A 
ATOM     77  C   UNL A   1      38.880  34.086  38.227  1.00  0.00     0.135 A 
ATOM     78  F   UNL A   1      40.843  36.140  35.960  1.00  0.00    -0.206 F 
ATOM     79  C   UNL A   1      40.089  36.594  38.135  1.00  0.00     0.059 A 
ATOM     80  C   UNL A   1      38.766  34.939  39.320  1.00  0.00     0.059 A 
ATOM     81  F   UNL A   1      38.286  32.884  38.299  1.00  0.00    -0.206 F 
ATOM     82  C   UNL A   1      39.391  36.184  39.272  1.00  0.00     0.060 A 
BRANCH  82  83
ATOM     83  S   UNL A   1      39.300  37.305  40.685  1.00  0.00     0.124 S 
ATOM     84  O   UNL A   1      40.692  37.717  40.822  1.00  0.00    -0.237 OA
ATOM     85  O   UNL A   1      38.374  38.327  40.204  1.00  0.00    -0.237 OA
ATOM     86  O   UNL A   1      38.783  36.456  41.753  1.00  0.00    -0.744 OA
ENDBRANCH  82  83
ENDBRANCH  50  75
BRANCH  62  87
ATOM     87  C   UNL A   1      44.031  29.274  35.652  1.00  0.00     0.058 A 
ATOM     88  C   UNL A   1      45.318  29.804  35.470  1.00  0.00     0.135 A 
ATOM     89  C   UNL A   1      43.872  28.248  36.599  1.00  0.00     0.135 A 
ATOM     90  F   UNL A   1      45.525  30.782  34.573  1.00  0.00    -0.206 F 
ATOM     91  C   UNL A   1      46.409  29.323  36.184  1.00  0.00     0.059 A 
ATOM     92  C   UNL A   1      44.942  27.774  37.348  1.00  0.00     0.059 A 
ATOM     93  F   UNL A   1      42.661  27.713  36.819  1.00  0.00    -0.206 F 
ATOM     94  C   UNL A   1      46.209  28.310  37.126  1.00  0.00     0.060 A 
BRANCH  94  95
ATOM     95  S   UNL A   1      47.627  27.723  38.076  1.00  0.00     0.124 S 
ATOM     96  O   UNL A   1      47.570  28.585  39.251  1.00  0.00    -0.237 OA
ATOM     97  O   UNL A   1      47.291  26.321  38.300  1.00  0.00    -0.237 OA
ATOM     98  O   UNL A   1      48.757  27.956  37.181  1.00  0.00    -0.744 OA
ENDBRANCH  94  95
ENDBRANCH  62  87
ENDBRANCH  36  37
ENDBRANCH  28  31
ENDBRANCH  26  27
ENDBRANCH  25  26
ENDBRANCH   1  25
TORSDOF 19
ENDMDL
MODEL 2
REMARK VINA RESULT:     -10.8      6.125     10.825
REMARK SMILES CC[C@@](C)(NC(=O)c1cccc(Br)c1C)C(=O)NCCCCCCNC(=O)c1ccc(-c2c3nc(c(-c4c(F)cc(S(=O)(=O)[O-])cc4F)c4ccc([nH]4)c(-c4c(F)cc(S(=O)(=O)[O-])cc4F)c4nc(c(-c5c(F)cc(S(=O)(=O)[O-])cc5F)c5ccc2[nH]5)C=C4)C=C3)cc1
REMARK SMILES IDX 22 1 21 2 20 3 19 4 18 5 16 6 17 7 3 9 4 10 2 11 1 12 5 13
REMARK SMILES IDX 6 14 7 16 8 17 9 18 14 19 10 20 12 21 15 22 11 23 13 24
REMARK SMILES IDX 23 25 24 26 25 27 26 28 27 30 28 31 29 32 93 33 30 34 92 35
REMARK SMILES IDX 31 36 32 37 33 38 86 39 34 40 91 41 85 42 87 43 35 44 90 45
REMARK SMILES IDX 84 46 83 47 36 49 70 50 49 51 69 52 50 53 53 54 68 55 88 56
REMARK SMILES IDX 51 57 52 58 67 60 89 61 54 62 37 63 38 64 47 65 39 66 40 67
REMARK SMILES IDX 46 68 48 69 41 70 42 71 43 72 44 73 45 74 71 75 72 76 81 77
REMARK SMILES IDX 73 78 74 79 80 80 82 81 75 82 76 83 77 84 78 85 79 86 55 87
REMARK SMILES IDX 56 88 65 89 57 90 58 91 64 92 66 93 59 94 60 95 61 96 62 97
REMARK SMILES IDX 63 98
REMARK H PARENT 18 8 5 15 25 29 87 48 53 59
REMARK Flexibility Score: inf
ROOT
ATOM      1  C   UNL A   1      33.764  30.835  27.281  1.00  0.00     0.002 C 
ENDROOT
BRANCH   1   2
ATOM      2  C   UNL A   1      34.476  29.511  27.130  1.00  0.00     0.002 C 
BRANCH   2   3
ATOM      3  C   UNL A   1      33.624  28.233  27.072  1.00  0.00     0.021 C 
BRANCH   3   4
ATOM      4  C   UNL A   1      32.111  28.039  27.425  1.00  0.00     0.116 C 
BRANCH   4   5
ATOM      5  N   UNL A   1      31.337  26.920  26.786  1.00  0.00    -0.354 N 
ATOM      6  C   UNL A   1      30.757  26.368  25.678  1.00  0.00     0.245 C 
ATOM      7  O   UNL A   1      30.390  25.207  25.967  1.00  0.00    -0.272 OA
ATOM      8  H   UNL A   1      31.163  26.279  27.513  1.00  0.00     0.163 HD
BRANCH   6   9
ATOM      9  C   UNL A   1      30.594  26.783  24.096  1.00  0.00     0.116 C 
ATOM     10  C   UNL A   1      29.176  26.296  23.724  1.00  0.00     0.045 C 
BRANCH   9  11
ATOM     11  C   UNL A   1      30.646  28.363  23.952  1.00  0.00     0.035 C 
ATOM     12  C   UNL A   1      31.984  29.091  23.885  1.00  0.00     0.007 C 
ENDBRANCH   9  11
BRANCH   9  13
ATOM     13  N   UNL A   1      31.466  26.361  22.914  1.00  0.00    -0.338 N 
ATOM     14  C   UNL A   1      32.817  26.023  22.860  1.00  0.00     0.252 C 
ATOM     15  H   UNL A   1      30.996  26.320  22.049  1.00  0.00     0.164 HD
ATOM     16  O   UNL A   1      33.523  26.403  21.931  1.00  0.00    -0.269 OA
BRANCH  14  17
ATOM     17  C   UNL A   1      33.347  25.043  23.832  1.00  0.00     0.043 A 
ATOM     18  C   UNL A   1      34.292  25.344  24.819  1.00  0.00     0.014 A 
ATOM     19  C   UNL A   1      33.106  23.712  23.553  1.00  0.00    -0.024 A 
ATOM     20  C   UNL A   1      34.769  24.341  25.675  1.00  0.00     0.002 A 
ATOM     21  C   UNL A   1      33.295  22.794  24.608  1.00  0.00     0.021 A 
ATOM     22  C   UNL A   1      33.241  23.426  22.038  1.00  0.00     0.046 C 
ATOM     23  C   UNL A   1      34.205  23.080  25.619  1.00  0.00     0.016 A 
ATOM     24  Br  UNL A   1      31.821  21.831  25.431  1.00  0.00    -0.051 Br
ENDBRANCH  14  17
ENDBRANCH   9  13
ENDBRANCH   6   9
ENDBRANCH   4   5
ENDBRANCH   3   4
ENDBRANCH   2   3
ENDBRANCH   1   2
BRANCH   1  25
ATOM     25  C   UNL A   1      34.586  31.906  27.987  1.00  0.00     0.021 C 
BRANCH  25  26
ATOM     26  C   UNL A   1      35.876  31.402  28.634  1.00  0.00     0.116 C 
BRANCH  26  27
ATOM     27  N   UNL A   1      35.715  31.212  30.069  1.00  0.00    -0.352 N 
ATOM     28  C   UNL A   1      36.514  30.473  30.900  1.00  0.00     0.251 C 
ATOM     29  H   UNL A   1      34.947  31.664  30.488  1.00  0.00     0.163 HD
ATOM     30  O   UNL A   1      36.105  30.075  31.993  1.00  0.00    -0.269 OA
BRANCH  28  31
ATOM     31  C   UNL A   1      37.884  30.175  30.454  1.00  0.00     0.039 A 
ATOM     32  C   UNL A   1      38.881  29.892  31.387  1.00  0.00     0.014 A 
ATOM     33  C   UNL A   1      38.145  30.120  29.080  1.00  0.00     0.014 A 
ATOM     34  C   UNL A   1      40.145  29.512  30.934  1.00  0.00     0.010 A 
ATOM     35  C   UNL A   1      39.375  29.660  28.636  1.00  0.00     0.010 A 
ATOM     36  C   UNL A   1      40.392  29.372  29.557  1.00  0.00    -0.014 A 
BRANCH  36  37
ATOM     37  C   UNL A   1      41.723  28.959  29.051  1.00  0.00     0.031 A 
ATOM     38  C   UNL A   1      42.818  29.986  28.934  1.00  0.00     0.074 A 
ATOM     39  C   UNL A   1      41.919  27.692  28.641  1.00  0.00     0.049 A 
ATOM     40  N   UNL A   1      44.027  29.851  28.457  1.00  0.00    -0.248 NA
ATOM     41  C   UNL A   1      42.502  31.356  29.381  1.00  0.00     0.031 C 
ATOM     42  C   UNL A   1      40.910  26.628  28.660  1.00  0.00     0.029 A 
ATOM     43  N   UNL A   1      43.030  27.081  28.116  1.00  0.00    -0.354 N 
ATOM     44  C   UNL A   1      44.603  31.114  28.524  1.00  0.00     0.074 A 
ATOM     45  C   UNL A   1      43.598  32.015  29.039  1.00  0.00     0.031 C 
ATOM     46  C   UNL A   1      41.457  25.492  28.197  1.00  0.00     0.029 A 
ATOM     47  C   UNL A   1      42.839  25.753  27.808  1.00  0.00     0.049 A 
ATOM     48  H   UNL A   1      43.885  27.548  27.976  1.00  0.00     0.167 HD
ATOM     49  C   UNL A   1      45.865  31.482  28.204  1.00  0.00     0.037 A 
ATOM     50  C   UNL A   1      43.683  24.856  27.263  1.00  0.00     0.037 A 
ATOM     51  C   UNL A   1      46.867  30.563  27.736  1.00  0.00     0.049 A 
ATOM     52  C   UNL A   1      45.084  25.294  26.924  1.00  0.00     0.074 A 
ATOM     53  C   UNL A   1      48.201  30.812  27.469  1.00  0.00     0.029 A 
ATOM     54  N   UNL A   1      46.643  29.223  27.458  1.00  0.00    -0.354 N 
ATOM     55  N   UNL A   1      45.641  26.472  27.083  1.00  0.00    -0.248 NA
ATOM     56  C   UNL A   1      45.975  24.283  26.339  1.00  0.00     0.031 C 
ATOM     57  C   UNL A   1      48.770  29.638  26.969  1.00  0.00     0.029 A 
ATOM     58  C   UNL A   1      47.808  28.640  26.989  1.00  0.00     0.049 A 
ATOM     59  H   UNL A   1      45.785  28.756  27.577  1.00  0.00     0.167 HD
ATOM     60  C   UNL A   1      46.956  26.331  26.652  1.00  0.00     0.074 A 
ATOM     61  C   UNL A   1      47.114  24.953  26.238  1.00  0.00     0.031 C 
ATOM     62  C   UNL A   1      47.946  27.258  26.602  1.00  0.00     0.037 A 
BRANCH  49  63
ATOM     63  C   UNL A   1      46.242  32.931  28.347  1.00  0.00     0.058 A 
ATOM     64  C   UNL A   1      46.827  33.435  29.520  1.00  0.00     0.135 A 
ATOM     65  C   UNL A   1      46.082  33.812  27.265  1.00  0.00     0.135 A 
ATOM     66  F   UNL A   1      46.985  32.644  30.592  1.00  0.00    -0.206 F 
ATOM     67  C   UNL A   1      47.230  34.764  29.618  1.00  0.00     0.059 A 
ATOM     68  C   UNL A   1      46.505  35.136  27.331  1.00  0.00     0.059 A 
ATOM     69  F   UNL A   1      45.521  33.384  26.123  1.00  0.00    -0.206 F 
ATOM     70  C   UNL A   1      47.073  35.603  28.514  1.00  0.00     0.060 A 
BRANCH  70  71
ATOM     71  S   UNL A   1      47.648  37.310  28.643  1.00  0.00     0.124 S 
ATOM     72  O   UNL A   1      48.993  37.125  29.177  1.00  0.00    -0.237 OA
ATOM     73  O   UNL A   1      47.573  37.766  27.258  1.00  0.00    -0.237 OA
ATOM     74  O   UNL A   1      46.690  37.924  29.556  1.00  0.00    -0.744 OA
ENDBRANCH  70  71
ENDBRANCH  49  63
BRANCH  50  75
ATOM     75  C   UNL A   1      43.242  23.457  27.011  1.00  0.00     0.058 A 
ATOM     76  C   UNL A   1      43.114  22.537  28.063  1.00  0.00     0.135 A 
ATOM     77  C   UNL A   1      42.964  23.000  25.712  1.00  0.00     0.135 A 
ATOM     78  F   UNL A   1      43.368  22.922  29.323  1.00  0.00    -0.206 F 
ATOM     79  C   UNL A   1      42.769  21.209  27.837  1.00  0.00     0.059 A 
ATOM     80  C   UNL A   1      42.586  21.685  25.463  1.00  0.00     0.059 A 
ATOM     81  F   UNL A   1      43.049  23.842  24.670  1.00  0.00    -0.206 F 
ATOM     82  C   UNL A   1      42.511  20.791  26.530  1.00  0.00     0.060 A 
BRANCH  82  83
ATOM     83  S   UNL A   1      42.062  19.065  26.244  1.00  0.00     0.124 S 
ATOM     84  O   UNL A   1      40.679  19.193  25.797  1.00  0.00    -0.237 OA
ATOM     85  O   UNL A   1      43.029  18.663  25.226  1.00  0.00    -0.237 OA
ATOM     86  O   UNL A   1      42.249  18.449  27.554  1.00  0.00    -0.744 OA
ENDBRANCH  82  83
ENDBRANCH  50  75
BRANCH  62  87
ATOM     87  C   UNL A   1      49.300  26.805  26.133  1.00  0.00     0.058 A 
ATOM     88  C   UNL A   1      49.745  27.030  24.821  1.00  0.00     0.135 A 
ATOM     89  C   UNL A   1      50.190  26.193  27.032  1.00  0.00     0.135 A 
ATOM     90  F   UNL A   1      48.931  27.606  23.921  1.00  0.00    -0.206 F 
ATOM     91  C   UNL A   1      51.015  26.645  24.410  1.00  0.00     0.059 A 
ATOM     92  C   UNL A   1      51.477  25.831  26.652  1.00  0.00     0.059 A 
ATOM     93  F   UNL A   1      49.819  25.964  28.301  1.00  0.00    -0.206 F 
ATOM     94  C   UNL A   1      51.876  26.051  25.335  1.00  0.00     0.060 A 
BRANCH  94  95
ATOM     95  S   UNL A   1      53.538  25.594  24.798  1.00  0.00     0.124 S 
ATOM     96  O   UNL A   1      53.564  24.168  25.103  1.00  0.00    -0.237 OA
ATOM     97  O   UNL A   1      53.512  25.939  23.380  1.00  0.00    -0.237 OA
ATOM     98  O   UNL A   1      54.404  26.429  25.625  1.00  0.00    -0.744 OA
ENDBRANCH  94  95
ENDBRANCH  62  87
ENDBRANCH  36  37
ENDBRANCH  28  31
ENDBRANCH  26  27
ENDBRANCH  25  26
ENDBRANCH   1  25
TORSDOF 19
ENDMDL
MODEL 3
REMARK VINA RESULT:     -10.7      6.356      8.691
REMARK SMILES CC[C@@](C)(NC(=O)c1cccc(Br)c1C)C(=O)NCCCCCCNC(=O)c1ccc(-c2c3nc(c(-c4c(F)cc(S(=O)(=O)[O-])cc4F)c4ccc([nH]4)c(-c4c(F)cc(S(=O)(=O)[O-])cc4F)c4nc(c(-c5c(F)cc(S(=O)(=O)[O-])cc5F)c5ccc2[nH]5)C=C4)C=C3)cc1
REMARK SMILES IDX 22 1 21 2 20 3 19 4 18 5 16 6 17 7 3 9 4 10 2 11 1 12 5 13
REMARK SMILES IDX 6 14 7 16 8 17 9 18 14 19 10 20 12 21 15 22 11 23 13 24
REMARK SMILES IDX 23 25 24 26 25 27 26 28 27 30 28 31 29 32 93 33 30 34 92 35
REMARK SMILES IDX 31 36 32 37 33 38 86 39 34 40 91 41 85 42 87 43 35 44 90 45
REMARK SMILES IDX 84 46 83 47 36 49 70 50 49 51 69 52 50 53 53 54 68 55 88 56
REMARK SMILES IDX 51 57 52 58 67 60 89 61 54 62 37 63 38 64 47 65 39 66 40 67
REMARK SMILES IDX 46 68 48 69 41 70 42 71 43 72 44 73 45 74 71 75 72 76 81 77
REMARK SMILES IDX 73 78 74 79 80 80 82 81 75 82 76 83 77 84 78 85 79 86 55 87
REMARK SMILES IDX 56 88 65 89 57 90 58 91 64 92 66 93 59 94 60 95 61 96 62 97
REMARK SMILES IDX 63 98
REMARK H PARENT 18 8 5 15 25 29 87 48 53 59
REMARK Flexibility Score: inf
ROOT
ATOM      1  C   UNL A   1      33.105  29.575  26.834  1.00  0.00     0.002 C 
ENDROOT
BRANCH   1   2
ATOM      2  C   UNL A   1      32.395  29.465  25.505  1.00  0.00     0.002 C 
BRANCH   2   3
ATOM      3  C   UNL A   1      33.197  28.960  24.295  1.00  0.00     0.021 C 
BRANCH   3   4
ATOM      4  C   UNL A   1      32.788  28.927  22.784  1.00  0.00     0.116 C 
BRANCH   4   5
ATOM      5  N   UNL A   1      33.062  27.696  21.967  1.00  0.00    -0.354 N 
ATOM      6  C   UNL A   1      33.248  26.344  21.896  1.00  0.00     0.245 C 
ATOM      7  O   UNL A   1      33.284  26.017  20.689  1.00  0.00    -0.272 OA
ATOM      8  H   UNL A   1      33.150  28.016  21.040  1.00  0.00     0.163 HD
BRANCH   6   9
ATOM      9  C   UNL A   1      33.262  25.093  22.963  1.00  0.00     0.116 C 
ATOM     10  C   UNL A   1      33.807  25.718  24.267  1.00  0.00     0.045 C 
BRANCH   9  11
ATOM     11  C   UNL A   1      31.777  24.594  23.218  1.00  0.00     0.035 C 
ATOM     12  C   UNL A   1      30.685  25.582  23.612  1.00  0.00     0.007 C 
ENDBRANCH   9  11
BRANCH   9  13
ATOM     13  N   UNL A   1      33.995  23.758  22.844  1.00  0.00    -0.338 N 
ATOM     14  C   UNL A   1      34.761  23.059  23.775  1.00  0.00     0.252 C 
ATOM     15  H   UNL A   1      33.914  23.320  21.965  1.00  0.00     0.164 HD
ATOM     16  O   UNL A   1      35.799  22.496  23.441  1.00  0.00    -0.269 OA
BRANCH  14  17
ATOM     17  C   UNL A   1      34.211  22.840  25.131  1.00  0.00     0.043 A 
ATOM     18  C   UNL A   1      34.934  23.023  26.314  1.00  0.00     0.014 A 
ATOM     19  C   UNL A   1      33.019  22.145  25.204  1.00  0.00    -0.024 A 
ATOM     20  C   UNL A   1      34.343  22.754  27.556  1.00  0.00     0.002 A 
ATOM     21  C   UNL A   1      32.312  22.217  26.422  1.00  0.00     0.021 A 
ATOM     22  C   UNL A   1      32.983  20.989  24.176  1.00  0.00     0.046 C 
ATOM     23  C   UNL A   1      33.001  22.429  27.610  1.00  0.00     0.016 A 
ATOM     24  Br  UNL A   1      30.606  23.134  26.589  1.00  0.00    -0.051 Br
ENDBRANCH  14  17
ENDBRANCH   9  13
ENDBRANCH   6   9
ENDBRANCH   4   5
ENDBRANCH   3   4
ENDBRANCH   2   3
ENDBRANCH   1   2
BRANCH   1  25
ATOM     25  C   UNL A   1      34.305  28.647  26.976  1.00  0.00     0.021 C 
BRANCH  25  26
ATOM     26  C   UNL A   1      35.574  29.317  27.505  1.00  0.00     0.116 C 
BRANCH  26  27
ATOM     27  N   UNL A   1      35.387  29.821  28.859  1.00  0.00    -0.352 N 
ATOM     28  C   UNL A   1      36.283  29.761  29.894  1.00  0.00     0.251 C 
ATOM     29  H   UNL A   1      34.523  30.250  29.052  1.00  0.00     0.163 HD
ATOM     30  O   UNL A   1      35.914  29.871  31.066  1.00  0.00    -0.269 OA
BRANCH  28  31
ATOM     31  C   UNL A   1      37.704  29.572  29.566  1.00  0.00     0.039 A 
ATOM     32  C   UNL A   1      38.574  29.019  30.504  1.00  0.00     0.014 A 
ATOM     33  C   UNL A   1      38.144  29.898  28.278  1.00  0.00     0.014 A 
ATOM     34  C   UNL A   1      39.893  28.755  30.133  1.00  0.00     0.010 A 
ATOM     35  C   UNL A   1      39.430  29.556  27.887  1.00  0.00     0.010 A 
ATOM     36  C   UNL A   1      40.322  29.001  28.816  1.00  0.00    -0.014 A 
BRANCH  36  37
ATOM     37  C   UNL A   1      41.715  28.720  28.393  1.00  0.00     0.031 A 
ATOM     38  C   UNL A   1      42.084  27.331  27.945  1.00  0.00     0.074 A 
ATOM     39  C   UNL A   1      42.647  29.689  28.476  1.00  0.00     0.049 A 
ATOM     40  N   UNL A   1      43.251  26.859  27.599  1.00  0.00    -0.248 NA
ATOM     41  C   UNL A   1      41.001  26.329  27.915  1.00  0.00     0.031 C 
ATOM     42  C   UNL A   1      42.410  31.056  28.947  1.00  0.00     0.029 A 
ATOM     43  N   UNL A   1      43.986  29.672  28.177  1.00  0.00    -0.354 N 
ATOM     44  C   UNL A   1      43.051  25.509  27.335  1.00  0.00     0.074 A 
ATOM     45  C   UNL A   1      41.662  25.222  27.609  1.00  0.00     0.031 C 
ATOM     46  C   UNL A   1      43.556  31.752  28.878  1.00  0.00     0.029 A 
ATOM     47  C   UNL A   1      44.619  30.873  28.401  1.00  0.00     0.049 A 
ATOM     48  H   UNL A   1      44.450  28.875  27.833  1.00  0.00     0.167 HD
ATOM     49  C   UNL A   1      43.943  24.598  26.884  1.00  0.00     0.037 A 
ATOM     50  C   UNL A   1      45.912  31.217  28.247  1.00  0.00     0.037 A 
ATOM     51  C   UNL A   1      45.312  24.911  26.573  1.00  0.00     0.049 A 
ATOM     52  C   UNL A   1      46.880  30.182  27.735  1.00  0.00     0.074 A 
ATOM     53  C   UNL A   1      46.277  24.087  26.024  1.00  0.00     0.029 A 
ATOM     54  N   UNL A   1      45.911  26.143  26.790  1.00  0.00    -0.354 N 
ATOM     55  N   UNL A   1      46.652  28.935  27.400  1.00  0.00    -0.248 NA
ATOM     56  C   UNL A   1      48.279  30.601  27.575  1.00  0.00     0.031 C 
ATOM     57  C   UNL A   1      47.477  24.800  25.968  1.00  0.00     0.029 A 
ATOM     58  C   UNL A   1      47.243  26.090  26.419  1.00  0.00     0.049 A 
ATOM     59  H   UNL A   1      45.456  26.937  27.154  1.00  0.00     0.167 HD
ATOM     60  C   UNL A   1      47.871  28.432  26.954  1.00  0.00     0.074 A 
ATOM     61  C   UNL A   1      48.827  29.515  27.051  1.00  0.00     0.031 C 
ATOM     62  C   UNL A   1      48.173  27.188  26.505  1.00  0.00     0.037 A 
BRANCH  49  63
ATOM     63  C   UNL A   1      43.480  23.180  26.696  1.00  0.00     0.058 A 
ATOM     64  C   UNL A   1      43.337  22.607  25.421  1.00  0.00     0.135 A 
ATOM     65  C   UNL A   1      43.245  22.360  27.811  1.00  0.00     0.135 A 
ATOM     66  F   UNL A   1      43.528  23.349  24.320  1.00  0.00    -0.206 F 
ATOM     67  C   UNL A   1      42.968  21.275  25.260  1.00  0.00     0.059 A 
ATOM     68  C   UNL A   1      42.904  21.017  27.674  1.00  0.00     0.059 A 
ATOM     69  F   UNL A   1      43.359  22.858  29.052  1.00  0.00    -0.206 F 
ATOM     70  C   UNL A   1      42.763  20.486  26.393  1.00  0.00     0.060 A 
BRANCH  70  71
ATOM     71  S   UNL A   1      42.334  18.747  26.165  1.00  0.00     0.124 S 
ATOM     72  O   UNL A   1      43.289  18.344  25.138  1.00  0.00    -0.237 OA
ATOM     73  O   UNL A   1      42.566  18.195  27.496  1.00  0.00    -0.237 OA
ATOM     74  O   UNL A   1      40.940  18.793  25.741  1.00  0.00    -0.744 OA
ENDBRANCH  70  71
ENDBRANCH  49  63
BRANCH  50  75
ATOM     75  C   UNL A   1      46.371  32.597  28.565  1.00  0.00     0.058 A 
ATOM     76  C   UNL A   1      46.772  32.945  29.865  1.00  0.00     0.135 A 
ATOM     77  C   UNL A   1      46.394  33.605  27.587  1.00  0.00     0.135 A 
ATOM     78  F   UNL A   1      46.768  32.020  30.837  1.00  0.00    -0.206 F 
ATOM     79  C   UNL A   1      47.138  34.246  30.194  1.00  0.00     0.059 A 
ATOM     80  C   UNL A   1      46.786  34.906  27.884  1.00  0.00     0.059 A 
ATOM     81  F   UNL A   1      46.042  33.324  26.323  1.00  0.00    -0.206 F 
ATOM     82  C   UNL A   1      47.138  35.222  29.195  1.00  0.00     0.060 A 
BRANCH  82  83
ATOM     83  S   UNL A   1      47.616  36.908  29.630  1.00  0.00     0.124 S 
ATOM     84  O   UNL A   1      46.367  37.631  29.416  1.00  0.00    -0.237 OA
ATOM     85  O   UNL A   1      48.038  36.757  31.020  1.00  0.00    -0.237 OA
ATOM     86  O   UNL A   1      48.689  37.205  28.686  1.00  0.00    -0.744 OA
ENDBRANCH  82  83
ENDBRANCH  50  75
BRANCH  62  87
ATOM     87  C   UNL A   1      49.579  26.941  26.034  1.00  0.00     0.058 A 
ATOM     88  C   UNL A   1      50.590  26.517  26.910  1.00  0.00     0.135 A 
ATOM     89  C   UNL A   1      49.900  27.069  24.673  1.00  0.00     0.135 A 
ATOM     90  F   UNL A   1      50.337  26.385  28.222  1.00  0.00    -0.206 F 
ATOM     91  C   UNL A   1      51.876  26.250  26.457  1.00  0.00     0.059 A 
ATOM     92  C   UNL A   1      51.170  26.775  24.192  1.00  0.00     0.059 A 
ATOM     93  F   UNL A   1      48.967  27.461  23.792  1.00  0.00    -0.206 F 
ATOM     94  C   UNL A   1      52.155  26.377  25.094  1.00  0.00     0.060 A 
BRANCH  94  95
ATOM     95  S   UNL A   1      53.819  25.986  24.513  1.00  0.00     0.124 S 
ATOM     96  O   UNL A   1      54.638  26.821  25.385  1.00  0.00    -0.237 OA
ATOM     97  O   UNL A   1      53.901  24.549  24.752  1.00  0.00    -0.237 OA
ATOM     98  O   UNL A   1      53.791  26.382  23.109  1.00  0.00    -0.744 OA
ENDBRANCH  94  95
ENDBRANCH  62  87
ENDBRANCH  36  37
ENDBRANCH  28  31
ENDBRANCH  26  27
ENDBRANCH  25  26
ENDBRANCH   1  25
TORSDOF 19
ENDMDL
