MODEL 1
REMARK VINA RESULT:      -9.7      0.000      0.000
REMARK SMILES Cc1cc(C(=O)Nc2ccn(C)n2)sc1/C=C/C(=O)NCCCCCCNC(=O)c1ccc(-c2c3nc(c(-c4c(F)cc(S(=O)(=O)[O-])cc4F)c4ccc([nH]4)c(-c4c(F)cc(S(=O)(=O)[O-])cc4F)c4nc(c(-c5c(F)cc(S(=O)(=O)[O-])cc5F)c5ccc2[nH]5)C=C4)C=C3)cc1
REMARK SMILES IDX 23 1 22 2 21 3 20 4 18 5 19 6 17 8 16 9 15 10 1 11 2 12 3 13
REMARK SMILES IDX 4 14 14 15 5 16 6 17 7 18 8 20 9 21 13 22 10 23 11 24 12 25
REMARK SMILES IDX 24 26 25 27 26 28 27 29 28 30 29 32 30 33 31 34 95 35 32 36
REMARK SMILES IDX 94 37 33 38 34 39 35 40 88 41 36 42 93 43 87 44 89 45 37 46
REMARK SMILES IDX 92 47 86 48 85 49 38 51 72 52 51 53 71 54 52 55 55 56 70 57
REMARK SMILES IDX 90 58 53 59 54 60 69 62 91 63 56 64 39 65 40 66 49 67 41 68
REMARK SMILES IDX 42 69 48 70 50 71 43 72 44 73 45 74 46 75 47 76 73 77 74 78
REMARK SMILES IDX 83 79 75 80 76 81 82 82 84 83 77 84 78 85 79 86 80 87 81 88
REMARK SMILES IDX 57 89 58 90 67 91 59 92 60 93 66 94 68 95 61 96 62 97 63 98
REMARK SMILES IDX 64 99 65 100
REMARK H PARENT 20 7 7 19 27 31 89 50 55 61
REMARK Flexibility Score: inf
ROOT
ATOM      1  C   UNL A   1      34.213  35.869  28.361  1.00  0.00     0.002 C 
ENDROOT
BRANCH   1   2
ATOM      2  C   UNL A   1      33.079  36.283  29.306  1.00  0.00     0.021 C 
BRANCH   2   3
ATOM      3  C   UNL A   1      32.960  35.362  30.519  1.00  0.00     0.116 C 
BRANCH   3   4
ATOM      4  N   UNL A   1      33.341  36.081  31.722  1.00  0.00    -0.353 N 
ATOM      5  C   UNL A   1      34.258  35.785  32.678  1.00  0.00     0.244 C 
ATOM      6  O   UNL A   1      34.447  36.566  33.607  1.00  0.00    -0.270 OA
ATOM      7  H   UNL A   1      32.853  36.923  31.867  1.00  0.00     0.163 HD
BRANCH   5   8
ATOM      8  C   UNL A   1      35.106  34.582  32.559  1.00  0.00     0.072 C 
ATOM      9  C   UNL A   1      36.440  34.578  32.704  1.00  0.00     0.025 C 
BRANCH   9  10
ATOM     10  C   UNL A   1      37.255  33.415  32.570  1.00  0.00     0.031 A 
ATOM     11  C   UNL A   1      38.575  33.915  30.415  1.00  0.00     0.046 C 
ATOM     12  C   UNL A   1      38.085  33.034  31.519  1.00  0.00    -0.032 A 
ATOM     13  C   UNL A   1      38.374  31.624  31.593  1.00  0.00     0.029 A 
ATOM     14  C   UNL A   1      37.851  31.021  32.726  1.00  0.00     0.093 A 
ATOM     15  S   UNL A   1      37.418  32.256  33.826  1.00  0.00    -0.130 S 
BRANCH  14  16
ATOM     16  C   UNL A   1      37.880  29.604  33.077  1.00  0.00     0.266 C 
ATOM     17  O   UNL A   1      36.853  28.918  33.052  1.00  0.00    -0.268 OA
ATOM     18  N   UNL A   1      39.059  28.949  33.365  1.00  0.00    -0.304 N 
ATOM     19  H   UNL A   1      39.027  27.969  33.262  1.00  0.00     0.171 HD
BRANCH  18  20
ATOM     20  C   UNL A   1      40.269  29.447  33.774  1.00  0.00     0.154 A 
ATOM     21  C   UNL A   1      41.435  29.722  33.020  1.00  0.00     0.068 A 
ATOM     22  N   UNL A   1      40.453  29.735  35.064  1.00  0.00    -0.155 NA
ATOM     23  C   UNL A   1      42.407  30.001  33.955  1.00  0.00     0.110 A 
ATOM     24  N   UNL A   1      41.786  29.906  35.163  1.00  0.00    -0.274 N 
ATOM     25  C   UNL A   1      42.412  29.858  36.461  1.00  0.00     0.173 C 
ENDBRANCH  18  20
ENDBRANCH  14  16
ENDBRANCH   9  10
ENDBRANCH   5   8
ENDBRANCH   3   4
ENDBRANCH   2   3
ENDBRANCH   1   2
BRANCH   1  26
ATOM     26  C   UNL A   1      35.165  34.813  28.938  1.00  0.00     0.002 C 
BRANCH  26  27
ATOM     27  C   UNL A   1      35.116  33.455  28.233  1.00  0.00     0.021 C 
BRANCH  27  28
ATOM     28  C   UNL A   1      35.356  32.267  29.160  1.00  0.00     0.116 C 
BRANCH  28  29
ATOM     29  N   UNL A   1      34.605  31.099  28.728  1.00  0.00    -0.352 N 
ATOM     30  C   UNL A   1      35.066  29.916  28.211  1.00  0.00     0.251 C 
ATOM     31  H   UNL A   1      33.627  31.168  28.820  1.00  0.00     0.163 HD
ATOM     32  O   UNL A   1      34.290  29.144  27.658  1.00  0.00    -0.269 OA
BRANCH  30  33
ATOM     33  C   UNL A   1      36.502  29.583  28.318  1.00  0.00     0.039 A 
ATOM     34  C   UNL A   1      37.346  29.858  27.241  1.00  0.00     0.014 A 
ATOM     35  C   UNL A   1      37.009  28.987  29.478  1.00  0.00     0.014 A 
ATOM     36  C   UNL A   1      38.711  29.582  27.347  1.00  0.00     0.010 A 
ATOM     37  C   UNL A   1      38.379  28.783  29.609  1.00  0.00     0.010 A 
ATOM     38  C   UNL A   1      39.242  29.070  28.542  1.00  0.00    -0.014 A 
BRANCH  38  39
ATOM     39  C   UNL A   1      40.698  28.825  28.694  1.00  0.00     0.031 A 
ATOM     40  C   UNL A   1      41.279  27.480  28.351  1.00  0.00     0.074 A 
ATOM     41  C   UNL A   1      41.486  29.795  29.199  1.00  0.00     0.049 A 
ATOM     42  N   UNL A   1      42.511  27.058  28.472  1.00  0.00    -0.248 NA
ATOM     43  C   UNL A   1      40.347  26.467  27.830  1.00  0.00     0.031 C 
ATOM     44  C   UNL A   1      41.029  31.124  29.612  1.00  0.00     0.029 A 
ATOM     45  N   UNL A   1      42.832  29.813  29.459  1.00  0.00    -0.354 N 
ATOM     46  C   UNL A   1      42.501  25.732  28.054  1.00  0.00     0.074 A 
ATOM     47  C   UNL A   1      41.129  25.402  27.733  1.00  0.00     0.031 C 
ATOM     48  C   UNL A   1      42.081  31.834  30.050  1.00  0.00     0.029 A 
ATOM     49  C   UNL A   1      43.278  31.002  29.987  1.00  0.00     0.049 A 
ATOM     50  H   UNL A   1      43.425  29.047  29.284  1.00  0.00     0.167 HD
ATOM     51  C   UNL A   1      43.542  24.875  27.927  1.00  0.00     0.037 A 
ATOM     52  C   UNL A   1      44.510  31.376  30.385  1.00  0.00     0.037 A 
ATOM     53  C   UNL A   1      44.907  25.219  28.232  1.00  0.00     0.049 A 
ATOM     54  C   UNL A   1      45.650  30.405  30.243  1.00  0.00     0.074 A 
ATOM     55  C   UNL A   1      46.043  24.444  28.084  1.00  0.00     0.029 A 
ATOM     56  N   UNL A   1      45.321  26.437  28.755  1.00  0.00    -0.354 N 
ATOM     57  N   UNL A   1      45.634  29.176  29.783  1.00  0.00    -0.248 NA
ATOM     58  C   UNL A   1      46.976  30.871  30.669  1.00  0.00     0.031 C 
ATOM     59  C   UNL A   1      47.136  25.174  28.565  1.00  0.00     0.029 A 
ATOM     60  C   UNL A   1      46.691  26.425  28.959  1.00  0.00     0.049 A 
ATOM     61  H   UNL A   1      44.727  27.198  28.951  1.00  0.00     0.167 HD
ATOM     62  C   UNL A   1      46.949  28.732  29.839  1.00  0.00     0.074 A 
ATOM     63  C   UNL A   1      47.737  29.828  30.365  1.00  0.00     0.031 C 
ATOM     64  C   UNL A   1      47.460  27.527  29.483  1.00  0.00     0.037 A 
BRANCH  51  65
ATOM     65  C   UNL A   1      43.244  23.482  27.439  1.00  0.00     0.058 A 
ATOM     66  C   UNL A   1      43.459  23.104  26.103  1.00  0.00     0.135 A 
ATOM     67  C   UNL A   1      42.760  22.504  28.323  1.00  0.00     0.135 A 
ATOM     68  F   UNL A   1      43.906  24.002  25.210  1.00  0.00    -0.206 F 
ATOM     69  C   UNL A   1      43.169  21.821  25.653  1.00  0.00     0.059 A 
ATOM     70  C   UNL A   1      42.494  21.204  27.902  1.00  0.00     0.059 A 
ATOM     71  F   UNL A   1      42.537  22.807  29.611  1.00  0.00    -0.206 F 
ATOM     72  C   UNL A   1      42.685  20.877  26.561  1.00  0.00     0.060 A 
BRANCH  72  73
ATOM     73  S   UNL A   1      42.307  19.218  25.957  1.00  0.00     0.124 S 
ATOM     74  O   UNL A   1      40.855  19.284  25.816  1.00  0.00    -0.237 OA
ATOM     75  O   UNL A   1      43.062  19.159  24.710  1.00  0.00    -0.237 OA
ATOM     76  O   UNL A   1      42.794  18.349  27.025  1.00  0.00    -0.744 OA
ENDBRANCH  72  73
ENDBRANCH  51  65
BRANCH  52  77
ATOM     77  C   UNL A   1      44.728  32.743  30.930  1.00  0.00     0.058 A 
ATOM     78  C   UNL A   1      44.813  32.962  32.313  1.00  0.00     0.135 A 
ATOM     79  C   UNL A   1      44.882  33.851  30.083  1.00  0.00     0.135 A 
ATOM     80  F   UNL A   1      44.666  31.935  33.165  1.00  0.00    -0.206 F 
ATOM     81  C   UNL A   1      45.030  34.231  32.838  1.00  0.00     0.059 A 
ATOM     82  C   UNL A   1      45.127  35.125  30.583  1.00  0.00     0.059 A 
ATOM     83  F   UNL A   1      44.827  33.691  28.751  1.00  0.00    -0.206 F 
ATOM     84  C   UNL A   1      45.191  35.307  31.964  1.00  0.00     0.060 A 
BRANCH  84  85
ATOM     85  S   UNL A   1      45.531  36.941  32.654  1.00  0.00     0.124 S 
ATOM     86  O   UNL A   1      45.446  36.679  34.086  1.00  0.00    -0.237 OA
ATOM     87  O   UNL A   1      46.866  37.219  32.133  1.00  0.00    -0.237 OA
ATOM     88  O   UNL A   1      44.465  37.768  32.098  1.00  0.00    -0.744 OA
ENDBRANCH  84  85
ENDBRANCH  52  77
BRANCH  64  89
ATOM     89  C   UNL A   1      48.947  27.336  29.623  1.00  0.00     0.058 A 
ATOM     90  C   UNL A   1      49.526  26.883  30.819  1.00  0.00     0.135 A 
ATOM     91  C   UNL A   1      49.797  27.559  28.527  1.00  0.00     0.135 A 
ATOM     92  F   UNL A   1      48.760  26.661  31.899  1.00  0.00    -0.206 F 
ATOM     93  C   UNL A   1      50.898  26.683  30.931  1.00  0.00     0.059 A 
ATOM     94  C   UNL A   1      51.167  27.336  28.607  1.00  0.00     0.059 A 
ATOM     95  F   UNL A   1      49.294  27.982  27.356  1.00  0.00    -0.206 F 
ATOM     96  C   UNL A   1      51.710  26.909  29.818  1.00  0.00     0.060 A 
BRANCH  96  97
ATOM     97  S   UNL A   1      53.484  26.610  29.967  1.00  0.00     0.124 S 
ATOM     98  O   UNL A   1      53.968  27.921  30.390  1.00  0.00    -0.237 OA
ATOM     99  O   UNL A   1      53.540  25.558  30.977  1.00  0.00    -0.237 OA
ATOM    100  O   UNL A   1      53.875  26.201  28.622  1.00  0.00    -0.744 OA
ENDBRANCH  96  97
ENDBRANCH  64  89
ENDBRANCH  38  39
ENDBRANCH  30  33
ENDBRANCH  28  29
ENDBRANCH  27  28
ENDBRANCH  26  27
ENDBRANCH   1  26
TORSDOF 19
ENDMDL
MODEL 2
REMARK VINA RESULT:      -9.6      4.479     10.315
REMARK SMILES Cc1cc(C(=O)Nc2ccn(C)n2)sc1/C=C/C(=O)NCCCCCCNC(=O)c1ccc(-c2c3nc(c(-c4c(F)cc(S(=O)(=O)[O-])cc4F)c4ccc([nH]4)c(-c4c(F)cc(S(=O)(=O)[O-])cc4F)c4nc(c(-c5c(F)cc(S(=O)(=O)[O-])cc5F)c5ccc2[nH]5)C=C4)C=C3)cc1
REMARK SMILES IDX 23 1 22 2 21 3 20 4 18 5 19 6 17 8 16 9 15 10 1 11 2 12 3 13
REMARK SMILES IDX 4 14 14 15 5 16 6 17 7 18 8 20 9 21 13 22 10 23 11 24 12 25
REMARK SMILES IDX 24 26 25 27 26 28 27 29 28 30 29 32 30 33 31 34 95 35 32 36
REMARK SMILES IDX 94 37 33 38 34 39 35 40 88 41 36 42 93 43 87 44 89 45 37 46
REMARK SMILES IDX 92 47 86 48 85 49 38 51 72 52 51 53 71 54 52 55 55 56 70 57
REMARK SMILES IDX 90 58 53 59 54 60 69 62 91 63 56 64 39 65 40 66 49 67 41 68
REMARK SMILES IDX 42 69 48 70 50 71 43 72 44 73 45 74 46 75 47 76 73 77 74 78
REMARK SMILES IDX 83 79 75 80 76 81 82 82 84 83 77 84 78 85 79 86 80 87 81 88
REMARK SMILES IDX 57 89 58 90 67 91 59 92 60 93 66 94 68 95 61 96 62 97 63 98
REMARK SMILES IDX 64 99 65 100
REMARK H PARENT 20 7 7 19 27 31 89 50 55 61
REMARK Flexibility Score: inf
ROOT
ATOM      1  C   UNL A   1      35.740  20.396  24.990  1.00  0.00     0.002 C 
ENDROOT
BRANCH   1   2
ATOM      2  C   UNL A   1      34.745  21.557  25.092  1.00  0.00     0.021 C 
BRANCH   2   3
ATOM      3  C   UNL A   1      34.196  21.739  26.507  1.00  0.00     0.116 C 
BRANCH   3   4
ATOM      4  N   UNL A   1      32.749  21.620  26.493  1.00  0.00    -0.353 N 
ATOM      5  C   UNL A   1      31.789  22.531  26.192  1.00  0.00     0.244 C 
ATOM      6  O   UNL A   1      30.605  22.201  26.208  1.00  0.00    -0.270 OA
ATOM      7  H   UNL A   1      32.409  20.731  26.742  1.00  0.00     0.163 HD
BRANCH   5   8
ATOM      8  C   UNL A   1      32.155  23.890  25.742  1.00  0.00     0.072 C 
ATOM      9  C   UNL A   1      31.782  25.019  26.362  1.00  0.00     0.025 C 
BRANCH   9  10
ATOM     10  C   UNL A   1      32.125  26.328  25.912  1.00  0.00     0.031 A 
ATOM     11  C   UNL A   1      31.448  27.793  27.921  1.00  0.00     0.046 C 
ATOM     12  C   UNL A   1      31.865  27.562  26.503  1.00  0.00    -0.032 A 
ATOM     13  C   UNL A   1      31.992  28.620  25.534  1.00  0.00     0.029 A 
ATOM     14  C   UNL A   1      32.433  28.175  24.298  1.00  0.00     0.093 A 
ATOM     15  S   UNL A   1      33.066  26.600  24.503  1.00  0.00    -0.130 S 
BRANCH  14  16
ATOM     16  C   UNL A   1      32.591  28.954  23.073  1.00  0.00     0.266 C 
ATOM     17  O   UNL A   1      33.711  29.239  22.637  1.00  0.00    -0.268 OA
ATOM     18  N   UNL A   1      31.510  29.328  22.303  1.00  0.00    -0.304 N 
ATOM     19  H   UNL A   1      31.722  29.544  21.365  1.00  0.00     0.171 HD
BRANCH  18  20
ATOM     20  C   UNL A   1      30.186  29.448  22.638  1.00  0.00     0.154 A 
ATOM     21  C   UNL A   1      29.105  28.570  22.383  1.00  0.00     0.068 A 
ATOM     22  N   UNL A   1      29.777  30.530  23.303  1.00  0.00    -0.155 NA
ATOM     23  C   UNL A   1      27.979  29.274  22.748  1.00  0.00     0.110 A 
ATOM     24  N   UNL A   1      28.435  30.472  23.207  1.00  0.00    -0.274 N 
ATOM     25  C   UNL A   1      27.653  31.656  23.471  1.00  0.00     0.173 C 
ENDBRANCH  18  20
ENDBRANCH  14  16
ENDBRANCH   9  10
ENDBRANCH   5   8
ENDBRANCH   3   4
ENDBRANCH   2   3
ENDBRANCH   1   2
BRANCH   1  26
ATOM     26  C   UNL A   1      37.187  20.826  24.714  1.00  0.00     0.002 C 
BRANCH  26  27
ATOM     27  C   UNL A   1      38.245  19.782  25.083  1.00  0.00     0.021 C 
BRANCH  27  28
ATOM     28  C   UNL A   1      39.406  20.339  25.899  1.00  0.00     0.116 C 
BRANCH  28  29
ATOM     29  N   UNL A   1      40.428  19.329  26.126  1.00  0.00    -0.352 N 
ATOM     30  C   UNL A   1      41.785  19.481  26.244  1.00  0.00     0.251 C 
ATOM     31  H   UNL A   1      40.098  18.405  26.205  1.00  0.00     0.163 HD
ATOM     32  O   UNL A   1      42.521  18.503  26.170  1.00  0.00    -0.269 OA
BRANCH  30  33
ATOM     33  C   UNL A   1      42.353  20.830  26.452  1.00  0.00     0.039 A 
ATOM     34  C   UNL A   1      42.732  21.587  25.342  1.00  0.00     0.014 A 
ATOM     35  C   UNL A   1      42.523  21.338  27.744  1.00  0.00     0.014 A 
ATOM     36  C   UNL A   1      43.234  22.876  25.526  1.00  0.00     0.010 A 
ATOM     37  C   UNL A   1      42.952  22.649  27.921  1.00  0.00     0.010 A 
ATOM     38  C   UNL A   1      43.320  23.428  26.815  1.00  0.00    -0.014 A 
BRANCH  38  39
ATOM     39  C   UNL A   1      43.797  24.818  27.027  1.00  0.00     0.031 A 
ATOM     40  C   UNL A   1      45.250  25.158  26.836  1.00  0.00     0.074 A 
ATOM     41  C   UNL A   1      42.930  25.760  27.450  1.00  0.00     0.049 A 
ATOM     42  N   UNL A   1      45.864  26.296  27.030  1.00  0.00    -0.248 NA
ATOM     43  C   UNL A   1      46.134  24.066  26.398  1.00  0.00     0.031 C 
ATOM     44  C   UNL A   1      41.506  25.540  27.715  1.00  0.00     0.029 A 
ATOM     45  N   UNL A   1      43.118  27.087  27.739  1.00  0.00    -0.354 N 
ATOM     46  C   UNL A   1      47.204  26.057  26.748  1.00  0.00     0.074 A 
ATOM     47  C   UNL A   1      47.323  24.651  26.428  1.00  0.00     0.031 C 
ATOM     48  C   UNL A   1      40.947  26.697  28.104  1.00  0.00     0.029 A 
ATOM     49  C   UNL A   1      41.976  27.731  28.155  1.00  0.00     0.049 A 
ATOM     50  H   UNL A   1      43.990  27.538  27.657  1.00  0.00     0.167 HD
ATOM     51  C   UNL A   1      48.237  26.934  26.733  1.00  0.00     0.037 A 
ATOM     52  C   UNL A   1      41.782  29.006  28.543  1.00  0.00     0.037 A 
ATOM     53  C   UNL A   1      48.104  28.335  27.035  1.00  0.00     0.049 A 
ATOM     54  C   UNL A   1      42.945  29.960  28.528  1.00  0.00     0.074 A 
ATOM     55  C   UNL A   1      49.075  29.320  26.994  1.00  0.00     0.029 A 
ATOM     56  N   UNL A   1      46.929  28.952  27.442  1.00  0.00    -0.354 N 
ATOM     57  N   UNL A   1      44.194  29.732  28.194  1.00  0.00    -0.248 NA
ATOM     58  C   UNL A   1      42.673  31.344  28.937  1.00  0.00     0.031 C 
ATOM     59  C   UNL A   1      48.500  30.520  27.425  1.00  0.00     0.029 A 
ATOM     60  C   UNL A   1      47.157  30.298  27.680  1.00  0.00     0.049 A 
ATOM     61  H   UNL A   1      46.060  28.499  27.546  1.00  0.00     0.167 HD
ATOM     62  C   UNL A   1      44.850  30.950  28.327  1.00  0.00     0.074 A 
ATOM     63  C   UNL A   1      43.858  31.913  28.759  1.00  0.00     0.031 C 
ATOM     64  C   UNL A   1      46.156  31.245  28.108  1.00  0.00     0.037 A 
BRANCH  51  65
ATOM     65  C   UNL A   1      49.601  26.400  26.382  1.00  0.00     0.058 A 
ATOM     66  C   UNL A   1      50.172  26.608  25.116  1.00  0.00     0.135 A 
ATOM     67  C   UNL A   1      50.356  25.691  27.330  1.00  0.00     0.135 A 
ATOM     68  F   UNL A   1      49.490  27.265  24.165  1.00  0.00    -0.206 F 
ATOM     69  C   UNL A   1      51.426  26.101  24.791  1.00  0.00     0.059 A 
ATOM     70  C   UNL A   1      51.627  25.203  27.037  1.00  0.00     0.059 A 
ATOM     71  F   UNL A   1      49.862  25.464  28.557  1.00  0.00    -0.206 F 
ATOM     72  C   UNL A   1      52.146  25.398  25.759  1.00  0.00     0.060 A 
BRANCH  72  73
ATOM     73  S   UNL A   1      53.768  24.742  25.317  1.00  0.00     0.124 S 
ATOM     74  O   UNL A   1      54.519  24.970  26.548  1.00  0.00    -0.237 OA
ATOM     75  O   UNL A   1      53.468  23.348  25.007  1.00  0.00    -0.237 OA
ATOM     76  O   UNL A   1      54.168  25.562  24.177  1.00  0.00    -0.744 OA
ENDBRANCH  72  73
ENDBRANCH  51  65
BRANCH  52  77
ATOM     77  C   UNL A   1      40.424  29.456  28.952  1.00  0.00     0.058 A 
ATOM     78  C   UNL A   1      39.413  29.655  28.000  1.00  0.00     0.135 A 
ATOM     79  C   UNL A   1      40.102  29.670  30.301  1.00  0.00     0.135 A 
ATOM     80  F   UNL A   1      39.673  29.468  26.697  1.00  0.00    -0.206 F 
ATOM     81  C   UNL A   1      38.135  30.063  28.369  1.00  0.00     0.059 A 
ATOM     82  C   UNL A   1      38.825  30.052  30.696  1.00  0.00     0.059 A 
ATOM     83  F   UNL A   1      41.029  29.477  31.252  1.00  0.00    -0.206 F 
ATOM     84  C   UNL A   1      37.849  30.254  29.721  1.00  0.00     0.060 A 
BRANCH  84  85
ATOM     85  S   UNL A   1      36.171  30.727  30.193  1.00  0.00     0.124 S 
ATOM     86  O   UNL A   1      35.936  29.863  31.344  1.00  0.00    -0.237 OA
ATOM     87  O   UNL A   1      36.326  32.149  30.481  1.00  0.00    -0.237 OA
ATOM     88  O   UNL A   1      35.388  30.419  29.000  1.00  0.00    -0.744 OA
ENDBRANCH  84  85
ENDBRANCH  52  77
BRANCH  64  89
ATOM     89  C   UNL A   1      46.586  32.674  28.302  1.00  0.00     0.058 A 
ATOM     90  C   UNL A   1      47.128  33.125  29.516  1.00  0.00     0.135 A 
ATOM     91  C   UNL A   1      46.501  33.591  27.242  1.00  0.00     0.135 A 
ATOM     92  F   UNL A   1      47.226  32.292  30.564  1.00  0.00    -0.206 F 
ATOM     93  C   UNL A   1      47.549  34.441  29.679  1.00  0.00     0.059 A 
ATOM     94  C   UNL A   1      46.943  34.903  27.372  1.00  0.00     0.059 A 
ATOM     95  F   UNL A   1      46.000  33.209  26.056  1.00  0.00    -0.206 F 
ATOM     96  C   UNL A   1      47.456  35.322  28.599  1.00  0.00     0.060 A 
BRANCH  96  97
ATOM     97  S   UNL A   1      48.038  37.017  28.813  1.00  0.00     0.124 S 
ATOM     98  O   UNL A   1      47.685  37.614  27.529  1.00  0.00    -0.237 OA
ATOM     99  O   UNL A   1      47.259  37.472  29.960  1.00  0.00    -0.237 OA
ATOM    100  O   UNL A   1      49.468  36.857  29.058  1.00  0.00    -0.744 OA
ENDBRANCH  96  97
ENDBRANCH  64  89
ENDBRANCH  38  39
ENDBRANCH  30  33
ENDBRANCH  28  29
ENDBRANCH  27  28
ENDBRANCH  26  27
ENDBRANCH   1  26
TORSDOF 19
ENDMDL
MODEL 3
REMARK VINA RESULT:      -9.5      4.467     10.922
REMARK SMILES Cc1cc(C(=O)Nc2ccn(C)n2)sc1/C=C/C(=O)NCCCCCCNC(=O)c1ccc(-c2c3nc(c(-c4c(F)cc(S(=O)(=O)[O-])cc4F)c4ccc([nH]4)c(-c4c(F)cc(S(=O)(=O)[O-])cc4F)c4nc(c(-c5c(F)cc(S(=O)(=O)[O-])cc5F)c5ccc2[nH]5)C=C4)C=C3)cc1
REMARK SMILES IDX 23 1 22 2 21 3 20 4 18 5 19 6 17 8 16 9 15 10 1 11 2 12 3 13
REMARK SMILES IDX 4 14 14 15 5 16 6 17 7 18 8 20 9 21 13 22 10 23 11 24 12 25
REMARK SMILES IDX 24 26 25 27 26 28 27 29 28 30 29 32 30 33 31 34 95 35 32 36
REMARK SMILES IDX 94 37 33 38 34 39 35 40 88 41 36 42 93 43 87 44 89 45 37 46
REMARK SMILES IDX 92 47 86 48 85 49 38 51 72 52 51 53 71 54 52 55 55 56 70 57
REMARK SMILES IDX 90 58 53 59 54 60 69 62 91 63 56 64 39 65 40 66 49 67 41 68
REMARK SMILES IDX 42 69 48 70 50 71 43 72 44 73 45 74 46 75 47 76 73 77 74 78
REMARK SMILES IDX 83 79 75 80 76 81 82 82 84 83 77 84 78 85 79 86 80 87 81 88
REMARK SMILES IDX 57 89 58 90 67 91 59 92 60 93 66 94 68 95 61 96 62 97 63 98
REMARK SMILES IDX 64 99 65 100
REMARK H PARENT 20 7 7 19 27 31 89 50 55 61
REMARK Flexibility Score: inf
ROOT
ATOM      1  C   UNL A   1      35.784  20.562  25.096  1.00  0.00     0.002 C 
ENDROOT
BRANCH   1   2
ATOM      2  C   UNL A   1      34.958  21.838  25.297  1.00  0.00     0.021 C 
BRANCH   2   3
ATOM      3  C   UNL A   1      34.365  21.939  26.702  1.00  0.00     0.116 C 
BRANCH   3   4
ATOM      4  N   UNL A   1      32.926  21.755  26.643  1.00  0.00    -0.353 N 
ATOM      5  C   UNL A   1      31.939  22.607  26.267  1.00  0.00     0.244 C 
ATOM      6  O   UNL A   1      30.771  22.225  26.258  1.00  0.00    -0.270 OA
ATOM      7  H   UNL A   1      32.616  20.864  26.923  1.00  0.00     0.163 HD
BRANCH   5   8
ATOM      8  C   UNL A   1      32.262  23.959  25.767  1.00  0.00     0.072 C 
ATOM      9  C   UNL A   1      31.932  25.098  26.393  1.00  0.00     0.025 C 
BRANCH   9  10
ATOM     10  C   UNL A   1      32.233  26.400  25.895  1.00  0.00     0.031 A 
ATOM     11  C   UNL A   1      31.596  27.908  27.885  1.00  0.00     0.046 C 
ATOM     12  C   UNL A   1      31.968  27.644  26.461  1.00  0.00    -0.032 A 
ATOM     13  C   UNL A   1      32.040  28.677  25.458  1.00  0.00     0.029 A 
ATOM     14  C   UNL A   1      32.447  28.205  24.221  1.00  0.00     0.093 A 
ATOM     15  S   UNL A   1      33.119  26.650  24.447  1.00  0.00    -0.130 S 
BRANCH  14  16
ATOM     16  C   UNL A   1      32.547  28.951  22.969  1.00  0.00     0.266 C 
ATOM     17  O   UNL A   1      33.644  29.226  22.475  1.00  0.00    -0.268 OA
ATOM     18  N   UNL A   1      31.430  29.305  22.241  1.00  0.00    -0.304 N 
ATOM     19  H   UNL A   1      31.597  29.496  21.289  1.00  0.00     0.171 HD
BRANCH  18  20
ATOM     20  C   UNL A   1      30.123  29.432  22.634  1.00  0.00     0.154 A 
ATOM     21  C   UNL A   1      29.044  28.526  22.497  1.00  0.00     0.068 A 
ATOM     22  N   UNL A   1      29.731  30.555  23.240  1.00  0.00    -0.155 NA
ATOM     23  C   UNL A   1      27.927  29.240  22.869  1.00  0.00     0.110 A 
ATOM     24  N   UNL A   1      28.386  30.474  23.218  1.00  0.00    -0.274 N 
ATOM     25  C   UNL A   1      27.601  31.664  23.437  1.00  0.00     0.173 C 
ENDBRANCH  18  20
ENDBRANCH  14  16
ENDBRANCH   9  10
ENDBRANCH   5   8
ENDBRANCH   3   4
ENDBRANCH   2   3
ENDBRANCH   1   2
BRANCH   1  26
ATOM     26  C   UNL A   1      37.238  20.810  24.674  1.00  0.00     0.002 C 
BRANCH  26  27
ATOM     27  C   UNL A   1      38.225  19.723  25.111  1.00  0.00     0.021 C 
BRANCH  27  28
ATOM     28  C   UNL A   1      39.472  20.261  25.803  1.00  0.00     0.116 C 
BRANCH  28  29
ATOM     29  N   UNL A   1      40.467  19.217  25.989  1.00  0.00    -0.352 N 
ATOM     30  C   UNL A   1      41.828  19.330  26.116  1.00  0.00     0.251 C 
ATOM     31  H   UNL A   1      40.114  18.299  26.027  1.00  0.00     0.163 HD
ATOM     32  O   UNL A   1      42.539  18.338  26.002  1.00  0.00    -0.269 OA
BRANCH  30  33
ATOM     33  C   UNL A   1      42.428  20.654  26.383  1.00  0.00     0.039 A 
ATOM     34  C   UNL A   1      43.049  21.342  25.339  1.00  0.00     0.014 A 
ATOM     35  C   UNL A   1      42.388  21.207  27.667  1.00  0.00     0.014 A 
ATOM     36  C   UNL A   1      43.586  22.610  25.573  1.00  0.00     0.010 A 
ATOM     37  C   UNL A   1      42.856  22.499  27.880  1.00  0.00     0.010 A 
ATOM     38  C   UNL A   1      43.467  23.210  26.837  1.00  0.00    -0.014 A 
BRANCH  38  39
ATOM     39  C   UNL A   1      43.980  24.581  27.089  1.00  0.00     0.031 A 
ATOM     40  C   UNL A   1      43.038  25.676  27.507  1.00  0.00     0.074 A 
ATOM     41  C   UNL A   1      45.284  24.850  26.882  1.00  0.00     0.049 A 
ATOM     42  N   UNL A   1      43.286  26.943  27.716  1.00  0.00    -0.248 NA
ATOM     43  C   UNL A   1      41.625  25.304  27.687  1.00  0.00     0.031 C 
ATOM     44  C   UNL A   1      46.286  23.881  26.431  1.00  0.00     0.029 A 
ATOM     45  N   UNL A   1      45.991  26.018  27.014  1.00  0.00    -0.354 N 
ATOM     46  C   UNL A   1      42.063  27.521  28.040  1.00  0.00     0.074 A 
ATOM     47  C   UNL A   1      41.065  26.478  27.942  1.00  0.00     0.031 C 
ATOM     48  C   UNL A   1      47.479  24.489  26.348  1.00  0.00     0.029 A 
ATOM     49  C   UNL A   1      47.324  25.897  26.699  1.00  0.00     0.049 A 
ATOM     50  H   UNL A   1      45.582  26.865  27.307  1.00  0.00     0.167 HD
ATOM     51  C   UNL A   1      41.800  28.798  28.408  1.00  0.00     0.037 A 
ATOM     52  C   UNL A   1      48.308  26.817  26.687  1.00  0.00     0.037 A 
ATOM     53  C   UNL A   1      42.804  29.824  28.520  1.00  0.00     0.049 A 
ATOM     54  C   UNL A   1      47.990  28.231  27.090  1.00  0.00     0.074 A 
ATOM     55  C   UNL A   1      42.652  31.133  28.940  1.00  0.00     0.029 A 
ATOM     56  N   UNL A   1      44.145  29.660  28.204  1.00  0.00    -0.354 N 
ATOM     57  N   UNL A   1      46.841  28.745  27.459  1.00  0.00    -0.248 NA
ATOM     58  C   UNL A   1      49.104  29.189  27.082  1.00  0.00     0.031 C 
ATOM     59  C   UNL A   1      43.891  31.775  28.828  1.00  0.00     0.029 A 
ATOM     60  C   UNL A   1      44.827  30.851  28.394  1.00  0.00     0.049 A 
ATOM     61  H   UNL A   1      44.553  28.820  27.890  1.00  0.00     0.167 HD
ATOM     62  C   UNL A   1      47.098  30.079  27.752  1.00  0.00     0.074 A 
ATOM     63  C   UNL A   1      48.514  30.289  27.531  1.00  0.00     0.031 C 
ATOM     64  C   UNL A   1      46.239  31.043  28.170  1.00  0.00     0.037 A 
BRANCH  51  65
ATOM     65  C   UNL A   1      40.369  29.155  28.714  1.00  0.00     0.058 A 
ATOM     66  C   UNL A   1      39.894  29.239  30.033  1.00  0.00     0.135 A 
ATOM     67  C   UNL A   1      39.467  29.441  27.677  1.00  0.00     0.135 A 
ATOM     68  F   UNL A   1      40.708  28.962  31.065  1.00  0.00    -0.206 F 
ATOM     69  C   UNL A   1      38.569  29.555  30.312  1.00  0.00     0.059 A 
ATOM     70  C   UNL A   1      38.144  29.792  27.933  1.00  0.00     0.059 A 
ATOM     71  F   UNL A   1      39.865  29.379  26.397  1.00  0.00    -0.206 F 
ATOM     72  C   UNL A   1      37.700  29.829  29.254  1.00  0.00     0.060 A 
BRANCH  72  73
ATOM     73  S   UNL A   1      35.982  30.231  29.633  1.00  0.00     0.124 S 
ATOM     74  O   UNL A   1      35.998  31.688  29.546  1.00  0.00    -0.237 OA
ATOM     75  O   UNL A   1      35.257  29.542  28.570  1.00  0.00    -0.237 OA
ATOM     76  O   UNL A   1      35.792  29.685  30.974  1.00  0.00    -0.744 OA
ENDBRANCH  72  73
ENDBRANCH  51  65
BRANCH  52  77
ATOM     77  C   UNL A   1      49.688  26.419  26.301  1.00  0.00     0.058 A 
ATOM     78  C   UNL A   1      50.208  26.749  25.041  1.00  0.00     0.135 A 
ATOM     79  C   UNL A   1      50.523  25.726  27.192  1.00  0.00     0.135 A 
ATOM     80  F   UNL A   1      49.447  27.407  24.153  1.00  0.00    -0.206 F 
ATOM     81  C   UNL A   1      51.502  26.396  24.671  1.00  0.00     0.059 A 
ATOM     82  C   UNL A   1      51.829  25.385  26.854  1.00  0.00     0.059 A 
ATOM     83  F   UNL A   1      50.079  25.402  28.416  1.00  0.00    -0.206 F 
ATOM     84  C   UNL A   1      52.307  25.718  25.587  1.00  0.00     0.060 A 
BRANCH  84  85
ATOM     85  S   UNL A   1      54.004  25.316  25.118  1.00  0.00     0.124 S 
ATOM     86  O   UNL A   1      54.058  23.888  25.406  1.00  0.00    -0.237 OA
ATOM     87  O   UNL A   1      54.024  25.685  23.706  1.00  0.00    -0.237 OA
ATOM     88  O   UNL A   1      54.805  26.169  25.992  1.00  0.00    -0.744 OA
ENDBRANCH  84  85
ENDBRANCH  52  77
BRANCH  64  89
ATOM     89  C   UNL A   1      46.811  32.408  28.445  1.00  0.00     0.058 A 
ATOM     90  C   UNL A   1      47.402  32.727  29.678  1.00  0.00     0.135 A 
ATOM     91  C   UNL A   1      46.813  33.392  27.443  1.00  0.00     0.135 A 
ATOM     92  F   UNL A   1      47.420  31.826  30.673  1.00  0.00    -0.206 F 
ATOM     93  C   UNL A   1      47.953  33.982  29.916  1.00  0.00     0.059 A 
ATOM     94  C   UNL A   1      47.385  34.643  27.648  1.00  0.00     0.059 A 
ATOM     95  F   UNL A   1      46.271  33.135  26.242  1.00  0.00    -0.206 F 
ATOM     96  C   UNL A   1      47.943  34.933  28.892  1.00  0.00     0.060 A 
BRANCH  96  97
ATOM     97  S   UNL A   1      48.693  36.545  29.203  1.00  0.00     0.124 S 
ATOM     98  O   UNL A   1      50.086  36.295  28.843  1.00  0.00    -0.237 OA
ATOM     99  O   UNL A   1      47.951  37.414  28.296  1.00  0.00    -0.237 OA
ATOM    100  O   UNL A   1      48.442  36.769  30.623  1.00  0.00    -0.744 OA
ENDBRANCH  96  97
ENDBRANCH  64  89
ENDBRANCH  38  39
ENDBRANCH  30  33
ENDBRANCH  28  29
ENDBRANCH  27  28
ENDBRANCH  26  27
ENDBRANCH   1  26
TORSDOF 19
ENDMDL
