MODEL 1
REMARK VINA RESULT:      -8.7      0.000      0.000
REMARK SMILES CN(C)C(=O)C[NH+]1CCN(c2cc(C(=O)NCCCCCCNC(=O)c3ccc(-c4c5nc(c(-c6c(F)cc(S(=O)(=O)[O-])cc6F)c6ccc([nH]6)c(-c6c(F)cc(S(=O)(=O)[O-])cc6F)c6nc(c(-c7c(F)cc(S(=O)(=O)[O-])cc7F)c7ccc4[nH]7)C=C6)C=C5)cc3)c3cc(NC(=O)c4cccc(Cl)c4)ccc3n2)CC1
REMARK SMILES IDX 19 1 18 2 17 3 16 4 14 5 15 6 13 8 11 9 12 10 108 11 107 12
REMARK SMILES IDX 92 13 106 14 93 15 105 16 94 17 10 18 7 19 8 20 110 21 9 23
REMARK SMILES IDX 109 24 6 25 4 26 1 27 2 28 3 29 5 30 95 31 96 32 97 34 98 35
REMARK SMILES IDX 99 36 104 37 100 38 102 39 101 40 103 41 20 42 21 43 22 44
REMARK SMILES IDX 23 45 24 46 25 48 26 49 27 50 91 51 28 52 90 53 29 54 30 55
REMARK SMILES IDX 31 56 84 57 32 58 89 59 83 60 85 61 33 62 88 63 82 64 81 65
REMARK SMILES IDX 34 67 68 68 47 69 67 70 48 71 51 72 66 73 86 74 49 75 50 76
REMARK SMILES IDX 65 78 87 79 52 80 35 81 36 82 45 83 37 84 38 85 44 86 46 87
REMARK SMILES IDX 39 88 40 89 41 90 42 91 43 92 69 93 70 94 79 95 71 96 72 97
REMARK SMILES IDX 78 98 80 99 73 100 74 101 75 102 76 103 77 104 53 105 54 106
REMARK SMILES IDX 63 107 55 108 56 109 62 110 64 111 57 112 58 113 59 114
REMARK SMILES IDX 60 115 61 116
REMARK H PARENT 16 7 7 22 95 33 23 47 85 66 51 77
REMARK Flexibility Score: inf
ROOT
ATOM      1  C   UNL A   1      36.012  32.743  31.590  1.00  0.00     0.002 C 
ENDROOT
BRANCH   1   2
ATOM      2  C   UNL A   1      37.404  32.350  32.118  1.00  0.00     0.021 C 
BRANCH   2   3
ATOM      3  C   UNL A   1      37.919  32.981  33.418  1.00  0.00     0.116 C 
BRANCH   3   4
ATOM      4  N   UNL A   1      37.552  32.298  34.655  1.00  0.00    -0.352 N 
ATOM      5  C   UNL A   1      38.238  31.879  35.784  1.00  0.00     0.252 C 
ATOM      6  O   UNL A   1      37.537  31.360  36.660  1.00  0.00    -0.269 OA
ATOM      7  H   UNL A   1      36.592  32.085  34.697  1.00  0.00     0.163 HD
BRANCH   5   8
ATOM      8  C   UNL A   1      39.727  31.943  36.041  1.00  0.00     0.052 A 
ATOM      9  C   UNL A   1      41.785  30.640  36.160  1.00  0.00     0.130 A 
ATOM     10  C   UNL A   1      40.431  30.738  35.842  1.00  0.00     0.061 A 
ATOM     11  N   UNL A   1      42.484  31.738  36.502  1.00  0.00    -0.231 NA
ATOM     12  C   UNL A   1      41.840  32.884  36.743  1.00  0.00     0.074 A 
ATOM     13  C   UNL A   1      40.445  33.004  36.625  1.00  0.00     0.015 A 
ATOM     14  C   UNL A   1      42.576  33.966  37.216  1.00  0.00     0.031 A 
ATOM     15  C   UNL A   1      39.855  34.121  37.223  1.00  0.00     0.037 A 
ATOM     16  C   UNL A   1      41.961  35.114  37.728  1.00  0.00     0.028 A 
ATOM     17  C   UNL A   1      40.580  35.146  37.825  1.00  0.00     0.042 A 
BRANCH   9  18
ATOM     18  N   UNL A   1      42.412  29.414  36.256  1.00  0.00    -0.345 N 
ATOM     19  N   UNL A   1      43.316  27.226  34.482  1.00  0.00    -0.324 N 
ATOM     20  C   UNL A   1      41.895  27.439  34.862  1.00  0.00     0.284 C 
ATOM     21  C   UNL A   1      44.005  28.548  34.546  1.00  0.00     0.284 C 
ATOM     22  H   UNL A   1      43.383  26.854  33.535  1.00  0.00     0.348 HD
ATOM     23  C   UNL A   1      41.653  28.168  36.211  1.00  0.00     0.179 C 
ATOM     24  C   UNL A   1      43.832  29.314  35.878  1.00  0.00     0.179 C 
BRANCH  19  25
ATOM     25  C   UNL A   1      43.957  26.222  35.364  1.00  0.00     0.363 C 
BRANCH  25  26
ATOM     26  C   UNL A   1      44.992  25.372  34.606  1.00  0.00     0.277 C 
ATOM     27  C   UNL A   1      46.975  23.958  34.609  1.00  0.00     0.146 C 
ATOM     28  N   UNL A   1      46.101  24.892  35.300  1.00  0.00    -0.344 N 
ATOM     29  C   UNL A   1      46.257  25.005  36.740  1.00  0.00     0.146 C 
ATOM     30  O   UNL A   1      44.822  25.133  33.404  1.00  0.00    -0.268 OA
ENDBRANCH  25  26
ENDBRANCH  19  25
ENDBRANCH   9  18
BRANCH  17  31
ATOM     31  N   UNL A   1      39.951  36.193  38.523  1.00  0.00    -0.322 N 
ATOM     32  C   UNL A   1      39.490  36.226  39.831  1.00  0.00     0.255 C 
ATOM     33  H   UNL A   1      39.817  37.022  38.010  1.00  0.00     0.170 HD
ATOM     34  O   UNL A   1      38.655  37.053  40.183  1.00  0.00    -0.269 OA
BRANCH  32  35
ATOM     35  C   UNL A   1      40.013  35.264  40.839  1.00  0.00     0.041 A 
ATOM     36  C   UNL A   1      39.368  34.030  40.977  1.00  0.00     0.014 A 
ATOM     37  C   UNL A   1      41.190  35.519  41.552  1.00  0.00     0.034 A 
ATOM     38  C   UNL A   1      39.961  33.006  41.715  1.00  0.00     0.002 A 
ATOM     39  C   UNL A   1      41.770  34.493  42.298  1.00  0.00     0.041 A 
ATOM     40  C   UNL A   1      41.176  33.233  42.360  1.00  0.00     0.020 A 
ATOM     41  Cl  UNL A   1      43.264  34.767  43.104  1.00  0.00    -0.084 Cl
ENDBRANCH  32  35
ENDBRANCH  17  31
ENDBRANCH   5   8
ENDBRANCH   3   4
ENDBRANCH   2   3
ENDBRANCH   1   2
BRANCH   1  42
ATOM     42  C   UNL A   1      35.816  33.163  30.125  1.00  0.00     0.002 C 
BRANCH  42  43
ATOM     43  C   UNL A   1      34.422  33.085  29.503  1.00  0.00     0.021 C 
BRANCH  43  44
ATOM     44  C   UNL A   1      34.321  32.628  28.053  1.00  0.00     0.116 C 
BRANCH  44  45
ATOM     45  N   UNL A   1      33.715  31.317  27.903  1.00  0.00    -0.352 N 
ATOM     46  C   UNL A   1      34.289  30.064  27.897  1.00  0.00     0.251 C 
ATOM     47  H   UNL A   1      32.738  31.325  27.785  1.00  0.00     0.163 HD
ATOM     48  O   UNL A   1      33.590  29.096  27.603  1.00  0.00    -0.269 OA
BRANCH  46  49
ATOM     49  C   UNL A   1      35.723  29.852  28.233  1.00  0.00     0.039 A 
ATOM     50  C   UNL A   1      36.680  29.962  27.213  1.00  0.00     0.014 A 
ATOM     51  C   UNL A   1      36.135  29.465  29.510  1.00  0.00     0.014 A 
ATOM     52  C   UNL A   1      38.033  29.714  27.478  1.00  0.00     0.010 A 
ATOM     53  C   UNL A   1      37.492  29.293  29.793  1.00  0.00     0.010 A 
ATOM     54  C   UNL A   1      38.453  29.384  28.775  1.00  0.00    -0.014 A 
BRANCH  54  55
ATOM     55  C   UNL A   1      39.865  29.028  29.076  1.00  0.00     0.031 A 
ATOM     56  C   UNL A   1      40.766  30.058  29.712  1.00  0.00     0.074 A 
ATOM     57  C   UNL A   1      40.357  27.819  28.740  1.00  0.00     0.049 A 
ATOM     58  N   UNL A   1      42.051  30.005  29.953  1.00  0.00    -0.248 NA
ATOM     59  C   UNL A   1      40.138  31.333  30.102  1.00  0.00     0.031 C 
ATOM     60  C   UNL A   1      39.600  26.744  28.097  1.00  0.00     0.029 A 
ATOM     61  N   UNL A   1      41.619  27.296  28.882  1.00  0.00    -0.354 N 
ATOM     62  C   UNL A   1      42.386  31.240  30.501  1.00  0.00     0.074 A 
ATOM     63  C   UNL A   1      41.181  32.040  30.507  1.00  0.00     0.031 C 
ATOM     64  C   UNL A   1      40.408  25.686  27.913  1.00  0.00     0.029 A 
ATOM     65  C   UNL A   1      41.746  26.016  28.395  1.00  0.00     0.049 A 
ATOM     66  H   UNL A   1      42.363  27.790  29.294  1.00  0.00     0.167 HD
ATOM     67  C   UNL A   1      43.581  31.662  30.979  1.00  0.00     0.037 A 
ATOM     68  C   UNL A   1      42.822  25.206  28.338  1.00  0.00     0.037 A 
ATOM     69  C   UNL A   1      44.768  30.850  31.007  1.00  0.00     0.049 A 
ATOM     70  C   UNL A   1      44.139  25.693  28.883  1.00  0.00     0.074 A 
ATOM     71  C   UNL A   1      46.021  31.169  31.500  1.00  0.00     0.029 A 
ATOM     72  N   UNL A   1      44.843  29.547  30.536  1.00  0.00    -0.354 N 
ATOM     73  N   UNL A   1      44.431  26.855  29.417  1.00  0.00    -0.248 NA
ATOM     74  C   UNL A   1      45.272  24.758  28.823  1.00  0.00     0.031 C 
ATOM     75  C   UNL A   1      46.861  30.067  31.307  1.00  0.00     0.029 A 
ATOM     76  C   UNL A   1      46.122  29.049  30.724  1.00  0.00     0.049 A 
ATOM     77  H   UNL A   1      44.098  29.050  30.128  1.00  0.00     0.167 HD
ATOM     78  C   UNL A   1      45.771  26.780  29.782  1.00  0.00     0.074 A 
ATOM     79  C   UNL A   1      46.231  25.457  29.416  1.00  0.00     0.031 C 
ATOM     80  C   UNL A   1      46.552  27.721  30.368  1.00  0.00     0.037 A 
BRANCH  67  81
ATOM     81  C   UNL A   1      43.657  33.063  31.522  1.00  0.00     0.058 A 
ATOM     82  C   UNL A   1      43.801  34.172  30.673  1.00  0.00     0.135 A 
ATOM     83  C   UNL A   1      43.567  33.305  32.902  1.00  0.00     0.135 A 
ATOM     84  F   UNL A   1      43.909  33.997  29.346  1.00  0.00    -0.206 F 
ATOM     85  C   UNL A   1      43.888  35.467  31.173  1.00  0.00     0.059 A 
ATOM     86  C   UNL A   1      43.624  34.595  33.423  1.00  0.00     0.059 A 
ATOM     87  F   UNL A   1      43.428  32.282  33.760  1.00  0.00    -0.206 F 
ATOM     88  C   UNL A   1      43.803  35.668  32.552  1.00  0.00     0.060 A 
BRANCH  88  89
ATOM     89  S   UNL A   1      43.923  37.354  33.186  1.00  0.00     0.124 S 
ATOM     90  O   UNL A   1      42.630  37.510  33.844  1.00  0.00    -0.237 OA
ATOM     91  O   UNL A   1      45.080  37.276  34.072  1.00  0.00    -0.237 OA
ATOM     92  O   UNL A   1      44.115  38.156  31.981  1.00  0.00    -0.744 OA
ENDBRANCH  88  89
ENDBRANCH  67  81
BRANCH  68  93
ATOM     93  C   UNL A   1      42.699  23.837  27.766  1.00  0.00     0.058 A 
ATOM     94  C   UNL A   1      42.652  23.641  26.378  1.00  0.00     0.135 A 
ATOM     95  C   UNL A   1      42.623  22.704  28.589  1.00  0.00     0.135 A 
ATOM     96  F   UNL A   1      42.712  24.695  25.549  1.00  0.00    -0.206 F 
ATOM     97  C   UNL A   1      42.513  22.372  25.824  1.00  0.00     0.059 A 
ATOM     98  C   UNL A   1      42.506  21.422  28.060  1.00  0.00     0.059 A 
ATOM     99  F   UNL A   1      42.676  22.836  29.924  1.00  0.00    -0.206 F 
ATOM    100  C   UNL A   1      42.438  21.268  26.675  1.00  0.00     0.060 A 
BRANCH 100 101
ATOM    101  S   UNL A   1      42.291  19.620  25.949  1.00  0.00     0.124 S 
ATOM    102  O   UNL A   1      43.347  19.647  24.944  1.00  0.00    -0.237 OA
ATOM    103  O   UNL A   1      42.525  18.752  27.098  1.00  0.00    -0.237 OA
ATOM    104  O   UNL A   1      40.926  19.605  25.431  1.00  0.00    -0.744 OA
ENDBRANCH 100 101
ENDBRANCH  68  93
BRANCH  80 105
ATOM    105  C   UNL A   1      47.970  27.342  30.686  1.00  0.00     0.058 A 
ATOM    106  C   UNL A   1      48.983  27.409  29.718  1.00  0.00     0.135 A 
ATOM    107  C   UNL A   1      48.327  26.964  31.990  1.00  0.00     0.135 A 
ATOM    108  F   UNL A   1      48.691  27.760  28.456  1.00  0.00    -0.206 F 
ATOM    109  C   UNL A   1      50.302  27.095  30.028  1.00  0.00     0.059 A 
ATOM    110  C   UNL A   1      49.643  26.667  32.327  1.00  0.00     0.059 A 
ATOM    111  F   UNL A   1      47.395  26.895  32.953  1.00  0.00    -0.206 F 
ATOM    112  C   UNL A   1      50.623  26.727  31.337  1.00  0.00     0.060 A 
BRANCH 112 113
ATOM    113  S   UNL A   1      52.345  26.361  31.738  1.00  0.00     0.124 S 
ATOM    114  O   UNL A   1      52.695  27.493  32.590  1.00  0.00    -0.237 OA
ATOM    115  O   UNL A   1      52.244  25.070  32.410  1.00  0.00    -0.237 OA
ATOM    116  O   UNL A   1      52.998  26.332  30.433  1.00  0.00    -0.744 OA
ENDBRANCH 112 113
ENDBRANCH  80 105
ENDBRANCH  54  55
ENDBRANCH  46  49
ENDBRANCH  44  45
ENDBRANCH  43  44
ENDBRANCH  42  43
ENDBRANCH   1  42
TORSDOF 21
ENDMDL
MODEL 2
REMARK VINA RESULT:      -8.7      7.342     13.654
REMARK SMILES CN(C)C(=O)C[NH+]1CCN(c2cc(C(=O)NCCCCCCNC(=O)c3ccc(-c4c5nc(c(-c6c(F)cc(S(=O)(=O)[O-])cc6F)c6ccc([nH]6)c(-c6c(F)cc(S(=O)(=O)[O-])cc6F)c6nc(c(-c7c(F)cc(S(=O)(=O)[O-])cc7F)c7ccc4[nH]7)C=C6)C=C5)cc3)c3cc(NC(=O)c4cccc(Cl)c4)ccc3n2)CC1
REMARK SMILES IDX 19 1 18 2 17 3 16 4 14 5 15 6 13 8 11 9 12 10 108 11 107 12
REMARK SMILES IDX 92 13 106 14 93 15 105 16 94 17 10 18 7 19 8 20 110 21 9 23
REMARK SMILES IDX 109 24 6 25 4 26 1 27 2 28 3 29 5 30 95 31 96 32 97 34 98 35
REMARK SMILES IDX 99 36 104 37 100 38 102 39 101 40 103 41 20 42 21 43 22 44
REMARK SMILES IDX 23 45 24 46 25 48 26 49 27 50 91 51 28 52 90 53 29 54 30 55
REMARK SMILES IDX 31 56 84 57 32 58 89 59 83 60 85 61 33 62 88 63 82 64 81 65
REMARK SMILES IDX 34 67 68 68 47 69 67 70 48 71 51 72 66 73 86 74 49 75 50 76
REMARK SMILES IDX 65 78 87 79 52 80 35 81 36 82 45 83 37 84 38 85 44 86 46 87
REMARK SMILES IDX 39 88 40 89 41 90 42 91 43 92 69 93 70 94 79 95 71 96 72 97
REMARK SMILES IDX 78 98 80 99 73 100 74 101 75 102 76 103 77 104 53 105 54 106
REMARK SMILES IDX 63 107 55 108 56 109 62 110 64 111 57 112 58 113 59 114
REMARK SMILES IDX 60 115 61 116
REMARK H PARENT 16 7 7 22 95 33 23 47 85 66 51 77
REMARK Flexibility Score: inf
ROOT
ATOM      1  C   UNL A   1      48.317  41.069  30.500  1.00  0.00     0.002 C 
ENDROOT
BRANCH   1   2
ATOM      2  C   UNL A   1      48.685  41.876  29.243  1.00  0.00     0.021 C 
BRANCH   2   3
ATOM      3  C   UNL A   1      47.717  41.896  28.052  1.00  0.00     0.116 C 
BRANCH   3   4
ATOM      4  N   UNL A   1      47.831  40.786  27.112  1.00  0.00    -0.352 N 
ATOM      5  C   UNL A   1      47.061  40.307  26.063  1.00  0.00     0.252 C 
ATOM      6  O   UNL A   1      47.539  39.337  25.464  1.00  0.00    -0.269 OA
ATOM      7  H   UNL A   1      48.645  40.252  27.256  1.00  0.00     0.163 HD
BRANCH   5   8
ATOM      8  C   UNL A   1      45.707  40.801  25.606  1.00  0.00     0.052 A 
ATOM      9  C   UNL A   1      44.549  42.314  24.083  1.00  0.00     0.130 A 
ATOM     10  C   UNL A   1      45.722  41.700  24.520  1.00  0.00     0.061 A 
ATOM     11  N   UNL A   1      43.358  41.935  24.581  1.00  0.00    -0.231 NA
ATOM     12  C   UNL A   1      43.312  41.121  25.640  1.00  0.00     0.074 A 
ATOM     13  C   UNL A   1      44.470  40.613  26.251  1.00  0.00     0.015 A 
ATOM     14  C   UNL A   1      42.070  40.849  26.207  1.00  0.00     0.031 A 
ATOM     15  C   UNL A   1      44.322  40.068  27.529  1.00  0.00     0.037 A 
ATOM     16  C   UNL A   1      41.946  40.220  27.451  1.00  0.00     0.028 A 
ATOM     17  C   UNL A   1      43.093  39.918  28.166  1.00  0.00     0.042 A 
BRANCH   9  18
ATOM     18  N   UNL A   1      44.583  43.403  23.235  1.00  0.00    -0.345 N 
ATOM     19  N   UNL A   1      45.340  44.035  20.446  1.00  0.00    -0.324 N 
ATOM     20  C   UNL A   1      46.329  43.829  21.537  1.00  0.00     0.284 C 
ATOM     21  C   UNL A   1      44.116  43.255  20.792  1.00  0.00     0.284 C 
ATOM     22  H   UNL A   1      45.714  43.704  19.557  1.00  0.00     0.348 HD
ATOM     23  C   UNL A   1      45.826  44.125  22.976  1.00  0.00     0.179 C 
ATOM     24  C   UNL A   1      43.542  43.527  22.201  1.00  0.00     0.179 C 
BRANCH  19  25
ATOM     25  C   UNL A   1      45.048  45.475  20.258  1.00  0.00     0.363 C 
BRANCH  25  26
ATOM     26  C   UNL A   1      45.998  46.124  19.237  1.00  0.00     0.277 C 
ATOM     27  C   UNL A   1      47.865  47.604  18.732  1.00  0.00     0.146 C 
ATOM     28  N   UNL A   1      46.866  47.124  19.672  1.00  0.00    -0.344 N 
ATOM     29  C   UNL A   1      47.047  47.476  21.071  1.00  0.00     0.146 C 
ATOM     30  O   UNL A   1      45.974  45.751  18.058  1.00  0.00    -0.268 OA
ENDBRANCH  25  26
ENDBRANCH  19  25
ENDBRANCH   9  18
BRANCH  17  31
ATOM     31  N   UNL A   1      42.992  39.481  29.500  1.00  0.00    -0.322 N 
ATOM     32  C   UNL A   1      43.271  40.165  30.673  1.00  0.00     0.255 C 
ATOM     33  H   UNL A   1      42.680  38.555  29.617  1.00  0.00     0.170 HD
ATOM     34  O   UNL A   1      43.485  39.560  31.718  1.00  0.00    -0.269 OA
BRANCH  32  35
ATOM     35  C   UNL A   1      43.299  41.653  30.690  1.00  0.00     0.041 A 
ATOM     36  C   UNL A   1      42.528  42.321  31.647  1.00  0.00     0.014 A 
ATOM     37  C   UNL A   1      44.162  42.378  29.862  1.00  0.00     0.034 A 
ATOM     38  C   UNL A   1      42.711  43.686  31.871  1.00  0.00     0.002 A 
ATOM     39  C   UNL A   1      44.332  43.744  30.083  1.00  0.00     0.041 A 
ATOM     40  C   UNL A   1      43.632  44.394  31.099  1.00  0.00     0.020 A 
ATOM     41  Cl  UNL A   1      45.459  44.627  29.131  1.00  0.00    -0.084 Cl
ENDBRANCH  32  35
ENDBRANCH  17  31
ENDBRANCH   5   8
ENDBRANCH   3   4
ENDBRANCH   2   3
ENDBRANCH   1   2
BRANCH   1  42
ATOM     42  C   UNL A   1      46.921  40.443  30.654  1.00  0.00     0.002 C 
BRANCH  42  43
ATOM     43  C   UNL A   1      46.788  38.925  30.765  1.00  0.00     0.021 C 
BRANCH  43  44
ATOM     44  C   UNL A   1      46.883  38.113  29.480  1.00  0.00     0.116 C 
BRANCH  44  45
ATOM     45  N   UNL A   1      48.246  37.941  29.006  1.00  0.00    -0.352 N 
ATOM     46  C   UNL A   1      48.927  36.800  28.645  1.00  0.00     0.251 C 
ATOM     47  H   UNL A   1      48.765  38.774  28.931  1.00  0.00     0.163 HD
ATOM     48  O   UNL A   1      50.133  36.880  28.413  1.00  0.00    -0.269 OA
BRANCH  46  49
ATOM     49  C   UNL A   1      48.250  35.479  28.531  1.00  0.00     0.039 A 
ATOM     50  C   UNL A   1      48.302  34.596  29.619  1.00  0.00     0.014 A 
ATOM     51  C   UNL A   1      47.639  35.061  27.346  1.00  0.00     0.014 A 
ATOM     52  C   UNL A   1      47.724  33.323  29.529  1.00  0.00     0.010 A 
ATOM     53  C   UNL A   1      46.997  33.822  27.281  1.00  0.00     0.010 A 
ATOM     54  C   UNL A   1      47.059  32.927  28.359  1.00  0.00    -0.014 A 
BRANCH  54  55
ATOM     55  C   UNL A   1      46.512  31.553  28.195  1.00  0.00     0.031 A 
ATOM     56  C   UNL A   1      47.402  30.466  27.642  1.00  0.00     0.074 A 
ATOM     57  C   UNL A   1      45.224  31.286  28.486  1.00  0.00     0.049 A 
ATOM     58  N   UNL A   1      47.104  29.237  27.308  1.00  0.00    -0.248 NA
ATOM     59  C   UNL A   1      48.811  30.824  27.406  1.00  0.00     0.031 C 
ATOM     60  C   UNL A   1      44.253  32.252  29.001  1.00  0.00     0.029 A 
ATOM     61  N   UNL A   1      44.505  30.121  28.374  1.00  0.00    -0.354 N 
ATOM     62  C   UNL A   1      48.278  28.684  26.806  1.00  0.00     0.074 A 
ATOM     63  C   UNL A   1      49.279  29.728  26.830  1.00  0.00     0.031 C 
ATOM     64  C   UNL A   1      43.071  31.637  29.175  1.00  0.00     0.029 A 
ATOM     65  C   UNL A   1      43.188  30.244  28.755  1.00  0.00     0.049 A 
ATOM     66  H   UNL A   1      44.895  29.276  28.054  1.00  0.00     0.167 HD
ATOM     67  C   UNL A   1      48.511  27.418  26.387  1.00  0.00     0.037 A 
ATOM     68  C   UNL A   1      42.191  29.337  28.756  1.00  0.00     0.037 A 
ATOM     69  C   UNL A   1      47.524  26.371  26.402  1.00  0.00     0.049 A 
ATOM     70  C   UNL A   1      42.475  27.931  28.294  1.00  0.00     0.074 A 
ATOM     71  C   UNL A   1      47.664  25.045  26.031  1.00  0.00     0.029 A 
ATOM     72  N   UNL A   1      46.213  26.530  26.829  1.00  0.00    -0.354 N 
ATOM     73  N   UNL A   1      43.597  27.422  27.843  1.00  0.00    -0.248 NA
ATOM     74  C   UNL A   1      41.359  26.976  28.344  1.00  0.00     0.031 C 
ATOM     75  C   UNL A   1      46.432  24.407  26.211  1.00  0.00     0.029 A 
ATOM     76  C   UNL A   1      45.533  25.328  26.727  1.00  0.00     0.049 A 
ATOM     77  H   UNL A   1      45.823  27.374  27.154  1.00  0.00     0.167 HD
ATOM     78  C   UNL A   1      43.330  26.082  27.584  1.00  0.00     0.074 A 
ATOM     79  C   UNL A   1      41.943  25.857  27.936  1.00  0.00     0.031 C 
ATOM     80  C   UNL A   1      44.157  25.124  27.100  1.00  0.00     0.037 A 
BRANCH  67  81
ATOM     81  C   UNL A   1      49.893  27.093  25.889  1.00  0.00     0.058 A 
ATOM     82  C   UNL A   1      50.893  26.625  26.757  1.00  0.00     0.135 A 
ATOM     83  C   UNL A   1      50.220  27.232  24.531  1.00  0.00     0.135 A 
ATOM     84  F   UNL A   1      50.640  26.488  28.068  1.00  0.00    -0.206 F 
ATOM     85  C   UNL A   1      52.177  26.339  26.303  1.00  0.00     0.059 A 
ATOM     86  C   UNL A   1      51.490  26.926  24.050  1.00  0.00     0.059 A 
ATOM     87  F   UNL A   1      49.303  27.676  23.657  1.00  0.00    -0.206 F 
ATOM     88  C   UNL A   1      52.467  26.497  24.947  1.00  0.00     0.060 A 
BRANCH  88  89
ATOM     89  S   UNL A   1      54.139  26.128  24.374  1.00  0.00     0.124 S 
ATOM     90  O   UNL A   1      54.926  27.097  25.129  1.00  0.00    -0.237 OA
ATOM     91  O   UNL A   1      54.306  24.733  24.766  1.00  0.00    -0.237 OA
ATOM     92  O   UNL A   1      54.063  26.366  22.935  1.00  0.00    -0.744 OA
ENDBRANCH  88  89
ENDBRANCH  67  81
BRANCH  68  93
ATOM     93  C   UNL A   1      40.834  29.717  29.234  1.00  0.00     0.058 A 
ATOM     94  C   UNL A   1      39.765  29.842  28.334  1.00  0.00     0.135 A 
ATOM     95  C   UNL A   1      40.579  29.966  30.590  1.00  0.00     0.135 A 
ATOM     96  F   UNL A   1      39.962  29.623  27.025  1.00  0.00    -0.206 F 
ATOM     97  C   UNL A   1      38.495  30.220  28.757  1.00  0.00     0.059 A 
ATOM     98  C   UNL A   1      39.311  30.324  31.042  1.00  0.00     0.059 A 
ATOM     99  F   UNL A   1      41.564  29.849  31.494  1.00  0.00    -0.206 F 
ATOM    100  C   UNL A   1      38.279  30.461  30.115  1.00  0.00     0.060 A 
BRANCH 100 101
ATOM    101  S   UNL A   1      36.619  30.920  30.662  1.00  0.00     0.124 S 
ATOM    102  O   UNL A   1      36.849  32.253  31.209  1.00  0.00    -0.237 OA
ATOM    103  O   UNL A   1      35.856  30.863  29.419  1.00  0.00    -0.237 OA
ATOM    104  O   UNL A   1      36.291  29.885  31.638  1.00  0.00    -0.744 OA
ENDBRANCH 100 101
ENDBRANCH  68  93
BRANCH  80 105
ATOM    105  C   UNL A   1      43.599  23.736  26.959  1.00  0.00     0.058 A 
ATOM    106  C   UNL A   1      43.427  22.897  28.071  1.00  0.00     0.135 A 
ATOM    107  C   UNL A   1      43.180  23.264  25.706  1.00  0.00     0.135 A 
ATOM    108  F   UNL A   1      43.817  23.301  29.290  1.00  0.00    -0.206 F 
ATOM    109  C   UNL A   1      42.873  21.628  27.940  1.00  0.00     0.059 A 
ATOM    110  C   UNL A   1      42.604  22.007  25.556  1.00  0.00     0.059 A 
ATOM    111  F   UNL A   1      43.315  24.034  24.614  1.00  0.00    -0.206 F 
ATOM    112  C   UNL A   1      42.463  21.192  26.678  1.00  0.00     0.060 A 
BRANCH 112 113
ATOM    113  S   UNL A   1      41.707  19.559  26.527  1.00  0.00     0.124 S 
ATOM    114  O   UNL A   1      40.288  19.895  26.485  1.00  0.00    -0.237 OA
ATOM    115  O   UNL A   1      42.279  19.063  25.280  1.00  0.00    -0.237 OA
ATOM    116  O   UNL A   1      42.154  18.867  27.732  1.00  0.00    -0.744 OA
ENDBRANCH 112 113
ENDBRANCH  80 105
ENDBRANCH  54  55
ENDBRANCH  46  49
ENDBRANCH  44  45
ENDBRANCH  43  44
ENDBRANCH  42  43
ENDBRANCH   1  42
TORSDOF 21
ENDMDL
MODEL 3
REMARK VINA RESULT:      -8.7      4.622     11.183
REMARK SMILES CN(C)C(=O)C[NH+]1CCN(c2cc(C(=O)NCCCCCCNC(=O)c3ccc(-c4c5nc(c(-c6c(F)cc(S(=O)(=O)[O-])cc6F)c6ccc([nH]6)c(-c6c(F)cc(S(=O)(=O)[O-])cc6F)c6nc(c(-c7c(F)cc(S(=O)(=O)[O-])cc7F)c7ccc4[nH]7)C=C6)C=C5)cc3)c3cc(NC(=O)c4cccc(Cl)c4)ccc3n2)CC1
REMARK SMILES IDX 19 1 18 2 17 3 16 4 14 5 15 6 13 8 11 9 12 10 108 11 107 12
REMARK SMILES IDX 92 13 106 14 93 15 105 16 94 17 10 18 7 19 8 20 110 21 9 23
REMARK SMILES IDX 109 24 6 25 4 26 1 27 2 28 3 29 5 30 95 31 96 32 97 34 98 35
REMARK SMILES IDX 99 36 104 37 100 38 102 39 101 40 103 41 20 42 21 43 22 44
REMARK SMILES IDX 23 45 24 46 25 48 26 49 27 50 91 51 28 52 90 53 29 54 30 55
REMARK SMILES IDX 31 56 84 57 32 58 89 59 83 60 85 61 33 62 88 63 82 64 81 65
REMARK SMILES IDX 34 67 68 68 47 69 67 70 48 71 51 72 66 73 86 74 49 75 50 76
REMARK SMILES IDX 65 78 87 79 52 80 35 81 36 82 45 83 37 84 38 85 44 86 46 87
REMARK SMILES IDX 39 88 40 89 41 90 42 91 43 92 69 93 70 94 79 95 71 96 72 97
REMARK SMILES IDX 78 98 80 99 73 100 74 101 75 102 76 103 77 104 53 105 54 106
REMARK SMILES IDX 63 107 55 108 56 109 62 110 64 111 57 112 58 113 59 114
REMARK SMILES IDX 60 115 61 116
REMARK H PARENT 16 7 7 22 95 33 23 47 85 66 51 77
REMARK Flexibility Score: inf
ROOT
ATOM      1  C   UNL A   1      45.677  35.379  33.338  1.00  0.00     0.002 C 
ENDROOT
BRANCH   1   2
ATOM      2  C   UNL A   1      45.505  33.904  33.744  1.00  0.00     0.021 C 
BRANCH   2   3
ATOM      3  C   UNL A   1      44.135  33.233  33.574  1.00  0.00     0.116 C 
BRANCH   3   4
ATOM      4  N   UNL A   1      42.978  34.023  33.983  1.00  0.00    -0.352 N 
ATOM      5  C   UNL A   1      41.908  34.606  33.322  1.00  0.00     0.252 C 
ATOM      6  O   UNL A   1      41.087  35.172  34.053  1.00  0.00    -0.269 OA
ATOM      7  H   UNL A   1      42.950  34.177  34.954  1.00  0.00     0.163 HD
BRANCH   5   8
ATOM      8  C   UNL A   1      41.659  34.667  31.832  1.00  0.00     0.052 A 
ATOM      9  C   UNL A   1      42.590  35.352  29.684  1.00  0.00     0.130 A 
ATOM     10  C   UNL A   1      42.736  35.139  31.054  1.00  0.00     0.061 A 
ATOM     11  N   UNL A   1      41.473  34.952  29.050  1.00  0.00    -0.231 NA
ATOM     12  C   UNL A   1      40.418  34.543  29.762  1.00  0.00     0.074 A 
ATOM     13  C   UNL A   1      40.433  34.485  31.165  1.00  0.00     0.015 A 
ATOM     14  C   UNL A   1      39.238  34.256  29.083  1.00  0.00     0.031 A 
ATOM     15  C   UNL A   1      39.195  34.380  31.806  1.00  0.00     0.037 A 
ATOM     16  C   UNL A   1      38.024  34.065  29.755  1.00  0.00     0.028 A 
ATOM     17  C   UNL A   1      37.987  34.231  31.129  1.00  0.00     0.042 A 
BRANCH   9  18
ATOM     18  N   UNL A   1      43.518  36.083  28.969  1.00  0.00    -0.345 N 
ATOM     19  N   UNL A   1      43.692  38.657  27.522  1.00  0.00    -0.324 N 
ATOM     20  C   UNL A   1      43.016  37.453  26.972  1.00  0.00     0.284 C 
ATOM     21  C   UNL A   1      43.629  38.572  29.009  1.00  0.00     0.284 C 
ATOM     22  H   UNL A   1      43.220  39.506  27.210  1.00  0.00     0.348 HD
ATOM     23  C   UNL A   1      43.520  36.085  27.509  1.00  0.00     0.179 C 
ATOM     24  C   UNL A   1      44.149  37.247  29.614  1.00  0.00     0.179 C 
BRANCH  19  25
ATOM     25  C   UNL A   1      45.086  38.756  27.028  1.00  0.00     0.363 C 
BRANCH  25  26
ATOM     26  C   UNL A   1      45.400  40.159  26.480  1.00  0.00     0.277 C 
ATOM     27  C   UNL A   1      46.399  42.362  26.762  1.00  0.00     0.146 C 
ATOM     28  N   UNL A   1      45.959  41.103  27.339  1.00  0.00    -0.344 N 
ATOM     29  C   UNL A   1      46.420  40.793  28.682  1.00  0.00     0.146 C 
ATOM     30  O   UNL A   1      45.152  40.422  25.297  1.00  0.00    -0.268 OA
ENDBRANCH  25  26
ENDBRANCH  19  25
ENDBRANCH   9  18
BRANCH  17  31
ATOM     31  N   UNL A   1      36.750  34.252  31.799  1.00  0.00    -0.322 N 
ATOM     32  C   UNL A   1      35.506  33.824  31.362  1.00  0.00     0.255 C 
ATOM     33  H   UNL A   1      36.770  34.626  32.710  1.00  0.00     0.170 HD
ATOM     34  O   UNL A   1      34.478  34.230  31.895  1.00  0.00    -0.269 OA
BRANCH  32  35
ATOM     35  C   UNL A   1      35.394  32.848  30.244  1.00  0.00     0.041 A 
ATOM     36  C   UNL A   1      34.819  33.279  29.043  1.00  0.00     0.014 A 
ATOM     37  C   UNL A   1      35.953  31.569  30.329  1.00  0.00     0.034 A 
ATOM     38  C   UNL A   1      34.919  32.492  27.894  1.00  0.00     0.002 A 
ATOM     39  C   UNL A   1      36.039  30.785  29.181  1.00  0.00     0.041 A 
ATOM     40  C   UNL A   1      35.549  31.251  27.960  1.00  0.00     0.020 A 
ATOM     41  Cl  UNL A   1      36.807  29.248  29.254  1.00  0.00    -0.084 Cl
ENDBRANCH  32  35
ENDBRANCH  17  31
ENDBRANCH   5   8
ENDBRANCH   3   4
ENDBRANCH   2   3
ENDBRANCH   1   2
BRANCH   1  42
ATOM     42  C   UNL A   1      46.415  35.759  32.045  1.00  0.00     0.002 C 
BRANCH  42  43
ATOM     43  C   UNL A   1      47.512  36.823  32.092  1.00  0.00     0.021 C 
BRANCH  43  44
ATOM     44  C   UNL A   1      47.684  37.713  30.868  1.00  0.00     0.116 C 
BRANCH  44  45
ATOM     45  N   UNL A   1      48.980  37.566  30.227  1.00  0.00    -0.352 N 
ATOM     46  C   UNL A   1      49.580  36.457  29.672  1.00  0.00     0.251 C 
ATOM     47  H   UNL A   1      49.514  38.391  30.183  1.00  0.00     0.163 HD
ATOM     48  O   UNL A   1      50.754  36.538  29.315  1.00  0.00    -0.269 OA
BRANCH  46  49
ATOM     49  C   UNL A   1      48.851  35.171  29.496  1.00  0.00     0.039 A 
ATOM     50  C   UNL A   1      49.174  34.091  30.331  1.00  0.00     0.014 A 
ATOM     51  C   UNL A   1      47.919  34.982  28.473  1.00  0.00     0.014 A 
ATOM     52  C   UNL A   1      48.550  32.849  30.159  1.00  0.00     0.010 A 
ATOM     53  C   UNL A   1      47.241  33.768  28.350  1.00  0.00     0.010 A 
ATOM     54  C   UNL A   1      47.571  32.678  29.169  1.00  0.00    -0.014 A 
BRANCH  54  55
ATOM     55  C   UNL A   1      46.952  31.352  28.899  1.00  0.00     0.031 A 
ATOM     56  C   UNL A   1      47.640  30.395  27.957  1.00  0.00     0.074 A 
ATOM     57  C   UNL A   1      45.764  31.023  29.444  1.00  0.00     0.049 A 
ATOM     58  N   UNL A   1      47.226  29.245  27.490  1.00  0.00    -0.248 NA
ATOM     59  C   UNL A   1      48.961  30.804  27.450  1.00  0.00     0.031 C 
ATOM     60  C   UNL A   1      44.983  31.868  30.349  1.00  0.00     0.029 A 
ATOM     61  N   UNL A   1      44.998  29.892  29.305  1.00  0.00    -0.354 N 
ATOM     62  C   UNL A   1      48.222  28.806  26.623  1.00  0.00     0.074 A 
ATOM     63  C   UNL A   1      49.235  29.838  26.587  1.00  0.00     0.031 C 
ATOM     64  C   UNL A   1      43.858  31.220  30.694  1.00  0.00     0.029 A 
ATOM     65  C   UNL A   1      43.820  29.929  30.013  1.00  0.00     0.049 A 
ATOM     66  H   UNL A   1      45.268  29.124  28.751  1.00  0.00     0.167 HD
ATOM     67  C   UNL A   1      48.300  27.641  25.937  1.00  0.00     0.037 A 
ATOM     68  C   UNL A   1      42.822  29.028  30.096  1.00  0.00     0.037 A 
ATOM     69  C   UNL A   1      47.309  26.599  26.006  1.00  0.00     0.049 A 
ATOM     70  C   UNL A   1      42.933  27.734  29.332  1.00  0.00     0.074 A 
ATOM     71  C   UNL A   1      47.308  25.366  25.378  1.00  0.00     0.029 A 
ATOM     72  N   UNL A   1      46.149  26.664  26.763  1.00  0.00    -0.354 N 
ATOM     73  N   UNL A   1      43.893  27.327  28.535  1.00  0.00    -0.248 NA
ATOM     74  C   UNL A   1      41.830  26.774  29.482  1.00  0.00     0.031 C 
ATOM     75  C   UNL A   1      46.135  24.693  25.737  1.00  0.00     0.029 A 
ATOM     76  C   UNL A   1      45.422  25.494  26.616  1.00  0.00     0.049 A 
ATOM     77  H   UNL A   1      45.881  27.429  27.322  1.00  0.00     0.167 HD
ATOM     78  C   UNL A   1      43.523  26.055  28.112  1.00  0.00     0.074 A 
ATOM     79  C   UNL A   1      42.257  25.755  28.747  1.00  0.00     0.031 C 
ATOM     80  C   UNL A   1      44.172  25.211  27.274  1.00  0.00     0.037 A 
BRANCH  67  81
ATOM     81  C   UNL A   1      49.506  27.427  25.064  1.00  0.00     0.058 A 
ATOM     82  C   UNL A   1      49.449  27.618  23.674  1.00  0.00     0.135 A 
ATOM     83  C   UNL A   1      50.738  27.044  25.620  1.00  0.00     0.135 A 
ATOM     84  F   UNL A   1      48.293  27.968  23.088  1.00  0.00    -0.206 F 
ATOM     85  C   UNL A   1      50.558  27.405  22.862  1.00  0.00     0.059 A 
ATOM     86  C   UNL A   1      51.868  26.852  24.829  1.00  0.00     0.059 A 
ATOM     87  F   UNL A   1      50.850  26.847  26.943  1.00  0.00    -0.206 F 
ATOM     88  C   UNL A   1      51.764  27.018  23.449  1.00  0.00     0.060 A 
BRANCH  88  89
ATOM     89  S   UNL A   1      53.193  26.740  22.382  1.00  0.00     0.124 S 
ATOM     90  O   UNL A   1      53.512  28.101  21.963  1.00  0.00    -0.237 OA
ATOM     91  O   UNL A   1      54.148  26.116  23.291  1.00  0.00    -0.237 OA
ATOM     92  O   UNL A   1      52.668  25.868  21.335  1.00  0.00    -0.744 OA
ENDBRANCH  88  89
ENDBRANCH  67  81
BRANCH  68  93
ATOM     93  C   UNL A   1      41.637  29.299  30.954  1.00  0.00     0.058 A 
ATOM     94  C   UNL A   1      41.543  28.753  32.243  1.00  0.00     0.135 A 
ATOM     95  C   UNL A   1      40.577  30.101  30.507  1.00  0.00     0.135 A 
ATOM     96  F   UNL A   1      42.527  27.971  32.713  1.00  0.00    -0.206 F 
ATOM     97  C   UNL A   1      40.432  28.973  33.051  1.00  0.00     0.059 A 
ATOM     98  C   UNL A   1      39.465  30.356  31.304  1.00  0.00     0.059 A 
ATOM     99  F   UNL A   1      40.622  30.658  29.286  1.00  0.00    -0.206 F 
ATOM    100  C   UNL A   1      39.396  29.776  32.571  1.00  0.00     0.060 A 
BRANCH 100 101
ATOM    101  S   UNL A   1      37.971  30.086  33.638  1.00  0.00     0.124 S 
ATOM    102  O   UNL A   1      37.146  28.913  33.372  1.00  0.00    -0.237 OA
ATOM    103  O   UNL A   1      38.583  30.150  34.962  1.00  0.00    -0.237 OA
ATOM    104  O   UNL A   1      37.448  31.354  33.137  1.00  0.00    -0.744 OA
ENDBRANCH 100 101
ENDBRANCH  68  93
BRANCH  80 105
ATOM    105  C   UNL A   1      43.548  23.867  27.026  1.00  0.00     0.058 A 
ATOM    106  C   UNL A   1      42.831  23.596  25.851  1.00  0.00     0.135 A 
ATOM    107  C   UNL A   1      43.718  22.825  27.950  1.00  0.00     0.135 A 
ATOM    108  F   UNL A   1      42.637  24.561  24.939  1.00  0.00    -0.206 F 
ATOM    109  C   UNL A   1      42.289  22.338  25.608  1.00  0.00     0.059 A 
ATOM    110  C   UNL A   1      43.204  21.554  27.718  1.00  0.00     0.059 A 
ATOM    111  F   UNL A   1      44.405  23.032  29.085  1.00  0.00    -0.206 F 
ATOM    112  C   UNL A   1      42.482  21.322  26.548  1.00  0.00     0.060 A 
BRANCH 112 113
ATOM    113  S   UNL A   1      41.808  19.683  26.203  1.00  0.00     0.124 S 
ATOM    114  O   UNL A   1      42.552  19.305  25.005  1.00  0.00    -0.237 OA
ATOM    115  O   UNL A   1      42.144  18.944  27.416  1.00  0.00    -0.237 OA
ATOM    116  O   UNL A   1      40.384  19.936  26.005  1.00  0.00    -0.744 OA
ENDBRANCH 112 113
ENDBRANCH  80 105
ENDBRANCH  54  55
ENDBRANCH  46  49
ENDBRANCH  44  45
ENDBRANCH  43  44
ENDBRANCH  42  43
ENDBRANCH   1  42
TORSDOF 21
ENDMDL
