MODEL 1
REMARK VINA RESULT:     -13.4      0.000      0.000
REMARK SMILES Cc1c(CC(=O)N[C@H](CO)C(=O)NCCCCCCNC(=O)c2ccc(-c3c4nc(c(-c5c(F)cc(S(=O)(=O)[O-])cc5F)c5ccc([nH]5)c(-c5c(F)cc(S(=O)(=O)[O-])cc5F)c5nc(c(-c6c(F)cc(S(=O)(=O)[O-])cc6F)c6ccc3[nH]6)C=C5)C=C4)cc2)cc(-c2ccc(S(C)(=O)=O)cc2)n1-c1ccc(F)cc1
REMARK SMILES IDX 15 1 14 2 13 3 11 4 12 5 8 7 7 8 5 9 6 10 4 12 3 13 1 14
REMARK SMILES IDX 2 15 101 16 89 17 90 18 102 19 103 20 108 21 104 22 107 23
REMARK SMILES IDX 105 24 106 25 91 26 92 27 100 28 93 29 99 30 94 31 95 32
REMARK SMILES IDX 96 33 97 34 98 35 9 36 10 37 16 39 17 40 18 41 19 42 20 43
REMARK SMILES IDX 21 44 22 46 23 47 24 48 88 49 25 50 87 51 26 52 27 53 28 54
REMARK SMILES IDX 81 55 29 56 86 57 80 58 82 59 30 60 85 61 79 62 78 63 31 65
REMARK SMILES IDX 65 66 44 67 64 68 45 69 48 70 63 71 83 72 46 73 47 74 62 76
REMARK SMILES IDX 84 77 49 78 32 79 33 80 42 81 34 82 35 83 41 84 43 85 36 86
REMARK SMILES IDX 37 87 38 88 39 89 40 90 66 91 67 92 76 93 68 94 69 95 75 96
REMARK SMILES IDX 77 97 70 98 71 99 72 100 73 101 74 102 50 103 51 104 60 105
REMARK SMILES IDX 52 106 53 107 59 108 61 109 54 110 55 111 56 112 57 113
REMARK SMILES IDX 58 114
REMARK H PARENT 13 6 7 11 10 38 20 45 82 64 48 75
REMARK Flexibility Score: inf
ROOT
ATOM      1  C   UNL A   1      32.487  29.517  24.811  1.00  0.00     0.021 C 
ENDROOT
BRANCH   1   2
ATOM      2  C   UNL A   1      31.110  30.006  25.249  1.00  0.00     0.116 C 
BRANCH   2   3
ATOM      3  N   UNL A   1      30.386  30.604  24.139  1.00  0.00    -0.354 N 
ATOM      4  C   UNL A   1      29.619  30.017  23.170  1.00  0.00     0.244 C 
ATOM      5  O   UNL A   1      29.281  30.710  22.207  1.00  0.00    -0.273 OA
ATOM      6  H   UNL A   1      30.460  31.583  24.075  1.00  0.00     0.163 HD
BRANCH   4   7
ATOM      7  C   UNL A   1      29.269  28.517  23.233  1.00  0.00     0.197 C 
BRANCH   7   8
ATOM      8  N   UNL A   1      30.174  27.784  22.342  1.00  0.00    -0.342 N 
ATOM      9  C   UNL A   1      30.763  26.568  22.483  1.00  0.00     0.225 C 
ATOM     10  O   UNL A   1      31.484  26.181  21.557  1.00  0.00    -0.275 OA
ATOM     11  H   UNL A   1      30.392  28.251  21.503  1.00  0.00     0.164 HD
BRANCH   9  12
ATOM     12  C   UNL A   1      30.558  25.728  23.731  1.00  0.00     0.137 C 
BRANCH  12  13
ATOM     13  C   UNL A   1      31.606  24.670  23.889  1.00  0.00    -0.017 A 
ATOM     14  C   UNL A   1      33.704  26.146  24.227  1.00  0.00     0.065 C 
ATOM     15  C   UNL A   1      32.957  24.850  24.160  1.00  0.00     0.024 A 
ATOM     16  N   UNL A   1      33.549  23.598  24.268  1.00  0.00    -0.314 N 
ATOM     17  C   UNL A   1      31.399  23.275  23.743  1.00  0.00     0.033 A 
ATOM     18  C   UNL A   1      32.594  22.622  23.984  1.00  0.00     0.053 A 
BRANCH  16  19
ATOM     19  C   UNL A   1      34.904  23.346  24.608  1.00  0.00     0.046 A 
ATOM     20  C   UNL A   1      35.788  22.875  23.629  1.00  0.00     0.029 A 
ATOM     21  C   UNL A   1      35.321  23.509  25.935  1.00  0.00     0.029 A 
ATOM     22  C   UNL A   1      37.100  22.566  23.985  1.00  0.00     0.041 A 
ATOM     23  C   UNL A   1      36.631  23.182  26.284  1.00  0.00     0.041 A 
ATOM     24  C   UNL A   1      37.506  22.715  25.307  1.00  0.00     0.123 A 
ATOM     25  F   UNL A   1      38.761  22.396  25.647  1.00  0.00    -0.207 F 
ENDBRANCH  16  19
BRANCH  18  26
ATOM     26  C   UNL A   1      32.823  21.174  24.027  1.00  0.00    -0.001 A 
ATOM     27  C   UNL A   1      33.659  20.601  24.998  1.00  0.00     0.011 A 
ATOM     28  C   UNL A   1      32.201  20.343  23.085  1.00  0.00     0.011 A 
ATOM     29  C   UNL A   1      33.909  19.227  25.002  1.00  0.00     0.021 A 
ATOM     30  C   UNL A   1      32.445  18.967  23.083  1.00  0.00     0.021 A 
ATOM     31  C   UNL A   1      33.311  18.419  24.031  1.00  0.00     0.067 A 
BRANCH  31  32
ATOM     32  S   UNL A   1      33.630  16.672  24.052  1.00  0.00     0.175 S 
ATOM     33  C   UNL A   1      35.069  16.504  25.074  1.00  0.00     0.163 C 
ATOM     34  O   UNL A   1      32.524  16.038  24.711  1.00  0.00    -0.224 OA
ATOM     35  O   UNL A   1      34.027  16.282  22.696  1.00  0.00    -0.224 OA
ENDBRANCH  31  32
ENDBRANCH  18  26
ENDBRANCH  12  13
ENDBRANCH   9  12
ENDBRANCH   7   8
BRANCH   7  36
ATOM     36  C   UNL A   1      27.757  28.329  22.989  1.00  0.00     0.191 C 
BRANCH  36  37
ATOM     37  O   UNL A   1      26.989  29.523  23.126  1.00  0.00    -0.394 OA
ATOM     38  H   UNL A   1      26.115  29.391  22.728  1.00  0.00     0.210 HD
ENDBRANCH  36  37
ENDBRANCH   7  36
ENDBRANCH   4   7
ENDBRANCH   2   3
ENDBRANCH   1   2
BRANCH   1  39
ATOM     39  C   UNL A   1      33.524  29.492  25.936  1.00  0.00     0.002 C 
BRANCH  39  40
ATOM     40  C   UNL A   1      33.253  30.458  27.097  1.00  0.00     0.002 C 
BRANCH  40  41
ATOM     41  C   UNL A   1      34.482  31.009  27.856  1.00  0.00     0.021 C 
BRANCH  41  42
ATOM     42  C   UNL A   1      34.678  32.544  27.915  1.00  0.00     0.116 C 
BRANCH  42  43
ATOM     43  N   UNL A   1      34.349  33.145  29.186  1.00  0.00    -0.352 N 
ATOM     44  C   UNL A   1      34.940  32.980  30.432  1.00  0.00     0.251 C 
ATOM     45  H   UNL A   1      33.587  33.768  29.166  1.00  0.00     0.163 HD
ATOM     46  O   UNL A   1      34.398  33.578  31.364  1.00  0.00    -0.269 OA
BRANCH  44  47
ATOM     47  C   UNL A   1      36.069  31.998  30.725  1.00  0.00     0.039 A 
ATOM     48  C   UNL A   1      37.167  32.065  29.892  1.00  0.00     0.014 A 
ATOM     49  C   UNL A   1      36.060  30.873  31.578  1.00  0.00     0.014 A 
ATOM     50  C   UNL A   1      38.236  31.108  29.985  1.00  0.00     0.010 A 
ATOM     51  C   UNL A   1      37.132  29.824  31.587  1.00  0.00     0.010 A 
ATOM     52  C   UNL A   1      38.289  29.889  30.779  1.00  0.00    -0.014 A 
BRANCH  52  53
ATOM     53  C   UNL A   1      39.424  28.705  30.276  1.00  0.00     0.031 A 
ATOM     54  C   UNL A   1      40.270  28.647  31.506  1.00  0.00     0.074 A 
ATOM     55  C   UNL A   1      39.991  27.917  29.230  1.00  0.00     0.049 A 
ATOM     56  N   UNL A   1      40.820  29.761  31.902  1.00  0.00    -0.248 NA
ATOM     57  C   UNL A   1      40.152  27.626  32.550  1.00  0.00     0.031 C 
ATOM     58  C   UNL A   1      39.722  27.965  27.776  1.00  0.00     0.029 A 
ATOM     59  N   UNL A   1      41.008  26.853  29.200  1.00  0.00    -0.354 N 
ATOM     60  C   UNL A   1      41.386  29.520  33.121  1.00  0.00     0.074 A 
ATOM     61  C   UNL A   1      40.744  28.282  33.561  1.00  0.00     0.031 C 
ATOM     62  C   UNL A   1      40.342  26.956  27.075  1.00  0.00     0.029 A 
ATOM     63  C   UNL A   1      41.179  26.104  27.932  1.00  0.00     0.049 A 
ATOM     64  H   UNL A   1      41.553  26.645  29.993  1.00  0.00     0.167 HD
ATOM     65  C   UNL A   1      42.700  29.875  33.197  1.00  0.00     0.037 A 
ATOM     66  C   UNL A   1      42.003  25.000  27.564  1.00  0.00     0.037 A 
ATOM     67  C   UNL A   1      43.555  28.747  32.931  1.00  0.00     0.049 A 
ATOM     68  C   UNL A   1      43.204  25.174  28.388  1.00  0.00     0.074 A 
ATOM     69  C   UNL A   1      43.477  27.415  33.295  1.00  0.00     0.029 A 
ATOM     70  N   UNL A   1      44.335  28.805  31.795  1.00  0.00    -0.354 N 
ATOM     71  N   UNL A   1      44.095  26.078  28.122  1.00  0.00    -0.248 NA
ATOM     72  C   UNL A   1      43.515  24.271  29.488  1.00  0.00     0.031 C 
ATOM     73  C   UNL A   1      43.675  26.726  32.084  1.00  0.00     0.029 A 
ATOM     74  C   UNL A   1      44.335  27.566  31.198  1.00  0.00     0.049 A 
ATOM     75  H   UNL A   1      44.813  29.601  31.467  1.00  0.00     0.167 HD
ATOM     76  C   UNL A   1      44.751  26.199  29.305  1.00  0.00     0.074 A 
ATOM     77  C   UNL A   1      44.559  24.930  29.992  1.00  0.00     0.031 C 
ATOM     78  C   UNL A   1      44.778  27.445  29.836  1.00  0.00     0.037 A 
BRANCH  65  79
ATOM     79  C   UNL A   1      42.988  31.273  32.704  1.00  0.00     0.058 A 
ATOM     80  C   UNL A   1      43.372  32.246  33.631  1.00  0.00     0.135 A 
ATOM     81  C   UNL A   1      42.836  31.690  31.360  1.00  0.00     0.135 A 
ATOM     82  F   UNL A   1      43.569  31.909  34.917  1.00  0.00    -0.206 F 
ATOM     83  C   UNL A   1      43.568  33.572  33.255  1.00  0.00     0.059 A 
ATOM     84  C   UNL A   1      42.968  33.020  30.973  1.00  0.00     0.059 A 
ATOM     85  F   UNL A   1      42.592  30.798  30.385  1.00  0.00    -0.206 F 
ATOM     86  C   UNL A   1      43.346  33.954  31.929  1.00  0.00     0.060 A 
BRANCH  86  87
ATOM     87  S   UNL A   1      43.587  35.683  31.476  1.00  0.00     0.124 S 
ATOM     88  O   UNL A   1      42.776  35.803  30.266  1.00  0.00    -0.237 OA
ATOM     89  O   UNL A   1      43.056  36.369  32.650  1.00  0.00    -0.237 OA
ATOM     90  O   UNL A   1      45.025  35.791  31.261  1.00  0.00    -0.744 OA
ENDBRANCH  86  87
ENDBRANCH  65  79
BRANCH  66  91
ATOM     91  C   UNL A   1      42.356  23.791  26.528  1.00  0.00     0.058 A 
ATOM     92  C   UNL A   1      43.387  23.917  25.509  1.00  0.00     0.135 A 
ATOM     93  C   UNL A   1      42.066  22.438  26.783  1.00  0.00     0.135 A 
ATOM     94  F   UNL A   1      43.786  25.120  25.069  1.00  0.00    -0.206 F 
ATOM     95  C   UNL A   1      44.128  22.847  24.933  1.00  0.00     0.059 A 
ATOM     96  C   UNL A   1      42.782  21.337  26.188  1.00  0.00     0.059 A 
ATOM     97  F   UNL A   1      41.128  22.123  27.686  1.00  0.00    -0.206 F 
ATOM     98  C   UNL A   1      43.846  21.548  25.307  1.00  0.00     0.060 A 
BRANCH  98  99
ATOM     99  S   UNL A   1      44.959  20.193  24.759  1.00  0.00     0.124 S 
ATOM    100  O   UNL A   1      44.647  20.065  23.339  1.00  0.00    -0.237 OA
ATOM    101  O   UNL A   1      46.285  20.728  25.063  1.00  0.00    -0.237 OA
ATOM    102  O   UNL A   1      44.552  19.064  25.589  1.00  0.00    -0.744 OA
ENDBRANCH  98  99
ENDBRANCH  66  91
BRANCH  78 103
ATOM    103  C   UNL A   1      45.099  28.594  28.905  1.00  0.00     0.058 A 
ATOM    104  C   UNL A   1      46.385  29.081  28.581  1.00  0.00     0.135 A 
ATOM    105  C   UNL A   1      44.015  29.298  28.359  1.00  0.00     0.135 A 
ATOM    106  F   UNL A   1      47.499  28.439  28.963  1.00  0.00    -0.206 F 
ATOM    107  C   UNL A   1      46.571  30.248  27.834  1.00  0.00     0.059 A 
ATOM    108  C   UNL A   1      44.177  30.436  27.571  1.00  0.00     0.059 A 
ATOM    109  F   UNL A   1      42.763  28.870  28.589  1.00  0.00    -0.206 F 
ATOM    110  C   UNL A   1      45.460  30.928  27.346  1.00  0.00     0.060 A 
BRANCH 110 111
ATOM    111  S   UNL A   1      45.705  32.452  26.409  1.00  0.00     0.124 S 
ATOM    112  O   UNL A   1      45.182  33.458  27.331  1.00  0.00    -0.237 OA
ATOM    113  O   UNL A   1      47.149  32.477  26.209  1.00  0.00    -0.237 OA
ATOM    114  O   UNL A   1      44.903  32.243  25.208  1.00  0.00    -0.744 OA
ENDBRANCH 110 111
ENDBRANCH  78 103
ENDBRANCH  52  53
ENDBRANCH  44  47
ENDBRANCH  42  43
ENDBRANCH  41  42
ENDBRANCH  40  41
ENDBRANCH  39  40
ENDBRANCH   1  39
TORSDOF 24
ENDMDL
MODEL 2
REMARK VINA RESULT:     -11.5      4.201     10.151
REMARK SMILES Cc1c(CC(=O)N[C@H](CO)C(=O)NCCCCCCNC(=O)c2ccc(-c3c4nc(c(-c5c(F)cc(S(=O)(=O)[O-])cc5F)c5ccc([nH]5)c(-c5c(F)cc(S(=O)(=O)[O-])cc5F)c5nc(c(-c6c(F)cc(S(=O)(=O)[O-])cc6F)c6ccc3[nH]6)C=C5)C=C4)cc2)cc(-c2ccc(S(C)(=O)=O)cc2)n1-c1ccc(F)cc1
REMARK SMILES IDX 15 1 14 2 13 3 11 4 12 5 8 7 7 8 5 9 6 10 4 12 3 13 1 14
REMARK SMILES IDX 2 15 101 16 89 17 90 18 102 19 103 20 108 21 104 22 107 23
REMARK SMILES IDX 105 24 106 25 91 26 92 27 100 28 93 29 99 30 94 31 95 32
REMARK SMILES IDX 96 33 97 34 98 35 9 36 10 37 16 39 17 40 18 41 19 42 20 43
REMARK SMILES IDX 21 44 22 46 23 47 24 48 88 49 25 50 87 51 26 52 27 53 28 54
REMARK SMILES IDX 81 55 29 56 86 57 80 58 82 59 30 60 85 61 79 62 78 63 31 65
REMARK SMILES IDX 65 66 44 67 64 68 45 69 48 70 63 71 83 72 46 73 47 74 62 76
REMARK SMILES IDX 84 77 49 78 32 79 33 80 42 81 34 82 35 83 41 84 43 85 36 86
REMARK SMILES IDX 37 87 38 88 39 89 40 90 66 91 67 92 76 93 68 94 69 95 75 96
REMARK SMILES IDX 77 97 70 98 71 99 72 100 73 101 74 102 50 103 51 104 60 105
REMARK SMILES IDX 52 106 53 107 59 108 61 109 54 110 55 111 56 112 57 113
REMARK SMILES IDX 58 114
REMARK H PARENT 13 6 7 11 10 38 20 45 82 64 48 75
REMARK Flexibility Score: inf
ROOT
ATOM      1  C   UNL A   1      37.218  22.550  25.752  1.00  0.00     0.021 C 
ENDROOT
BRANCH   1   2
ATOM      2  C   UNL A   1      36.264  21.595  25.040  1.00  0.00     0.116 C 
BRANCH   2   3
ATOM      3  N   UNL A   1      35.352  22.316  24.168  1.00  0.00    -0.354 N 
ATOM      4  C   UNL A   1      34.009  22.151  23.969  1.00  0.00     0.244 C 
ATOM      5  O   UNL A   1      33.491  22.743  23.018  1.00  0.00    -0.273 OA
ATOM      6  H   UNL A   1      35.765  23.036  23.640  1.00  0.00     0.163 HD
BRANCH   4   7
ATOM      7  C   UNL A   1      33.188  21.183  24.844  1.00  0.00     0.197 C 
BRANCH   7   8
ATOM      8  N   UNL A   1      33.341  21.575  26.250  1.00  0.00    -0.342 N 
ATOM      9  C   UNL A   1      32.548  22.336  27.049  1.00  0.00     0.225 C 
ATOM     10  O   UNL A   1      32.917  22.500  28.216  1.00  0.00    -0.275 OA
ATOM     11  H   UNL A   1      34.152  21.230  26.687  1.00  0.00     0.164 HD
BRANCH   9  12
ATOM     12  C   UNL A   1      31.273  22.972  26.524  1.00  0.00     0.137 C 
BRANCH  12  13
ATOM     13  C   UNL A   1      31.473  24.396  26.104  1.00  0.00    -0.017 A 
ATOM     14  C   UNL A   1      30.428  24.328  23.738  1.00  0.00     0.065 C 
ATOM     15  C   UNL A   1      31.056  24.995  24.922  1.00  0.00     0.024 A 
ATOM     16  N   UNL A   1      31.411  26.338  24.968  1.00  0.00    -0.314 N 
ATOM     17  C   UNL A   1      32.174  25.383  26.841  1.00  0.00     0.033 A 
ATOM     18  C   UNL A   1      32.126  26.575  26.142  1.00  0.00     0.053 A 
BRANCH  16  19
ATOM     19  C   UNL A   1      31.102  27.314  23.984  1.00  0.00     0.046 A 
ATOM     20  C   UNL A   1      32.130  27.865  23.209  1.00  0.00     0.029 A 
ATOM     21  C   UNL A   1      29.781  27.758  23.847  1.00  0.00     0.029 A 
ATOM     22  C   UNL A   1      31.830  28.871  22.291  1.00  0.00     0.041 A 
ATOM     23  C   UNL A   1      29.493  28.775  22.938  1.00  0.00     0.041 A 
ATOM     24  C   UNL A   1      30.519  29.320  22.169  1.00  0.00     0.123 A 
ATOM     25  F   UNL A   1      30.240  30.301  21.302  1.00  0.00    -0.207 F 
ENDBRANCH  16  19
BRANCH  18  26
ATOM     26  C   UNL A   1      32.645  27.879  26.570  1.00  0.00    -0.001 A 
ATOM     27  C   UNL A   1      34.013  28.067  26.818  1.00  0.00     0.011 A 
ATOM     28  C   UNL A   1      31.766  28.957  26.735  1.00  0.00     0.011 A 
ATOM     29  C   UNL A   1      34.491  29.300  27.271  1.00  0.00     0.021 A 
ATOM     30  C   UNL A   1      32.236  30.192  27.187  1.00  0.00     0.021 A 
ATOM     31  C   UNL A   1      33.593  30.352  27.468  1.00  0.00     0.067 A 
BRANCH  31  32
ATOM     32  S   UNL A   1      34.215  31.916  28.036  1.00  0.00     0.175 S 
ATOM     33  C   UNL A   1      35.928  31.896  27.578  1.00  0.00     0.163 C 
ATOM     34  O   UNL A   1      33.553  32.944  27.286  1.00  0.00    -0.224 OA
ATOM     35  O   UNL A   1      34.170  31.901  29.500  1.00  0.00    -0.224 OA
ENDBRANCH  31  32
ENDBRANCH  18  26
ENDBRANCH  12  13
ENDBRANCH   9  12
ENDBRANCH   7   8
BRANCH   7  36
ATOM     36  C   UNL A   1      33.556  19.727  24.490  1.00  0.00     0.191 C 
BRANCH  36  37
ATOM     37  O   UNL A   1      32.589  19.060  23.681  1.00  0.00    -0.394 OA
ATOM     38  H   UNL A   1      32.801  18.115  23.639  1.00  0.00     0.210 HD
ENDBRANCH  36  37
ENDBRANCH   7  36
ENDBRANCH   4   7
ENDBRANCH   2   3
ENDBRANCH   1   2
BRANCH   1  39
ATOM     39  C   UNL A   1      38.672  22.073  25.773  1.00  0.00     0.002 C 
BRANCH  39  40
ATOM     40  C   UNL A   1      38.863  20.552  25.721  1.00  0.00     0.002 C 
BRANCH  40  41
ATOM     41  C   UNL A   1      40.189  19.989  26.279  1.00  0.00     0.021 C 
BRANCH  41  42
ATOM     42  C   UNL A   1      41.320  20.990  26.628  1.00  0.00     0.116 C 
BRANCH  42  43
ATOM     43  N   UNL A   1      42.424  20.999  25.697  1.00  0.00    -0.352 N 
ATOM     44  C   UNL A   1      43.438  21.932  25.523  1.00  0.00     0.251 C 
ATOM     45  H   UNL A   1      42.463  20.224  25.091  1.00  0.00     0.163 HD
ATOM     46  O   UNL A   1      44.217  21.708  24.594  1.00  0.00    -0.269 OA
BRANCH  44  47
ATOM     47  C   UNL A   1      43.530  23.254  26.278  1.00  0.00     0.039 A 
ATOM     48  C   UNL A   1      42.826  23.330  27.462  1.00  0.00     0.014 A 
ATOM     49  C   UNL A   1      44.039  24.492  25.829  1.00  0.00     0.014 A 
ATOM     50  C   UNL A   1      42.728  24.562  28.197  1.00  0.00     0.010 A 
ATOM     51  C   UNL A   1      43.836  25.790  26.553  1.00  0.00     0.010 A 
ATOM     52  C   UNL A   1      43.160  25.891  27.789  1.00  0.00    -0.014 A 
BRANCH  52  53
ATOM     53  C   UNL A   1      42.433  27.210  28.611  1.00  0.00     0.031 A 
ATOM     54  C   UNL A   1      43.663  27.984  28.957  1.00  0.00     0.074 A 
ATOM     55  C   UNL A   1      41.280  27.790  29.219  1.00  0.00     0.049 A 
ATOM     56  N   UNL A   1      44.574  27.370  29.660  1.00  0.00    -0.248 NA
ATOM     57  C   UNL A   1      44.157  29.142  28.207  1.00  0.00     0.031 C 
ATOM     58  C   UNL A   1      39.950  27.187  29.460  1.00  0.00     0.029 A 
ATOM     59  N   UNL A   1      41.003  29.106  29.819  1.00  0.00    -0.354 N 
ATOM     60  C   UNL A   1      45.668  28.185  29.703  1.00  0.00     0.074 A 
ATOM     61  C   UNL A   1      45.438  29.130  28.610  1.00  0.00     0.031 C 
ATOM     62  C   UNL A   1      39.024  28.086  29.937  1.00  0.00     0.029 A 
ATOM     63  C   UNL A   1      39.594  29.423  30.155  1.00  0.00     0.049 A 
ATOM     64  H   UNL A   1      41.726  29.751  29.990  1.00  0.00     0.167 HD
ATOM     65  C   UNL A   1      46.122  28.432  30.964  1.00  0.00     0.037 A 
ATOM     66  C   UNL A   1      38.963  30.590  30.678  1.00  0.00     0.037 A 
ATOM     67  C   UNL A   1      45.579  29.663  31.476  1.00  0.00     0.049 A 
ATOM     68  C   UNL A   1      39.990  31.180  31.543  1.00  0.00     0.074 A 
ATOM     69  C   UNL A   1      45.344  30.892  30.886  1.00  0.00     0.029 A 
ATOM     70  N   UNL A   1      44.730  29.573  32.559  1.00  0.00    -0.354 N 
ATOM     71  N   UNL A   1      40.286  30.677  32.701  1.00  0.00    -0.248 NA
ATOM     72  C   UNL A   1      40.662  32.425  31.195  1.00  0.00     0.031 C 
ATOM     73  C   UNL A   1      44.016  31.187  31.245  1.00  0.00     0.029 A 
ATOM     74  C   UNL A   1      43.689  30.453  32.377  1.00  0.00     0.049 A 
ATOM     75  H   UNL A   1      44.850  28.977  33.334  1.00  0.00     0.167 HD
ATOM     76  C   UNL A   1      41.513  31.206  32.946  1.00  0.00     0.074 A 
ATOM     77  C   UNL A   1      41.573  32.435  32.169  1.00  0.00     0.031 C 
ATOM     78  C   UNL A   1      42.503  30.310  33.176  1.00  0.00     0.037 A 
BRANCH  65  79
ATOM     79  C   UNL A   1      46.306  27.190  31.805  1.00  0.00     0.058 A 
ATOM     80  C   UNL A   1      45.172  26.541  32.300  1.00  0.00     0.135 A 
ATOM     81  C   UNL A   1      47.565  26.665  32.183  1.00  0.00     0.135 A 
ATOM     82  F   UNL A   1      43.946  26.966  31.949  1.00  0.00    -0.206 F 
ATOM     83  C   UNL A   1      45.275  25.443  33.151  1.00  0.00     0.059 A 
ATOM     84  C   UNL A   1      47.692  25.608  33.079  1.00  0.00     0.059 A 
ATOM     85  F   UNL A   1      48.701  27.150  31.655  1.00  0.00    -0.206 F 
ATOM     86  C   UNL A   1      46.537  24.996  33.550  1.00  0.00     0.060 A 
BRANCH  86  87
ATOM     87  S   UNL A   1      46.639  23.586  34.671  1.00  0.00     0.124 S 
ATOM     88  O   UNL A   1      46.184  24.162  35.935  1.00  0.00    -0.237 OA
ATOM     89  O   UNL A   1      45.712  22.649  34.046  1.00  0.00    -0.237 OA
ATOM     90  O   UNL A   1      48.049  23.217  34.640  1.00  0.00    -0.744 OA
ENDBRANCH  86  87
ENDBRANCH  65  79
BRANCH  66  91
ATOM     91  C   UNL A   1      37.608  31.449  30.963  1.00  0.00     0.058 A 
ATOM     92  C   UNL A   1      36.674  31.101  32.025  1.00  0.00     0.135 A 
ATOM     93  C   UNL A   1      37.436  32.789  30.565  1.00  0.00     0.135 A 
ATOM     94  F   UNL A   1      36.623  29.857  32.523  1.00  0.00    -0.206 F 
ATOM     95  C   UNL A   1      35.799  32.000  32.695  1.00  0.00     0.059 A 
ATOM     96  C   UNL A   1      36.533  33.708  31.210  1.00  0.00     0.059 A 
ATOM     97  F   UNL A   1      38.200  33.288  29.585  1.00  0.00    -0.206 F 
ATOM     98  C   UNL A   1      35.757  33.324  32.307  1.00  0.00     0.060 A 
BRANCH  98  99
ATOM     99  S   UNL A   1      34.820  34.531  33.327  1.00  0.00     0.124 S 
ATOM    100  O   UNL A   1      33.449  34.364  32.858  1.00  0.00    -0.237 OA
ATOM    101  O   UNL A   1      35.077  34.065  34.688  1.00  0.00    -0.237 OA
ATOM    102  O   UNL A   1      35.440  35.810  32.993  1.00  0.00    -0.744 OA
ENDBRANCH  98  99
ENDBRANCH  66  91
BRANCH  78 103
ATOM    103  C   UNL A   1      42.200  29.159  34.111  1.00  0.00     0.058 A 
ATOM    104  C   UNL A   1      42.370  29.147  35.514  1.00  0.00     0.135 A 
ATOM    105  C   UNL A   1      41.772  27.956  33.529  1.00  0.00     0.135 A 
ATOM    106  F   UNL A   1      42.682  30.259  36.196  1.00  0.00    -0.206 F 
ATOM    107  C   UNL A   1      42.211  27.983  36.271  1.00  0.00     0.059 A 
ATOM    108  C   UNL A   1      41.560  26.795  34.270  1.00  0.00     0.059 A 
ATOM    109  F   UNL A   1      41.549  27.903  32.205  1.00  0.00    -0.206 F 
ATOM    110  C   UNL A   1      41.820  26.807  35.637  1.00  0.00     0.060 A 
BRANCH 110 111
ATOM    111  S   UNL A   1      41.647  25.299  36.615  1.00  0.00     0.124 S 
ATOM    112  O   UNL A   1      40.427  25.571  37.373  1.00  0.00    -0.237 OA
ATOM    113  O   UNL A   1      41.532  24.265  35.594  1.00  0.00    -0.237 OA
ATOM    114  O   UNL A   1      42.870  25.269  37.411  1.00  0.00    -0.744 OA
ENDBRANCH 110 111
ENDBRANCH  78 103
ENDBRANCH  52  53
ENDBRANCH  44  47
ENDBRANCH  42  43
ENDBRANCH  41  42
ENDBRANCH  40  41
ENDBRANCH  39  40
ENDBRANCH   1  39
TORSDOF 24
ENDMDL
MODEL 3
REMARK VINA RESULT:     -11.0      4.165      9.906
REMARK SMILES Cc1c(CC(=O)N[C@H](CO)C(=O)NCCCCCCNC(=O)c2ccc(-c3c4nc(c(-c5c(F)cc(S(=O)(=O)[O-])cc5F)c5ccc([nH]5)c(-c5c(F)cc(S(=O)(=O)[O-])cc5F)c5nc(c(-c6c(F)cc(S(=O)(=O)[O-])cc6F)c6ccc3[nH]6)C=C5)C=C4)cc2)cc(-c2ccc(S(C)(=O)=O)cc2)n1-c1ccc(F)cc1
REMARK SMILES IDX 15 1 14 2 13 3 11 4 12 5 8 7 7 8 5 9 6 10 4 12 3 13 1 14
REMARK SMILES IDX 2 15 101 16 89 17 90 18 102 19 103 20 108 21 104 22 107 23
REMARK SMILES IDX 105 24 106 25 91 26 92 27 100 28 93 29 99 30 94 31 95 32
REMARK SMILES IDX 96 33 97 34 98 35 9 36 10 37 16 39 17 40 18 41 19 42 20 43
REMARK SMILES IDX 21 44 22 46 23 47 24 48 88 49 25 50 87 51 26 52 27 53 28 54
REMARK SMILES IDX 81 55 29 56 86 57 80 58 82 59 30 60 85 61 79 62 78 63 31 65
REMARK SMILES IDX 65 66 44 67 64 68 45 69 48 70 63 71 83 72 46 73 47 74 62 76
REMARK SMILES IDX 84 77 49 78 32 79 33 80 42 81 34 82 35 83 41 84 43 85 36 86
REMARK SMILES IDX 37 87 38 88 39 89 40 90 66 91 67 92 76 93 68 94 69 95 75 96
REMARK SMILES IDX 77 97 70 98 71 99 72 100 73 101 74 102 50 103 51 104 60 105
REMARK SMILES IDX 52 106 53 107 59 108 61 109 54 110 55 111 56 112 57 113
REMARK SMILES IDX 58 114
REMARK H PARENT 13 6 7 11 10 38 20 45 82 64 48 75
REMARK Flexibility Score: inf
ROOT
ATOM      1  C   UNL A   1      36.284  23.750  25.824  1.00  0.00     0.021 C 
ENDROOT
BRANCH   1   2
ATOM      2  C   UNL A   1      36.051  22.471  25.024  1.00  0.00     0.116 C 
BRANCH   2   3
ATOM      3  N   UNL A   1      34.931  22.620  24.110  1.00  0.00    -0.354 N 
ATOM      4  C   UNL A   1      33.794  21.870  23.981  1.00  0.00     0.244 C 
ATOM      5  O   UNL A   1      33.087  22.065  22.989  1.00  0.00    -0.273 OA
ATOM      6  H   UNL A   1      35.001  23.379  23.488  1.00  0.00     0.163 HD
BRANCH   4   7
ATOM      7  C   UNL A   1      33.458  20.756  24.991  1.00  0.00     0.197 C 
BRANCH   7   8
ATOM      8  N   UNL A   1      33.359  21.347  26.329  1.00  0.00    -0.342 N 
ATOM      9  C   UNL A   1      32.457  22.221  26.847  1.00  0.00     0.225 C 
ATOM     10  O   UNL A   1      32.607  22.551  28.028  1.00  0.00    -0.275 OA
ATOM     11  H   UNL A   1      34.062  21.064  26.957  1.00  0.00     0.164 HD
BRANCH   9  12
ATOM     12  C   UNL A   1      31.325  22.782  26.006  1.00  0.00     0.137 C 
BRANCH  12  13
ATOM     13  C   UNL A   1      31.497  24.240  25.711  1.00  0.00    -0.017 A 
ATOM     14  C   UNL A   1      30.385  24.373  23.379  1.00  0.00     0.065 C 
ATOM     15  C   UNL A   1      31.040  24.939  24.601  1.00  0.00     0.024 A 
ATOM     16  N   UNL A   1      31.382  26.277  24.758  1.00  0.00    -0.314 N 
ATOM     17  C   UNL A   1      32.208  25.167  26.515  1.00  0.00     0.033 A 
ATOM     18  C   UNL A   1      32.127  26.416  25.929  1.00  0.00     0.053 A 
BRANCH  16  19
ATOM     19  C   UNL A   1      31.034  27.333  23.876  1.00  0.00     0.046 A 
ATOM     20  C   UNL A   1      32.036  27.985  23.147  1.00  0.00     0.029 A 
ATOM     21  C   UNL A   1      29.700  27.752  23.797  1.00  0.00     0.029 A 
ATOM     22  C   UNL A   1      31.698  29.065  22.333  1.00  0.00     0.041 A 
ATOM     23  C   UNL A   1      29.373  28.843  22.993  1.00  0.00     0.041 A 
ATOM     24  C   UNL A   1      30.374  29.487  22.269  1.00  0.00     0.123 A 
ATOM     25  F   UNL A   1      30.057  30.538  21.503  1.00  0.00    -0.207 F 
ENDBRANCH  16  19
BRANCH  18  26
ATOM     26  C   UNL A   1      32.644  27.683  26.459  1.00  0.00    -0.001 A 
ATOM     27  C   UNL A   1      31.773  28.704  26.869  1.00  0.00     0.011 A 
ATOM     28  C   UNL A   1      34.027  27.882  26.560  1.00  0.00     0.011 A 
ATOM     29  C   UNL A   1      32.274  29.925  27.329  1.00  0.00     0.021 A 
ATOM     30  C   UNL A   1      34.536  29.100  27.019  1.00  0.00     0.021 A 
ATOM     31  C   UNL A   1      33.657  30.120  27.385  1.00  0.00     0.067 A 
BRANCH  31  32
ATOM     32  S   UNL A   1      34.281  31.673  27.979  1.00  0.00     0.175 S 
ATOM     33  C   UNL A   1      33.056  32.854  27.482  1.00  0.00     0.163 C 
ATOM     34  O   UNL A   1      34.302  31.611  29.413  1.00  0.00    -0.224 OA
ATOM     35  O   UNL A   1      35.495  31.978  27.218  1.00  0.00    -0.224 OA
ENDBRANCH  31  32
ENDBRANCH  18  26
ENDBRANCH  12  13
ENDBRANCH   9  12
ENDBRANCH   7   8
BRANCH   7  36
ATOM     36  C   UNL A   1      34.454  19.589  24.824  1.00  0.00     0.191 C 
BRANCH  36  37
ATOM     37  O   UNL A   1      33.840  18.329  24.559  1.00  0.00    -0.394 OA
ATOM     38  H   UNL A   1      33.189  18.136  25.252  1.00  0.00     0.210 HD
ENDBRANCH  36  37
ENDBRANCH   7  36
ENDBRANCH   4   7
ENDBRANCH   2   3
ENDBRANCH   1   2
BRANCH   1  39
ATOM     39  C   UNL A   1      37.761  24.093  26.029  1.00  0.00     0.002 C 
BRANCH  39  40
ATOM     40  C   UNL A   1      38.669  22.904  26.369  1.00  0.00     0.002 C 
BRANCH  40  41
ATOM     41  C   UNL A   1      40.024  23.222  27.040  1.00  0.00     0.021 C 
BRANCH  41  42
ATOM     42  C   UNL A   1      40.777  22.071  27.752  1.00  0.00     0.116 C 
BRANCH  42  43
ATOM     43  N   UNL A   1      41.972  21.623  27.077  1.00  0.00    -0.352 N 
ATOM     44  C   UNL A   1      43.119  22.326  26.733  1.00  0.00     0.251 C 
ATOM     45  H   UNL A   1      41.973  20.672  26.820  1.00  0.00     0.163 HD
ATOM     46  O   UNL A   1      43.963  21.692  26.093  1.00  0.00    -0.269 OA
BRANCH  44  47
ATOM     47  C   UNL A   1      43.306  23.824  26.942  1.00  0.00     0.039 A 
ATOM     48  C   UNL A   1      43.245  24.271  28.246  1.00  0.00     0.014 A 
ATOM     49  C   UNL A   1      43.300  24.856  25.979  1.00  0.00     0.014 A 
ATOM     50  C   UNL A   1      43.275  25.673  28.560  1.00  0.00     0.010 A 
ATOM     51  C   UNL A   1      43.223  26.315  26.319  1.00  0.00     0.010 A 
ATOM     52  C   UNL A   1      43.205  26.803  27.644  1.00  0.00    -0.014 A 
BRANCH  52  53
ATOM     53  C   UNL A   1      42.718  28.301  28.326  1.00  0.00     0.031 A 
ATOM     54  C   UNL A   1      43.952  29.099  28.054  1.00  0.00     0.074 A 
ATOM     55  C   UNL A   1      41.798  29.043  29.125  1.00  0.00     0.049 A 
ATOM     56  N   UNL A   1      45.073  28.645  28.541  1.00  0.00    -0.248 NA
ATOM     57  C   UNL A   1      44.112  30.028  26.932  1.00  0.00     0.031 C 
ATOM     58  C   UNL A   1      40.654  28.554  29.926  1.00  0.00     0.029 A 
ATOM     59  N   UNL A   1      41.664  30.471  29.455  1.00  0.00    -0.354 N 
ATOM     60  C   UNL A   1      46.077  29.414  28.027  1.00  0.00     0.074 A 
ATOM     61  C   UNL A   1      45.453  30.076  26.882  1.00  0.00     0.031 C 
ATOM     62  C   UNL A   1      39.889  29.567  30.456  1.00  0.00     0.029 A 
ATOM     63  C   UNL A   1      40.428  30.901  30.152  1.00  0.00     0.049 A 
ATOM     64  H   UNL A   1      42.369  31.117  29.221  1.00  0.00     0.167 HD
ATOM     65  C   UNL A   1      46.904  29.942  28.972  1.00  0.00     0.037 A 
ATOM     66  C   UNL A   1      39.943  32.177  30.564  1.00  0.00     0.037 A 
ATOM     67  C   UNL A   1      46.495  31.276  29.329  1.00  0.00     0.049 A 
ATOM     68  C   UNL A   1      41.164  32.927  30.877  1.00  0.00     0.074 A 
ATOM     69  C   UNL A   1      46.016  32.334  28.578  1.00  0.00     0.029 A 
ATOM     70  N   UNL A   1      46.053  31.472  30.621  1.00  0.00    -0.354 N 
ATOM     71  N   UNL A   1      41.848  32.707  31.957  1.00  0.00    -0.248 NA
ATOM     72  C   UNL A   1      41.619  34.032  30.044  1.00  0.00     0.031 C 
ATOM     73  C   UNL A   1      44.865  32.745  29.275  1.00  0.00     0.029 A 
ATOM     74  C   UNL A   1      44.965  32.313  30.591  1.00  0.00     0.049 A 
ATOM     75  H   UNL A   1      46.450  31.076  31.430  1.00  0.00     0.167 HD
ATOM     76  C   UNL A   1      43.058  33.243  31.651  1.00  0.00     0.074 A 
ATOM     77  C   UNL A   1      42.796  34.249  30.632  1.00  0.00     0.031 C 
ATOM     78  C   UNL A   1      44.114  32.400  31.746  1.00  0.00     0.037 A 
BRANCH  65  79
ATOM     79  C   UNL A   1      47.418  28.933  29.972  1.00  0.00     0.058 A 
ATOM     80  C   UNL A   1      48.775  28.598  29.950  1.00  0.00     0.135 A 
ATOM     81  C   UNL A   1      46.600  28.247  30.901  1.00  0.00     0.135 A 
ATOM     82  F   UNL A   1      49.613  29.238  29.117  1.00  0.00    -0.206 F 
ATOM     83  C   UNL A   1      49.294  27.613  30.787  1.00  0.00     0.059 A 
ATOM     84  C   UNL A   1      47.085  27.218  31.702  1.00  0.00     0.059 A 
ATOM     85  F   UNL A   1      45.314  28.592  31.075  1.00  0.00    -0.206 F 
ATOM     86  C   UNL A   1      48.440  26.916  31.645  1.00  0.00     0.060 A 
BRANCH  86  87
ATOM     87  S   UNL A   1      49.138  25.630  32.700  1.00  0.00     0.124 S 
ATOM     88  O   UNL A   1      47.944  25.046  33.309  1.00  0.00    -0.237 OA
ATOM     89  O   UNL A   1      49.813  24.784  31.722  1.00  0.00    -0.237 OA
ATOM     90  O   UNL A   1      49.997  26.363  33.623  1.00  0.00    -0.744 OA
ENDBRANCH  86  87
ENDBRANCH  65  79
BRANCH  66  91
ATOM     91  C   UNL A   1      38.712  33.118  31.069  1.00  0.00     0.058 A 
ATOM     92  C   UNL A   1      37.736  33.684  30.148  1.00  0.00     0.135 A 
ATOM     93  C   UNL A   1      38.210  33.106  32.384  1.00  0.00     0.135 A 
ATOM     94  F   UNL A   1      38.021  33.843  28.847  1.00  0.00    -0.206 F 
ATOM     95  C   UNL A   1      36.399  34.047  30.468  1.00  0.00     0.059 A 
ATOM     96  C   UNL A   1      36.869  33.497  32.735  1.00  0.00     0.059 A 
ATOM     97  F   UNL A   1      38.975  32.632  33.376  1.00  0.00    -0.206 F 
ATOM     98  C   UNL A   1      35.951  33.915  31.768  1.00  0.00     0.060 A 
BRANCH  98  99
ATOM     99  S   UNL A   1      34.165  34.144  32.131  1.00  0.00     0.124 S 
ATOM    100  O   UNL A   1      33.623  34.586  30.851  1.00  0.00    -0.237 OA
ATOM    101  O   UNL A   1      33.753  32.808  32.558  1.00  0.00    -0.237 OA
ATOM    102  O   UNL A   1      34.161  35.150  33.189  1.00  0.00    -0.744 OA
ENDBRANCH  98  99
ENDBRANCH  66  91
BRANCH  78 103
ATOM    103  C   UNL A   1      44.195  31.516  32.972  1.00  0.00     0.058 A 
ATOM    104  C   UNL A   1      43.563  30.265  33.151  1.00  0.00     0.135 A 
ATOM    105  C   UNL A   1      44.909  32.013  34.073  1.00  0.00     0.135 A 
ATOM    106  F   UNL A   1      42.933  29.642  32.144  1.00  0.00    -0.206 F 
ATOM    107  C   UNL A   1      43.571  29.599  34.380  1.00  0.00     0.059 A 
ATOM    108  C   UNL A   1      44.970  31.343  35.294  1.00  0.00     0.059 A 
ATOM    109  F   UNL A   1      45.569  33.178  33.965  1.00  0.00    -0.206 F 
ATOM    110  C   UNL A   1      44.264  30.154  35.451  1.00  0.00     0.060 A 
BRANCH 110 111
ATOM    111  S   UNL A   1      44.244  29.305  37.045  1.00  0.00     0.124 S 
ATOM    112  O   UNL A   1      43.093  28.417  36.897  1.00  0.00    -0.237 OA
ATOM    113  O   UNL A   1      45.544  28.645  37.074  1.00  0.00    -0.237 OA
ATOM    114  O   UNL A   1      44.063  30.391  38.004  1.00  0.00    -0.744 OA
ENDBRANCH 110 111
ENDBRANCH  78 103
ENDBRANCH  52  53
ENDBRANCH  44  47
ENDBRANCH  42  43
ENDBRANCH  41  42
ENDBRANCH  40  41
ENDBRANCH  39  40
ENDBRANCH   1  39
TORSDOF 24
ENDMDL
