MODEL 1
REMARK VINA RESULT:     -11.0      0.000      0.000
REMARK SMILES O=C(CN(CC(F)(F)F)c1nc(-c2ccccc2)cs1)NCCCCCCNC(=O)c1ccc(-c2c3nc(c(-c4c(F)cc(S(=O)(=O)[O-])cc4F)c4ccc([nH]4)c(-c4c(F)cc(S(=O)(=O)[O-])cc4F)c4nc(c(-c5c(F)cc(S(=O)(=O)[O-])cc5F)c5ccc2[nH]5)C=C4)C=C3)cc1
REMARK SMILES IDX 24 1 23 2 22 3 21 4 1 5 2 6 3 8 4 9 5 10 6 11 7 12 8 13 9 14
REMARK SMILES IDX 10 15 11 16 20 17 12 18 19 19 13 20 14 21 18 22 15 23 17 24
REMARK SMILES IDX 16 25 25 26 26 27 27 28 28 29 29 30 30 32 31 33 32 34 96 35
REMARK SMILES IDX 33 36 95 37 34 38 35 39 36 40 89 41 37 42 94 43 88 44 90 45
REMARK SMILES IDX 38 46 93 47 87 48 86 49 39 51 73 52 52 53 72 54 53 55 56 56
REMARK SMILES IDX 71 57 91 58 54 59 55 60 70 62 92 63 57 64 40 65 41 66 50 67
REMARK SMILES IDX 42 68 43 69 49 70 51 71 44 72 45 73 46 74 47 75 48 76 74 77
REMARK SMILES IDX 75 78 84 79 76 80 77 81 83 82 85 83 78 84 79 85 80 86 81 87
REMARK SMILES IDX 82 88 58 89 59 90 68 91 60 92 61 93 67 94 69 95 62 96 63 97
REMARK SMILES IDX 64 98 65 99 66 100
REMARK H PARENT 21 7 28 31 90 50 56 61
REMARK Flexibility Score: inf
ROOT
ATOM      1  C   UNL A   1      35.317  21.803  25.690  1.00  0.00     0.002 C 
ENDROOT
BRANCH   1   2
ATOM      2  C   UNL A   1      34.161  21.889  24.684  1.00  0.00     0.021 C 
BRANCH   2   3
ATOM      3  C   UNL A   1      32.766  21.769  25.298  1.00  0.00     0.116 C 
BRANCH   3   4
ATOM      4  N   UNL A   1      31.854  22.779  24.807  1.00  0.00    -0.355 N 
ATOM      5  O   UNL A   1      32.224  24.293  26.494  1.00  0.00    -0.273 OA
ATOM      6  C   UNL A   1      31.695  24.002  25.423  1.00  0.00     0.239 C 
ATOM      7  H   UNL A   1      31.324  22.585  24.000  1.00  0.00     0.163 HD
BRANCH   6   8
ATOM      8  C   UNL A   1      30.677  24.939  24.752  1.00  0.00     0.219 C 
BRANCH   8   9
ATOM      9  N   UNL A   1      31.261  25.920  23.817  1.00  0.00    -0.330 N 
BRANCH   9  10
ATOM     10  C   UNL A   1      31.443  25.543  22.402  1.00  0.00     0.234 C 
BRANCH  10  11
ATOM     11  C   UNL A   1      32.876  25.352  21.876  1.00  0.00     0.406 C 
ATOM     12  F   UNL A   1      32.920  25.239  20.531  1.00  0.00    -0.169 F 
ATOM     13  F   UNL A   1      33.632  26.434  22.193  1.00  0.00    -0.169 F 
ATOM     14  F   UNL A   1      33.485  24.272  22.414  1.00  0.00    -0.169 F 
ENDBRANCH  10  11
ENDBRANCH   9  10
BRANCH   9  15
ATOM     15  C   UNL A   1      31.428  27.197  24.265  1.00  0.00     0.186 A 
ATOM     16  N   UNL A   1      32.307  27.515  25.188  1.00  0.00    -0.220 NA
ATOM     17  S   UNL A   1      30.471  28.530  23.724  1.00  0.00    -0.105 S 
ATOM     18  C   UNL A   1      32.243  28.864  25.490  1.00  0.00     0.083 A 
ATOM     19  C   UNL A   1      31.286  29.573  24.797  1.00  0.00     0.097 A 
BRANCH  18  20
ATOM     20  C   UNL A   1      33.161  29.497  26.421  1.00  0.00     0.001 A 
ATOM     21  C   UNL A   1      32.889  30.767  26.948  1.00  0.00     0.010 A 
ATOM     22  C   UNL A   1      34.359  28.856  26.758  1.00  0.00     0.010 A 
ATOM     23  C   UNL A   1      33.818  31.399  27.778  1.00  0.00     0.001 A 
ATOM     24  C   UNL A   1      35.290  29.494  27.579  1.00  0.00     0.001 A 
ATOM     25  C   UNL A   1      35.022  30.766  28.084  1.00  0.00     0.000 A 
ENDBRANCH  18  20
ENDBRANCH   9  15
ENDBRANCH   8   9
ENDBRANCH   6   8
ENDBRANCH   3   4
ENDBRANCH   2   3
ENDBRANCH   1   2
BRANCH   1  26
ATOM     26  C   UNL A   1      35.988  23.134  26.042  1.00  0.00     0.002 C 
BRANCH  26  27
ATOM     27  C   UNL A   1      37.431  23.295  25.560  1.00  0.00     0.021 C 
BRANCH  27  28
ATOM     28  C   UNL A   1      38.323  24.150  26.455  1.00  0.00     0.116 C 
BRANCH  28  29
ATOM     29  N   UNL A   1      39.740  23.922  26.211  1.00  0.00    -0.352 N 
ATOM     30  C   UNL A   1      40.828  24.637  26.648  1.00  0.00     0.251 C 
ATOM     31  H   UNL A   1      39.950  23.140  25.651  1.00  0.00     0.163 HD
ATOM     32  O   UNL A   1      41.945  24.389  26.193  1.00  0.00    -0.269 OA
BRANCH  30  33
ATOM     33  C   UNL A   1      40.660  25.719  27.644  1.00  0.00     0.039 A 
ATOM     34  C   UNL A   1      39.653  25.604  28.607  1.00  0.00     0.014 A 
ATOM     35  C   UNL A   1      41.489  26.844  27.632  1.00  0.00     0.014 A 
ATOM     36  C   UNL A   1      39.521  26.584  29.594  1.00  0.00     0.010 A 
ATOM     37  C   UNL A   1      41.405  27.779  28.662  1.00  0.00     0.010 A 
ATOM     38  C   UNL A   1      40.421  27.661  29.654  1.00  0.00    -0.014 A 
BRANCH  38  39
ATOM     39  C   UNL A   1      40.353  28.666  30.749  1.00  0.00     0.031 A 
ATOM     40  C   UNL A   1      41.257  28.547  31.947  1.00  0.00     0.074 A 
ATOM     41  C   UNL A   1      39.435  29.651  30.693  1.00  0.00     0.049 A 
ATOM     42  N   UNL A   1      41.309  29.293  33.021  1.00  0.00    -0.248 NA
ATOM     43  C   UNL A   1      42.210  27.426  31.951  1.00  0.00     0.031 C 
ATOM     44  C   UNL A   1      38.474  29.850  29.606  1.00  0.00     0.029 A 
ATOM     45  N   UNL A   1      39.153  30.667  31.572  1.00  0.00    -0.354 N 
ATOM     46  C   UNL A   1      42.287  28.727  33.832  1.00  0.00     0.074 A 
ATOM     47  C   UNL A   1      42.762  27.542  33.150  1.00  0.00     0.031 C 
ATOM     48  C   UNL A   1      37.732  30.940  29.867  1.00  0.00     0.029 A 
ATOM     49  C   UNL A   1      38.131  31.490  31.158  1.00  0.00     0.049 A 
ATOM     50  H   UNL A   1      39.638  30.795  32.420  1.00  0.00     0.167 HD
ATOM     51  C   UNL A   1      42.761  29.166  35.022  1.00  0.00     0.037 A 
ATOM     52  C   UNL A   1      37.573  32.563  31.753  1.00  0.00     0.037 A 
ATOM     53  C   UNL A   1      42.291  30.354  35.688  1.00  0.00     0.049 A 
ATOM     54  C   UNL A   1      38.099  33.016  33.089  1.00  0.00     0.074 A 
ATOM     55  C   UNL A   1      42.747  30.916  36.867  1.00  0.00     0.029 A 
ATOM     56  N   UNL A   1      41.253  31.159  35.239  1.00  0.00    -0.354 N 
ATOM     57  N   UNL A   1      39.074  32.511  33.808  1.00  0.00    -0.248 NA
ATOM     58  C   UNL A   1      37.451  34.187  33.695  1.00  0.00     0.031 C 
ATOM     59  C   UNL A   1      41.947  32.025  37.162  1.00  0.00     0.029 A 
ATOM     60  C   UNL A   1      41.033  32.193  36.133  1.00  0.00     0.049 A 
ATOM     61  H   UNL A   1      40.747  31.015  34.406  1.00  0.00     0.167 HD
ATOM     62  C   UNL A   1      39.178  33.323  34.932  1.00  0.00     0.074 A 
ATOM     63  C   UNL A   1      38.175  34.357  34.794  1.00  0.00     0.031 C 
ATOM     64  C   UNL A   1      40.033  33.223  35.981  1.00  0.00     0.037 A 
BRANCH  51  65
ATOM     65  C   UNL A   1      43.838  28.349  35.687  1.00  0.00     0.058 A 
ATOM     66  C   UNL A   1      45.202  28.572  35.434  1.00  0.00     0.135 A 
ATOM     67  C   UNL A   1      43.504  27.340  36.607  1.00  0.00     0.135 A 
ATOM     68  F   UNL A   1      45.582  29.515  34.556  1.00  0.00    -0.206 F 
ATOM     69  C   UNL A   1      46.192  27.798  36.032  1.00  0.00     0.059 A 
ATOM     70  C   UNL A   1      44.479  26.576  37.243  1.00  0.00     0.059 A 
ATOM     71  F   UNL A   1      42.218  27.084  36.892  1.00  0.00    -0.206 F 
ATOM     72  C   UNL A   1      45.820  26.799  36.932  1.00  0.00     0.060 A 
BRANCH  72  73
ATOM     73  S   UNL A   1      47.115  25.794  37.687  1.00  0.00     0.124 S 
ATOM     74  O   UNL A   1      46.507  25.453  38.970  1.00  0.00    -0.237 OA
ATOM     75  O   UNL A   1      47.249  24.693  36.738  1.00  0.00    -0.237 OA
ATOM     76  O   UNL A   1      48.256  26.702  37.755  1.00  0.00    -0.744 OA
ENDBRANCH  72  73
ENDBRANCH  51  65
BRANCH  52  77
ATOM     77  C   UNL A   1      36.474  33.304  31.076  1.00  0.00     0.058 A 
ATOM     78  C   UNL A   1      36.731  34.098  29.949  1.00  0.00     0.135 A 
ATOM     79  C   UNL A   1      35.148  33.228  31.532  1.00  0.00     0.135 A 
ATOM     80  F   UNL A   1      37.983  34.208  29.478  1.00  0.00    -0.206 F 
ATOM     81  C   UNL A   1      35.719  34.803  29.306  1.00  0.00     0.059 A 
ATOM     82  C   UNL A   1      34.114  33.901  30.890  1.00  0.00     0.059 A 
ATOM     83  F   UNL A   1      34.846  32.472  32.599  1.00  0.00    -0.206 F 
ATOM     84  C   UNL A   1      34.411  34.695  29.782  1.00  0.00     0.060 A 
BRANCH  84  85
ATOM     85  S   UNL A   1      33.099  35.576  28.909  1.00  0.00     0.124 S 
ATOM     86  O   UNL A   1      32.505  34.508  28.115  1.00  0.00    -0.237 OA
ATOM     87  O   UNL A   1      32.285  36.081  30.012  1.00  0.00    -0.237 OA
ATOM     88  O   UNL A   1      33.822  36.597  28.156  1.00  0.00    -0.744 OA
ENDBRANCH  84  85
ENDBRANCH  52  77
BRANCH  64  89
ATOM     89  C   UNL A   1      39.950  34.282  37.048  1.00  0.00     0.058 A 
ATOM     90  C   UNL A   1      40.681  35.478  36.966  1.00  0.00     0.135 A 
ATOM     91  C   UNL A   1      39.087  34.116  38.144  1.00  0.00     0.135 A 
ATOM     92  F   UNL A   1      41.526  35.686  35.945  1.00  0.00    -0.206 F 
ATOM     93  C   UNL A   1      40.578  36.461  37.947  1.00  0.00     0.059 A 
ATOM     94  C   UNL A   1      38.945  35.099  39.119  1.00  0.00     0.059 A 
ATOM     95  F   UNL A   1      38.358  32.996  38.268  1.00  0.00    -0.206 F 
ATOM     96  C   UNL A   1      39.704  36.264  39.018  1.00  0.00     0.060 A 
BRANCH  96  97
ATOM     97  S   UNL A   1      39.555  37.561  40.263  1.00  0.00     0.124 S 
ATOM     98  O   UNL A   1      39.623  36.790  41.501  1.00  0.00    -0.237 OA
ATOM     99  O   UNL A   1      40.712  38.403  39.976  1.00  0.00    -0.237 OA
ATOM    100  O   UNL A   1      38.259  38.167  39.971  1.00  0.00    -0.744 OA
ENDBRANCH  96  97
ENDBRANCH  64  89
ENDBRANCH  38  39
ENDBRANCH  30  33
ENDBRANCH  28  29
ENDBRANCH  27  28
ENDBRANCH  26  27
ENDBRANCH   1  26
TORSDOF 21
ENDMDL
MODEL 2
REMARK VINA RESULT:     -10.7      4.825      5.990
REMARK SMILES O=C(CN(CC(F)(F)F)c1nc(-c2ccccc2)cs1)NCCCCCCNC(=O)c1ccc(-c2c3nc(c(-c4c(F)cc(S(=O)(=O)[O-])cc4F)c4ccc([nH]4)c(-c4c(F)cc(S(=O)(=O)[O-])cc4F)c4nc(c(-c5c(F)cc(S(=O)(=O)[O-])cc5F)c5ccc2[nH]5)C=C4)C=C3)cc1
REMARK SMILES IDX 24 1 23 2 22 3 21 4 1 5 2 6 3 8 4 9 5 10 6 11 7 12 8 13 9 14
REMARK SMILES IDX 10 15 11 16 20 17 12 18 19 19 13 20 14 21 18 22 15 23 17 24
REMARK SMILES IDX 16 25 25 26 26 27 27 28 28 29 29 30 30 32 31 33 32 34 96 35
REMARK SMILES IDX 33 36 95 37 34 38 35 39 36 40 89 41 37 42 94 43 88 44 90 45
REMARK SMILES IDX 38 46 93 47 87 48 86 49 39 51 73 52 52 53 72 54 53 55 56 56
REMARK SMILES IDX 71 57 91 58 54 59 55 60 70 62 92 63 57 64 40 65 41 66 50 67
REMARK SMILES IDX 42 68 43 69 49 70 51 71 44 72 45 73 46 74 47 75 48 76 74 77
REMARK SMILES IDX 75 78 84 79 76 80 77 81 83 82 85 83 78 84 79 85 80 86 81 87
REMARK SMILES IDX 82 88 58 89 59 90 68 91 60 92 61 93 67 94 69 95 62 96 63 97
REMARK SMILES IDX 64 98 65 99 66 100
REMARK H PARENT 21 7 28 31 90 50 56 61
REMARK Flexibility Score: inf
ROOT
ATOM      1  C   UNL A   1      33.115  23.585  26.258  1.00  0.00     0.002 C 
ENDROOT
BRANCH   1   2
ATOM      2  C   UNL A   1      32.029  22.506  26.369  1.00  0.00     0.021 C 
BRANCH   2   3
ATOM      3  C   UNL A   1      30.595  23.035  26.362  1.00  0.00     0.116 C 
BRANCH   3   4
ATOM      4  N   UNL A   1      30.326  23.897  25.231  1.00  0.00    -0.355 N 
ATOM      5  O   UNL A   1      29.933  25.802  26.454  1.00  0.00    -0.273 OA
ATOM      6  C   UNL A   1      30.068  25.244  25.366  1.00  0.00     0.239 C 
ATOM      7  H   UNL A   1      30.327  23.505  24.328  1.00  0.00     0.163 HD
BRANCH   6   8
ATOM      8  C   UNL A   1      29.804  25.989  24.047  1.00  0.00     0.219 C 
BRANCH   8   9
ATOM      9  N   UNL A   1      30.948  26.769  23.537  1.00  0.00    -0.330 N 
BRANCH   9  10
ATOM     10  C   UNL A   1      31.588  26.361  22.270  1.00  0.00     0.234 C 
BRANCH  10  11
ATOM     11  C   UNL A   1      32.933  25.618  22.339  1.00  0.00     0.406 C 
ATOM     12  F   UNL A   1      33.976  26.412  22.011  1.00  0.00    -0.169 F 
ATOM     13  F   UNL A   1      33.161  25.193  23.608  1.00  0.00    -0.169 F 
ATOM     14  F   UNL A   1      32.963  24.527  21.544  1.00  0.00    -0.169 F 
ENDBRANCH  10  11
ENDBRANCH   9  10
BRANCH   9  15
ATOM     15  C   UNL A   1      31.239  27.946  24.160  1.00  0.00     0.186 A 
ATOM     16  N   UNL A   1      32.191  28.055  25.060  1.00  0.00    -0.220 NA
ATOM     17  S   UNL A   1      30.360  29.410  23.895  1.00  0.00    -0.105 S 
ATOM     18  C   UNL A   1      32.250  29.341  25.567  1.00  0.00     0.083 A 
ATOM     19  C   UNL A   1      31.313  30.213  25.056  1.00  0.00     0.097 A 
BRANCH  18  20
ATOM     20  C   UNL A   1      33.265  29.756  26.519  1.00  0.00     0.001 A 
ATOM     21  C   UNL A   1      33.219  31.024  27.113  1.00  0.00     0.010 A 
ATOM     22  C   UNL A   1      34.334  28.900  26.809  1.00  0.00     0.010 A 
ATOM     23  C   UNL A   1      34.244  31.442  27.964  1.00  0.00     0.001 A 
ATOM     24  C   UNL A   1      35.364  29.324  27.652  1.00  0.00     0.001 A 
ATOM     25  C   UNL A   1      35.321  30.595  28.224  1.00  0.00     0.000 A 
ENDBRANCH  18  20
ENDBRANCH   9  15
ENDBRANCH   8   9
ENDBRANCH   6   8
ENDBRANCH   3   4
ENDBRANCH   2   3
ENDBRANCH   1   2
BRANCH   1  26
ATOM     26  C   UNL A   1      34.550  23.107  26.502  1.00  0.00     0.002 C 
BRANCH  26  27
ATOM     27  C   UNL A   1      35.462  23.103  25.273  1.00  0.00     0.021 C 
BRANCH  27  28
ATOM     28  C   UNL A   1      36.862  23.664  25.503  1.00  0.00     0.116 C 
BRANCH  28  29
ATOM     29  N   UNL A   1      37.796  22.652  25.977  1.00  0.00    -0.352 N 
ATOM     30  C   UNL A   1      39.031  22.808  26.558  1.00  0.00     0.251 C 
ATOM     31  H   UNL A   1      37.500  21.721  25.865  1.00  0.00     0.163 HD
ATOM     32  O   UNL A   1      39.751  21.825  26.734  1.00  0.00    -0.269 OA
BRANCH  30  33
ATOM     33  C   UNL A   1      39.508  24.153  26.950  1.00  0.00     0.039 A 
ATOM     34  C   UNL A   1      39.356  24.566  28.276  1.00  0.00     0.014 A 
ATOM     35  C   UNL A   1      40.102  25.006  26.017  1.00  0.00     0.014 A 
ATOM     36  C   UNL A   1      39.858  25.807  28.679  1.00  0.00     0.010 A 
ATOM     37  C   UNL A   1      40.670  26.207  26.437  1.00  0.00     0.010 A 
ATOM     38  C   UNL A   1      40.554  26.622  27.772  1.00  0.00    -0.014 A 
BRANCH  38  39
ATOM     39  C   UNL A   1      41.173  27.904  28.202  1.00  0.00     0.031 A 
ATOM     40  C   UNL A   1      42.662  28.104  28.095  1.00  0.00     0.074 A 
ATOM     41  C   UNL A   1      40.403  28.868  28.745  1.00  0.00     0.049 A 
ATOM     42  N   UNL A   1      43.389  29.128  28.465  1.00  0.00    -0.248 NA
ATOM     43  C   UNL A   1      43.440  26.994  27.521  1.00  0.00     0.031 C 
ATOM     44  C   UNL A   1      38.954  28.780  28.941  1.00  0.00     0.029 A 
ATOM     45  N   UNL A   1      40.728  30.107  29.238  1.00  0.00    -0.354 N 
ATOM     46  C   UNL A   1      44.706  28.783  28.182  1.00  0.00     0.074 A 
ATOM     47  C   UNL A   1      44.684  27.432  27.662  1.00  0.00     0.031 C 
ATOM     48  C   UNL A   1      38.513  29.928  29.483  1.00  0.00     0.029 A 
ATOM     49  C   UNL A   1      39.648  30.814  29.715  1.00  0.00     0.049 A 
ATOM     50  H   UNL A   1      41.649  30.456  29.251  1.00  0.00     0.167 HD
ATOM     51  C   UNL A   1      45.827  29.530  28.320  1.00  0.00     0.037 A 
ATOM     52  C   UNL A   1      39.580  32.036  30.279  1.00  0.00     0.037 A 
ATOM     53  C   UNL A   1      45.839  30.879  28.827  1.00  0.00     0.049 A 
ATOM     54  C   UNL A   1      40.844  32.837  30.448  1.00  0.00     0.074 A 
ATOM     55  C   UNL A   1      46.914  31.741  28.951  1.00  0.00     0.029 A 
ATOM     56  N   UNL A   1      44.726  31.559  29.301  1.00  0.00    -0.354 N 
ATOM     57  N   UNL A   1      42.073  32.524  30.108  1.00  0.00    -0.248 NA
ATOM     58  C   UNL A   1      40.713  34.159  31.074  1.00  0.00     0.031 C 
ATOM     59  C   UNL A   1      46.463  32.920  29.554  1.00  0.00     0.029 A 
ATOM     60  C   UNL A   1      45.094  32.818  29.747  1.00  0.00     0.049 A 
ATOM     61  H   UNL A   1      43.809  31.200  29.317  1.00  0.00     0.167 HD
ATOM     62  C   UNL A   1      42.853  33.623  30.447  1.00  0.00     0.074 A 
ATOM     63  C   UNL A   1      41.958  34.612  31.010  1.00  0.00     0.031 C 
ATOM     64  C   UNL A   1      44.191  33.798  30.301  1.00  0.00     0.037 A 
BRANCH  51  65
ATOM     65  C   UNL A   1      47.138  28.898  27.929  1.00  0.00     0.058 A 
ATOM     66  C   UNL A   1      47.591  28.894  26.598  1.00  0.00     0.135 A 
ATOM     67  C   UNL A   1      47.964  28.306  28.899  1.00  0.00     0.135 A 
ATOM     68  F   UNL A   1      46.839  29.435  25.626  1.00  0.00    -0.206 F 
ATOM     69  C   UNL A   1      48.790  28.288  26.238  1.00  0.00     0.059 A 
ATOM     70  C   UNL A   1      49.184  27.724  28.566  1.00  0.00     0.059 A 
ATOM     71  F   UNL A   1      47.586  28.284  30.186  1.00  0.00    -0.206 F 
ATOM     72  C   UNL A   1      49.578  27.702  27.229  1.00  0.00     0.060 A 
BRANCH  72  73
ATOM     73  S   UNL A   1      51.124  26.905  26.742  1.00  0.00     0.124 S 
ATOM     74  O   UNL A   1      50.768  26.356  25.437  1.00  0.00    -0.237 OA
ATOM     75  O   UNL A   1      52.059  28.025  26.724  1.00  0.00    -0.237 OA
ATOM     76  O   UNL A   1      51.348  25.922  27.796  1.00  0.00    -0.744 OA
ENDBRANCH  72  73
ENDBRANCH  51  65
BRANCH  52  77
ATOM     77  C   UNL A   1      38.265  32.592  30.698  1.00  0.00     0.058 A 
ATOM     78  C   UNL A   1      37.805  32.434  32.014  1.00  0.00     0.135 A 
ATOM     79  C   UNL A   1      37.447  33.298  29.802  1.00  0.00     0.135 A 
ATOM     80  F   UNL A   1      38.547  31.760  32.907  1.00  0.00    -0.206 F 
ATOM     81  C   UNL A   1      36.576  32.940  32.424  1.00  0.00     0.059 A 
ATOM     82  C   UNL A   1      36.227  33.839  30.195  1.00  0.00     0.059 A 
ATOM     83  F   UNL A   1      37.847  33.491  28.535  1.00  0.00    -0.206 F 
ATOM     84  C   UNL A   1      35.794  33.645  31.507  1.00  0.00     0.060 A 
BRANCH  84  85
ATOM     85  S   UNL A   1      34.224  34.339  32.064  1.00  0.00     0.124 S 
ATOM     86  O   UNL A   1      33.533  34.558  30.799  1.00  0.00    -0.237 OA
ATOM     87  O   UNL A   1      33.696  33.266  32.903  1.00  0.00    -0.237 OA
ATOM     88  O   UNL A   1      34.626  35.545  32.782  1.00  0.00    -0.744 OA
ENDBRANCH  84  85
ENDBRANCH  52  77
BRANCH  64  89
ATOM     89  C   UNL A   1      44.767  35.125  30.718  1.00  0.00     0.058 A 
ATOM     90  C   UNL A   1      45.311  35.331  31.996  1.00  0.00     0.135 A 
ATOM     91  C   UNL A   1      44.819  36.193  29.806  1.00  0.00     0.135 A 
ATOM     92  F   UNL A   1      45.280  34.348  32.910  1.00  0.00    -0.206 F 
ATOM     93  C   UNL A   1      45.862  36.555  32.362  1.00  0.00     0.059 A 
ATOM     94  C   UNL A   1      45.396  37.414  30.140  1.00  0.00     0.059 A 
ATOM     95  F   UNL A   1      44.323  36.049  28.567  1.00  0.00    -0.206 F 
ATOM     96  C   UNL A   1      45.904  37.590  31.426  1.00  0.00     0.060 A 
BRANCH  96  97
ATOM     97  S   UNL A   1      46.654  39.160  31.904  1.00  0.00     0.124 S 
ATOM     98  O   UNL A   1      46.770  39.002  33.351  1.00  0.00    -0.237 OA
ATOM     99  O   UNL A   1      47.910  39.144  31.162  1.00  0.00    -0.237 OA
ATOM    100  O   UNL A   1      45.681  40.153  31.457  1.00  0.00    -0.744 OA
ENDBRANCH  96  97
ENDBRANCH  64  89
ENDBRANCH  38  39
ENDBRANCH  30  33
ENDBRANCH  28  29
ENDBRANCH  27  28
ENDBRANCH  26  27
ENDBRANCH   1  26
TORSDOF 21
ENDMDL
MODEL 3
REMARK VINA RESULT:     -10.7      3.351      9.516
REMARK SMILES O=C(CN(CC(F)(F)F)c1nc(-c2ccccc2)cs1)NCCCCCCNC(=O)c1ccc(-c2c3nc(c(-c4c(F)cc(S(=O)(=O)[O-])cc4F)c4ccc([nH]4)c(-c4c(F)cc(S(=O)(=O)[O-])cc4F)c4nc(c(-c5c(F)cc(S(=O)(=O)[O-])cc5F)c5ccc2[nH]5)C=C4)C=C3)cc1
REMARK SMILES IDX 24 1 23 2 22 3 21 4 1 5 2 6 3 8 4 9 5 10 6 11 7 12 8 13 9 14
REMARK SMILES IDX 10 15 11 16 20 17 12 18 19 19 13 20 14 21 18 22 15 23 17 24
REMARK SMILES IDX 16 25 25 26 26 27 27 28 28 29 29 30 30 32 31 33 32 34 96 35
REMARK SMILES IDX 33 36 95 37 34 38 35 39 36 40 89 41 37 42 94 43 88 44 90 45
REMARK SMILES IDX 38 46 93 47 87 48 86 49 39 51 73 52 52 53 72 54 53 55 56 56
REMARK SMILES IDX 71 57 91 58 54 59 55 60 70 62 92 63 57 64 40 65 41 66 50 67
REMARK SMILES IDX 42 68 43 69 49 70 51 71 44 72 45 73 46 74 47 75 48 76 74 77
REMARK SMILES IDX 75 78 84 79 76 80 77 81 83 82 85 83 78 84 79 85 80 86 81 87
REMARK SMILES IDX 82 88 58 89 59 90 68 91 60 92 61 93 67 94 69 95 62 96 63 97
REMARK SMILES IDX 64 98 65 99 66 100
REMARK H PARENT 21 7 28 31 90 50 56 61
REMARK Flexibility Score: inf
ROOT
ATOM      1  C   UNL A   1      31.341  28.525  23.609  1.00  0.00     0.002 C 
ENDROOT
BRANCH   1   2
ATOM      2  C   UNL A   1      30.677  27.176  23.303  1.00  0.00     0.021 C 
BRANCH   2   3
ATOM      3  C   UNL A   1      31.287  26.412  22.127  1.00  0.00     0.116 C 
BRANCH   3   4
ATOM      4  N   UNL A   1      31.453  25.002  22.408  1.00  0.00    -0.355 N 
ATOM      5  O   UNL A   1      33.737  24.964  22.162  1.00  0.00    -0.273 OA
ATOM      6  C   UNL A   1      32.688  24.393  22.458  1.00  0.00     0.239 C 
ATOM      7  H   UNL A   1      30.650  24.455  22.568  1.00  0.00     0.163 HD
BRANCH   6   8
ATOM      8  C   UNL A   1      32.657  22.888  22.768  1.00  0.00     0.219 C 
BRANCH   8   9
ATOM      9  N   UNL A   1      32.789  22.546  24.197  1.00  0.00    -0.330 N 
BRANCH   9  10
ATOM     10  C   UNL A   1      31.606  22.657  25.074  1.00  0.00     0.234 C 
BRANCH  10  11
ATOM     11  C   UNL A   1      31.742  23.450  26.385  1.00  0.00     0.406 C 
ATOM     12  F   UNL A   1      30.544  23.791  26.907  1.00  0.00    -0.169 F 
ATOM     13  F   UNL A   1      32.365  22.690  27.321  1.00  0.00    -0.169 F 
ATOM     14  F   UNL A   1      32.476  24.575  26.236  1.00  0.00    -0.169 F 
ENDBRANCH  10  11
ENDBRANCH   9  10
BRANCH   9  15
ATOM     15  C   UNL A   1      33.951  21.960  24.602  1.00  0.00     0.186 A 
ATOM     16  N   UNL A   1      35.035  22.649  24.876  1.00  0.00    -0.220 NA
ATOM     17  S   UNL A   1      34.159  20.250  24.742  1.00  0.00    -0.105 S 
ATOM     18  C   UNL A   1      36.082  21.812  25.221  1.00  0.00     0.083 A 
ATOM     19  C   UNL A   1      35.788  20.467  25.187  1.00  0.00     0.097 A 
BRANCH  18  20
ATOM     20  C   UNL A   1      37.374  22.319  25.649  1.00  0.00     0.001 A 
ATOM     21  C   UNL A   1      38.483  21.468  25.749  1.00  0.00     0.010 A 
ATOM     22  C   UNL A   1      37.504  23.663  26.017  1.00  0.00     0.010 A 
ATOM     23  C   UNL A   1      39.698  21.949  26.240  1.00  0.00     0.001 A 
ATOM     24  C   UNL A   1      38.718  24.139  26.517  1.00  0.00     0.001 A 
ATOM     25  C   UNL A   1      39.812  23.282  26.633  1.00  0.00     0.000 A 
ENDBRANCH  18  20
ENDBRANCH   9  15
ENDBRANCH   8   9
ENDBRANCH   6   8
ENDBRANCH   3   4
ENDBRANCH   2   3
ENDBRANCH   1   2
BRANCH   1  26
ATOM     26  C   UNL A   1      31.879  28.689  25.034  1.00  0.00     0.002 C 
BRANCH  26  27
ATOM     27  C   UNL A   1      33.268  28.099  25.287  1.00  0.00     0.021 C 
BRANCH  27  28
ATOM     28  C   UNL A   1      33.930  28.535  26.591  1.00  0.00     0.116 C 
BRANCH  28  29
ATOM     29  N   UNL A   1      33.866  29.975  26.794  1.00  0.00    -0.352 N 
ATOM     30  C   UNL A   1      34.677  30.788  27.549  1.00  0.00     0.251 C 
ATOM     31  H   UNL A   1      33.135  30.434  26.322  1.00  0.00     0.163 HD
ATOM     32  O   UNL A   1      34.358  31.962  27.738  1.00  0.00    -0.269 OA
BRANCH  30  33
ATOM     33  C   UNL A   1      35.916  30.251  28.155  1.00  0.00     0.039 A 
ATOM     34  C   UNL A   1      37.121  30.378  27.459  1.00  0.00     0.014 A 
ATOM     35  C   UNL A   1      35.894  29.624  29.403  1.00  0.00     0.014 A 
ATOM     36  C   UNL A   1      38.311  29.935  28.043  1.00  0.00     0.010 A 
ATOM     37  C   UNL A   1      37.089  29.255  30.016  1.00  0.00     0.010 A 
ATOM     38  C   UNL A   1      38.311  29.405  29.344  1.00  0.00    -0.014 A 
BRANCH  38  39
ATOM     39  C   UNL A   1      39.577  29.011  30.018  1.00  0.00     0.031 A 
ATOM     40  C   UNL A   1      40.040  29.738  31.253  1.00  0.00     0.074 A 
ATOM     41  C   UNL A   1      40.342  28.037  29.484  1.00  0.00     0.049 A 
ATOM     42  N   UNL A   1      41.137  29.573  31.948  1.00  0.00    -0.248 NA
ATOM     43  C   UNL A   1      39.167  30.810  31.757  1.00  0.00     0.031 C 
ATOM     44  C   UNL A   1      40.024  27.284  28.269  1.00  0.00     0.029 A 
ATOM     45  N   UNL A   1      41.545  27.517  29.890  1.00  0.00    -0.354 N 
ATOM     46  C   UNL A   1      41.092  30.526  32.960  1.00  0.00     0.074 A 
ATOM     47  C   UNL A   1      39.888  31.302  32.755  1.00  0.00     0.031 C 
ATOM     48  C   UNL A   1      40.991  26.379  28.046  1.00  0.00     0.029 A 
ATOM     49  C   UNL A   1      42.019  26.515  29.073  1.00  0.00     0.049 A 
ATOM     50  H   UNL A   1      42.026  27.831  30.689  1.00  0.00     0.167 HD
ATOM     51  C   UNL A   1      41.962  30.721  33.980  1.00  0.00     0.037 A 
ATOM     52  C   UNL A   1      43.154  25.792  29.141  1.00  0.00     0.037 A 
ATOM     53  C   UNL A   1      43.152  29.935  34.185  1.00  0.00     0.049 A 
ATOM     54  C   UNL A   1      44.119  26.046  30.267  1.00  0.00     0.074 A 
ATOM     55  C   UNL A   1      44.067  30.015  35.220  1.00  0.00     0.029 A 
ATOM     56  N   UNL A   1      43.598  28.932  33.336  1.00  0.00    -0.354 N 
ATOM     57  N   UNL A   1      44.026  26.902  31.258  1.00  0.00    -0.248 NA
ATOM     58  C   UNL A   1      45.343  25.233  30.290  1.00  0.00     0.031 C 
ATOM     59  C   UNL A   1      45.097  29.102  34.966  1.00  0.00     0.029 A 
ATOM     60  C   UNL A   1      44.791  28.408  33.806  1.00  0.00     0.049 A 
ATOM     61  H   UNL A   1      43.135  28.637  32.519  1.00  0.00     0.167 HD
ATOM     62  C   UNL A   1      45.161  26.706  32.038  1.00  0.00     0.074 A 
ATOM     63  C   UNL A   1      45.920  25.645  31.410  1.00  0.00     0.031 C 
ATOM     64  C   UNL A   1      45.536  27.345  33.175  1.00  0.00     0.037 A 
BRANCH  51  65
ATOM     65  C   UNL A   1      41.663  31.837  34.947  1.00  0.00     0.058 A 
ATOM     66  C   UNL A   1      42.241  33.112  34.811  1.00  0.00     0.135 A 
ATOM     67  C   UNL A   1      40.772  31.638  36.015  1.00  0.00     0.135 A 
ATOM     68  F   UNL A   1      43.109  33.358  33.816  1.00  0.00    -0.206 F 
ATOM     69  C   UNL A   1      41.981  34.132  35.720  1.00  0.00     0.059 A 
ATOM     70  C   UNL A   1      40.471  32.655  36.917  1.00  0.00     0.059 A 
ATOM     71  F   UNL A   1      40.187  30.444  36.193  1.00  0.00    -0.206 F 
ATOM     72  C   UNL A   1      41.098  33.892  36.774  1.00  0.00     0.060 A 
BRANCH  72  73
ATOM     73  S   UNL A   1      40.785  35.221  37.954  1.00  0.00     0.124 S 
ATOM     74  O   UNL A   1      39.325  35.233  37.997  1.00  0.00    -0.237 OA
ATOM     75  O   UNL A   1      41.449  34.732  39.158  1.00  0.00    -0.237 OA
ATOM     76  O   UNL A   1      41.403  36.386  37.329  1.00  0.00    -0.744 OA
ENDBRANCH  72  73
ENDBRANCH  51  65
BRANCH  52  77
ATOM     77  C   UNL A   1      43.426  24.736  28.128  1.00  0.00     0.058 A 
ATOM     78  C   UNL A   1      44.108  25.039  26.939  1.00  0.00     0.135 A 
ATOM     79  C   UNL A   1      43.024  23.406  28.327  1.00  0.00     0.135 A 
ATOM     80  F   UNL A   1      44.508  26.298  26.699  1.00  0.00    -0.206 F 
ATOM     81  C   UNL A   1      44.367  24.069  25.978  1.00  0.00     0.059 A 
ATOM     82  C   UNL A   1      43.296  22.411  27.393  1.00  0.00     0.059 A 
ATOM     83  F   UNL A   1      42.381  23.059  29.453  1.00  0.00    -0.206 F 
ATOM     84  C   UNL A   1      43.960  22.755  26.215  1.00  0.00     0.060 A 
BRANCH  84  85
ATOM     85  S   UNL A   1      44.345  21.495  24.981  1.00  0.00     0.124 S 
ATOM     86  O   UNL A   1      43.306  20.505  25.236  1.00  0.00    -0.237 OA
ATOM     87  O   UNL A   1      44.223  22.243  23.732  1.00  0.00    -0.237 OA
ATOM     88  O   UNL A   1      45.704  21.089  25.329  1.00  0.00    -0.744 OA
ENDBRANCH  84  85
ENDBRANCH  52  77
BRANCH  64  89
ATOM     89  C   UNL A   1      46.807  26.888  33.840  1.00  0.00     0.058 A 
ATOM     90  C   UNL A   1      48.047  27.487  33.566  1.00  0.00     0.135 A 
ATOM     91  C   UNL A   1      46.773  25.867  34.805  1.00  0.00     0.135 A 
ATOM     92  F   UNL A   1      48.138  28.462  32.648  1.00  0.00    -0.206 F 
ATOM     93  C   UNL A   1      49.211  27.073  34.206  1.00  0.00     0.059 A 
ATOM     94  C   UNL A   1      47.920  25.459  35.480  1.00  0.00     0.059 A 
ATOM     95  F   UNL A   1      45.613  25.265  35.113  1.00  0.00    -0.206 F 
ATOM     96  C   UNL A   1      49.137  26.060  35.164  1.00  0.00     0.060 A 
BRANCH  96  97
ATOM     97  S   UNL A   1      50.650  25.557  36.010  1.00  0.00     0.124 S 
ATOM     98  O   UNL A   1      50.761  24.159  35.608  1.00  0.00    -0.237 OA
ATOM     99  O   UNL A   1      51.642  26.462  35.439  1.00  0.00    -0.237 OA
ATOM    100  O   UNL A   1      50.342  25.782  37.420  1.00  0.00    -0.744 OA
ENDBRANCH  96  97
ENDBRANCH  64  89
ENDBRANCH  38  39
ENDBRANCH  30  33
ENDBRANCH  28  29
ENDBRANCH  27  28
ENDBRANCH  26  27
ENDBRANCH   1  26
TORSDOF 21
ENDMDL
