MODEL 1
REMARK VINA RESULT:     -11.0      0.000      0.000
REMARK SMILES Cc1cc(OC(F)(F)F)cc2c1O[C@H](C(F)(F)F)C(C(=O)NCCCCCCNC(=O)c1ccc(-c3c4nc(c(-c5c(F)cc(S(=O)(=O)[O-])cc5F)c5ccc([nH]5)c(-c5c(F)cc(S(=O)(=O)[O-])cc5F)c5nc(c(-c6c(F)cc(S(=O)(=O)[O-])cc6F)c6ccc3[nH]6)C=C5)C=C4)cc1)=C2
REMARK SMILES IDX 26 1 25 2 24 3 23 4 22 5 20 6 21 7 19 9 1 10 2 11 3 12 12 13
REMARK SMILES IDX 4 14 11 15 13 16 10 17 98 18 14 19 5 20 6 21 7 22 8 23 9 24
REMARK SMILES IDX 15 25 16 26 17 27 18 28 27 29 28 30 29 31 30 32 31 34 32 35
REMARK SMILES IDX 33 36 97 37 34 38 96 39 35 40 36 41 37 42 90 43 38 44 95 45
REMARK SMILES IDX 89 46 91 47 39 48 94 49 88 50 87 51 40 53 74 54 53 55 73 56
REMARK SMILES IDX 54 57 57 58 72 59 92 60 55 61 56 62 71 64 93 65 58 66 41 67
REMARK SMILES IDX 42 68 51 69 43 70 44 71 50 72 52 73 45 74 46 75 47 76 48 77
REMARK SMILES IDX 49 78 75 79 76 80 85 81 77 82 78 83 84 84 86 85 79 86 80 87
REMARK SMILES IDX 81 88 82 89 83 90 59 91 60 92 69 93 61 94 62 95 68 96 70 97
REMARK SMILES IDX 63 98 64 99 65 100 66 101 67 102
REMARK H PARENT 22 8 29 33 91 52 57 63
REMARK Flexibility Score: inf
ROOT
ATOM      1  C   UNL A   1      31.938  28.062  25.792  1.00  0.00     0.002 C 
ENDROOT
BRANCH   1   2
ATOM      2  C   UNL A   1      31.412  29.062  24.753  1.00  0.00     0.002 C 
BRANCH   2   3
ATOM      3  C   UNL A   1      31.908  28.840  23.322  1.00  0.00     0.021 C 
BRANCH   3   4
ATOM      4  C   UNL A   1      31.056  27.857  22.523  1.00  0.00     0.116 C 
BRANCH   4   5
ATOM      5  N   UNL A   1      31.865  27.049  21.627  1.00  0.00    -0.352 N 
ATOM      6  C   UNL A   1      32.643  25.945  21.715  1.00  0.00     0.251 C 
ATOM      7  O   UNL A   1      33.147  25.572  20.649  1.00  0.00    -0.270 OA
ATOM      8  H   UNL A   1      31.840  27.399  20.707  1.00  0.00     0.163 HD
BRANCH   6   9
ATOM      9  C   UNL A   1      32.921  25.180  22.967  1.00  0.00     0.067 C 
ATOM     10  C   UNL A   1      32.902  22.954  27.621  1.00  0.00     0.048 C 
ATOM     11  C   UNL A   1      33.913  23.173  26.528  1.00  0.00    -0.005 A 
ATOM     12  C   UNL A   1      35.219  22.684  26.697  1.00  0.00     0.054 A 
ATOM     13  C   UNL A   1      33.602  23.883  25.364  1.00  0.00     0.131 A 
ATOM     14  C   UNL A   1      36.192  22.891  25.717  1.00  0.00     0.130 A 
ATOM     15  C   UNL A   1      34.562  24.095  24.374  1.00  0.00     0.021 A 
ATOM     16  O   UNL A   1      32.344  24.402  25.266  1.00  0.00    -0.475 OA
ATOM     17  C   UNL A   1      35.854  23.593  24.555  1.00  0.00     0.058 A 
ATOM     18  C   UNL A   1      34.213  24.869  23.187  1.00  0.00     0.025 C 
ATOM     19  C   UNL A   1      31.867  24.721  23.935  1.00  0.00     0.314 C 
BRANCH  14  20
ATOM     20  O   UNL A   1      37.491  22.472  25.767  1.00  0.00    -0.406 OA
BRANCH  20  21
ATOM     21  C   UNL A   1      38.446  23.357  26.327  1.00  0.00     0.573 C 
ATOM     22  F   UNL A   1      37.924  24.054  27.358  1.00  0.00    -0.132 F 
ATOM     23  F   UNL A   1      39.546  22.691  26.739  1.00  0.00    -0.132 F 
ATOM     24  F   UNL A   1      38.825  24.240  25.376  1.00  0.00    -0.132 F 
ENDBRANCH  20  21
ENDBRANCH  14  20
BRANCH  19  25
ATOM     25  C   UNL A   1      31.039  23.541  23.394  1.00  0.00     0.429 C 
ATOM     26  F   UNL A   1      29.922  23.988  22.772  1.00  0.00    -0.167 F 
ATOM     27  F   UNL A   1      31.718  22.806  22.481  1.00  0.00    -0.167 F 
ATOM     28  F   UNL A   1      30.650  22.691  24.372  1.00  0.00    -0.167 F 
ENDBRANCH  19  25
ENDBRANCH   6   9
ENDBRANCH   4   5
ENDBRANCH   3   4
ENDBRANCH   2   3
ENDBRANCH   1   2
BRANCH   1  29
ATOM     29  C   UNL A   1      33.420  27.696  25.659  1.00  0.00     0.021 C 
BRANCH  29  30
ATOM     30  C   UNL A   1      34.275  28.082  26.861  1.00  0.00     0.116 C 
BRANCH  30  31
ATOM     31  N   UNL A   1      33.972  29.429  27.318  1.00  0.00    -0.352 N 
ATOM     32  C   UNL A   1      34.743  30.263  28.085  1.00  0.00     0.251 C 
ATOM     33  H   UNL A   1      33.099  29.789  27.040  1.00  0.00     0.163 HD
ATOM     34  O   UNL A   1      34.257  31.277  28.581  1.00  0.00    -0.269 OA
BRANCH  32  35
ATOM     35  C   UNL A   1      36.162  29.928  28.309  1.00  0.00     0.039 A 
ATOM     36  C   UNL A   1      37.072  30.079  27.261  1.00  0.00     0.014 A 
ATOM     37  C   UNL A   1      36.583  29.453  29.556  1.00  0.00     0.014 A 
ATOM     38  C   UNL A   1      38.419  29.782  27.472  1.00  0.00     0.010 A 
ATOM     39  C   UNL A   1      37.932  29.202  29.778  1.00  0.00     0.010 A 
ATOM     40  C   UNL A   1      38.857  29.349  28.734  1.00  0.00    -0.014 A 
BRANCH  40  41
ATOM     41  C   UNL A   1      40.273  28.978  28.962  1.00  0.00     0.031 A 
ATOM     42  C   UNL A   1      41.215  29.995  29.543  1.00  0.00     0.074 A 
ATOM     43  C   UNL A   1      40.713  27.753  28.617  1.00  0.00     0.049 A 
ATOM     44  N   UNL A   1      42.497  29.891  29.779  1.00  0.00    -0.248 NA
ATOM     45  C   UNL A   1      40.643  31.307  29.888  1.00  0.00     0.031 C 
ATOM     46  C   UNL A   1      39.891  26.695  28.026  1.00  0.00     0.029 A 
ATOM     47  N   UNL A   1      41.962  27.194  28.709  1.00  0.00    -0.354 N 
ATOM     48  C   UNL A   1      42.882  31.119  30.304  1.00  0.00     0.074 A 
ATOM     49  C   UNL A   1      41.713  31.971  30.297  1.00  0.00     0.031 C 
ATOM     50  C   UNL A   1      40.656  25.609  27.824  1.00  0.00     0.029 A 
ATOM     51  C   UNL A   1      42.024  25.902  28.245  1.00  0.00     0.049 A 
ATOM     52  H   UNL A   1      42.741  27.674  29.073  1.00  0.00     0.167 HD
ATOM     53  C   UNL A   1      44.094  31.492  30.775  1.00  0.00     0.037 A 
ATOM     54  C   UNL A   1      43.068  25.054  28.168  1.00  0.00     0.037 A 
ATOM     55  C   UNL A   1      45.249  30.634  30.792  1.00  0.00     0.049 A 
ATOM     56  C   UNL A   1      44.416  25.505  28.664  1.00  0.00     0.074 A 
ATOM     57  C   UNL A   1      46.514  30.905  31.279  1.00  0.00     0.029 A 
ATOM     58  N   UNL A   1      45.276  29.337  30.301  1.00  0.00    -0.354 N 
ATOM     59  N   UNL A   1      44.756  26.656  29.194  1.00  0.00    -0.248 NA
ATOM     60  C   UNL A   1      45.522  24.544  28.552  1.00  0.00     0.031 C 
ATOM     61  C   UNL A   1      47.318  29.783  31.049  1.00  0.00     0.029 A 
ATOM     62  C   UNL A   1      46.542  28.799  30.456  1.00  0.00     0.049 A 
ATOM     63  H   UNL A   1      44.508  28.867  29.901  1.00  0.00     0.167 HD
ATOM     64  C   UNL A   1      46.108  26.550  29.499  1.00  0.00     0.074 A 
ATOM     65  C   UNL A   1      46.522  25.219  29.103  1.00  0.00     0.031 C 
ATOM     66  C   UNL A   1      46.932  27.471  30.056  1.00  0.00     0.037 A 
BRANCH  53  67
ATOM     67  C   UNL A   1      44.226  32.882  31.327  1.00  0.00     0.058 A 
ATOM     68  C   UNL A   1      44.000  33.153  32.686  1.00  0.00     0.135 A 
ATOM     69  C   UNL A   1      44.618  33.950  30.503  1.00  0.00     0.135 A 
ATOM     70  F   UNL A   1      43.603  32.171  33.512  1.00  0.00    -0.206 F 
ATOM     71  C   UNL A   1      44.137  34.434  33.206  1.00  0.00     0.059 A 
ATOM     72  C   UNL A   1      44.786  35.236  31.006  1.00  0.00     0.059 A 
ATOM     73  F   UNL A   1      44.842  33.747  29.195  1.00  0.00    -0.206 F 
ATOM     74  C   UNL A   1      44.532  35.470  32.357  1.00  0.00     0.060 A 
BRANCH  74  75
ATOM     75  S   UNL A   1      44.720  37.125  33.053  1.00  0.00     0.124 S 
ATOM     76  O   UNL A   1      46.159  37.335  32.924  1.00  0.00    -0.237 OA
ATOM     77  O   UNL A   1      43.881  37.931  32.172  1.00  0.00    -0.237 OA
ATOM     78  O   UNL A   1      44.229  36.978  34.420  1.00  0.00    -0.744 OA
ENDBRANCH  74  75
ENDBRANCH  53  67
BRANCH  54  79
ATOM     79  C   UNL A   1      42.872  23.683  27.630  1.00  0.00     0.058 A 
ATOM     80  C   UNL A   1      42.593  22.608  28.487  1.00  0.00     0.135 A 
ATOM     81  C   UNL A   1      42.943  23.421  26.253  1.00  0.00     0.135 A 
ATOM     82  F   UNL A   1      42.523  22.809  29.811  1.00  0.00    -0.206 F 
ATOM     83  C   UNL A   1      42.398  21.321  28.001  1.00  0.00     0.059 A 
ATOM     84  C   UNL A   1      42.732  22.144  25.740  1.00  0.00     0.059 A 
ATOM     85  F   UNL A   1      43.194  24.417  25.390  1.00  0.00    -0.206 F 
ATOM     86  C   UNL A   1      42.466  21.098  26.624  1.00  0.00     0.060 A 
BRANCH  86  87
ATOM     87  S   UNL A   1      42.159  19.431  26.002  1.00  0.00     0.124 S 
ATOM     88  O   UNL A   1      42.610  18.612  27.120  1.00  0.00    -0.237 OA
ATOM     89  O   UNL A   1      40.718  19.455  25.766  1.00  0.00    -0.237 OA
ATOM     90  O   UNL A   1      42.982  19.365  24.798  1.00  0.00    -0.744 OA
ENDBRANCH  86  87
ENDBRANCH  54  79
BRANCH  66  91
ATOM     91  C   UNL A   1      48.363  27.074  30.286  1.00  0.00     0.058 A 
ATOM     92  C   UNL A   1      49.382  27.469  29.406  1.00  0.00     0.135 A 
ATOM     93  C   UNL A   1      48.729  26.362  31.441  1.00  0.00     0.135 A 
ATOM     94  F   UNL A   1      49.081  28.145  28.286  1.00  0.00    -0.206 F 
ATOM     95  C   UNL A   1      50.715  27.165  29.658  1.00  0.00     0.059 A 
ATOM     96  C   UNL A   1      50.058  26.068  31.724  1.00  0.00     0.059 A 
ATOM     97  F   UNL A   1      47.791  25.970  32.318  1.00  0.00    -0.206 F 
ATOM     98  C   UNL A   1      51.043  26.468  30.823  1.00  0.00     0.060 A 
BRANCH  98  99
ATOM     99  S   UNL A   1      52.784  26.130  31.163  1.00  0.00     0.124 S 
ATOM    100  O   UNL A   1      53.184  27.336  31.880  1.00  0.00    -0.237 OA
ATOM    101  O   UNL A   1      52.714  24.910  31.961  1.00  0.00    -0.237 OA
ATOM    102  O   UNL A   1      53.366  25.969  29.833  1.00  0.00    -0.744 OA
ENDBRANCH  98  99
ENDBRANCH  66  91
ENDBRANCH  40  41
ENDBRANCH  32  35
ENDBRANCH  30  31
ENDBRANCH  29  30
ENDBRANCH   1  29
TORSDOF 19
ENDMDL
MODEL 2
REMARK VINA RESULT:     -10.9      3.126      8.839
REMARK SMILES Cc1cc(OC(F)(F)F)cc2c1O[C@H](C(F)(F)F)C(C(=O)NCCCCCCNC(=O)c1ccc(-c3c4nc(c(-c5c(F)cc(S(=O)(=O)[O-])cc5F)c5ccc([nH]5)c(-c5c(F)cc(S(=O)(=O)[O-])cc5F)c5nc(c(-c6c(F)cc(S(=O)(=O)[O-])cc6F)c6ccc3[nH]6)C=C5)C=C4)cc1)=C2
REMARK SMILES IDX 26 1 25 2 24 3 23 4 22 5 20 6 21 7 19 9 1 10 2 11 3 12 12 13
REMARK SMILES IDX 4 14 11 15 13 16 10 17 98 18 14 19 5 20 6 21 7 22 8 23 9 24
REMARK SMILES IDX 15 25 16 26 17 27 18 28 27 29 28 30 29 31 30 32 31 34 32 35
REMARK SMILES IDX 33 36 97 37 34 38 96 39 35 40 36 41 37 42 90 43 38 44 95 45
REMARK SMILES IDX 89 46 91 47 39 48 94 49 88 50 87 51 40 53 74 54 53 55 73 56
REMARK SMILES IDX 54 57 57 58 72 59 92 60 55 61 56 62 71 64 93 65 58 66 41 67
REMARK SMILES IDX 42 68 51 69 43 70 44 71 50 72 52 73 45 74 46 75 47 76 48 77
REMARK SMILES IDX 49 78 75 79 76 80 85 81 77 82 78 83 84 84 86 85 79 86 80 87
REMARK SMILES IDX 81 88 82 89 83 90 59 91 60 92 69 93 61 94 62 95 68 96 70 97
REMARK SMILES IDX 63 98 64 99 65 100 66 101 67 102
REMARK H PARENT 22 8 29 33 91 52 57 63
REMARK Flexibility Score: inf
ROOT
ATOM      1  C   UNL A   1      35.795  32.776  28.115  1.00  0.00     0.002 C 
ENDROOT
BRANCH   1   2
ATOM      2  C   UNL A   1      34.606  31.820  28.277  1.00  0.00     0.002 C 
BRANCH   2   3
ATOM      3  C   UNL A   1      34.452  30.775  27.168  1.00  0.00     0.021 C 
BRANCH   3   4
ATOM      4  C   UNL A   1      34.451  29.336  27.676  1.00  0.00     0.116 C 
BRANCH   4   5
ATOM      5  N   UNL A   1      33.102  28.848  27.906  1.00  0.00    -0.352 N 
ATOM      6  C   UNL A   1      32.243  27.987  27.312  1.00  0.00     0.251 C 
ATOM      7  O   UNL A   1      31.157  27.849  27.887  1.00  0.00    -0.270 OA
ATOM      8  H   UNL A   1      32.706  29.252  28.712  1.00  0.00     0.163 HD
BRANCH   6   9
ATOM      9  C   UNL A   1      32.512  27.225  26.055  1.00  0.00     0.067 C 
ATOM     10  C   UNL A   1      32.594  25.192  21.314  1.00  0.00     0.048 C 
ATOM     11  C   UNL A   1      33.211  24.861  22.646  1.00  0.00    -0.005 A 
ATOM     12  C   UNL A   1      34.051  23.740  22.751  1.00  0.00     0.054 A 
ATOM     13  C   UNL A   1      32.942  25.615  23.793  1.00  0.00     0.131 A 
ATOM     14  C   UNL A   1      34.619  23.386  23.977  1.00  0.00     0.130 A 
ATOM     15  C   UNL A   1      33.505  25.276  25.025  1.00  0.00     0.021 A 
ATOM     16  O   UNL A   1      32.068  26.655  23.668  1.00  0.00    -0.475 OA
ATOM     17  C   UNL A   1      34.346  24.162  25.109  1.00  0.00     0.058 A 
ATOM     18  C   UNL A   1      33.177  26.063  26.208  1.00  0.00     0.025 C 
ATOM     19  C   UNL A   1      32.129  27.691  24.680  1.00  0.00     0.314 C 
BRANCH  14  20
ATOM     20  O   UNL A   1      35.443  22.321  24.206  1.00  0.00    -0.406 OA
BRANCH  20  21
ATOM     21  C   UNL A   1      36.824  22.488  23.934  1.00  0.00     0.573 C 
ATOM     22  F   UNL A   1      37.367  23.443  24.719  1.00  0.00    -0.132 F 
ATOM     23  F   UNL A   1      37.497  21.329  24.099  1.00  0.00    -0.132 F 
ATOM     24  F   UNL A   1      36.967  22.875  22.647  1.00  0.00    -0.132 F 
ENDBRANCH  20  21
ENDBRANCH  14  20
BRANCH  19  25
ATOM     25  C   UNL A   1      33.019  28.842  24.175  1.00  0.00     0.429 C 
ATOM     26  F   UNL A   1      34.322  28.597  24.456  1.00  0.00    -0.167 F 
ATOM     27  F   UNL A   1      32.942  29.007  22.833  1.00  0.00    -0.167 F 
ATOM     28  F   UNL A   1      32.697  30.030  24.735  1.00  0.00    -0.167 F 
ENDBRANCH  19  25
ENDBRANCH   6   9
ENDBRANCH   4   5
ENDBRANCH   3   4
ENDBRANCH   2   3
ENDBRANCH   1   2
BRANCH   1  29
ATOM     29  C   UNL A   1      36.102  33.657  29.330  1.00  0.00     0.021 C 
BRANCH  29  30
ATOM     30  C   UNL A   1      37.072  33.037  30.330  1.00  0.00     0.116 C 
BRANCH  30  31
ATOM     31  N   UNL A   1      36.488  31.882  30.992  1.00  0.00    -0.352 N 
ATOM     32  C   UNL A   1      36.912  30.579  30.966  1.00  0.00     0.251 C 
ATOM     33  H   UNL A   1      35.683  32.059  31.529  1.00  0.00     0.163 HD
ATOM     34  O   UNL A   1      36.186  29.681  31.384  1.00  0.00    -0.269 OA
BRANCH  32  35
ATOM     35  C   UNL A   1      38.250  30.268  30.427  1.00  0.00     0.039 A 
ATOM     36  C   UNL A   1      38.414  30.126  29.048  1.00  0.00     0.014 A 
ATOM     37  C   UNL A   1      39.336  30.106  31.295  1.00  0.00     0.014 A 
ATOM     38  C   UNL A   1      39.681  29.850  28.531  1.00  0.00     0.010 A 
ATOM     39  C   UNL A   1      40.605  29.878  30.775  1.00  0.00     0.010 A 
ATOM     40  C   UNL A   1      40.784  29.733  29.391  1.00  0.00    -0.014 A 
BRANCH  40  41
ATOM     41  C   UNL A   1      42.125  29.388  28.866  1.00  0.00     0.031 A 
ATOM     42  C   UNL A   1      42.400  27.978  28.421  1.00  0.00     0.074 A 
ATOM     43  C   UNL A   1      43.093  30.322  28.823  1.00  0.00     0.049 A 
ATOM     44  N   UNL A   1      43.512  27.456  27.976  1.00  0.00    -0.248 NA
ATOM     45  C   UNL A   1      41.279  27.027  28.507  1.00  0.00     0.031 C 
ATOM     46  C   UNL A   1      42.944  31.715  29.248  1.00  0.00     0.029 A 
ATOM     47  N   UNL A   1      44.397  30.238  28.406  1.00  0.00    -0.354 N 
ATOM     48  C   UNL A   1      43.225  26.120  27.722  1.00  0.00     0.074 A 
ATOM     49  C   UNL A   1      41.852  25.897  28.119  1.00  0.00     0.031 C 
ATOM     50  C   UNL A   1      44.107  32.358  29.054  1.00  0.00     0.029 A 
ATOM     51  C   UNL A   1      45.090  31.420  28.517  1.00  0.00     0.049 A 
ATOM     52  H   UNL A   1      44.799  29.408  28.059  1.00  0.00     0.167 HD
ATOM     53  C   UNL A   1      44.025  25.174  27.181  1.00  0.00     0.037 A 
ATOM     54  C   UNL A   1      46.372  31.709  28.220  1.00  0.00     0.037 A 
ATOM     55  C   UNL A   1      45.386  25.407  26.775  1.00  0.00     0.049 A 
ATOM     56  C   UNL A   1      47.254  30.628  27.654  1.00  0.00     0.074 A 
ATOM     57  C   UNL A   1      46.271  24.523  26.185  1.00  0.00     0.029 A 
ATOM     58  N   UNL A   1      46.056  26.613  26.916  1.00  0.00    -0.354 N 
ATOM     59  N   UNL A   1      46.956  29.380  27.383  1.00  0.00    -0.248 NA
ATOM     60  C   UNL A   1      48.645  30.995  27.354  1.00  0.00     0.031 C 
ATOM     61  C   UNL A   1      47.490  25.185  26.002  1.00  0.00     0.029 A 
ATOM     62  C   UNL A   1      47.351  26.493  26.441  1.00  0.00     0.049 A 
ATOM     63  H   UNL A   1      45.669  27.434  27.297  1.00  0.00     0.167 HD
ATOM     64  C   UNL A   1      48.115  28.818  26.860  1.00  0.00     0.074 A 
ATOM     65  C   UNL A   1      49.116  29.865  26.844  1.00  0.00     0.031 C 
ATOM     66  C   UNL A   1      48.331  27.549  26.432  1.00  0.00     0.037 A 
BRANCH  53  67
ATOM     67  C   UNL A   1      43.443  23.804  26.981  1.00  0.00     0.058 A 
ATOM     68  C   UNL A   1      43.338  22.893  28.044  1.00  0.00     0.135 A 
ATOM     69  C   UNL A   1      42.950  23.408  25.728  1.00  0.00     0.135 A 
ATOM     70  F   UNL A   1      43.814  23.214  29.258  1.00  0.00    -0.206 F 
ATOM     71  C   UNL A   1      42.784  21.630  27.869  1.00  0.00     0.059 A 
ATOM     72  C   UNL A   1      42.368  22.158  25.534  1.00  0.00     0.059 A 
ATOM     73  F   UNL A   1      43.030  24.239  24.677  1.00  0.00    -0.206 F 
ATOM     74  C   UNL A   1      42.300  21.272  26.609  1.00  0.00     0.060 A 
BRANCH  74  75
ATOM     75  S   UNL A   1      41.571  19.634  26.403  1.00  0.00     0.124 S 
ATOM     76  O   UNL A   1      41.824  19.036  27.711  1.00  0.00    -0.237 OA
ATOM     77  O   UNL A   1      40.177  19.948  26.109  1.00  0.00    -0.237 OA
ATOM     78  O   UNL A   1      42.329  19.060  25.297  1.00  0.00    -0.744 OA
ENDBRANCH  74  75
ENDBRANCH  53  67
BRANCH  54  79
ATOM     79  C   UNL A   1      46.887  33.088  28.422  1.00  0.00     0.058 A 
ATOM     80  C   UNL A   1      47.547  33.441  29.607  1.00  0.00     0.135 A 
ATOM     81  C   UNL A   1      46.749  34.073  27.431  1.00  0.00     0.135 A 
ATOM     82  F   UNL A   1      47.697  32.535  30.585  1.00  0.00    -0.206 F 
ATOM     83  C   UNL A   1      48.045  34.723  29.811  1.00  0.00     0.059 A 
ATOM     84  C   UNL A   1      47.256  35.358  27.603  1.00  0.00     0.059 A 
ATOM     85  F   UNL A   1      46.137  33.782  26.273  1.00  0.00    -0.206 F 
ATOM     86  C   UNL A   1      47.897  35.675  28.800  1.00  0.00     0.060 A 
BRANCH  86  87
ATOM     87  S   UNL A   1      48.594  37.322  29.056  1.00  0.00     0.124 S 
ATOM     88  O   UNL A   1      49.742  37.298  28.158  1.00  0.00    -0.237 OA
ATOM     89  O   UNL A   1      47.487  38.186  28.657  1.00  0.00    -0.237 OA
ATOM     90  O   UNL A   1      48.908  37.335  30.482  1.00  0.00    -0.744 OA
ENDBRANCH  86  87
ENDBRANCH  54  79
BRANCH  66  91
ATOM     91  C   UNL A   1      49.696  27.220  25.896  1.00  0.00     0.058 A 
ATOM     92  C   UNL A   1      50.718  26.753  26.736  1.00  0.00     0.135 A 
ATOM     93  C   UNL A   1      49.956  27.292  24.518  1.00  0.00     0.135 A 
ATOM     94  F   UNL A   1      50.519  26.673  28.061  1.00  0.00    -0.206 F 
ATOM     95  C   UNL A   1      51.956  26.378  26.229  1.00  0.00     0.059 A 
ATOM     96  C   UNL A   1      51.180  26.899  23.987  1.00  0.00     0.059 A 
ATOM     97  F   UNL A   1      49.007  27.723  23.672  1.00  0.00    -0.206 F 
ATOM     98  C   UNL A   1      52.176  26.449  24.852  1.00  0.00     0.060 A 
BRANCH  98  99
ATOM     99  S   UNL A   1      53.772  25.906  24.205  1.00  0.00     0.124 S 
ATOM    100  O   UNL A   1      53.850  24.543  24.720  1.00  0.00    -0.237 OA
ATOM    101  O   UNL A   1      53.581  26.029  22.763  1.00  0.00    -0.237 OA
ATOM    102  O   UNL A   1      54.717  26.852  24.789  1.00  0.00    -0.744 OA
ENDBRANCH  98  99
ENDBRANCH  66  91
ENDBRANCH  40  41
ENDBRANCH  32  35
ENDBRANCH  30  31
ENDBRANCH  29  30
ENDBRANCH   1  29
TORSDOF 19
ENDMDL
MODEL 3
REMARK VINA RESULT:     -10.9      2.006      3.007
REMARK SMILES Cc1cc(OC(F)(F)F)cc2c1O[C@H](C(F)(F)F)C(C(=O)NCCCCCCNC(=O)c1ccc(-c3c4nc(c(-c5c(F)cc(S(=O)(=O)[O-])cc5F)c5ccc([nH]5)c(-c5c(F)cc(S(=O)(=O)[O-])cc5F)c5nc(c(-c6c(F)cc(S(=O)(=O)[O-])cc6F)c6ccc3[nH]6)C=C5)C=C4)cc1)=C2
REMARK SMILES IDX 26 1 25 2 24 3 23 4 22 5 20 6 21 7 19 9 1 10 2 11 3 12 12 13
REMARK SMILES IDX 4 14 11 15 13 16 10 17 98 18 14 19 5 20 6 21 7 22 8 23 9 24
REMARK SMILES IDX 15 25 16 26 17 27 18 28 27 29 28 30 29 31 30 32 31 34 32 35
REMARK SMILES IDX 33 36 97 37 34 38 96 39 35 40 36 41 37 42 90 43 38 44 95 45
REMARK SMILES IDX 89 46 91 47 39 48 94 49 88 50 87 51 40 53 74 54 53 55 73 56
REMARK SMILES IDX 54 57 57 58 72 59 92 60 55 61 56 62 71 64 93 65 58 66 41 67
REMARK SMILES IDX 42 68 51 69 43 70 44 71 50 72 52 73 45 74 46 75 47 76 48 77
REMARK SMILES IDX 49 78 75 79 76 80 85 81 77 82 78 83 84 84 86 85 79 86 80 87
REMARK SMILES IDX 81 88 82 89 83 90 59 91 60 92 69 93 61 94 62 95 68 96 70 97
REMARK SMILES IDX 63 98 64 99 65 100 66 101 67 102
REMARK H PARENT 22 8 29 33 91 52 57 63
REMARK Flexibility Score: inf
ROOT
ATOM      1  C   UNL A   1      32.631  28.844  24.314  1.00  0.00     0.002 C 
ENDROOT
BRANCH   1   2
ATOM      2  C   UNL A   1      32.226  28.173  22.994  1.00  0.00     0.002 C 
BRANCH   2   3
ATOM      3  C   UNL A   1      33.296  27.276  22.363  1.00  0.00     0.021 C 
BRANCH   3   4
ATOM      4  C   UNL A   1      32.725  26.165  21.487  1.00  0.00     0.116 C 
BRANCH   4   5
ATOM      5  N   UNL A   1      31.580  25.523  22.110  1.00  0.00    -0.352 N 
ATOM      6  C   UNL A   1      31.359  24.481  22.944  1.00  0.00     0.251 C 
ATOM      7  O   UNL A   1      30.175  24.296  23.249  1.00  0.00    -0.270 OA
ATOM      8  H   UNL A   1      30.738  25.967  21.858  1.00  0.00     0.163 HD
BRANCH   6   9
ATOM      9  C   UNL A   1      32.411  23.576  23.496  1.00  0.00     0.067 C 
ATOM     10  C   UNL A   1      36.720  21.316  25.213  1.00  0.00     0.048 C 
ATOM     11  C   UNL A   1      35.330  20.867  24.852  1.00  0.00    -0.005 A 
ATOM     12  C   UNL A   1      34.995  19.509  24.983  1.00  0.00     0.054 A 
ATOM     13  C   UNL A   1      34.371  21.755  24.354  1.00  0.00     0.131 A 
ATOM     14  C   UNL A   1      33.724  19.050  24.632  1.00  0.00     0.130 A 
ATOM     15  C   UNL A   1      33.095  21.312  24.002  1.00  0.00     0.021 A 
ATOM     16  O   UNL A   1      34.753  23.052  24.176  1.00  0.00    -0.475 OA
ATOM     17  C   UNL A   1      32.777  19.959  24.147  1.00  0.00     0.058 A 
ATOM     18  C   UNL A   1      32.131  22.259  23.453  1.00  0.00     0.025 C 
ATOM     19  C   UNL A   1      33.699  24.045  24.110  1.00  0.00     0.314 C 
BRANCH  14  20
ATOM     20  O   UNL A   1      33.282  17.759  24.708  1.00  0.00    -0.406 OA
BRANCH  20  21
ATOM     21  C   UNL A   1      33.435  16.944  23.558  1.00  0.00     0.573 C 
ATOM     22  F   UNL A   1      33.303  15.635  23.865  1.00  0.00    -0.132 F 
ATOM     23  F   UNL A   1      32.542  17.276  22.602  1.00  0.00    -0.132 F 
ATOM     24  F   UNL A   1      34.676  17.132  23.056  1.00  0.00    -0.132 F 
ENDBRANCH  20  21
ENDBRANCH  14  20
BRANCH  19  25
ATOM     25  C   UNL A   1      33.499  24.667  25.505  1.00  0.00     0.429 C 
ATOM     26  F   UNL A   1      34.627  25.298  25.911  1.00  0.00    -0.167 F 
ATOM     27  F   UNL A   1      32.513  25.595  25.522  1.00  0.00    -0.167 F 
ATOM     28  F   UNL A   1      33.186  23.745  26.443  1.00  0.00    -0.167 F 
ENDBRANCH  19  25
ENDBRANCH   6   9
ENDBRANCH   4   5
ENDBRANCH   3   4
ENDBRANCH   2   3
ENDBRANCH   1   2
BRANCH   1  29
ATOM     29  C   UNL A   1      33.964  28.378  24.907  1.00  0.00     0.021 C 
BRANCH  29  30
ATOM     30  C   UNL A   1      34.023  28.414  26.430  1.00  0.00     0.116 C 
BRANCH  30  31
ATOM     31  N   UNL A   1      33.711  29.738  26.944  1.00  0.00    -0.352 N 
ATOM     32  C   UNL A   1      34.432  30.504  27.822  1.00  0.00     0.251 C 
ATOM     33  H   UNL A   1      32.872  30.136  26.618  1.00  0.00     0.163 HD
ATOM     34  O   UNL A   1      33.928  31.497  28.339  1.00  0.00    -0.269 OA
BRANCH  32  35
ATOM     35  C   UNL A   1      35.820  30.119  28.141  1.00  0.00     0.039 A 
ATOM     36  C   UNL A   1      36.111  29.604  29.406  1.00  0.00     0.014 A 
ATOM     37  C   UNL A   1      36.831  30.283  27.188  1.00  0.00     0.014 A 
ATOM     38  C   UNL A   1      37.419  29.221  29.708  1.00  0.00     0.010 A 
ATOM     39  C   UNL A   1      38.123  29.857  27.474  1.00  0.00     0.010 A 
ATOM     40  C   UNL A   1      38.430  29.338  28.740  1.00  0.00    -0.014 A 
BRANCH  40  41
ATOM     41  C   UNL A   1      39.833  28.987  29.060  1.00  0.00     0.031 A 
ATOM     42  C   UNL A   1      40.709  30.004  29.739  1.00  0.00     0.074 A 
ATOM     43  C   UNL A   1      40.323  27.783  28.711  1.00  0.00     0.049 A 
ATOM     44  N   UNL A   1      41.972  29.918  30.064  1.00  0.00    -0.248 NA
ATOM     45  C   UNL A   1      40.085  31.293  30.080  1.00  0.00     0.031 C 
ATOM     46  C   UNL A   1      39.569  26.728  28.031  1.00  0.00     0.029 A 
ATOM     47  N   UNL A   1      41.574  27.245  28.878  1.00  0.00    -0.354 N 
ATOM     48  C   UNL A   1      42.292  31.135  30.652  1.00  0.00     0.074 A 
ATOM     49  C   UNL A   1      41.108  31.965  30.585  1.00  0.00     0.031 C 
ATOM     50  C   UNL A   1      40.370  25.664  27.853  1.00  0.00     0.029 A 
ATOM     51  C   UNL A   1      41.697  25.970  28.381  1.00  0.00     0.049 A 
ATOM     52  H   UNL A   1      42.314  27.728  29.313  1.00  0.00     0.167 HD
ATOM     53  C   UNL A   1      43.458  31.517  31.222  1.00  0.00     0.037 A 
ATOM     54  C   UNL A   1      42.762  25.145  28.356  1.00  0.00     0.037 A 
ATOM     55  C   UNL A   1      44.626  30.681  31.298  1.00  0.00     0.049 A 
ATOM     56  C   UNL A   1      44.061  25.606  28.962  1.00  0.00     0.074 A 
ATOM     57  C   UNL A   1      45.847  30.961  31.883  1.00  0.00     0.029 A 
ATOM     58  N   UNL A   1      44.717  29.401  30.771  1.00  0.00    -0.354 N 
ATOM     59  N   UNL A   1      44.336  26.746  29.550  1.00  0.00    -0.248 NA
ATOM     60  C   UNL A   1      45.192  24.671  28.902  1.00  0.00     0.031 C 
ATOM     61  C   UNL A   1      46.690  29.862  31.680  1.00  0.00     0.029 A 
ATOM     62  C   UNL A   1      45.980  28.883  31.003  1.00  0.00     0.049 A 
ATOM     63  H   UNL A   1      43.991  28.929  30.303  1.00  0.00     0.167 HD
ATOM     64  C   UNL A   1      45.664  26.657  29.950  1.00  0.00     0.074 A 
ATOM     65  C   UNL A   1      46.134  25.347  29.545  1.00  0.00     0.031 C 
ATOM     66  C   UNL A   1      46.426  27.576  30.593  1.00  0.00     0.037 A 
BRANCH  53  67
ATOM     67  C   UNL A   1      43.520  32.891  31.823  1.00  0.00     0.058 A 
ATOM     68  C   UNL A   1      43.147  33.122  33.157  1.00  0.00     0.135 A 
ATOM     69  C   UNL A   1      43.990  33.983  31.076  1.00  0.00     0.135 A 
ATOM     70  F   UNL A   1      42.671  32.115  33.909  1.00  0.00    -0.206 F 
ATOM     71  C   UNL A   1      43.218  34.388  33.724  1.00  0.00     0.059 A 
ATOM     72  C   UNL A   1      44.093  35.256  31.630  1.00  0.00     0.059 A 
ATOM     73  F   UNL A   1      44.354  33.819  29.794  1.00  0.00    -0.206 F 
ATOM     74  C   UNL A   1      43.694  35.450  32.952  1.00  0.00     0.060 A 
BRANCH  74  75
ATOM     75  S   UNL A   1      43.794  37.085  33.711  1.00  0.00     0.124 S 
ATOM     76  O   UNL A   1      43.882  37.947  32.535  1.00  0.00    -0.237 OA
ATOM     77  O   UNL A   1      42.542  37.159  34.457  1.00  0.00    -0.237 OA
ATOM     78  O   UNL A   1      45.003  37.011  34.524  1.00  0.00    -0.744 OA
ENDBRANCH  74  75
ENDBRANCH  53  67
BRANCH  54  79
ATOM     79  C   UNL A   1      42.636  23.788  27.764  1.00  0.00     0.058 A 
ATOM     80  C   UNL A   1      42.730  23.598  26.378  1.00  0.00     0.135 A 
ATOM     81  C   UNL A   1      42.436  22.655  28.568  1.00  0.00     0.135 A 
ATOM     82  F   UNL A   1      42.914  24.652  25.569  1.00  0.00    -0.206 F 
ATOM     83  C   UNL A   1      42.624  22.335  25.806  1.00  0.00     0.059 A 
ATOM     84  C   UNL A   1      42.346  21.378  28.021  1.00  0.00     0.059 A 
ATOM     85  F   UNL A   1      42.352  22.781  29.901  1.00  0.00    -0.206 F 
ATOM     86  C   UNL A   1      42.435  21.229  26.637  1.00  0.00     0.060 A 
BRANCH  86  87
ATOM     87  S   UNL A   1      42.351  19.588  25.886  1.00  0.00     0.124 S 
ATOM     88  O   UNL A   1      43.349  19.697  24.830  1.00  0.00    -0.237 OA
ATOM     89  O   UNL A   1      42.699  18.722  27.009  1.00  0.00    -0.237 OA
ATOM     90  O   UNL A   1      40.964  19.495  25.439  1.00  0.00    -0.744 OA
ENDBRANCH  86  87
ENDBRANCH  54  79
BRANCH  66  91
ATOM     91  C   UNL A   1      47.845  27.199  30.915  1.00  0.00     0.058 A 
ATOM     92  C   UNL A   1      48.168  26.499  32.087  1.00  0.00     0.135 A 
ATOM     93  C   UNL A   1      48.878  27.467  30.002  1.00  0.00     0.135 A 
ATOM     94  F   UNL A   1      47.216  26.225  32.993  1.00  0.00    -0.206 F 
ATOM     95  C   UNL A   1      49.469  26.085  32.348  1.00  0.00     0.059 A 
ATOM     96  C   UNL A   1      50.182  27.042  30.232  1.00  0.00     0.059 A 
ATOM     97  F   UNL A   1      48.618  28.126  28.861  1.00  0.00    -0.206 F 
ATOM     98  C   UNL A   1      50.468  26.357  31.412  1.00  0.00     0.060 A 
BRANCH  98  99
ATOM     99  S   UNL A   1      52.142  25.764  31.741  1.00  0.00     0.124 S 
ATOM    100  O   UNL A   1      51.898  24.366  32.079  1.00  0.00    -0.237 OA
ATOM    101  O   UNL A   1      52.813  26.001  30.467  1.00  0.00    -0.237 OA
ATOM    102  O   UNL A   1      52.591  26.608  32.845  1.00  0.00    -0.744 OA
ENDBRANCH  98  99
ENDBRANCH  66  91
ENDBRANCH  40  41
ENDBRANCH  32  35
ENDBRANCH  30  31
ENDBRANCH  29  30
ENDBRANCH   1  29
TORSDOF 19
ENDMDL
