MODEL 1
REMARK VINA RESULT:     -11.6      0.000      0.000
REMARK SMILES Cc1ccc(NC(=O)C[C@@H](C(=O)NCCCCCCNC(=O)c2ccc(-c3c4nc(c(-c5c(F)cc(S(=O)(=O)[O-])cc5F)c5ccc([nH]5)c(-c5c(F)cc(S(=O)(=O)[O-])cc5F)c5nc(c(-c6c(F)cc(S(=O)(=O)[O-])cc6F)c6ccc3[nH]6)C=C5)C=C4)cc2)[C@@H](C)c2ccccc2)cc1Br
REMARK SMILES IDX 16 1 15 2 14 3 13 4 11 5 12 6 10 8 9 9 7 10 6 11 8 13 5 14
REMARK SMILES IDX 1 15 2 16 3 17 98 18 4 19 97 20 99 21 89 22 90 23 91 24
REMARK SMILES IDX 92 25 96 26 93 27 95 28 94 29 17 30 18 31 19 32 20 33 21 34
REMARK SMILES IDX 22 36 23 37 24 38 88 39 25 40 87 41 26 42 27 43 28 44 81 45
REMARK SMILES IDX 29 46 86 47 80 48 82 49 30 50 85 51 79 52 78 53 31 55 65 56
REMARK SMILES IDX 44 57 64 58 45 59 48 60 63 61 83 62 46 63 47 64 62 66 84 67
REMARK SMILES IDX 49 68 32 69 33 70 42 71 34 72 35 73 41 74 43 75 36 76 37 77
REMARK SMILES IDX 38 78 39 79 40 80 66 81 67 82 76 83 68 84 69 85 75 86 77 87
REMARK SMILES IDX 70 88 71 89 72 90 73 91 74 92 50 93 51 94 60 95 52 96 53 97
REMARK SMILES IDX 59 98 61 99 54 100 55 101 56 102 57 103 58 104
REMARK H PARENT 13 7 6 12 20 35 82 54 48 65
REMARK Flexibility Score: inf
ROOT
ATOM      1  C   UNL A   1      38.263  23.434  25.843  1.00  0.00     0.002 C 
ENDROOT
BRANCH   1   2
ATOM      2  C   UNL A   1      36.952  22.834  25.309  1.00  0.00     0.021 C 
BRANCH   2   3
ATOM      3  C   UNL A   1      36.255  21.814  26.216  1.00  0.00     0.116 C 
BRANCH   3   4
ATOM      4  N   UNL A   1      35.381  20.951  25.450  1.00  0.00    -0.356 N 
ATOM      5  C   UNL A   1      34.146  21.089  24.917  1.00  0.00     0.224 C 
ATOM      6  O   UNL A   1      33.666  20.038  24.494  1.00  0.00    -0.275 OA
ATOM      7  H   UNL A   1      35.774  20.064  25.279  1.00  0.00     0.163 HD
BRANCH   5   8
ATOM      8  C   UNL A   1      33.419  22.434  24.822  1.00  0.00     0.095 C 
BRANCH   8   9
ATOM      9  C   UNL A   1      32.093  22.544  25.622  1.00  0.00     0.114 C 
BRANCH   9  10
ATOM     10  C   UNL A   1      31.958  23.248  26.950  1.00  0.00     0.225 C 
ATOM     11  N   UNL A   1      31.603  24.555  27.087  1.00  0.00    -0.326 N 
ATOM     12  H   UNL A   1      31.722  24.915  27.996  1.00  0.00     0.169 HD
ATOM     13  O   UNL A   1      32.192  22.616  27.987  1.00  0.00    -0.275 OA
BRANCH  11  14
ATOM     14  C   UNL A   1      31.098  25.475  26.163  1.00  0.00     0.042 A 
ATOM     15  C   UNL A   1      30.023  27.828  22.724  1.00  0.00     0.045 C 
ATOM     16  C   UNL A   1      30.302  27.068  23.988  1.00  0.00    -0.037 A 
ATOM     17  C   UNL A   1      29.887  25.734  24.083  1.00  0.00     0.007 A 
ATOM     18  C   UNL A   1      31.021  27.620  25.061  1.00  0.00     0.022 A 
ATOM     19  C   UNL A   1      30.249  24.957  25.182  1.00  0.00     0.026 A 
ATOM     20  C   UNL A   1      31.430  26.824  26.138  1.00  0.00     0.042 A 
ATOM     21  Br  UNL A   1      31.509  29.458  25.095  1.00  0.00    -0.050 Br
ENDBRANCH  11  14
ENDBRANCH   9  10
ENDBRANCH   8   9
BRANCH   8  22
ATOM     22  C   UNL A   1      33.095  22.887  23.330  1.00  0.00     0.029 C 
ATOM     23  C   UNL A   1      31.722  22.326  22.876  1.00  0.00     0.013 C 
BRANCH  22  24
ATOM     24  C   UNL A   1      33.194  24.372  22.965  1.00  0.00    -0.044 A 
ATOM     25  C   UNL A   1      32.746  24.903  21.747  1.00  0.00     0.004 A 
ATOM     26  C   UNL A   1      33.868  25.247  23.836  1.00  0.00     0.004 A 
ATOM     27  C   UNL A   1      32.965  26.249  21.423  1.00  0.00     0.000 A 
ATOM     28  C   UNL A   1      34.045  26.600  23.538  1.00  0.00     0.000 A 
ATOM     29  C   UNL A   1      33.601  27.100  22.323  1.00  0.00     0.000 A 
ENDBRANCH  22  24
ENDBRANCH   8  22
ENDBRANCH   5   8
ENDBRANCH   3   4
ENDBRANCH   2   3
ENDBRANCH   1   2
BRANCH   1  30
ATOM     30  C   UNL A   1      39.336  22.417  26.220  1.00  0.00     0.002 C 
BRANCH  30  31
ATOM     31  C   UNL A   1      40.087  22.740  27.510  1.00  0.00     0.021 C 
BRANCH  31  32
ATOM     32  C   UNL A   1      41.510  23.251  27.307  1.00  0.00     0.116 C 
BRANCH  32  33
ATOM     33  N   UNL A   1      41.632  24.085  26.122  1.00  0.00    -0.352 N 
ATOM     34  C   UNL A   1      41.489  25.448  26.030  1.00  0.00     0.251 C 
ATOM     35  H   UNL A   1      41.843  23.616  25.283  1.00  0.00     0.163 HD
ATOM     36  O   UNL A   1      41.428  26.002  24.938  1.00  0.00    -0.269 OA
BRANCH  34  37
ATOM     37  C   UNL A   1      41.386  26.230  27.278  1.00  0.00     0.039 A 
ATOM     38  C   UNL A   1      42.387  27.150  27.590  1.00  0.00     0.014 A 
ATOM     39  C   UNL A   1      40.256  26.099  28.092  1.00  0.00     0.014 A 
ATOM     40  C   UNL A   1      42.226  27.985  28.698  1.00  0.00     0.010 A 
ATOM     41  C   UNL A   1      40.061  26.988  29.142  1.00  0.00     0.010 A 
ATOM     42  C   UNL A   1      41.047  27.933  29.462  1.00  0.00    -0.014 A 
BRANCH  42  43
ATOM     43  C   UNL A   1      40.836  28.853  30.610  1.00  0.00     0.031 A 
ATOM     44  C   UNL A   1      41.673  28.703  31.853  1.00  0.00     0.074 A 
ATOM     45  C   UNL A   1      39.864  29.784  30.554  1.00  0.00     0.049 A 
ATOM     46  N   UNL A   1      41.615  29.376  32.973  1.00  0.00    -0.248 NA
ATOM     47  C   UNL A   1      42.690  27.639  31.846  1.00  0.00     0.031 C 
ATOM     48  C   UNL A   1      38.952  29.989  29.425  1.00  0.00     0.029 A 
ATOM     49  N   UNL A   1      39.472  30.728  31.470  1.00  0.00    -0.354 N 
ATOM     50  C   UNL A   1      42.577  28.811  33.803  1.00  0.00     0.074 A 
ATOM     51  C   UNL A   1      43.158  27.701  33.082  1.00  0.00     0.031 C 
ATOM     52  C   UNL A   1      38.130  31.013  29.703  1.00  0.00     0.029 A 
ATOM     53  C   UNL A   1      38.424  31.512  31.044  1.00  0.00     0.049 A 
ATOM     54  H   UNL A   1      39.900  30.835  32.349  1.00  0.00     0.167 HD
ATOM     55  C   UNL A   1      42.959  29.200  35.043  1.00  0.00     0.037 A 
ATOM     56  C   UNL A   1      37.772  32.514  31.665  1.00  0.00     0.037 A 
ATOM     57  C   UNL A   1      42.389  30.320  35.743  1.00  0.00     0.049 A 
ATOM     58  C   UNL A   1      38.210  32.924  33.046  1.00  0.00     0.074 A 
ATOM     59  C   UNL A   1      42.743  30.834  36.978  1.00  0.00     0.029 A 
ATOM     60  N   UNL A   1      41.338  31.097  35.274  1.00  0.00    -0.354 N 
ATOM     61  N   UNL A   1      39.171  32.426  33.788  1.00  0.00    -0.248 NA
ATOM     62  C   UNL A   1      37.483  34.037  33.672  1.00  0.00     0.031 C 
ATOM     63  C   UNL A   1      41.875  31.888  37.278  1.00  0.00     0.029 A 
ATOM     64  C   UNL A   1      41.016  32.070  36.205  1.00  0.00     0.049 A 
ATOM     65  H   UNL A   1      40.889  30.975  34.406  1.00  0.00     0.167 HD
ATOM     66  C   UNL A   1      39.181  33.180  34.957  1.00  0.00     0.074 A 
ATOM     67  C   UNL A   1      38.140  34.178  34.815  1.00  0.00     0.031 C 
ATOM     68  C   UNL A   1      39.978  33.059  36.047  1.00  0.00     0.037 A 
BRANCH  55  69
ATOM     69  C   UNL A   1      44.048  28.409  35.716  1.00  0.00     0.058 A 
ATOM     70  C   UNL A   1      43.760  27.333  36.572  1.00  0.00     0.135 A 
ATOM     71  C   UNL A   1      45.400  28.713  35.482  1.00  0.00     0.135 A 
ATOM     72  F   UNL A   1      42.486  27.008  36.845  1.00  0.00    -0.206 F 
ATOM     73  C   UNL A   1      44.770  26.608  37.196  1.00  0.00     0.059 A 
ATOM     74  C   UNL A   1      46.426  27.980  36.071  1.00  0.00     0.059 A 
ATOM     75  F   UNL A   1      45.734  29.732  34.675  1.00  0.00    -0.206 F 
ATOM     76  C   UNL A   1      46.100  26.939  36.938  1.00  0.00     0.060 A 
BRANCH  76  77
ATOM     77  S   UNL A   1      47.398  25.983  37.753  1.00  0.00     0.124 S 
ATOM     78  O   UNL A   1      47.185  24.658  37.180  1.00  0.00    -0.237 OA
ATOM     79  O   UNL A   1      48.610  26.673  37.322  1.00  0.00    -0.237 OA
ATOM     80  O   UNL A   1      47.077  26.113  39.171  1.00  0.00    -0.744 OA
ENDBRANCH  76  77
ENDBRANCH  55  69
BRANCH  56  81
ATOM     81  C   UNL A   1      36.652  33.214  30.978  1.00  0.00     0.058 A 
ATOM     82  C   UNL A   1      36.895  34.104  29.921  1.00  0.00     0.135 A 
ATOM     83  C   UNL A   1      35.317  32.998  31.354  1.00  0.00     0.135 A 
ATOM     84  F   UNL A   1      38.153  34.351  29.527  1.00  0.00    -0.206 F 
ATOM     85  C   UNL A   1      35.857  34.767  29.272  1.00  0.00     0.059 A 
ATOM     86  C   UNL A   1      34.262  33.627  30.703  1.00  0.00     0.059 A 
ATOM     87  F   UNL A   1      35.028  32.143  32.349  1.00  0.00    -0.206 F 
ATOM     88  C   UNL A   1      34.542  34.519  29.670  1.00  0.00     0.060 A 
BRANCH  88  89
ATOM     89  S   UNL A   1      33.201  35.347  28.789  1.00  0.00     0.124 S 
ATOM     90  O   UNL A   1      33.936  36.291  27.954  1.00  0.00    -0.237 OA
ATOM     91  O   UNL A   1      32.564  34.237  28.088  1.00  0.00    -0.237 OA
ATOM     92  O   UNL A   1      32.409  35.938  29.862  1.00  0.00    -0.744 OA
ENDBRANCH  88  89
ENDBRANCH  56  81
BRANCH  68  93
ATOM     93  C   UNL A   1      39.782  34.049  37.163  1.00  0.00     0.058 A 
ATOM     94  C   UNL A   1      39.006  33.746  38.291  1.00  0.00     0.135 A 
ATOM     95  C   UNL A   1      40.427  35.296  37.127  1.00  0.00     0.135 A 
ATOM     96  F   UNL A   1      38.362  32.570  38.375  1.00  0.00    -0.206 F 
ATOM     97  C   UNL A   1      38.855  34.655  39.334  1.00  0.00     0.059 A 
ATOM     98  C   UNL A   1      40.316  36.208  38.172  1.00  0.00     0.059 A 
ATOM     99  F   UNL A   1      41.192  35.633  36.075  1.00  0.00    -0.206 F 
ATOM    100  C   UNL A   1      39.517  35.882  39.267  1.00  0.00     0.060 A 
BRANCH 100 101
ATOM    101  S   UNL A   1      39.340  37.036  40.642  1.00  0.00     0.124 S 
ATOM    102  O   UNL A   1      38.513  36.268  41.568  1.00  0.00    -0.237 OA
ATOM    103  O   UNL A   1      40.725  37.246  41.054  1.00  0.00    -0.237 OA
ATOM    104  O   UNL A   1      38.690  38.194  40.035  1.00  0.00    -0.744 OA
ENDBRANCH 100 101
ENDBRANCH  68  93
ENDBRANCH  42  43
ENDBRANCH  34  37
ENDBRANCH  32  33
ENDBRANCH  31  32
ENDBRANCH  30  31
ENDBRANCH   1  30
TORSDOF 21
ENDMDL
MODEL 2
REMARK VINA RESULT:     -11.5      6.403     11.757
REMARK SMILES Cc1ccc(NC(=O)C[C@@H](C(=O)NCCCCCCNC(=O)c2ccc(-c3c4nc(c(-c5c(F)cc(S(=O)(=O)[O-])cc5F)c5ccc([nH]5)c(-c5c(F)cc(S(=O)(=O)[O-])cc5F)c5nc(c(-c6c(F)cc(S(=O)(=O)[O-])cc6F)c6ccc3[nH]6)C=C5)C=C4)cc2)[C@@H](C)c2ccccc2)cc1Br
REMARK SMILES IDX 16 1 15 2 14 3 13 4 11 5 12 6 10 8 9 9 7 10 6 11 8 13 5 14
REMARK SMILES IDX 1 15 2 16 3 17 98 18 4 19 97 20 99 21 89 22 90 23 91 24
REMARK SMILES IDX 92 25 96 26 93 27 95 28 94 29 17 30 18 31 19 32 20 33 21 34
REMARK SMILES IDX 22 36 23 37 24 38 88 39 25 40 87 41 26 42 27 43 28 44 81 45
REMARK SMILES IDX 29 46 86 47 80 48 82 49 30 50 85 51 79 52 78 53 31 55 65 56
REMARK SMILES IDX 44 57 64 58 45 59 48 60 63 61 83 62 46 63 47 64 62 66 84 67
REMARK SMILES IDX 49 68 32 69 33 70 42 71 34 72 35 73 41 74 43 75 36 76 37 77
REMARK SMILES IDX 38 78 39 79 40 80 66 81 67 82 76 83 68 84 69 85 75 86 77 87
REMARK SMILES IDX 70 88 71 89 72 90 73 91 74 92 50 93 51 94 60 95 52 96 53 97
REMARK SMILES IDX 59 98 61 99 54 100 55 101 56 102 57 103 58 104
REMARK H PARENT 13 7 6 12 20 35 82 54 48 65
REMARK Flexibility Score: inf
ROOT
ATOM      1  C   UNL A   1      32.207  30.956  27.014  1.00  0.00     0.002 C 
ENDROOT
BRANCH   1   2
ATOM      2  C   UNL A   1      31.423  30.863  25.695  1.00  0.00     0.021 C 
BRANCH   2   3
ATOM      3  C   UNL A   1      31.262  29.459  25.100  1.00  0.00     0.116 C 
BRANCH   3   4
ATOM      4  N   UNL A   1      32.036  29.319  23.885  1.00  0.00    -0.356 N 
ATOM      5  C   UNL A   1      32.740  28.311  23.322  1.00  0.00     0.224 C 
ATOM      6  O   UNL A   1      33.424  28.658  22.360  1.00  0.00    -0.275 OA
ATOM      7  H   UNL A   1      32.054  30.145  23.347  1.00  0.00     0.163 HD
BRANCH   5   8
ATOM      8  C   UNL A   1      32.672  26.863  23.816  1.00  0.00     0.095 C 
BRANCH   8   9
ATOM      9  C   UNL A   1      31.404  26.485  24.628  1.00  0.00     0.114 C 
BRANCH   9  10
ATOM     10  C   UNL A   1      30.306  25.585  24.117  1.00  0.00     0.225 C 
ATOM     11  N   UNL A   1      30.283  24.235  24.293  1.00  0.00    -0.326 N 
ATOM     12  H   UNL A   1      29.598  23.768  23.762  1.00  0.00     0.169 HD
ATOM     13  O   UNL A   1      29.366  26.086  23.488  1.00  0.00    -0.275 OA
BRANCH  11  14
ATOM     14  C   UNL A   1      31.062  23.396  25.096  1.00  0.00     0.042 A 
ATOM     15  C   UNL A   1      34.054  21.492  27.532  1.00  0.00     0.045 C 
ATOM     16  C   UNL A   1      32.927  22.064  26.723  1.00  0.00    -0.037 A 
ATOM     17  C   UNL A   1      32.286  23.223  27.178  1.00  0.00     0.007 A 
ATOM     18  C   UNL A   1      32.528  21.521  25.491  1.00  0.00     0.022 A 
ATOM     19  C   UNL A   1      31.332  23.860  26.386  1.00  0.00     0.026 A 
ATOM     20  C   UNL A   1      31.608  22.191  24.674  1.00  0.00     0.042 A 
ATOM     21  Br  UNL A   1      33.233  19.876  24.849  1.00  0.00    -0.050 Br
ENDBRANCH  11  14
ENDBRANCH   9  10
ENDBRANCH   8   9
BRANCH   8  22
ATOM     22  C   UNL A   1      33.927  26.421  24.691  1.00  0.00     0.029 C 
ATOM     23  C   UNL A   1      33.643  26.641  26.200  1.00  0.00     0.013 C 
BRANCH  22  24
ATOM     24  C   UNL A   1      34.531  25.030  24.476  1.00  0.00    -0.044 A 
ATOM     25  C   UNL A   1      35.466  24.447  25.344  1.00  0.00     0.004 A 
ATOM     26  C   UNL A   1      34.234  24.330  23.292  1.00  0.00     0.004 A 
ATOM     27  C   UNL A   1      36.069  23.220  25.037  1.00  0.00     0.000 A 
ATOM     28  C   UNL A   1      34.795  23.084  23.005  1.00  0.00     0.000 A 
ATOM     29  C   UNL A   1      35.723  22.532  23.876  1.00  0.00     0.000 A 
ENDBRANCH  22  24
ENDBRANCH   8  22
ENDBRANCH   5   8
ENDBRANCH   3   4
ENDBRANCH   2   3
ENDBRANCH   1   2
BRANCH   1  30
ATOM     30  C   UNL A   1      33.235  29.851  27.237  1.00  0.00     0.002 C 
BRANCH  30  31
ATOM     31  C   UNL A   1      34.686  30.328  27.235  1.00  0.00     0.021 C 
BRANCH  31  32
ATOM     32  C   UNL A   1      35.587  29.629  28.248  1.00  0.00     0.116 C 
BRANCH  32  33
ATOM     33  N   UNL A   1      35.451  30.187  29.584  1.00  0.00    -0.352 N 
ATOM     34  C   UNL A   1      36.428  30.350  30.536  1.00  0.00     0.251 C 
ATOM     35  H   UNL A   1      34.548  30.484  29.838  1.00  0.00     0.163 HD
ATOM     36  O   UNL A   1      36.140  30.654  31.688  1.00  0.00    -0.269 OA
BRANCH  34  37
ATOM     37  C   UNL A   1      37.834  30.124  30.145  1.00  0.00     0.039 A 
ATOM     38  C   UNL A   1      38.735  29.642  31.094  1.00  0.00     0.014 A 
ATOM     39  C   UNL A   1      38.230  30.321  28.818  1.00  0.00     0.014 A 
ATOM     40  C   UNL A   1      40.030  29.302  30.696  1.00  0.00     0.010 A 
ATOM     41  C   UNL A   1      39.491  29.902  28.410  1.00  0.00     0.010 A 
ATOM     42  C   UNL A   1      40.407  29.398  29.345  1.00  0.00    -0.014 A 
BRANCH  42  43
ATOM     43  C   UNL A   1      41.762  28.987  28.896  1.00  0.00     0.031 A 
ATOM     44  C   UNL A   1      42.872  30.003  28.839  1.00  0.00     0.074 A 
ATOM     45  C   UNL A   1      41.980  27.720  28.494  1.00  0.00     0.049 A 
ATOM     46  N   UNL A   1      44.107  29.854  28.438  1.00  0.00    -0.248 NA
ATOM     47  C   UNL A   1      42.541  31.373  29.263  1.00  0.00     0.031 C 
ATOM     48  C   UNL A   1      40.970  26.659  28.453  1.00  0.00     0.029 A 
ATOM     49  N   UNL A   1      43.119  27.107  28.035  1.00  0.00    -0.354 N 
ATOM     50  C   UNL A   1      44.695  31.108  28.551  1.00  0.00     0.074 A 
ATOM     51  C   UNL A   1      43.665  32.019  28.997  1.00  0.00     0.031 C 
ATOM     52  C   UNL A   1      41.541  25.522  28.023  1.00  0.00     0.029 A 
ATOM     53  C   UNL A   1      42.946  25.779  27.718  1.00  0.00     0.049 A 
ATOM     54  H   UNL A   1      43.980  27.574  27.941  1.00  0.00     0.167 HD
ATOM     55  C   UNL A   1      45.983  31.463  28.330  1.00  0.00     0.037 A 
ATOM     56  C   UNL A   1      43.819  24.875  27.233  1.00  0.00     0.037 A 
ATOM     57  C   UNL A   1      47.007  30.544  27.908  1.00  0.00     0.049 A 
ATOM     58  C   UNL A   1      45.244  25.294  26.988  1.00  0.00     0.074 A 
ATOM     59  C   UNL A   1      48.354  30.787  27.710  1.00  0.00     0.029 A 
ATOM     60  N   UNL A   1      46.795  29.205  27.609  1.00  0.00    -0.354 N 
ATOM     61  N   UNL A   1      45.801  26.468  27.170  1.00  0.00    -0.248 NA
ATOM     62  C   UNL A   1      46.162  24.266  26.479  1.00  0.00     0.031 C 
ATOM     63  C   UNL A   1      48.948  29.610  27.244  1.00  0.00     0.029 A 
ATOM     64  C   UNL A   1      47.982  28.616  27.205  1.00  0.00     0.049 A 
ATOM     65  H   UNL A   1      45.929  28.741  27.675  1.00  0.00     0.167 HD
ATOM     66  C   UNL A   1      47.139  26.313  26.824  1.00  0.00     0.074 A 
ATOM     67  C   UNL A   1      47.310  24.928  26.437  1.00  0.00     0.031 C 
ATOM     68  C   UNL A   1      48.136  27.232  26.826  1.00  0.00     0.037 A 
BRANCH  55  69
ATOM     69  C   UNL A   1      46.357  32.905  28.546  1.00  0.00     0.058 A 
ATOM     70  C   UNL A   1      46.299  33.848  27.507  1.00  0.00     0.135 A 
ATOM     71  C   UNL A   1      46.751  33.357  29.817  1.00  0.00     0.135 A 
ATOM     72  F   UNL A   1      45.945  33.469  26.268  1.00  0.00    -0.206 F 
ATOM     73  C   UNL A   1      46.650  35.178  27.710  1.00  0.00     0.059 A 
ATOM     74  C   UNL A   1      47.075  34.691  30.050  1.00  0.00     0.059 A 
ATOM     75  F   UNL A   1      46.826  32.500  30.847  1.00  0.00    -0.206 F 
ATOM     76  C   UNL A   1      47.036  35.590  28.986  1.00  0.00     0.060 A 
BRANCH  76  77
ATOM     77  S   UNL A   1      47.482  37.323  29.233  1.00  0.00     0.124 S 
ATOM     78  O   UNL A   1      47.055  37.915  27.969  1.00  0.00    -0.237 OA
ATOM     79  O   UNL A   1      46.688  37.685  30.403  1.00  0.00    -0.237 OA
ATOM     80  O   UNL A   1      48.925  37.276  29.448  1.00  0.00    -0.744 OA
ENDBRANCH  76  77
ENDBRANCH  55  69
BRANCH  56  81
ATOM     81  C   UNL A   1      43.375  23.479  26.968  1.00  0.00     0.058 A 
ATOM     82  C   UNL A   1      43.245  22.551  28.011  1.00  0.00     0.135 A 
ATOM     83  C   UNL A   1      43.059  23.048  25.670  1.00  0.00     0.135 A 
ATOM     84  F   UNL A   1      43.541  22.910  29.270  1.00  0.00    -0.206 F 
ATOM     85  C   UNL A   1      42.835  21.241  27.778  1.00  0.00     0.059 A 
ATOM     86  C   UNL A   1      42.620  21.753  25.414  1.00  0.00     0.059 A 
ATOM     87  F   UNL A   1      43.150  23.901  24.637  1.00  0.00    -0.206 F 
ATOM     88  C   UNL A   1      42.521  20.853  26.473  1.00  0.00     0.060 A 
BRANCH  88  89
ATOM     89  S   UNL A   1      41.942  19.166  26.188  1.00  0.00     0.124 S 
ATOM     90  O   UNL A   1      40.528  19.386  25.901  1.00  0.00    -0.237 OA
ATOM     91  O   UNL A   1      42.765  18.748  25.059  1.00  0.00    -0.237 OA
ATOM     92  O   UNL A   1      42.233  18.494  27.450  1.00  0.00    -0.744 OA
ENDBRANCH  88  89
ENDBRANCH  56  81
BRANCH  68  93
ATOM     93  C   UNL A   1      49.510  26.767  26.430  1.00  0.00     0.058 A 
ATOM     94  C   UNL A   1      50.371  26.143  27.345  1.00  0.00     0.135 A 
ATOM     95  C   UNL A   1      49.949  26.897  25.102  1.00  0.00     0.135 A 
ATOM     96  F   UNL A   1      50.005  25.997  28.629  1.00  0.00    -0.206 F 
ATOM     97  C   UNL A   1      51.629  25.687  26.963  1.00  0.00     0.059 A 
ATOM     98  C   UNL A   1      51.189  26.421  24.691  1.00  0.00     0.059 A 
ATOM     99  F   UNL A   1      49.160  27.477  24.182  1.00  0.00    -0.206 F 
ATOM    100  C   UNL A   1      52.028  25.827  25.633  1.00  0.00     0.060 A 
BRANCH 100 101
ATOM    101  S   UNL A   1      53.648  25.200  25.145  1.00  0.00     0.124 S 
ATOM    102  O   UNL A   1      53.783  25.748  23.799  1.00  0.00    -0.237 OA
ATOM    103  O   UNL A   1      54.525  25.781  26.157  1.00  0.00    -0.237 OA
ATOM    104  O   UNL A   1      53.489  23.750  25.218  1.00  0.00    -0.744 OA
ENDBRANCH 100 101
ENDBRANCH  68  93
ENDBRANCH  42  43
ENDBRANCH  34  37
ENDBRANCH  32  33
ENDBRANCH  31  32
ENDBRANCH  30  31
ENDBRANCH   1  30
TORSDOF 21
ENDMDL
MODEL 3
REMARK VINA RESULT:     -11.3      1.242      2.458
REMARK SMILES Cc1ccc(NC(=O)C[C@@H](C(=O)NCCCCCCNC(=O)c2ccc(-c3c4nc(c(-c5c(F)cc(S(=O)(=O)[O-])cc5F)c5ccc([nH]5)c(-c5c(F)cc(S(=O)(=O)[O-])cc5F)c5nc(c(-c6c(F)cc(S(=O)(=O)[O-])cc6F)c6ccc3[nH]6)C=C5)C=C4)cc2)[C@@H](C)c2ccccc2)cc1Br
REMARK SMILES IDX 16 1 15 2 14 3 13 4 11 5 12 6 10 8 9 9 7 10 6 11 8 13 5 14
REMARK SMILES IDX 1 15 2 16 3 17 98 18 4 19 97 20 99 21 89 22 90 23 91 24
REMARK SMILES IDX 92 25 96 26 93 27 95 28 94 29 17 30 18 31 19 32 20 33 21 34
REMARK SMILES IDX 22 36 23 37 24 38 88 39 25 40 87 41 26 42 27 43 28 44 81 45
REMARK SMILES IDX 29 46 86 47 80 48 82 49 30 50 85 51 79 52 78 53 31 55 65 56
REMARK SMILES IDX 44 57 64 58 45 59 48 60 63 61 83 62 46 63 47 64 62 66 84 67
REMARK SMILES IDX 49 68 32 69 33 70 42 71 34 72 35 73 41 74 43 75 36 76 37 77
REMARK SMILES IDX 38 78 39 79 40 80 66 81 67 82 76 83 68 84 69 85 75 86 77 87
REMARK SMILES IDX 70 88 71 89 72 90 73 91 74 92 50 93 51 94 60 95 52 96 53 97
REMARK SMILES IDX 59 98 61 99 54 100 55 101 56 102 57 103 58 104
REMARK H PARENT 13 7 6 12 20 35 82 54 48 65
REMARK Flexibility Score: inf
ROOT
ATOM      1  C   UNL A   1      38.433  23.380  26.350  1.00  0.00     0.002 C 
ENDROOT
BRANCH   1   2
ATOM      2  C   UNL A   1      37.232  23.043  25.451  1.00  0.00     0.021 C 
BRANCH   2   3
ATOM      3  C   UNL A   1      36.810  21.570  25.408  1.00  0.00     0.116 C 
BRANCH   3   4
ATOM      4  N   UNL A   1      35.708  21.320  26.312  1.00  0.00    -0.356 N 
ATOM      5  C   UNL A   1      34.361  21.322  26.186  1.00  0.00     0.224 C 
ATOM      6  O   UNL A   1      33.760  21.244  27.257  1.00  0.00    -0.275 OA
ATOM      7  H   UNL A   1      36.005  21.100  27.225  1.00  0.00     0.163 HD
BRANCH   5   8
ATOM      8  C   UNL A   1      33.646  21.386  24.832  1.00  0.00     0.095 C 
BRANCH   8   9
ATOM      9  C   UNL A   1      32.762  22.640  24.594  1.00  0.00     0.114 C 
BRANCH   9  10
ATOM     10  C   UNL A   1      31.572  23.014  25.442  1.00  0.00     0.225 C 
ATOM     11  N   UNL A   1      31.244  24.293  25.773  1.00  0.00    -0.326 N 
ATOM     12  H   UNL A   1      30.547  24.367  26.465  1.00  0.00     0.169 HD
ATOM     13  O   UNL A   1      30.845  22.115  25.882  1.00  0.00    -0.275 OA
BRANCH  11  14
ATOM     14  C   UNL A   1      31.722  25.520  25.301  1.00  0.00     0.042 A 
ATOM     15  C   UNL A   1      33.673  28.781  23.282  1.00  0.00     0.045 C 
ATOM     16  C   UNL A   1      32.911  27.731  24.037  1.00  0.00    -0.037 A 
ATOM     17  C   UNL A   1      32.015  26.911  23.342  1.00  0.00     0.007 A 
ATOM     18  C   UNL A   1      33.106  27.493  25.408  1.00  0.00     0.022 A 
ATOM     19  C   UNL A   1      31.395  25.839  23.981  1.00  0.00     0.026 A 
ATOM     20  C   UNL A   1      32.525  26.384  26.035  1.00  0.00     0.042 A 
ATOM     21  Br  UNL A   1      34.191  28.633  26.475  1.00  0.00    -0.050 Br
ENDBRANCH  11  14
ENDBRANCH   9  10
ENDBRANCH   8   9
BRANCH   8  22
ATOM     22  C   UNL A   1      32.737  20.116  24.522  1.00  0.00     0.029 C 
ATOM     23  C   UNL A   1      32.189  20.181  23.073  1.00  0.00     0.013 C 
BRANCH  22  24
ATOM     24  C   UNL A   1      33.293  18.717  24.804  1.00  0.00    -0.044 A 
ATOM     25  C   UNL A   1      34.546  18.274  24.353  1.00  0.00     0.004 A 
ATOM     26  C   UNL A   1      32.475  17.772  25.448  1.00  0.00     0.004 A 
ATOM     27  C   UNL A   1      34.953  16.947  24.543  1.00  0.00     0.000 A 
ATOM     28  C   UNL A   1      32.896  16.462  25.684  1.00  0.00     0.000 A 
ATOM     29  C   UNL A   1      34.136  16.046  25.221  1.00  0.00     0.000 A 
ENDBRANCH  22  24
ENDBRANCH   8  22
ENDBRANCH   5   8
ENDBRANCH   3   4
ENDBRANCH   2   3
ENDBRANCH   1   2
BRANCH   1  30
ATOM     30  C   UNL A   1      39.580  22.374  26.303  1.00  0.00     0.002 C 
BRANCH  30  31
ATOM     31  C   UNL A   1      40.473  22.377  27.543  1.00  0.00     0.021 C 
BRANCH  31  32
ATOM     32  C   UNL A   1      41.783  23.141  27.381  1.00  0.00     0.116 C 
BRANCH  32  33
ATOM     33  N   UNL A   1      41.796  23.967  26.184  1.00  0.00    -0.352 N 
ATOM     34  C   UNL A   1      41.554  25.315  26.085  1.00  0.00     0.251 C 
ATOM     35  H   UNL A   1      42.003  23.502  25.341  1.00  0.00     0.163 HD
ATOM     36  O   UNL A   1      41.407  25.850  24.991  1.00  0.00    -0.269 OA
BRANCH  34  37
ATOM     37  C   UNL A   1      41.450  26.104  27.329  1.00  0.00     0.039 A 
ATOM     38  C   UNL A   1      42.456  27.018  27.642  1.00  0.00     0.014 A 
ATOM     39  C   UNL A   1      40.314  25.986  28.137  1.00  0.00     0.014 A 
ATOM     40  C   UNL A   1      42.296  27.859  28.744  1.00  0.00     0.010 A 
ATOM     41  C   UNL A   1      40.120  26.882  29.181  1.00  0.00     0.010 A 
ATOM     42  C   UNL A   1      41.112  27.821  29.502  1.00  0.00    -0.014 A 
BRANCH  42  43
ATOM     43  C   UNL A   1      40.902  28.749  30.644  1.00  0.00     0.031 A 
ATOM     44  C   UNL A   1      41.744  28.611  31.885  1.00  0.00     0.074 A 
ATOM     45  C   UNL A   1      39.926  29.675  30.585  1.00  0.00     0.049 A 
ATOM     46  N   UNL A   1      41.689  29.291  33.000  1.00  0.00    -0.248 NA
ATOM     47  C   UNL A   1      42.766  27.550  31.881  1.00  0.00     0.031 C 
ATOM     48  C   UNL A   1      39.010  29.869  29.458  1.00  0.00     0.029 A 
ATOM     49  N   UNL A   1      39.534  30.625  31.495  1.00  0.00    -0.354 N 
ATOM     50  C   UNL A   1      42.655  28.736  33.830  1.00  0.00     0.074 A 
ATOM     51  C   UNL A   1      43.238  27.623  33.115  1.00  0.00     0.031 C 
ATOM     52  C   UNL A   1      38.184  30.892  29.732  1.00  0.00     0.029 A 
ATOM     53  C   UNL A   1      38.482  31.401  31.068  1.00  0.00     0.049 A 
ATOM     54  H   UNL A   1      39.965  30.739  32.372  1.00  0.00     0.167 HD
ATOM     55  C   UNL A   1      43.041  29.135  35.066  1.00  0.00     0.037 A 
ATOM     56  C   UNL A   1      37.828  32.405  31.685  1.00  0.00     0.037 A 
ATOM     57  C   UNL A   1      42.469  30.259  35.760  1.00  0.00     0.049 A 
ATOM     58  C   UNL A   1      38.270  32.827  33.061  1.00  0.00     0.074 A 
ATOM     59  C   UNL A   1      42.826  30.782  36.990  1.00  0.00     0.029 A 
ATOM     60  N   UNL A   1      41.414  31.028  35.289  1.00  0.00    -0.354 N 
ATOM     61  N   UNL A   1      39.236  32.338  33.802  1.00  0.00    -0.248 NA
ATOM     62  C   UNL A   1      37.541  33.941  33.682  1.00  0.00     0.031 C 
ATOM     63  C   UNL A   1      41.955  31.835  37.286  1.00  0.00     0.029 A 
ATOM     64  C   UNL A   1      41.091  32.007  36.215  1.00  0.00     0.049 A 
ATOM     65  H   UNL A   1      40.962  30.898  34.425  1.00  0.00     0.167 HD
ATOM     66  C   UNL A   1      39.247  33.101  34.966  1.00  0.00     0.074 A 
ATOM     67  C   UNL A   1      38.202  34.093  34.821  1.00  0.00     0.031 C 
ATOM     68  C   UNL A   1      40.049  32.991  36.054  1.00  0.00     0.037 A 
BRANCH  55  69
ATOM     69  C   UNL A   1      44.135  28.354  35.741  1.00  0.00     0.058 A 
ATOM     70  C   UNL A   1      43.855  27.278  36.599  1.00  0.00     0.135 A 
ATOM     71  C   UNL A   1      45.485  28.666  35.505  1.00  0.00     0.135 A 
ATOM     72  F   UNL A   1      42.584  26.945  36.874  1.00  0.00    -0.206 F 
ATOM     73  C   UNL A   1      44.870  26.562  37.224  1.00  0.00     0.059 A 
ATOM     74  C   UNL A   1      46.517  27.942  36.095  1.00  0.00     0.059 A 
ATOM     75  F   UNL A   1      45.812  29.686  34.695  1.00  0.00    -0.206 F 
ATOM     76  C   UNL A   1      46.198  26.901  36.966  1.00  0.00     0.060 A 
BRANCH  76  77
ATOM     77  S   UNL A   1      47.503  25.956  37.782  1.00  0.00     0.124 S 
ATOM     78  O   UNL A   1      47.384  24.663  37.117  1.00  0.00    -0.237 OA
ATOM     79  O   UNL A   1      48.697  26.729  37.456  1.00  0.00    -0.237 OA
ATOM     80  O   UNL A   1      47.110  25.977  39.187  1.00  0.00    -0.744 OA
ENDBRANCH  76  77
ENDBRANCH  55  69
BRANCH  56  81
ATOM     81  C   UNL A   1      36.703  33.096  30.997  1.00  0.00     0.058 A 
ATOM     82  C   UNL A   1      36.939  33.994  29.946  1.00  0.00     0.135 A 
ATOM     83  C   UNL A   1      35.369  32.862  31.367  1.00  0.00     0.135 A 
ATOM     84  F   UNL A   1      38.196  34.257  29.557  1.00  0.00    -0.206 F 
ATOM     85  C   UNL A   1      35.897  34.648  29.296  1.00  0.00     0.059 A 
ATOM     86  C   UNL A   1      34.309  33.483  30.715  1.00  0.00     0.059 A 
ATOM     87  F   UNL A   1      35.086  31.999  32.356  1.00  0.00    -0.206 F 
ATOM     88  C   UNL A   1      34.583  34.384  29.688  1.00  0.00     0.060 A 
BRANCH  88  89
ATOM     89  S   UNL A   1      33.235  35.201  28.805  1.00  0.00     0.124 S 
ATOM     90  O   UNL A   1      33.941  36.281  28.126  1.00  0.00    -0.237 OA
ATOM     91  O   UNL A   1      32.735  34.129  27.951  1.00  0.00    -0.237 OA
ATOM     92  O   UNL A   1      32.333  35.611  29.877  1.00  0.00    -0.744 OA
ENDBRANCH  88  89
ENDBRANCH  56  81
BRANCH  68  93
ATOM     93  C   UNL A   1      39.853  33.987  37.163  1.00  0.00     0.058 A 
ATOM     94  C   UNL A   1      39.091  33.686  38.302  1.00  0.00     0.135 A 
ATOM     95  C   UNL A   1      40.485  35.241  37.111  1.00  0.00     0.135 A 
ATOM     96  F   UNL A   1      38.461  32.504  38.401  1.00  0.00    -0.206 F 
ATOM     97  C   UNL A   1      38.941  34.602  39.338  1.00  0.00     0.059 A 
ATOM     98  C   UNL A   1      40.374  36.160  38.149  1.00  0.00     0.059 A 
ATOM     99  F   UNL A   1      41.236  35.577  36.049  1.00  0.00    -0.206 F 
ATOM    100  C   UNL A   1      39.589  35.835  39.254  1.00  0.00     0.060 A 
BRANCH 100 101
ATOM    101  S   UNL A   1      39.414  36.999  40.622  1.00  0.00     0.124 S 
ATOM    102  O   UNL A   1      40.793  37.121  41.084  1.00  0.00    -0.237 OA
ATOM    103  O   UNL A   1      38.860  38.177  39.960  1.00  0.00    -0.237 OA
ATOM    104  O   UNL A   1      38.504  36.316  41.537  1.00  0.00    -0.744 OA
ENDBRANCH 100 101
ENDBRANCH  68  93
ENDBRANCH  42  43
ENDBRANCH  34  37
ENDBRANCH  32  33
ENDBRANCH  31  32
ENDBRANCH  30  31
ENDBRANCH   1  30
TORSDOF 21
ENDMDL
