MODEL 1
REMARK VINA RESULT:     -11.0      0.000      0.000
REMARK SMILES O=C(NCCCCCCNC(=O)c1sccc1NS(=O)(=O)N1CCCC1)c1ccc(-c2c3nc(c(-c4c(F)cc(S(=O)(=O)[O-])cc4F)c4ccc([nH]4)c(-c4c(F)cc(S(=O)(=O)[O-])cc4F)c4nc(c(-c5c(F)cc(S(=O)(=O)[O-])cc5F)c5ccc2[nH]5)C=C4)C=C3)cc1
REMARK SMILES IDX 6 1 5 2 4 3 3 4 1 5 2 6 27 8 28 9 92 10 29 11 91 12 30 13
REMARK SMILES IDX 31 14 32 15 85 16 33 17 90 18 84 19 86 20 34 21 89 22 83 23
REMARK SMILES IDX 82 24 35 26 69 27 48 28 68 29 49 30 52 31 67 32 87 33 50 34
REMARK SMILES IDX 51 35 66 37 88 38 53 39 36 40 37 41 46 42 38 43 39 44 45 45
REMARK SMILES IDX 47 46 40 47 41 48 42 49 43 50 44 51 70 52 71 53 80 54 72 55
REMARK SMILES IDX 73 56 79 57 81 58 74 59 75 60 76 61 77 62 78 63 54 64 55 65
REMARK SMILES IDX 64 66 56 67 57 68 63 69 65 70 58 71 59 72 60 73 61 74 62 75
REMARK SMILES IDX 7 76 8 77 9 78 10 79 11 80 12 82 13 83 14 84 17 85 15 86
REMARK SMILES IDX 16 87 18 88 19 90 20 91 21 92 22 93 23 94 26 95 24 96 25 97
REMARK H PARENT 3 7 86 25 52 36 10 81 18 89
REMARK Flexibility Score: inf
ROOT
ATOM      1  C   UNL A   1      39.285  22.606  26.785  1.00  0.00     0.002 C 
ENDROOT
BRANCH   1   2
ATOM      2  C   UNL A   1      40.612  22.221  27.433  1.00  0.00     0.021 C 
BRANCH   2   3
ATOM      3  C   UNL A   1      41.613  23.357  27.537  1.00  0.00     0.116 C 
BRANCH   3   4
ATOM      4  N   UNL A   1      41.753  24.099  26.292  1.00  0.00    -0.352 N 
ATOM      5  O   UNL A   1      41.543  25.890  24.928  1.00  0.00    -0.269 OA
ATOM      6  C   UNL A   1      41.535  25.439  26.068  1.00  0.00     0.251 C 
ATOM      7  H   UNL A   1      42.039  23.575  25.510  1.00  0.00     0.163 HD
BRANCH   6   8
ATOM      8  C   UNL A   1      41.266  26.318  27.226  1.00  0.00     0.039 A 
ATOM      9  C   UNL A   1      42.119  27.388  27.494  1.00  0.00     0.014 A 
ATOM     10  C   UNL A   1      40.193  26.040  28.078  1.00  0.00     0.014 A 
ATOM     11  C   UNL A   1      42.012  28.063  28.699  1.00  0.00     0.010 A 
ATOM     12  C   UNL A   1      40.010  26.812  29.231  1.00  0.00     0.010 A 
ATOM     13  C   UNL A   1      40.935  27.813  29.566  1.00  0.00    -0.014 A 
BRANCH  13  14
ATOM     14  C   UNL A   1      40.768  28.697  30.748  1.00  0.00     0.031 A 
ATOM     15  C   UNL A   1      41.664  28.600  31.950  1.00  0.00     0.074 A 
ATOM     16  C   UNL A   1      39.814  29.650  30.682  1.00  0.00     0.049 A 
ATOM     17  N   UNL A   1      41.670  29.346  33.027  1.00  0.00    -0.248 NA
ATOM     18  C   UNL A   1      42.677  27.533  31.958  1.00  0.00     0.031 C 
ATOM     19  C   UNL A   1      38.870  29.817  29.571  1.00  0.00     0.029 A 
ATOM     20  N   UNL A   1      39.497  30.671  31.537  1.00  0.00    -0.354 N 
ATOM     21  C   UNL A   1      42.677  28.840  33.841  1.00  0.00     0.074 A 
ATOM     22  C   UNL A   1      43.240  27.700  33.150  1.00  0.00     0.031 C 
ATOM     23  C   UNL A   1      38.129  30.912  29.780  1.00  0.00     0.029 A 
ATOM     24  C   UNL A   1      38.480  31.475  31.076  1.00  0.00     0.049 A 
ATOM     25  H   UNL A   1      39.952  30.818  32.397  1.00  0.00     0.167 HD
ATOM     26  C   UNL A   1      43.097  29.297  35.046  1.00  0.00     0.037 A 
ATOM     27  C   UNL A   1      37.871  32.533  31.642  1.00  0.00     0.037 A 
ATOM     28  C   UNL A   1      42.525  30.438  35.723  1.00  0.00     0.049 A 
ATOM     29  C   UNL A   1      38.342  32.995  32.989  1.00  0.00     0.074 A 
ATOM     30  C   UNL A   1      42.887  30.986  36.941  1.00  0.00     0.029 A 
ATOM     31  N   UNL A   1      41.474  31.206  35.242  1.00  0.00    -0.354 N 
ATOM     32  N   UNL A   1      39.314  32.518  33.729  1.00  0.00    -0.248 NA
ATOM     33  C   UNL A   1      37.636  34.138  33.579  1.00  0.00     0.031 C 
ATOM     34  C   UNL A   1      42.026  32.052  37.219  1.00  0.00     0.029 A 
ATOM     35  C   UNL A   1      41.163  32.210  36.147  1.00  0.00     0.049 A 
ATOM     36  H   UNL A   1      41.015  31.060  34.382  1.00  0.00     0.167 HD
ATOM     37  C   UNL A   1      39.341  33.309  34.871  1.00  0.00     0.074 A 
ATOM     38  C   UNL A   1      38.316  34.319  34.700  1.00  0.00     0.031 C 
ATOM     39  C   UNL A   1      40.134  33.204  35.965  1.00  0.00     0.037 A 
BRANCH  26  40
ATOM     40  C   UNL A   1      44.229  28.571  35.726  1.00  0.00     0.058 A 
ATOM     41  C   UNL A   1      45.568  28.932  35.512  1.00  0.00     0.135 A 
ATOM     42  C   UNL A   1      43.970  27.563  36.671  1.00  0.00     0.135 A 
ATOM     43  F   UNL A   1      45.878  29.878  34.611  1.00  0.00    -0.206 F 
ATOM     44  C   UNL A   1      46.609  28.314  36.200  1.00  0.00     0.059 A 
ATOM     45  C   UNL A   1      44.993  26.952  37.391  1.00  0.00     0.059 A 
ATOM     46  F   UNL A   1      42.708  27.178  36.918  1.00  0.00    -0.206 F 
ATOM     47  C   UNL A   1      46.311  27.331  37.145  1.00  0.00     0.060 A 
BRANCH  47  48
ATOM     48  S   UNL A   1      47.672  26.574  38.059  1.00  0.00     0.124 S 
ATOM     49  O   UNL A   1      48.832  27.151  37.387  1.00  0.00    -0.237 OA
ATOM     50  O   UNL A   1      47.429  27.043  39.419  1.00  0.00    -0.237 OA
ATOM     51  O   UNL A   1      47.472  25.144  37.848  1.00  0.00    -0.744 OA
ENDBRANCH  47  48
ENDBRANCH  26  40
BRANCH  27  52
ATOM     52  C   UNL A   1      36.730  33.190  30.953  1.00  0.00     0.058 A 
ATOM     53  C   UNL A   1      36.926  34.032  29.849  1.00  0.00     0.135 A 
ATOM     54  C   UNL A   1      35.411  32.988  31.393  1.00  0.00     0.135 A 
ATOM     55  F   UNL A   1      38.167  34.256  29.388  1.00  0.00    -0.206 F 
ATOM     56  C   UNL A   1      35.863  34.678  29.229  1.00  0.00     0.059 A 
ATOM     57  C   UNL A   1      34.328  33.590  30.765  1.00  0.00     0.059 A 
ATOM     58  F   UNL A   1      35.164  32.173  32.430  1.00  0.00    -0.206 F 
ATOM     59  C   UNL A   1      34.567  34.452  29.697  1.00  0.00     0.060 A 
BRANCH  59  60
ATOM     60  S   UNL A   1      33.190  35.286  28.880  1.00  0.00     0.124 S 
ATOM     61  O   UNL A   1      33.883  36.336  28.141  1.00  0.00    -0.237 OA
ATOM     62  O   UNL A   1      32.614  34.213  28.077  1.00  0.00    -0.237 OA
ATOM     63  O   UNL A   1      32.363  35.738  29.995  1.00  0.00    -0.744 OA
ENDBRANCH  59  60
ENDBRANCH  27  52
BRANCH  39  64
ATOM     64  C   UNL A   1      39.933  34.228  37.049  1.00  0.00     0.058 A 
ATOM     65  C   UNL A   1      39.102  33.980  38.153  1.00  0.00     0.135 A 
ATOM     66  C   UNL A   1      40.575  35.475  36.979  1.00  0.00     0.135 A 
ATOM     67  F   UNL A   1      38.458  32.807  38.265  1.00  0.00    -0.206 F 
ATOM     68  C   UNL A   1      38.878  34.948  39.126  1.00  0.00     0.059 A 
ATOM     69  C   UNL A   1      40.393  36.445  37.958  1.00  0.00     0.059 A 
ATOM     70  F   UNL A   1      41.388  35.762  35.950  1.00  0.00    -0.206 F 
ATOM     71  C   UNL A   1      39.525  36.180  39.018  1.00  0.00     0.060 A 
BRANCH  71  72
ATOM     72  S   UNL A   1      39.222  37.430  40.283  1.00  0.00     0.124 S 
ATOM     73  O   UNL A   1      40.564  37.960  40.499  1.00  0.00    -0.237 OA
ATOM     74  O   UNL A   1      38.284  38.328  39.617  1.00  0.00    -0.237 OA
ATOM     75  O   UNL A   1      38.665  36.663  41.392  1.00  0.00    -0.744 OA
ENDBRANCH  71  72
ENDBRANCH  39  64
ENDBRANCH  13  14
ENDBRANCH   6   8
ENDBRANCH   3   4
ENDBRANCH   2   3
ENDBRANCH   1   2
BRANCH   1  76
ATOM     76  C   UNL A   1      38.690  21.559  25.839  1.00  0.00     0.002 C 
BRANCH  76  77
ATOM     77  C   UNL A   1      37.673  22.083  24.822  1.00  0.00     0.021 C 
BRANCH  77  78
ATOM     78  C   UNL A   1      36.319  21.389  24.856  1.00  0.00     0.116 C 
BRANCH  78  79
ATOM     79  N   UNL A   1      35.755  21.342  26.184  1.00  0.00    -0.351 N 
ATOM     80  C   UNL A   1      34.445  21.434  26.558  1.00  0.00     0.263 C 
ATOM     81  H   UNL A   1      36.402  21.230  26.918  1.00  0.00     0.163 HD
ATOM     82  O   UNL A   1      34.203  21.497  27.764  1.00  0.00    -0.268 OA
BRANCH  80  83
ATOM     83  C   UNL A   1      33.408  21.468  25.555  1.00  0.00     0.116 A 
ATOM     84  S   UNL A   1      32.954  19.941  24.899  1.00  0.00    -0.136 S 
ATOM     85  C   UNL A   1      32.763  22.527  24.925  1.00  0.00     0.073 A 
ATOM     86  C   UNL A   1      32.156  20.679  23.594  1.00  0.00     0.068 A 
ATOM     87  C   UNL A   1      32.205  22.049  23.694  1.00  0.00     0.039 A 
BRANCH  85  88
ATOM     88  N   UNL A   1      32.842  23.928  25.195  1.00  0.00    -0.269 N 
ATOM     89  H   UNL A   1      33.633  24.426  24.886  1.00  0.00     0.181 HD
BRANCH  88  90
ATOM     90  S   UNL A   1      31.619  24.769  26.033  1.00  0.00     0.301 S 
ATOM     91  O   UNL A   1      30.486  24.908  25.145  1.00  0.00    -0.189 OA
ATOM     92  O   UNL A   1      31.457  24.064  27.280  1.00  0.00    -0.189 OA
BRANCH  90  93
ATOM     93  N   UNL A   1      32.159  26.325  26.406  1.00  0.00    -0.185 NA
ATOM     94  C   UNL A   1      31.240  27.391  25.864  1.00  0.00     0.104 C 
ATOM     95  C   UNL A   1      33.469  26.824  25.983  1.00  0.00     0.104 C 
ATOM     96  C   UNL A   1      31.831  27.738  24.490  1.00  0.00     0.018 C 
ATOM     97  C   UNL A   1      33.286  27.277  24.549  1.00  0.00     0.018 C 
ENDBRANCH  90  93
ENDBRANCH  88  90
ENDBRANCH  85  88
ENDBRANCH  80  83
ENDBRANCH  78  79
ENDBRANCH  77  78
ENDBRANCH  76  77
ENDBRANCH   1  76
TORSDOF 19
ENDMDL
MODEL 2
REMARK VINA RESULT:     -11.0      5.401     11.755
REMARK SMILES O=C(NCCCCCCNC(=O)c1sccc1NS(=O)(=O)N1CCCC1)c1ccc(-c2c3nc(c(-c4c(F)cc(S(=O)(=O)[O-])cc4F)c4ccc([nH]4)c(-c4c(F)cc(S(=O)(=O)[O-])cc4F)c4nc(c(-c5c(F)cc(S(=O)(=O)[O-])cc5F)c5ccc2[nH]5)C=C4)C=C3)cc1
REMARK SMILES IDX 6 1 5 2 4 3 3 4 1 5 2 6 27 8 28 9 92 10 29 11 91 12 30 13
REMARK SMILES IDX 31 14 32 15 85 16 33 17 90 18 84 19 86 20 34 21 89 22 83 23
REMARK SMILES IDX 82 24 35 26 69 27 48 28 68 29 49 30 52 31 67 32 87 33 50 34
REMARK SMILES IDX 51 35 66 37 88 38 53 39 36 40 37 41 46 42 38 43 39 44 45 45
REMARK SMILES IDX 47 46 40 47 41 48 42 49 43 50 44 51 70 52 71 53 80 54 72 55
REMARK SMILES IDX 73 56 79 57 81 58 74 59 75 60 76 61 77 62 78 63 54 64 55 65
REMARK SMILES IDX 64 66 56 67 57 68 63 69 65 70 58 71 59 72 60 73 61 74 62 75
REMARK SMILES IDX 7 76 8 77 9 78 10 79 11 80 12 82 13 83 14 84 17 85 15 86
REMARK SMILES IDX 16 87 18 88 19 90 20 91 21 92 22 93 23 94 26 95 24 96 25 97
REMARK H PARENT 3 7 86 25 52 36 10 81 18 89
REMARK Flexibility Score: inf
ROOT
ATOM      1  C   UNL A   1      34.838  34.924  29.458  1.00  0.00     0.002 C 
ENDROOT
BRANCH   1   2
ATOM      2  C   UNL A   1      34.701  33.804  28.431  1.00  0.00     0.021 C 
BRANCH   2   3
ATOM      3  C   UNL A   1      35.216  32.456  28.901  1.00  0.00     0.116 C 
BRANCH   3   4
ATOM      4  N   UNL A   1      34.364  31.351  28.484  1.00  0.00    -0.352 N 
ATOM      5  O   UNL A   1      33.913  29.312  27.617  1.00  0.00    -0.269 OA
ATOM      6  C   UNL A   1      34.737  30.087  28.091  1.00  0.00     0.251 C 
ATOM      7  H   UNL A   1      33.397  31.533  28.484  1.00  0.00     0.163 HD
BRANCH   6   8
ATOM      8  C   UNL A   1      36.155  29.690  28.227  1.00  0.00     0.039 A 
ATOM      9  C   UNL A   1      36.610  29.155  29.432  1.00  0.00     0.014 A 
ATOM     10  C   UNL A   1      37.043  29.905  27.169  1.00  0.00     0.014 A 
ATOM     11  C   UNL A   1      37.971  29.006  29.643  1.00  0.00     0.010 A 
ATOM     12  C   UNL A   1      38.404  29.627  27.344  1.00  0.00     0.010 A 
ATOM     13  C   UNL A   1      38.884  29.201  28.592  1.00  0.00    -0.014 A 
BRANCH  13  14
ATOM     14  C   UNL A   1      40.306  28.843  28.825  1.00  0.00     0.031 A 
ATOM     15  C   UNL A   1      40.859  27.493  28.464  1.00  0.00     0.074 A 
ATOM     16  C   UNL A   1      41.117  29.803  29.317  1.00  0.00     0.049 A 
ATOM     17  N   UNL A   1      42.092  27.064  28.557  1.00  0.00    -0.248 NA
ATOM     18  C   UNL A   1      39.916  26.492  27.940  1.00  0.00     0.031 C 
ATOM     19  C   UNL A   1      40.680  31.143  29.725  1.00  0.00     0.029 A 
ATOM     20  N   UNL A   1      42.470  29.823  29.527  1.00  0.00    -0.354 N 
ATOM     21  C   UNL A   1      42.078  25.747  28.110  1.00  0.00     0.074 A 
ATOM     22  C   UNL A   1      40.704  25.434  27.779  1.00  0.00     0.031 C 
ATOM     23  C   UNL A   1      41.748  31.872  30.071  1.00  0.00     0.029 A 
ATOM     24  C   UNL A   1      42.934  31.031  29.995  1.00  0.00     0.049 A 
ATOM     25  H   UNL A   1      43.055  29.050  29.358  1.00  0.00     0.167 HD
ATOM     26  C   UNL A   1      43.119  24.888  27.980  1.00  0.00     0.037 A 
ATOM     27  C   UNL A   1      44.171  31.417  30.355  1.00  0.00     0.037 A 
ATOM     28  C   UNL A   1      44.485  25.217  28.315  1.00  0.00     0.049 A 
ATOM     29  C   UNL A   1      45.296  30.432  30.224  1.00  0.00     0.074 A 
ATOM     30  C   UNL A   1      45.611  24.420  28.209  1.00  0.00     0.029 A 
ATOM     31  N   UNL A   1      44.911  26.438  28.819  1.00  0.00    -0.354 N 
ATOM     32  N   UNL A   1      45.263  29.201  29.776  1.00  0.00    -0.248 NA
ATOM     33  C   UNL A   1      46.624  30.888  30.648  1.00  0.00     0.031 C 
ATOM     34  C   UNL A   1      46.708  25.140  28.693  1.00  0.00     0.029 A 
ATOM     35  C   UNL A   1      46.279  26.408  29.047  1.00  0.00     0.049 A 
ATOM     36  H   UNL A   1      44.327  27.212  28.991  1.00  0.00     0.167 HD
ATOM     37  C   UNL A   1      46.570  28.736  29.855  1.00  0.00     0.074 A 
ATOM     38  C   UNL A   1      47.371  29.835  30.356  1.00  0.00     0.031 C 
ATOM     39  C   UNL A   1      47.061  27.509  29.552  1.00  0.00     0.037 A 
BRANCH  26  40
ATOM     40  C   UNL A   1      42.837  23.504  27.455  1.00  0.00     0.058 A 
ATOM     41  C   UNL A   1      43.013  23.181  26.101  1.00  0.00     0.135 A 
ATOM     42  C   UNL A   1      42.472  22.466  28.330  1.00  0.00     0.135 A 
ATOM     43  F   UNL A   1      43.348  24.133  25.216  1.00  0.00    -0.206 F 
ATOM     44  C   UNL A   1      42.830  21.883  25.631  1.00  0.00     0.059 A 
ATOM     45  C   UNL A   1      42.310  21.156  27.887  1.00  0.00     0.059 A 
ATOM     46  F   UNL A   1      42.289  22.717  29.636  1.00  0.00    -0.206 F 
ATOM     47  C   UNL A   1      42.486  20.875  26.534  1.00  0.00     0.060 A 
BRANCH  47  48
ATOM     48  S   UNL A   1      42.296  19.191  25.912  1.00  0.00     0.124 S 
ATOM     49  O   UNL A   1      40.857  19.125  25.678  1.00  0.00    -0.237 OA
ATOM     50  O   UNL A   1      43.132  19.207  24.715  1.00  0.00    -0.237 OA
ATOM     51  O   UNL A   1      42.791  18.364  27.007  1.00  0.00    -0.744 OA
ENDBRANCH  47  48
ENDBRANCH  26  40
BRANCH  27  52
ATOM     52  C   UNL A   1      44.393  32.778  30.909  1.00  0.00     0.058 A 
ATOM     53  C   UNL A   1      44.243  33.047  32.276  1.00  0.00     0.135 A 
ATOM     54  C   UNL A   1      44.760  33.845  30.070  1.00  0.00     0.135 A 
ATOM     55  F   UNL A   1      43.896  32.062  33.119  1.00  0.00    -0.206 F 
ATOM     56  C   UNL A   1      44.412  34.328  32.789  1.00  0.00     0.059 A 
ATOM     57  C   UNL A   1      44.974  35.126  30.564  1.00  0.00     0.059 A 
ATOM     58  F   UNL A   1      44.940  33.638  28.757  1.00  0.00    -0.206 F 
ATOM     59  C   UNL A   1      44.776  35.362  31.923  1.00  0.00     0.060 A 
BRANCH  59  60
ATOM     60  S   UNL A   1      45.004  37.020  32.597  1.00  0.00     0.124 S 
ATOM     61  O   UNL A   1      45.891  37.618  31.606  1.00  0.00    -0.237 OA
ATOM     62  O   UNL A   1      43.638  37.532  32.624  1.00  0.00    -0.237 OA
ATOM     63  O   UNL A   1      45.598  36.771  33.908  1.00  0.00    -0.744 OA
ENDBRANCH  59  60
ENDBRANCH  27  52
BRANCH  39  64
ATOM     64  C   UNL A   1      48.541  27.308  29.735  1.00  0.00     0.058 A 
ATOM     65  C   UNL A   1      49.074  26.798  30.929  1.00  0.00     0.135 A 
ATOM     66  C   UNL A   1      49.437  27.634  28.704  1.00  0.00     0.135 A 
ATOM     67  F   UNL A   1      48.262  26.478  31.950  1.00  0.00    -0.206 F 
ATOM     68  C   UNL A   1      50.446  26.662  31.113  1.00  0.00     0.059 A 
ATOM     69  C   UNL A   1      50.810  27.474  28.853  1.00  0.00     0.059 A 
ATOM     70  F   UNL A   1      48.980  28.116  27.537  1.00  0.00    -0.206 F 
ATOM     71  C   UNL A   1      51.307  27.007  30.070  1.00  0.00     0.060 A 
BRANCH  71  72
ATOM     72  S   UNL A   1      53.085  26.831  30.322  1.00  0.00     0.124 S 
ATOM     73  O   UNL A   1      53.140  25.690  31.230  1.00  0.00    -0.237 OA
ATOM     74  O   UNL A   1      53.570  26.588  28.967  1.00  0.00    -0.237 OA
ATOM     75  O   UNL A   1      53.475  28.112  30.900  1.00  0.00    -0.744 OA
ENDBRANCH  71  72
ENDBRANCH  39  64
ENDBRANCH  13  14
ENDBRANCH   6   8
ENDBRANCH   3   4
ENDBRANCH   2   3
ENDBRANCH   1   2
BRANCH   1  76
ATOM     76  C   UNL A   1      33.569  35.241  30.255  1.00  0.00     0.002 C 
BRANCH  76  77
ATOM     77  C   UNL A   1      33.687  35.105  31.775  1.00  0.00     0.021 C 
BRANCH  77  78
ATOM     78  C   UNL A   1      34.021  33.705  32.268  1.00  0.00     0.116 C 
BRANCH  78  79
ATOM     79  N   UNL A   1      34.522  33.699  33.621  1.00  0.00    -0.351 N 
ATOM     80  C   UNL A   1      35.781  33.409  34.064  1.00  0.00     0.263 C 
ATOM     81  H   UNL A   1      33.868  33.935  34.320  1.00  0.00     0.163 HD
ATOM     82  O   UNL A   1      35.953  33.343  35.281  1.00  0.00    -0.268 OA
BRANCH  80  83
ATOM     83  C   UNL A   1      36.845  33.181  33.115  1.00  0.00     0.116 A 
ATOM     84  S   UNL A   1      37.586  34.595  32.470  1.00  0.00    -0.136 S 
ATOM     85  C   UNL A   1      37.328  32.016  32.529  1.00  0.00     0.073 A 
ATOM     86  C   UNL A   1      38.309  33.709  31.214  1.00  0.00     0.068 A 
ATOM     87  C   UNL A   1      38.020  32.369  31.324  1.00  0.00     0.039 A 
BRANCH  85  88
ATOM     88  N   UNL A   1      36.996  30.654  32.807  1.00  0.00    -0.269 N 
ATOM     89  H   UNL A   1      36.099  30.327  32.567  1.00  0.00     0.181 HD
BRANCH  88  90
ATOM     90  S   UNL A   1      38.094  29.575  33.538  1.00  0.00     0.301 S 
ATOM     91  O   UNL A   1      38.291  30.001  34.906  1.00  0.00    -0.189 OA
ATOM     92  O   UNL A   1      37.567  28.258  33.278  1.00  0.00    -0.189 OA
BRANCH  90  93
ATOM     93  N   UNL A   1      39.589  29.676  32.760  1.00  0.00    -0.185 NA
ATOM     94  C   UNL A   1      40.169  28.316  32.463  1.00  0.00     0.104 C 
ATOM     95  C   UNL A   1      40.739  30.361  33.356  1.00  0.00     0.104 C 
ATOM     96  C   UNL A   1      41.054  28.007  33.679  1.00  0.00     0.018 C 
ATOM     97  C   UNL A   1      41.353  29.362  34.315  1.00  0.00     0.018 C 
ENDBRANCH  90  93
ENDBRANCH  88  90
ENDBRANCH  85  88
ENDBRANCH  80  83
ENDBRANCH  78  79
ENDBRANCH  77  78
ENDBRANCH  76  77
ENDBRANCH   1  76
TORSDOF 19
ENDMDL
MODEL 3
REMARK VINA RESULT:     -10.9      1.347      2.708
REMARK SMILES O=C(NCCCCCCNC(=O)c1sccc1NS(=O)(=O)N1CCCC1)c1ccc(-c2c3nc(c(-c4c(F)cc(S(=O)(=O)[O-])cc4F)c4ccc([nH]4)c(-c4c(F)cc(S(=O)(=O)[O-])cc4F)c4nc(c(-c5c(F)cc(S(=O)(=O)[O-])cc5F)c5ccc2[nH]5)C=C4)C=C3)cc1
REMARK SMILES IDX 6 1 5 2 4 3 3 4 1 5 2 6 27 8 28 9 92 10 29 11 91 12 30 13
REMARK SMILES IDX 31 14 32 15 85 16 33 17 90 18 84 19 86 20 34 21 89 22 83 23
REMARK SMILES IDX 82 24 35 26 69 27 48 28 68 29 49 30 52 31 67 32 87 33 50 34
REMARK SMILES IDX 51 35 66 37 88 38 53 39 36 40 37 41 46 42 38 43 39 44 45 45
REMARK SMILES IDX 47 46 40 47 41 48 42 49 43 50 44 51 70 52 71 53 80 54 72 55
REMARK SMILES IDX 73 56 79 57 81 58 74 59 75 60 76 61 77 62 78 63 54 64 55 65
REMARK SMILES IDX 64 66 56 67 57 68 63 69 65 70 58 71 59 72 60 73 61 74 62 75
REMARK SMILES IDX 7 76 8 77 9 78 10 79 11 80 12 82 13 83 14 84 17 85 15 86
REMARK SMILES IDX 16 87 18 88 19 90 20 91 21 92 22 93 23 94 26 95 24 96 25 97
REMARK H PARENT 3 7 86 25 52 36 10 81 18 89
REMARK Flexibility Score: inf
ROOT
ATOM      1  C   UNL A   1      39.043  21.834  25.922  1.00  0.00     0.002 C 
ENDROOT
BRANCH   1   2
ATOM      2  C   UNL A   1      39.187  23.009  26.884  1.00  0.00     0.021 C 
BRANCH   2   3
ATOM      3  C   UNL A   1      40.622  23.380  27.211  1.00  0.00     0.116 C 
BRANCH   3   4
ATOM      4  N   UNL A   1      41.284  24.083  26.122  1.00  0.00    -0.352 N 
ATOM      5  O   UNL A   1      41.974  25.895  24.959  1.00  0.00    -0.269 OA
ATOM      6  C   UNL A   1      41.549  25.428  26.009  1.00  0.00     0.251 C 
ATOM      7  H   UNL A   1      41.579  23.523  25.367  1.00  0.00     0.163 HD
BRANCH   6   8
ATOM      8  C   UNL A   1      41.286  26.302  27.172  1.00  0.00     0.039 A 
ATOM      9  C   UNL A   1      42.075  27.434  27.378  1.00  0.00     0.014 A 
ATOM     10  C   UNL A   1      40.286  25.963  28.089  1.00  0.00     0.014 A 
ATOM     11  C   UNL A   1      41.991  28.116  28.581  1.00  0.00     0.010 A 
ATOM     12  C   UNL A   1      40.116  26.736  29.242  1.00  0.00     0.010 A 
ATOM     13  C   UNL A   1      40.986  27.804  29.512  1.00  0.00    -0.014 A 
BRANCH  13  14
ATOM     14  C   UNL A   1      40.824  28.691  30.693  1.00  0.00     0.031 A 
ATOM     15  C   UNL A   1      41.741  28.613  31.881  1.00  0.00     0.074 A 
ATOM     16  C   UNL A   1      39.857  29.630  30.638  1.00  0.00     0.049 A 
ATOM     17  N   UNL A   1      41.754  29.363  32.954  1.00  0.00    -0.248 NA
ATOM     18  C   UNL A   1      42.769  27.560  31.877  1.00  0.00     0.031 C 
ATOM     19  C   UNL A   1      38.893  29.779  29.541  1.00  0.00     0.029 A 
ATOM     20  N   UNL A   1      39.538  30.652  31.493  1.00  0.00    -0.354 N 
ATOM     21  C   UNL A   1      42.781  28.876  33.754  1.00  0.00     0.074 A 
ATOM     22  C   UNL A   1      43.348  27.740  33.059  1.00  0.00     0.031 C 
ATOM     23  C   UNL A   1      38.140  30.865  29.757  1.00  0.00     0.029 A 
ATOM     24  C   UNL A   1      38.503  31.439  31.044  1.00  0.00     0.049 A 
ATOM     25  H   UNL A   1      40.005  30.808  32.345  1.00  0.00     0.167 HD
ATOM     26  C   UNL A   1      43.213  29.345  34.950  1.00  0.00     0.037 A 
ATOM     27  C   UNL A   1      37.889  32.490  31.615  1.00  0.00     0.037 A 
ATOM     28  C   UNL A   1      42.636  30.480  35.631  1.00  0.00     0.049 A 
ATOM     29  C   UNL A   1      38.375  32.966  32.953  1.00  0.00     0.074 A 
ATOM     30  C   UNL A   1      43.010  31.039  36.841  1.00  0.00     0.029 A 
ATOM     31  N   UNL A   1      41.566  31.232  35.163  1.00  0.00    -0.354 N 
ATOM     32  N   UNL A   1      39.364  32.506  33.680  1.00  0.00    -0.248 NA
ATOM     33  C   UNL A   1      37.661  34.101  33.549  1.00  0.00     0.031 C 
ATOM     34  C   UNL A   1      42.138  32.094  37.128  1.00  0.00     0.029 A 
ATOM     35  C   UNL A   1      41.256  32.235  36.069  1.00  0.00     0.049 A 
ATOM     36  H   UNL A   1      41.097  31.074  34.312  1.00  0.00     0.167 HD
ATOM     37  C   UNL A   1      39.399  33.302  34.817  1.00  0.00     0.074 A 
ATOM     38  C   UNL A   1      38.357  34.297  34.658  1.00  0.00     0.031 C 
ATOM     39  C   UNL A   1      40.211  33.213  35.899  1.00  0.00     0.037 A 
BRANCH  26  40
ATOM     40  C   UNL A   1      44.366  28.638  35.615  1.00  0.00     0.058 A 
ATOM     41  C   UNL A   1      45.696  29.024  35.387  1.00  0.00     0.135 A 
ATOM     42  C   UNL A   1      44.136  27.622  36.560  1.00  0.00     0.135 A 
ATOM     43  F   UNL A   1      45.978  29.979  34.487  1.00  0.00    -0.206 F 
ATOM     44  C   UNL A   1      46.756  28.424  36.062  1.00  0.00     0.059 A 
ATOM     45  C   UNL A   1      45.178  27.028  37.266  1.00  0.00     0.059 A 
ATOM     46  F   UNL A   1      42.884  27.212  36.819  1.00  0.00    -0.206 F 
ATOM     47  C   UNL A   1      46.486  27.432  37.007  1.00  0.00     0.060 A 
BRANCH  47  48
ATOM     48  S   UNL A   1      47.871  26.698  37.903  1.00  0.00     0.124 S 
ATOM     49  O   UNL A   1      48.888  27.735  37.770  1.00  0.00    -0.237 OA
ATOM     50  O   UNL A   1      47.316  26.523  39.241  1.00  0.00    -0.237 OA
ATOM     51  O   UNL A   1      48.136  25.463  37.172  1.00  0.00    -0.744 OA
ENDBRANCH  47  48
ENDBRANCH  26  40
BRANCH  27  52
ATOM     52  C   UNL A   1      36.727  33.128  30.941  1.00  0.00     0.058 A 
ATOM     53  C   UNL A   1      36.889  33.925  29.800  1.00  0.00     0.135 A 
ATOM     54  C   UNL A   1      35.423  32.952  31.436  1.00  0.00     0.135 A 
ATOM     55  F   UNL A   1      38.114  34.122  29.287  1.00  0.00    -0.206 F 
ATOM     56  C   UNL A   1      35.808  34.554  29.192  1.00  0.00     0.059 A 
ATOM     57  C   UNL A   1      34.322  33.538  30.823  1.00  0.00     0.059 A 
ATOM     58  F   UNL A   1      35.209  32.180  32.512  1.00  0.00    -0.206 F 
ATOM     59  C   UNL A   1      34.528  34.356  29.714  1.00  0.00     0.060 A 
BRANCH  59  60
ATOM     60  S   UNL A   1      33.128  35.167  28.914  1.00  0.00     0.124 S 
ATOM     61  O   UNL A   1      33.772  36.325  28.306  1.00  0.00    -0.237 OA
ATOM     62  O   UNL A   1      32.663  34.137  27.992  1.00  0.00    -0.237 OA
ATOM     63  O   UNL A   1      32.227  35.455  30.027  1.00  0.00    -0.744 OA
ENDBRANCH  59  60
ENDBRANCH  27  52
BRANCH  39  64
ATOM     64  C   UNL A   1      40.012  34.240  36.981  1.00  0.00     0.058 A 
ATOM     65  C   UNL A   1      39.132  34.021  38.053  1.00  0.00     0.135 A 
ATOM     66  C   UNL A   1      40.707  35.459  36.942  1.00  0.00     0.135 A 
ATOM     67  F   UNL A   1      38.437  32.874  38.134  1.00  0.00    -0.206 F 
ATOM     68  C   UNL A   1      38.912  34.992  39.023  1.00  0.00     0.059 A 
ATOM     69  C   UNL A   1      40.529  36.432  37.921  1.00  0.00     0.059 A 
ATOM     70  F   UNL A   1      41.568  35.717  35.945  1.00  0.00    -0.206 F 
ATOM     71  C   UNL A   1      39.613  36.197  38.946  1.00  0.00     0.060 A 
BRANCH  71  72
ATOM     72  S   UNL A   1      39.315  37.452  40.208  1.00  0.00     0.124 S 
ATOM     73  O   UNL A   1      38.292  38.273  39.569  1.00  0.00    -0.237 OA
ATOM     74  O   UNL A   1      38.869  36.653  41.344  1.00  0.00    -0.237 OA
ATOM     75  O   UNL A   1      40.618  38.088  40.369  1.00  0.00    -0.744 OA
ENDBRANCH  71  72
ENDBRANCH  39  64
ENDBRANCH  13  14
ENDBRANCH   6   8
ENDBRANCH   3   4
ENDBRANCH   2   3
ENDBRANCH   1   2
BRANCH   1  76
ATOM     76  C   UNL A   1      37.774  21.843  25.063  1.00  0.00     0.002 C 
BRANCH  76  77
ATOM     77  C   UNL A   1      36.470  21.530  25.800  1.00  0.00     0.021 C 
BRANCH  77  78
ATOM     78  C   UNL A   1      35.641  22.749  26.178  1.00  0.00     0.116 C 
BRANCH  78  79
ATOM     79  N   UNL A   1      34.781  22.504  27.311  1.00  0.00    -0.351 N 
ATOM     80  C   UNL A   1      33.435  22.709  27.422  1.00  0.00     0.263 C 
ATOM     81  H   UNL A   1      35.224  22.142  28.113  1.00  0.00     0.163 HD
ATOM     82  O   UNL A   1      32.926  22.548  28.531  1.00  0.00    -0.268 OA
BRANCH  80  83
ATOM     83  C   UNL A   1      32.670  23.111  26.266  1.00  0.00     0.116 A 
ATOM     84  S   UNL A   1      32.548  24.809  26.005  1.00  0.00    -0.136 S 
ATOM     85  C   UNL A   1      31.907  22.380  25.361  1.00  0.00     0.073 A 
ATOM     86  C   UNL A   1      31.263  24.604  24.913  1.00  0.00     0.068 A 
ATOM     87  C   UNL A   1      30.977  23.271  24.730  1.00  0.00     0.039 A 
BRANCH  85  88
ATOM     88  N   UNL A   1      31.768  20.965  25.225  1.00  0.00    -0.269 N 
ATOM     89  H   UNL A   1      31.174  20.486  25.848  1.00  0.00     0.181 HD
BRANCH  88  90
ATOM     90  S   UNL A   1      32.591  20.074  24.028  1.00  0.00     0.301 S 
ATOM     91  O   UNL A   1      32.108  20.513  22.737  1.00  0.00    -0.189 OA
ATOM     92  O   UNL A   1      33.991  20.215  24.342  1.00  0.00    -0.189 OA
BRANCH  90  93
ATOM     93  N   UNL A   1      32.208  18.437  24.178  1.00  0.00    -0.185 NA
ATOM     94  C   UNL A   1      32.943  17.784  25.321  1.00  0.00     0.104 C 
ATOM     95  C   UNL A   1      32.433  17.476  23.096  1.00  0.00     0.104 C 
ATOM     96  C   UNL A   1      34.216  17.215  24.677  1.00  0.00     0.018 C 
ATOM     97  C   UNL A   1      33.897  17.098  23.188  1.00  0.00     0.018 C 
ENDBRANCH  90  93
ENDBRANCH  88  90
ENDBRANCH  85  88
ENDBRANCH  80  83
ENDBRANCH  78  79
ENDBRANCH  77  78
ENDBRANCH  76  77
ENDBRANCH   1  76
TORSDOF 19
ENDMDL
