MODEL 1
REMARK VINA RESULT:     -12.1      0.000      0.000
REMARK SMILES COc1cccc(N2/C(=[NH+]/C(=O)CCC(=O)NCCCCCCNC(=O)c3ccc(-c4c5nc(c(-c6c(F)cc(S(=O)(=O)[O-])cc6F)c6ccc([nH]6)c(-c6c(F)cc(S(=O)(=O)[O-])cc6F)c6nc(c(-c7c(F)cc(S(=O)(=O)[O-])cc7F)c7ccc4[nH]7)C=C6)C=C5)cc3)S[C@@H]3CS(=O)(=O)C[C@H]32)c1
REMARK SMILES IDX 20 1 19 2 18 3 17 4 15 5 16 6 14 8 13 9 11 10 8 11 9 12
REMARK SMILES IDX 100 13 10 14 93 15 94 16 99 17 95 19 96 20 12 21 97 22 98 23
REMARK SMILES IDX 7 24 3 25 4 26 101 27 5 28 6 29 2 30 1 31 21 32 22 33 23 34
REMARK SMILES IDX 24 35 25 36 26 38 27 39 28 40 92 41 29 42 91 43 30 44 31 45
REMARK SMILES IDX 32 46 85 47 33 48 90 49 84 50 86 51 34 52 89 53 83 54 82 55
REMARK SMILES IDX 35 57 69 58 48 59 68 60 49 61 52 62 67 63 87 64 50 65 51 66
REMARK SMILES IDX 66 68 88 69 53 70 36 71 37 72 46 73 38 74 39 75 45 76 47 77
REMARK SMILES IDX 40 78 41 79 42 80 43 81 44 82 70 83 71 84 80 85 72 86 73 87
REMARK SMILES IDX 79 88 81 89 74 90 75 91 76 92 77 93 78 94 54 95 55 96 64 97
REMARK SMILES IDX 56 98 57 99 63 100 65 101 58 102 59 103 60 104 61 105 62 106
REMARK H PARENT 17 7 10 18 24 37 86 56 52 67
REMARK Flexibility Score: inf
ROOT
ATOM      1  C   UNL A   1      35.946  22.257  25.980  1.00  0.00     0.002 C 
ENDROOT
BRANCH   1   2
ATOM      2  C   UNL A   1      35.294  21.441  24.842  1.00  0.00     0.021 C 
BRANCH   2   3
ATOM      3  C   UNL A   1      34.151  22.120  24.046  1.00  0.00     0.116 C 
BRANCH   3   4
ATOM      4  N   UNL A   1      33.278  23.003  24.817  1.00  0.00    -0.356 N 
ATOM      5  C   UNL A   1      33.100  24.353  24.849  1.00  0.00     0.220 C 
ATOM      6  O   UNL A   1      32.200  24.795  25.569  1.00  0.00    -0.275 OA
ATOM      7  H   UNL A   1      32.695  22.520  25.447  1.00  0.00     0.163 HD
BRANCH   5   8
ATOM      8  C   UNL A   1      33.971  25.303  24.060  1.00  0.00     0.112 C 
BRANCH   8   9
ATOM      9  C   UNL A   1      33.570  25.258  22.587  1.00  0.00     0.138 C 
BRANCH   9  10
ATOM     10  C   UNL A   1      32.471  26.262  22.430  1.00  0.00     0.308 C 
ATOM     11  N   UNL A   1      31.151  29.077  24.330  1.00  0.00    -0.216 N 
ATOM     12  C   UNL A   1      31.335  27.902  23.586  1.00  0.00     0.319 C 
ATOM     13  C   UNL A   1      30.212  29.947  23.599  1.00  0.00     0.212 C 
ATOM     14  N   UNL A   1      32.409  27.204  23.432  1.00  0.00    -0.204 N 
ATOM     15  S   UNL A   1      29.789  27.502  22.758  1.00  0.00    -0.029 SA
ATOM     16  C   UNL A   1      29.032  29.032  23.249  1.00  0.00     0.120 C 
ATOM     17  C   UNL A   1      29.551  31.195  24.127  1.00  0.00     0.188 C 
ATOM     18  H   UNL A   1      33.181  27.345  24.027  1.00  0.00     0.316 HD
ATOM     19  C   UNL A   1      28.269  29.763  22.189  1.00  0.00     0.156 C 
ATOM     20  S   UNL A   1      28.189  31.373  22.914  1.00  0.00     0.155 S 
ATOM     21  O   UNL A   1      31.884  26.307  21.348  1.00  0.00    -0.247 OA
ATOM     22  O   UNL A   1      26.947  31.516  23.632  1.00  0.00    -0.229 OA
ATOM     23  O   UNL A   1      28.584  32.251  21.837  1.00  0.00    -0.229 OA
BRANCH  11  24
ATOM     24  C   UNL A   1      32.000  29.584  25.328  1.00  0.00     0.132 A 
ATOM     25  C   UNL A   1      34.009  29.512  26.746  1.00  0.00     0.123 A 
ATOM     26  C   UNL A   1      33.556  30.615  27.464  1.00  0.00     0.047 A 
ATOM     27  C   UNL A   1      33.218  28.981  25.713  1.00  0.00     0.098 A 
ATOM     28  C   UNL A   1      32.345  31.209  27.131  1.00  0.00     0.008 A 
ATOM     29  C   UNL A   1      31.587  30.706  26.069  1.00  0.00     0.052 A 
BRANCH  25  30
ATOM     30  O   UNL A   1      35.178  28.976  27.217  1.00  0.00    -0.497 OA
ATOM     31  C   UNL A   1      36.276  29.868  27.356  1.00  0.00     0.278 C 
ENDBRANCH  25  30
ENDBRANCH  11  24
ENDBRANCH   9  10
ENDBRANCH   8   9
ENDBRANCH   5   8
ENDBRANCH   3   4
ENDBRANCH   2   3
ENDBRANCH   1   2
BRANCH   1  32
ATOM     32  C   UNL A   1      36.998  23.364  25.720  1.00  0.00     0.002 C 
BRANCH  32  33
ATOM     33  C   UNL A   1      38.432  23.280  26.293  1.00  0.00     0.021 C 
BRANCH  33  34
ATOM     34  C   UNL A   1      39.202  24.579  26.650  1.00  0.00     0.116 C 
BRANCH  34  35
ATOM     35  N   UNL A   1      40.127  25.150  25.667  1.00  0.00    -0.352 N 
ATOM     36  C   UNL A   1      41.282  25.914  25.869  1.00  0.00     0.251 C 
ATOM     37  H   UNL A   1      39.902  24.970  24.725  1.00  0.00     0.163 HD
ATOM     38  O   UNL A   1      42.124  25.955  24.972  1.00  0.00    -0.269 OA
BRANCH  36  39
ATOM     39  C   UNL A   1      41.563  26.658  27.133  1.00  0.00     0.039 A 
ATOM     40  C   UNL A   1      41.820  28.022  27.152  1.00  0.00     0.014 A 
ATOM     41  C   UNL A   1      41.682  25.976  28.340  1.00  0.00     0.014 A 
ATOM     42  C   UNL A   1      41.970  28.697  28.387  1.00  0.00     0.010 A 
ATOM     43  C   UNL A   1      41.604  26.676  29.565  1.00  0.00     0.010 A 
ATOM     44  C   UNL A   1      41.689  28.070  29.625  1.00  0.00    -0.014 A 
BRANCH  44  45
ATOM     45  C   UNL A   1      41.394  28.897  30.876  1.00  0.00     0.031 A 
ATOM     46  C   UNL A   1      42.190  28.816  32.181  1.00  0.00     0.074 A 
ATOM     47  C   UNL A   1      40.300  29.708  30.885  1.00  0.00     0.049 A 
ATOM     48  N   UNL A   1      42.052  29.532  33.281  1.00  0.00    -0.248 NA
ATOM     49  C   UNL A   1      43.228  27.783  32.305  1.00  0.00     0.031 C 
ATOM     50  C   UNL A   1      39.287  29.778  29.826  1.00  0.00     0.029 A 
ATOM     51  N   UNL A   1      39.852  30.644  31.798  1.00  0.00    -0.354 N 
ATOM     52  C   UNL A   1      42.954  29.015  34.213  1.00  0.00     0.074 A 
ATOM     53  C   UNL A   1      43.577  27.875  33.582  1.00  0.00     0.031 C 
ATOM     54  C   UNL A   1      38.426  30.770  30.081  1.00  0.00     0.029 A 
ATOM     55  C   UNL A   1      38.758  31.370  31.366  1.00  0.00     0.049 A 
ATOM     56  H   UNL A   1      40.273  30.781  32.678  1.00  0.00     0.167 HD
ATOM     57  C   UNL A   1      43.280  29.460  35.458  1.00  0.00     0.037 A 
ATOM     58  C   UNL A   1      38.085  32.406  31.912  1.00  0.00     0.037 A 
ATOM     59  C   UNL A   1      42.707  30.628  36.082  1.00  0.00     0.049 A 
ATOM     60  C   UNL A   1      38.525  32.954  33.242  1.00  0.00     0.074 A 
ATOM     61  C   UNL A   1      43.065  31.229  37.278  1.00  0.00     0.029 A 
ATOM     62  N   UNL A   1      41.654  31.368  35.568  1.00  0.00    -0.354 N 
ATOM     63  N   UNL A   1      39.495  32.540  34.020  1.00  0.00    -0.248 NA
ATOM     64  C   UNL A   1      37.787  34.111  33.768  1.00  0.00     0.031 C 
ATOM     65  C   UNL A   1      42.195  32.298  37.514  1.00  0.00     0.029 A 
ATOM     66  C   UNL A   1      41.334  32.403  36.435  1.00  0.00     0.049 A 
ATOM     67  H   UNL A   1      41.200  31.186  34.714  1.00  0.00     0.167 HD
ATOM     68  C   UNL A   1      39.497  33.398  35.114  1.00  0.00     0.074 A 
ATOM     69  C   UNL A   1      38.447  34.368  34.888  1.00  0.00     0.031 C 
ATOM     70  C   UNL A   1      40.295  33.377  36.208  1.00  0.00     0.037 A 
BRANCH  57  71
ATOM     71  C   UNL A   1      44.348  28.713  36.233  1.00  0.00     0.058 A 
ATOM     72  C   UNL A   1      45.679  29.162  36.275  1.00  0.00     0.135 A 
ATOM     73  C   UNL A   1      44.028  27.582  37.006  1.00  0.00     0.135 A 
ATOM     74  F   UNL A   1      46.050  30.242  35.567  1.00  0.00    -0.206 F 
ATOM     75  C   UNL A   1      46.657  28.499  37.011  1.00  0.00     0.059 A 
ATOM     76  C   UNL A   1      44.984  26.922  37.780  1.00  0.00     0.059 A 
ATOM     77  F   UNL A   1      42.770  27.112  37.031  1.00  0.00    -0.206 F 
ATOM     78  C   UNL A   1      46.300  27.378  37.761  1.00  0.00     0.060 A 
BRANCH  78  79
ATOM     79  S   UNL A   1      47.584  26.536  38.714  1.00  0.00     0.124 S 
ATOM     80  O   UNL A   1      48.634  27.550  38.750  1.00  0.00    -0.237 OA
ATOM     81  O   UNL A   1      46.911  26.277  39.983  1.00  0.00    -0.237 OA
ATOM     82  O   UNL A   1      47.884  25.353  37.914  1.00  0.00    -0.744 OA
ENDBRANCH  78  79
ENDBRANCH  57  71
BRANCH  58  83
ATOM     83  C   UNL A   1      36.940  33.029  31.181  1.00  0.00     0.058 A 
ATOM     84  C   UNL A   1      35.610  32.740  31.528  1.00  0.00     0.135 A 
ATOM     85  C   UNL A   1      37.148  33.933  30.127  1.00  0.00     0.135 A 
ATOM     86  F   UNL A   1      35.350  31.876  32.521  1.00  0.00    -0.206 F 
ATOM     87  C   UNL A   1      34.532  33.304  30.849  1.00  0.00     0.059 A 
ATOM     88  C   UNL A   1      36.088  34.538  29.454  1.00  0.00     0.059 A 
ATOM     89  F   UNL A   1      38.397  34.264  29.762  1.00  0.00    -0.206 F 
ATOM     90  C   UNL A   1      34.783  34.207  29.815  1.00  0.00     0.060 A 
BRANCH  90  91
ATOM     91  S   UNL A   1      33.380  34.976  28.973  1.00  0.00     0.124 S 
ATOM     92  O   UNL A   1      32.459  35.201  30.081  1.00  0.00    -0.237 OA
ATOM     93  O   UNL A   1      33.987  36.170  28.394  1.00  0.00    -0.237 OA
ATOM     94  O   UNL A   1      32.971  33.960  28.008  1.00  0.00    -0.744 OA
ENDBRANCH  90  91
ENDBRANCH  58  83
BRANCH  70  95
ATOM     95  C   UNL A   1      40.099  34.452  37.242  1.00  0.00     0.058 A 
ATOM     96  C   UNL A   1      40.751  35.692  37.154  1.00  0.00     0.135 A 
ATOM     97  C   UNL A   1      39.200  34.260  38.304  1.00  0.00     0.135 A 
ATOM     98  F   UNL A   1      41.627  35.927  36.164  1.00  0.00    -0.206 F 
ATOM     99  C   UNL A   1      40.535  36.696  38.094  1.00  0.00     0.059 A 
ATOM    100  C   UNL A   1      38.945  35.261  39.237  1.00  0.00     0.059 A 
ATOM    101  F   UNL A   1      38.543  33.097  38.432  1.00  0.00    -0.206 F 
ATOM    102  C   UNL A   1      39.626  36.473  39.129  1.00  0.00     0.060 A 
BRANCH 102 103
ATOM    103  S   UNL A   1      39.324  37.798  40.316  1.00  0.00     0.124 S 
ATOM    104  O   UNL A   1      38.949  37.046  41.509  1.00  0.00    -0.237 OA
ATOM    105  O   UNL A   1      40.619  38.468  40.370  1.00  0.00    -0.237 OA
ATOM    106  O   UNL A   1      38.250  38.571  39.699  1.00  0.00    -0.744 OA
ENDBRANCH 102 103
ENDBRANCH  70  95
ENDBRANCH  44  45
ENDBRANCH  36  39
ENDBRANCH  34  35
ENDBRANCH  33  34
ENDBRANCH  32  33
ENDBRANCH   1  32
TORSDOF 20
ENDMDL
MODEL 2
REMARK VINA RESULT:     -11.9      5.154     10.752
REMARK SMILES COc1cccc(N2/C(=[NH+]/C(=O)CCC(=O)NCCCCCCNC(=O)c3ccc(-c4c5nc(c(-c6c(F)cc(S(=O)(=O)[O-])cc6F)c6ccc([nH]6)c(-c6c(F)cc(S(=O)(=O)[O-])cc6F)c6nc(c(-c7c(F)cc(S(=O)(=O)[O-])cc7F)c7ccc4[nH]7)C=C6)C=C5)cc3)S[C@@H]3CS(=O)(=O)C[C@H]32)c1
REMARK SMILES IDX 20 1 19 2 18 3 17 4 15 5 16 6 14 8 13 9 11 10 8 11 9 12
REMARK SMILES IDX 100 13 10 14 93 15 94 16 99 17 95 19 96 20 12 21 97 22 98 23
REMARK SMILES IDX 7 24 3 25 4 26 101 27 5 28 6 29 2 30 1 31 21 32 22 33 23 34
REMARK SMILES IDX 24 35 25 36 26 38 27 39 28 40 92 41 29 42 91 43 30 44 31 45
REMARK SMILES IDX 32 46 85 47 33 48 90 49 84 50 86 51 34 52 89 53 83 54 82 55
REMARK SMILES IDX 35 57 69 58 48 59 68 60 49 61 52 62 67 63 87 64 50 65 51 66
REMARK SMILES IDX 66 68 88 69 53 70 36 71 37 72 46 73 38 74 39 75 45 76 47 77
REMARK SMILES IDX 40 78 41 79 42 80 43 81 44 82 70 83 71 84 80 85 72 86 73 87
REMARK SMILES IDX 79 88 81 89 74 90 75 91 76 92 77 93 78 94 54 95 55 96 64 97
REMARK SMILES IDX 56 98 57 99 63 100 65 101 58 102 59 103 60 104 61 105 62 106
REMARK H PARENT 17 7 10 18 24 37 86 56 52 67
REMARK Flexibility Score: inf
ROOT
ATOM      1  C   UNL A   1      31.168  28.247  25.792  1.00  0.00     0.002 C 
ENDROOT
BRANCH   1   2
ATOM      2  C   UNL A   1      31.360  29.374  24.754  1.00  0.00     0.021 C 
BRANCH   2   3
ATOM      3  C   UNL A   1      31.099  29.022  23.268  1.00  0.00     0.116 C 
BRANCH   3   4
ATOM      4  N   UNL A   1      32.276  28.637  22.491  1.00  0.00    -0.356 N 
ATOM      5  C   UNL A   1      32.971  27.474  22.353  1.00  0.00     0.220 C 
ATOM      6  O   UNL A   1      33.893  27.450  21.533  1.00  0.00    -0.275 OA
ATOM      7  H   UNL A   1      32.646  29.375  21.954  1.00  0.00     0.163 HD
BRANCH   5   8
ATOM      8  C   UNL A   1      32.660  26.243  23.175  1.00  0.00     0.112 C 
BRANCH   8   9
ATOM      9  C   UNL A   1      31.320  25.660  22.733  1.00  0.00     0.138 C 
BRANCH   9  10
ATOM     10  C   UNL A   1      31.405  24.189  22.999  1.00  0.00     0.308 C 
ATOM     11  N   UNL A   1      33.970  21.820  24.038  1.00  0.00    -0.216 N 
ATOM     12  C   UNL A   1      32.928  22.504  23.396  1.00  0.00     0.319 C 
ATOM     13  C   UNL A   1      33.476  20.490  24.438  1.00  0.00     0.212 C 
ATOM     14  N   UNL A   1      32.633  23.758  23.448  1.00  0.00    -0.204 N 
ATOM     15  S   UNL A   1      31.939  21.311  22.482  1.00  0.00    -0.029 SA
ATOM     16  C   UNL A   1      32.814  19.928  23.173  1.00  0.00     0.120 C 
ATOM     17  C   UNL A   1      34.310  19.340  24.944  1.00  0.00     0.188 C 
ATOM     18  H   UNL A   1      33.283  24.405  23.807  1.00  0.00     0.316 HD
ATOM     19  C   UNL A   1      31.974  18.783  23.645  1.00  0.00     0.156 C 
ATOM     20  S   UNL A   1      33.132  17.958  24.697  1.00  0.00     0.155 S 
ATOM     21  O   UNL A   1      30.354  23.548  23.020  1.00  0.00    -0.247 OA
ATOM     22  O   UNL A   1      33.794  16.913  23.956  1.00  0.00    -0.229 OA
ATOM     23  O   UNL A   1      32.379  17.714  25.906  1.00  0.00    -0.229 OA
BRANCH  11  24
ATOM     24  C   UNL A   1      35.116  22.386  24.622  1.00  0.00     0.132 A 
ATOM     25  C   UNL A   1      37.467  22.333  25.346  1.00  0.00     0.123 A 
ATOM     26  C   UNL A   1      37.317  23.572  25.962  1.00  0.00     0.047 A 
ATOM     27  C   UNL A   1      36.364  21.731  24.715  1.00  0.00     0.098 A 
ATOM     28  C   UNL A   1      36.092  24.225  25.917  1.00  0.00     0.008 A 
ATOM     29  C   UNL A   1      35.013  23.643  25.244  1.00  0.00     0.052 A 
BRANCH  25  30
ATOM     30  O   UNL A   1      38.698  21.762  25.522  1.00  0.00    -0.497 OA
ATOM     31  C   UNL A   1      39.501  22.291  26.569  1.00  0.00     0.278 C 
ENDBRANCH  25  30
ENDBRANCH  11  24
ENDBRANCH   9  10
ENDBRANCH   8   9
ENDBRANCH   5   8
ENDBRANCH   3   4
ENDBRANCH   2   3
ENDBRANCH   1   2
BRANCH   1  32
ATOM     32  C   UNL A   1      32.330  27.699  26.658  1.00  0.00     0.002 C 
BRANCH  32  33
ATOM     33  C   UNL A   1      33.715  28.387  26.700  1.00  0.00     0.021 C 
BRANCH  33  34
ATOM     34  C   UNL A   1      33.813  29.935  26.684  1.00  0.00     0.116 C 
BRANCH  34  35
ATOM     35  N   UNL A   1      33.833  30.661  27.957  1.00  0.00    -0.352 N 
ATOM     36  C   UNL A   1      34.914  30.965  28.791  1.00  0.00     0.251 C 
ATOM     37  H   UNL A   1      32.956  30.980  28.272  1.00  0.00     0.163 HD
ATOM     38  O   UNL A   1      34.801  31.901  29.582  1.00  0.00    -0.269 OA
BRANCH  36  39
ATOM     39  C   UNL A   1      36.215  30.233  28.750  1.00  0.00     0.039 A 
ATOM     40  C   UNL A   1      37.033  30.233  27.627  1.00  0.00     0.014 A 
ATOM     41  C   UNL A   1      36.605  29.427  29.814  1.00  0.00     0.014 A 
ATOM     42  C   UNL A   1      38.306  29.616  27.680  1.00  0.00     0.010 A 
ATOM     43  C   UNL A   1      37.950  29.015  29.941  1.00  0.00     0.010 A 
ATOM     44  C   UNL A   1      38.865  29.147  28.892  1.00  0.00    -0.014 A 
BRANCH  44  45
ATOM     45  C   UNL A   1      40.371  28.929  29.032  1.00  0.00     0.031 A 
ATOM     46  C   UNL A   1      41.354  29.967  29.581  1.00  0.00     0.074 A 
ATOM     47  C   UNL A   1      40.913  27.771  28.564  1.00  0.00     0.049 A 
ATOM     48  N   UNL A   1      42.650  29.845  29.798  1.00  0.00    -0.248 NA
ATOM     49  C   UNL A   1      40.856  31.318  29.872  1.00  0.00     0.031 C 
ATOM     50  C   UNL A   1      40.190  26.738  27.816  1.00  0.00     0.029 A 
ATOM     51  N   UNL A   1      42.189  27.246  28.654  1.00  0.00    -0.354 N 
ATOM     52  C   UNL A   1      43.107  31.097  30.216  1.00  0.00     0.074 A 
ATOM     53  C   UNL A   1      41.970  31.985  30.144  1.00  0.00     0.031 C 
ATOM     54  C   UNL A   1      40.978  25.672  27.628  1.00  0.00     0.029 A 
ATOM     55  C   UNL A   1      42.302  25.959  28.164  1.00  0.00     0.049 A 
ATOM     56  H   UNL A   1      42.950  27.744  29.033  1.00  0.00     0.167 HD
ATOM     57  C   UNL A   1      44.334  31.478  30.664  1.00  0.00     0.037 A 
ATOM     58  C   UNL A   1      43.331  25.085  28.142  1.00  0.00     0.037 A 
ATOM     59  C   UNL A   1      45.466  30.591  30.793  1.00  0.00     0.049 A 
ATOM     60  C   UNL A   1      44.653  25.485  28.737  1.00  0.00     0.074 A 
ATOM     61  C   UNL A   1      46.705  30.852  31.356  1.00  0.00     0.029 A 
ATOM     62  N   UNL A   1      45.503  29.279  30.350  1.00  0.00    -0.354 N 
ATOM     63  N   UNL A   1      44.998  26.629  29.276  1.00  0.00    -0.248 NA
ATOM     64  C   UNL A   1      45.725  24.478  28.728  1.00  0.00     0.031 C 
ATOM     65  C   UNL A   1      47.507  29.717  31.205  1.00  0.00     0.029 A 
ATOM     66  C   UNL A   1      46.749  28.727  30.603  1.00  0.00     0.049 A 
ATOM     67  H   UNL A   1      44.754  28.808  29.917  1.00  0.00     0.167 HD
ATOM     68  C   UNL A   1      46.316  26.471  29.689  1.00  0.00     0.074 A 
ATOM     69  C   UNL A   1      46.701  25.116  29.359  1.00  0.00     0.031 C 
ATOM     70  C   UNL A   1      47.133  27.374  30.284  1.00  0.00     0.037 A 
BRANCH  57  71
ATOM     71  C   UNL A   1      44.527  32.916  31.102  1.00  0.00     0.058 A 
ATOM     72  C   UNL A   1      44.950  33.911  30.204  1.00  0.00     0.135 A 
ATOM     73  C   UNL A   1      44.213  33.326  32.411  1.00  0.00     0.135 A 
ATOM     74  F   UNL A   1      45.257  33.590  28.936  1.00  0.00    -0.206 F 
ATOM     75  C   UNL A   1      45.098  35.239  30.593  1.00  0.00     0.059 A 
ATOM     76  C   UNL A   1      44.320  34.658  32.814  1.00  0.00     0.059 A 
ATOM     77  F   UNL A   1      43.781  32.432  33.315  1.00  0.00    -0.206 F 
ATOM     78  C   UNL A   1      44.780  35.604  31.901  1.00  0.00     0.060 A 
BRANCH  78  79
ATOM     79  S   UNL A   1      44.974  37.336  32.383  1.00  0.00     0.124 S 
ATOM     80  O   UNL A   1      46.004  37.239  33.413  1.00  0.00    -0.237 OA
ATOM     81  O   UNL A   1      45.389  37.963  31.131  1.00  0.00    -0.237 OA
ATOM     82  O   UNL A   1      43.646  37.710  32.858  1.00  0.00    -0.744 OA
ENDBRANCH  78  79
ENDBRANCH  57  71
BRANCH  58  83
ATOM     83  C   UNL A   1      43.145  23.717  27.569  1.00  0.00     0.058 A 
ATOM     84  C   UNL A   1      42.772  22.632  28.380  1.00  0.00     0.135 A 
ATOM     85  C   UNL A   1      43.327  23.464  26.199  1.00  0.00     0.135 A 
ATOM     86  F   UNL A   1      42.593  22.811  29.698  1.00  0.00    -0.206 F 
ATOM     87  C   UNL A   1      42.606  21.349  27.863  1.00  0.00     0.059 A 
ATOM     88  C   UNL A   1      43.133  22.198  25.651  1.00  0.00     0.059 A 
ATOM     89  F   UNL A   1      43.664  24.465  25.371  1.00  0.00    -0.206 F 
ATOM     90  C   UNL A   1      42.785  21.144  26.494  1.00  0.00     0.060 A 
BRANCH  90  91
ATOM     91  S   UNL A   1      42.515  19.487  25.822  1.00  0.00     0.124 S 
ATOM     92  O   UNL A   1      42.812  18.649  26.977  1.00  0.00    -0.237 OA
ATOM     93  O   UNL A   1      41.115  19.545  25.416  1.00  0.00    -0.237 OA
ATOM     94  O   UNL A   1      43.474  19.411  24.723  1.00  0.00    -0.744 OA
ENDBRANCH  90  91
ENDBRANCH  58  83
BRANCH  70  95
ATOM     95  C   UNL A   1      48.521  26.928  30.654  1.00  0.00     0.058 A 
ATOM     96  C   UNL A   1      49.599  27.046  29.763  1.00  0.00     0.135 A 
ATOM     97  C   UNL A   1      48.788  26.430  31.940  1.00  0.00     0.135 A 
ATOM     98  F   UNL A   1      49.400  27.508  28.518  1.00  0.00    -0.206 F 
ATOM     99  C   UNL A   1      50.889  26.666  30.125  1.00  0.00     0.059 A 
ATOM    100  C   UNL A   1      50.074  26.074  32.334  1.00  0.00     0.059 A 
ATOM    101  F   UNL A   1      47.796  26.304  32.835  1.00  0.00    -0.206 F 
ATOM    102  C   UNL A   1      51.117  26.187  31.416  1.00  0.00     0.060 A 
BRANCH 102 103
ATOM    103  S   UNL A   1      52.800  25.738  31.886  1.00  0.00     0.124 S 
ATOM    104  O   UNL A   1      53.530  25.992  30.648  1.00  0.00    -0.237 OA
ATOM    105  O   UNL A   1      53.074  26.660  32.984  1.00  0.00    -0.237 OA
ATOM    106  O   UNL A   1      52.685  24.333  32.269  1.00  0.00    -0.744 OA
ENDBRANCH 102 103
ENDBRANCH  70  95
ENDBRANCH  44  45
ENDBRANCH  36  39
ENDBRANCH  34  35
ENDBRANCH  33  34
ENDBRANCH  32  33
ENDBRANCH   1  32
TORSDOF 20
ENDMDL
MODEL 3
REMARK VINA RESULT:     -11.0      3.517      9.705
REMARK SMILES COc1cccc(N2/C(=[NH+]/C(=O)CCC(=O)NCCCCCCNC(=O)c3ccc(-c4c5nc(c(-c6c(F)cc(S(=O)(=O)[O-])cc6F)c6ccc([nH]6)c(-c6c(F)cc(S(=O)(=O)[O-])cc6F)c6nc(c(-c7c(F)cc(S(=O)(=O)[O-])cc7F)c7ccc4[nH]7)C=C6)C=C5)cc3)S[C@@H]3CS(=O)(=O)C[C@H]32)c1
REMARK SMILES IDX 20 1 19 2 18 3 17 4 15 5 16 6 14 8 13 9 11 10 8 11 9 12
REMARK SMILES IDX 100 13 10 14 93 15 94 16 99 17 95 19 96 20 12 21 97 22 98 23
REMARK SMILES IDX 7 24 3 25 4 26 101 27 5 28 6 29 2 30 1 31 21 32 22 33 23 34
REMARK SMILES IDX 24 35 25 36 26 38 27 39 28 40 92 41 29 42 91 43 30 44 31 45
REMARK SMILES IDX 32 46 85 47 33 48 90 49 84 50 86 51 34 52 89 53 83 54 82 55
REMARK SMILES IDX 35 57 69 58 48 59 68 60 49 61 52 62 67 63 87 64 50 65 51 66
REMARK SMILES IDX 66 68 88 69 53 70 36 71 37 72 46 73 38 74 39 75 45 76 47 77
REMARK SMILES IDX 40 78 41 79 42 80 43 81 44 82 70 83 71 84 80 85 72 86 73 87
REMARK SMILES IDX 79 88 81 89 74 90 75 91 76 92 77 93 78 94 54 95 55 96 64 97
REMARK SMILES IDX 56 98 57 99 63 100 65 101 58 102 59 103 60 104 61 105 62 106
REMARK H PARENT 17 7 10 18 24 37 86 56 52 67
REMARK Flexibility Score: inf
ROOT
ATOM      1  C   UNL A   1      31.158  28.166  25.601  1.00  0.00     0.002 C 
ENDROOT
BRANCH   1   2
ATOM      2  C   UNL A   1      31.289  29.256  24.516  1.00  0.00     0.021 C 
BRANCH   2   3
ATOM      3  C   UNL A   1      31.107  28.816  23.042  1.00  0.00     0.116 C 
BRANCH   3   4
ATOM      4  N   UNL A   1      32.324  28.386  22.354  1.00  0.00    -0.356 N 
ATOM      5  C   UNL A   1      33.045  27.231  22.356  1.00  0.00     0.220 C 
ATOM      6  O   UNL A   1      34.002  27.151  21.580  1.00  0.00    -0.275 OA
ATOM      7  H   UNL A   1      32.702  29.078  21.763  1.00  0.00     0.163 HD
BRANCH   5   8
ATOM      8  C   UNL A   1      32.724  26.078  23.279  1.00  0.00     0.112 C 
BRANCH   8   9
ATOM      9  C   UNL A   1      31.351  25.510  22.925  1.00  0.00     0.138 C 
BRANCH   9  10
ATOM     10  C   UNL A   1      31.446  24.034  23.157  1.00  0.00     0.308 C 
ATOM     11  N   UNL A   1      34.046  21.645  24.055  1.00  0.00    -0.216 N 
ATOM     12  C   UNL A   1      32.981  22.342  23.465  1.00  0.00     0.319 C 
ATOM     13  C   UNL A   1      33.566  20.307  24.444  1.00  0.00     0.212 C 
ATOM     14  N   UNL A   1      32.689  23.595  23.553  1.00  0.00    -0.204 N 
ATOM     15  S   UNL A   1      31.961  21.167  22.562  1.00  0.00    -0.029 SA
ATOM     16  C   UNL A   1      32.860  19.772  23.193  1.00  0.00     0.120 C 
ATOM     17  C   UNL A   1      34.417  19.148  24.897  1.00  0.00     0.188 C 
ATOM     18  H   UNL A   1      33.351  24.235  23.903  1.00  0.00     0.316 HD
ATOM     19  C   UNL A   1      32.038  18.616  23.670  1.00  0.00     0.156 C 
ATOM     20  S   UNL A   1      33.231  17.770  24.663  1.00  0.00     0.155 S 
ATOM     21  O   UNL A   1      30.396  23.392  23.202  1.00  0.00    -0.247 OA
ATOM     22  O   UNL A   1      33.867  16.741  23.878  1.00  0.00    -0.229 OA
ATOM     23  O   UNL A   1      32.522  17.500  25.892  1.00  0.00    -0.229 OA
BRANCH  11  24
ATOM     24  C   UNL A   1      35.211  22.201  24.610  1.00  0.00     0.132 A 
ATOM     25  C   UNL A   1      37.579  22.124  25.273  1.00  0.00     0.123 A 
ATOM     26  C   UNL A   1      37.457  23.364  25.894  1.00  0.00     0.047 A 
ATOM     27  C   UNL A   1      36.455  21.534  24.671  1.00  0.00     0.098 A 
ATOM     28  C   UNL A   1      36.237  24.029  25.881  1.00  0.00     0.008 A 
ATOM     29  C   UNL A   1      35.136  23.458  25.236  1.00  0.00     0.052 A 
BRANCH  25  30
ATOM     30  O   UNL A   1      38.810  21.542  25.417  1.00  0.00    -0.497 OA
ATOM     31  C   UNL A   1      38.856  20.124  25.332  1.00  0.00     0.278 C 
ENDBRANCH  25  30
ENDBRANCH  11  24
ENDBRANCH   9  10
ENDBRANCH   8   9
ENDBRANCH   5   8
ENDBRANCH   3   4
ENDBRANCH   2   3
ENDBRANCH   1   2
BRANCH   1  32
ATOM     32  C   UNL A   1      32.365  27.657  26.427  1.00  0.00     0.002 C 
BRANCH  32  33
ATOM     33  C   UNL A   1      33.743  28.357  26.381  1.00  0.00     0.021 C 
BRANCH  33  34
ATOM     34  C   UNL A   1      33.828  29.887  26.139  1.00  0.00     0.116 C 
BRANCH  34  35
ATOM     35  N   UNL A   1      33.598  30.799  27.264  1.00  0.00    -0.352 N 
ATOM     36  C   UNL A   1      34.506  31.305  28.199  1.00  0.00     0.251 C 
ATOM     37  H   UNL A   1      32.666  31.099  27.377  1.00  0.00     0.163 HD
ATOM     38  O   UNL A   1      34.216  32.341  28.798  1.00  0.00    -0.269 OA
BRANCH  36  39
ATOM     39  C   UNL A   1      35.827  30.672  28.487  1.00  0.00     0.039 A 
ATOM     40  C   UNL A   1      37.027  31.225  28.059  1.00  0.00     0.014 A 
ATOM     41  C   UNL A   1      35.892  29.431  29.113  1.00  0.00     0.014 A 
ATOM     42  C   UNL A   1      38.255  30.643  28.455  1.00  0.00     0.010 A 
ATOM     43  C   UNL A   1      37.103  28.987  29.692  1.00  0.00     0.010 A 
ATOM     44  C   UNL A   1      38.322  29.616  29.425  1.00  0.00    -0.014 A 
BRANCH  44  45
ATOM     45  C   UNL A   1      39.621  29.330  30.180  1.00  0.00     0.031 A 
ATOM     46  C   UNL A   1      40.021  29.987  31.503  1.00  0.00     0.074 A 
ATOM     47  C   UNL A   1      40.540  28.500  29.615  1.00  0.00     0.049 A 
ATOM     48  N   UNL A   1      41.081  29.756  32.254  1.00  0.00    -0.248 NA
ATOM     49  C   UNL A   1      39.178  31.069  32.031  1.00  0.00     0.031 C 
ATOM     50  C   UNL A   1      40.453  27.932  28.265  1.00  0.00     0.029 A 
ATOM     51  N   UNL A   1      41.721  27.967  30.094  1.00  0.00    -0.354 N 
ATOM     52  C   UNL A   1      41.036  30.674  33.306  1.00  0.00     0.074 A 
ATOM     53  C   UNL A   1      39.892  31.519  33.055  1.00  0.00     0.031 C 
ATOM     54  C   UNL A   1      41.444  27.053  28.073  1.00  0.00     0.029 A 
ATOM     55  C   UNL A   1      42.303  27.040  29.249  1.00  0.00     0.049 A 
ATOM     56  H   UNL A   1      42.115  28.225  30.959  1.00  0.00     0.167 HD
ATOM     57  C   UNL A   1      41.831  30.787  34.405  1.00  0.00     0.037 A 
ATOM     58  C   UNL A   1      43.392  26.253  29.381  1.00  0.00     0.037 A 
ATOM     59  C   UNL A   1      42.945  29.917  34.699  1.00  0.00     0.049 A 
ATOM     60  C   UNL A   1      44.200  26.315  30.648  1.00  0.00     0.074 A 
ATOM     61  C   UNL A   1      43.724  29.871  35.844  1.00  0.00     0.029 A 
ATOM     62  N   UNL A   1      43.444  28.948  33.844  1.00  0.00    -0.354 N 
ATOM     63  N   UNL A   1      44.026  27.083  31.696  1.00  0.00    -0.248 NA
ATOM     64  C   UNL A   1      45.347  25.402  30.757  1.00  0.00     0.031 C 
ATOM     65  C   UNL A   1      44.725  28.913  35.660  1.00  0.00     0.029 A 
ATOM     66  C   UNL A   1      44.534  28.318  34.425  1.00  0.00     0.049 A 
ATOM     67  H   UNL A   1      43.079  28.739  32.953  1.00  0.00     0.167 HD
ATOM     68  C   UNL A   1      45.027  26.731  32.595  1.00  0.00     0.074 A 
ATOM     69  C   UNL A   1      45.789  25.666  31.979  1.00  0.00     0.031 C 
ATOM     70  C   UNL A   1      45.290  27.250  33.818  1.00  0.00     0.037 A 
BRANCH  57  71
ATOM     71  C   UNL A   1      41.508  31.867  35.420  1.00  0.00     0.058 A 
ATOM     72  C   UNL A   1      42.235  33.068  35.474  1.00  0.00     0.135 A 
ATOM     73  C   UNL A   1      40.414  31.738  36.295  1.00  0.00     0.135 A 
ATOM     74  F   UNL A   1      43.285  33.260  34.660  1.00  0.00    -0.206 F 
ATOM     75  C   UNL A   1      41.923  34.076  36.383  1.00  0.00     0.059 A 
ATOM     76  C   UNL A   1      40.060  32.750  37.189  1.00  0.00     0.059 A 
ATOM     77  F   UNL A   1      39.662  30.626  36.280  1.00  0.00    -0.206 F 
ATOM     78  C   UNL A   1      40.833  33.908  37.237  1.00  0.00     0.060 A 
BRANCH  78  79
ATOM     79  S   UNL A   1      40.442  35.233  38.403  1.00  0.00     0.124 S 
ATOM     80  O   UNL A   1      40.560  34.539  39.683  1.00  0.00    -0.237 OA
ATOM     81  O   UNL A   1      41.482  36.216  38.119  1.00  0.00    -0.237 OA
ATOM     82  O   UNL A   1      39.089  35.630  38.029  1.00  0.00    -0.744 OA
ENDBRANCH  78  79
ENDBRANCH  57  71
BRANCH  58  83
ATOM     83  C   UNL A   1      43.766  25.297  28.294  1.00  0.00     0.058 A 
ATOM     84  C   UNL A   1      43.397  23.943  28.357  1.00  0.00     0.135 A 
ATOM     85  C   UNL A   1      44.490  25.715  27.167  1.00  0.00     0.135 A 
ATOM     86  F   UNL A   1      42.712  23.483  29.415  1.00  0.00    -0.206 F 
ATOM     87  C   UNL A   1      43.748  23.037  27.358  1.00  0.00     0.059 A 
ATOM     88  C   UNL A   1      44.824  24.838  26.137  1.00  0.00     0.059 A 
ATOM     89  F   UNL A   1      44.853  27.001  27.041  1.00  0.00    -0.206 F 
ATOM     90  C   UNL A   1      44.458  23.497  26.248  1.00  0.00     0.060 A 
BRANCH  90  91
ATOM     91  S   UNL A   1      44.863  22.328  24.930  1.00  0.00     0.124 S 
ATOM     92  O   UNL A   1      45.277  23.224  23.857  1.00  0.00    -0.237 OA
ATOM     93  O   UNL A   1      45.923  21.532  25.542  1.00  0.00    -0.237 OA
ATOM     94  O   UNL A   1      43.605  21.619  24.713  1.00  0.00    -0.744 OA
ENDBRANCH  90  91
ENDBRANCH  58  83
BRANCH  70  95
ATOM     95  C   UNL A   1      46.430  26.659  34.602  1.00  0.00     0.058 A 
ATOM     96  C   UNL A   1      47.731  27.181  34.525  1.00  0.00     0.135 A 
ATOM     97  C   UNL A   1      46.206  25.592  35.487  1.00  0.00     0.135 A 
ATOM     98  F   UNL A   1      48.004  28.196  33.689  1.00  0.00    -0.206 F 
ATOM     99  C   UNL A   1      48.773  26.653  35.281  1.00  0.00     0.059 A 
ATOM    100  C   UNL A   1      47.226  25.069  36.276  1.00  0.00     0.059 A 
ATOM    101  F   UNL A   1      44.980  25.059  35.607  1.00  0.00    -0.206 F 
ATOM    102  C   UNL A   1      48.509  25.600  36.158  1.00  0.00     0.060 A 
BRANCH 102 103
ATOM    103  S   UNL A   1      49.861  24.953  37.164  1.00  0.00     0.124 S 
ATOM    104  O   UNL A   1      50.850  26.021  37.050  1.00  0.00    -0.237 OA
ATOM    105  O   UNL A   1      49.233  24.808  38.474  1.00  0.00    -0.237 OA
ATOM    106  O   UNL A   1      50.211  23.700  36.501  1.00  0.00    -0.744 OA
ENDBRANCH 102 103
ENDBRANCH  70  95
ENDBRANCH  44  45
ENDBRANCH  36  39
ENDBRANCH  34  35
ENDBRANCH  33  34
ENDBRANCH  32  33
ENDBRANCH   1  32
TORSDOF 20
ENDMDL
