MODEL 1
REMARK VINA RESULT:     -12.7      0.000      0.000
REMARK SMILES O=C(C[NH+]1CCC(C(=O)NCCCCCCNC(=O)c2ccc(-c3c4nc(c(-c5c(F)cc(S(=O)(=O)[O-])cc5F)c5ccc([nH]5)c(-c5c(F)cc(S(=O)(=O)[O-])cc5F)c5nc(c(-c6c(F)cc(S(=O)(=O)[O-])cc6F)c6ccc3[nH]6)C=C5)C=C4)cc2)CC1)Nc1ccccc1Oc1ccccc1
REMARK SMILES IDX 12 1 11 2 10 3 8 4 9 5 7 7 4 8 5 9 87 10 6 12 86 13 3 14
REMARK SMILES IDX 2 15 1 16 88 17 89 19 90 20 94 21 91 22 93 23 92 24 95 25
REMARK SMILES IDX 96 26 97 27 101 28 98 29 100 30 99 31 13 32 14 33 15 34
REMARK SMILES IDX 16 35 17 36 18 37 19 39 20 40 21 41 85 42 22 43 84 44 23 45
REMARK SMILES IDX 24 46 25 47 78 48 26 49 83 50 77 51 79 52 27 53 82 54 76 55
REMARK SMILES IDX 75 56 28 58 62 59 41 60 61 61 42 62 45 63 60 64 80 65 43 66
REMARK SMILES IDX 44 67 59 69 81 70 46 71 29 72 30 73 39 74 31 75 32 76 38 77
REMARK SMILES IDX 40 78 33 79 34 80 35 81 36 82 37 83 63 84 64 85 73 86 65 87
REMARK SMILES IDX 66 88 72 89 74 90 67 91 68 92 69 93 70 94 71 95 47 96 48 97
REMARK SMILES IDX 57 98 49 99 50 100 56 101 58 102 51 103 52 104 53 105 54 106
REMARK SMILES IDX 55 107
REMARK H PARENT 10 6 4 11 88 18 17 38 79 57 45 68
REMARK Flexibility Score: inf
ROOT
ATOM      1  C   UNL A   1      35.462  23.907  25.556  1.00  0.00     0.021 C 
ENDROOT
BRANCH   1   2
ATOM      2  C   UNL A   1      34.874  22.792  26.417  1.00  0.00     0.116 C 
BRANCH   2   3
ATOM      3  N   UNL A   1      35.221  21.490  25.869  1.00  0.00    -0.356 N 
ATOM      4  C   UNL A   1      34.492  20.619  25.119  1.00  0.00     0.223 C 
ATOM      5  O   UNL A   1      34.982  19.518  24.860  1.00  0.00    -0.275 OA
ATOM      6  H   UNL A   1      36.135  21.187  26.076  1.00  0.00     0.163 HD
BRANCH   4   7
ATOM      7  C   UNL A   1      33.138  21.018  24.563  1.00  0.00     0.089 C 
ATOM      8  N   UNL A   1      31.693  23.470  23.960  1.00  0.00    -0.327 N 
ATOM      9  C   UNL A   1      31.188  22.611  25.050  1.00  0.00     0.263 C 
ATOM     10  C   UNL A   1      32.148  22.616  22.856  1.00  0.00     0.263 C 
ATOM     11  H   UNL A   1      32.491  24.035  24.252  1.00  0.00     0.348 HD
ATOM     12  C   UNL A   1      32.247  21.676  25.622  1.00  0.00     0.075 C 
ATOM     13  C   UNL A   1      33.362  21.817  23.277  1.00  0.00     0.075 C 
BRANCH   8  14
ATOM     14  C   UNL A   1      30.587  24.383  23.563  1.00  0.00     0.363 C 
BRANCH  14  15
ATOM     15  C   UNL A   1      30.457  25.628  24.439  1.00  0.00     0.279 C 
ATOM     16  O   UNL A   1      29.390  25.931  24.977  1.00  0.00    -0.268 OA
ATOM     17  N   UNL A   1      31.600  26.401  24.482  1.00  0.00    -0.318 N 
ATOM     18  H   UNL A   1      32.354  26.174  23.891  1.00  0.00     0.170 HD
BRANCH  17  19
ATOM     19  C   UNL A   1      31.715  27.503  25.349  1.00  0.00     0.084 A 
ATOM     20  C   UNL A   1      32.028  27.174  26.681  1.00  0.00     0.030 A 
ATOM     21  C   UNL A   1      31.586  28.854  24.977  1.00  0.00     0.150 A 
ATOM     22  C   UNL A   1      32.313  28.168  27.618  1.00  0.00     0.002 A 
ATOM     23  C   UNL A   1      31.866  29.837  25.946  1.00  0.00     0.049 A 
ATOM     24  C   UNL A   1      32.244  29.502  27.247  1.00  0.00     0.004 A 
BRANCH  21  25
ATOM     25  O   UNL A   1      31.174  29.441  23.796  1.00  0.00    -0.455 OA
BRANCH  25  26
ATOM     26  C   UNL A   1      29.866  29.702  23.502  1.00  0.00     0.127 A 
ATOM     27  C   UNL A   1      29.416  31.002  23.753  1.00  0.00     0.047 A 
ATOM     28  C   UNL A   1      28.972  28.725  23.069  1.00  0.00     0.047 A 
ATOM     29  C   UNL A   1      28.097  31.355  23.479  1.00  0.00     0.004 A 
ATOM     30  C   UNL A   1      27.645  29.078  22.801  1.00  0.00     0.004 A 
ATOM     31  C   UNL A   1      27.211  30.394  22.994  1.00  0.00     0.000 A 
ENDBRANCH  25  26
ENDBRANCH  21  25
ENDBRANCH  17  19
ENDBRANCH  14  15
ENDBRANCH   8  14
ENDBRANCH   4   7
ENDBRANCH   2   3
ENDBRANCH   1   2
BRANCH   1  32
ATOM     32  C   UNL A   1      36.913  23.641  25.140  1.00  0.00     0.002 C 
BRANCH  32  33
ATOM     33  C   UNL A   1      37.942  23.927  26.237  1.00  0.00     0.002 C 
BRANCH  33  34
ATOM     34  C   UNL A   1      38.988  22.825  26.429  1.00  0.00     0.021 C 
BRANCH  34  35
ATOM     35  C   UNL A   1      40.298  23.307  27.041  1.00  0.00     0.116 C 
BRANCH  35  36
ATOM     36  N   UNL A   1      41.116  24.016  26.073  1.00  0.00    -0.352 N 
ATOM     37  C   UNL A   1      41.492  25.334  26.050  1.00  0.00     0.251 C 
ATOM     38  H   UNL A   1      41.449  23.471  25.324  1.00  0.00     0.163 HD
ATOM     39  O   UNL A   1      42.000  25.804  25.039  1.00  0.00    -0.269 OA
BRANCH  37  40
ATOM     40  C   UNL A   1      41.269  26.181  27.240  1.00  0.00     0.039 A 
ATOM     41  C   UNL A   1      42.106  27.278  27.446  1.00  0.00     0.014 A 
ATOM     42  C   UNL A   1      40.257  25.885  28.158  1.00  0.00     0.014 A 
ATOM     43  C   UNL A   1      41.905  28.098  28.556  1.00  0.00     0.010 A 
ATOM     44  C   UNL A   1      40.008  26.749  29.222  1.00  0.00     0.010 A 
ATOM     45  C   UNL A   1      40.839  27.855  29.441  1.00  0.00    -0.014 A 
BRANCH  45  46
ATOM     46  C   UNL A   1      40.606  28.752  30.600  1.00  0.00     0.031 A 
ATOM     47  C   UNL A   1      41.450  28.625  31.842  1.00  0.00     0.074 A 
ATOM     48  C   UNL A   1      39.628  29.676  30.534  1.00  0.00     0.049 A 
ATOM     49  N   UNL A   1      41.405  29.328  32.944  1.00  0.00    -0.248 NA
ATOM     50  C   UNL A   1      42.463  27.554  31.857  1.00  0.00     0.031 C 
ATOM     51  C   UNL A   1      38.710  29.858  29.407  1.00  0.00     0.029 A 
ATOM     52  N   UNL A   1      39.246  30.643  31.428  1.00  0.00    -0.354 N 
ATOM     53  C   UNL A   1      42.387  28.798  33.774  1.00  0.00     0.074 A 
ATOM     54  C   UNL A   1      42.958  27.664  33.080  1.00  0.00     0.031 C 
ATOM     55  C   UNL A   1      37.898  30.897  29.662  1.00  0.00     0.029 A 
ATOM     56  C   UNL A   1      38.215  31.436  30.980  1.00  0.00     0.049 A 
ATOM     57  H   UNL A   1      39.672  30.760  32.309  1.00  0.00     0.167 HD
ATOM     58  C   UNL A   1      42.802  29.238  34.985  1.00  0.00     0.037 A 
ATOM     59  C   UNL A   1      37.599  32.480  31.565  1.00  0.00     0.037 A 
ATOM     60  C   UNL A   1      42.237  30.374  35.667  1.00  0.00     0.049 A 
ATOM     61  C   UNL A   1      38.075  32.940  32.918  1.00  0.00     0.074 A 
ATOM     62  C   UNL A   1      42.593  30.910  36.893  1.00  0.00     0.029 A 
ATOM     63  N   UNL A   1      41.204  31.158  35.175  1.00  0.00    -0.354 N 
ATOM     64  N   UNL A   1      39.037  32.454  33.665  1.00  0.00    -0.248 NA
ATOM     65  C   UNL A   1      37.390  34.103  33.499  1.00  0.00     0.031 C 
ATOM     66  C   UNL A   1      41.752  31.996  37.158  1.00  0.00     0.029 A 
ATOM     67  C   UNL A   1      40.906  32.169  36.075  1.00  0.00     0.049 A 
ATOM     68  H   UNL A   1      40.748  31.017  34.314  1.00  0.00     0.167 HD
ATOM     69  C   UNL A   1      39.096  33.273  34.788  1.00  0.00     0.074 A 
ATOM     70  C   UNL A   1      38.088  34.297  34.608  1.00  0.00     0.031 C 
ATOM     71  C   UNL A   1      39.906  33.186  35.873  1.00  0.00     0.037 A 
BRANCH  58  72
ATOM     72  C   UNL A   1      43.946  28.510  35.639  1.00  0.00     0.058 A 
ATOM     73  C   UNL A   1      45.276  28.912  35.438  1.00  0.00     0.135 A 
ATOM     74  C   UNL A   1      43.713  27.440  36.517  1.00  0.00     0.135 A 
ATOM     75  F   UNL A   1      45.557  29.917  34.594  1.00  0.00    -0.206 F 
ATOM     76  C   UNL A   1      46.336  28.272  36.069  1.00  0.00     0.059 A 
ATOM     77  C   UNL A   1      44.757  26.801  37.182  1.00  0.00     0.059 A 
ATOM     78  F   UNL A   1      42.462  27.010  36.744  1.00  0.00    -0.206 F 
ATOM     79  C   UNL A   1      46.066  27.218  36.945  1.00  0.00     0.060 A 
BRANCH  79  80
ATOM     80  S   UNL A   1      47.452  26.419  37.780  1.00  0.00     0.124 S 
ATOM     81  O   UNL A   1      47.759  27.389  38.828  1.00  0.00    -0.237 OA
ATOM     82  O   UNL A   1      46.860  25.164  38.233  1.00  0.00    -0.237 OA
ATOM     83  O   UNL A   1      48.456  26.293  36.729  1.00  0.00    -0.744 OA
ENDBRANCH  79  80
ENDBRANCH  58  72
BRANCH  59  84
ATOM     84  C   UNL A   1      36.481  33.182  30.877  1.00  0.00     0.058 A 
ATOM     85  C   UNL A   1      36.715  33.999  29.759  1.00  0.00     0.135 A 
ATOM     86  C   UNL A   1      35.163  33.083  31.348  1.00  0.00     0.135 A 
ATOM     87  F   UNL A   1      37.958  34.125  29.270  1.00  0.00    -0.206 F 
ATOM     88  C   UNL A   1      35.694  34.732  29.165  1.00  0.00     0.059 A 
ATOM     89  C   UNL A   1      34.119  33.782  30.750  1.00  0.00     0.059 A 
ATOM     90  F   UNL A   1      34.879  32.296  32.397  1.00  0.00    -0.206 F 
ATOM     91  C   UNL A   1      34.399  34.623  29.674  1.00  0.00     0.060 A 
BRANCH  91  92
ATOM     92  S   UNL A   1      33.079  35.586  28.906  1.00  0.00     0.124 S 
ATOM     93  O   UNL A   1      33.827  36.690  28.319  1.00  0.00    -0.237 OA
ATOM     94  O   UNL A   1      32.506  34.628  27.965  1.00  0.00    -0.237 OA
ATOM     95  O   UNL A   1      32.220  35.934  30.035  1.00  0.00    -0.744 OA
ENDBRANCH  91  92
ENDBRANCH  59  84
BRANCH  71  96
ATOM     96  C   UNL A   1      39.762  34.258  36.919  1.00  0.00     0.058 A 
ATOM     97  C   UNL A   1      40.400  35.503  36.796  1.00  0.00     0.135 A 
ATOM     98  C   UNL A   1      38.975  34.035  38.061  1.00  0.00     0.135 A 
ATOM     99  F   UNL A   1      41.165  35.768  35.726  1.00  0.00    -0.206 F 
ATOM    100  C   UNL A   1      40.306  36.469  37.795  1.00  0.00     0.059 A 
ATOM    101  C   UNL A   1      38.840  34.998  39.055  1.00  0.00     0.059 A 
ATOM    102  F   UNL A   1      38.330  32.868  38.220  1.00  0.00    -0.206 F 
ATOM    103  C   UNL A   1      39.529  36.203  38.924  1.00  0.00     0.060 A 
BRANCH 103 104
ATOM    104  S   UNL A   1      39.427  37.456  40.218  1.00  0.00     0.124 S 
ATOM    105  O   UNL A   1      38.523  38.428  39.614  1.00  0.00    -0.237 OA
ATOM    106  O   UNL A   1      38.885  36.701  41.343  1.00  0.00    -0.237 OA
ATOM    107  O   UNL A   1      40.810  37.895  40.374  1.00  0.00    -0.744 OA
ENDBRANCH 103 104
ENDBRANCH  71  96
ENDBRANCH  45  46
ENDBRANCH  37  40
ENDBRANCH  35  36
ENDBRANCH  34  35
ENDBRANCH  33  34
ENDBRANCH  32  33
ENDBRANCH   1  32
TORSDOF 21
ENDMDL
MODEL 2
REMARK VINA RESULT:     -12.1      5.762      7.903
REMARK SMILES O=C(C[NH+]1CCC(C(=O)NCCCCCCNC(=O)c2ccc(-c3c4nc(c(-c5c(F)cc(S(=O)(=O)[O-])cc5F)c5ccc([nH]5)c(-c5c(F)cc(S(=O)(=O)[O-])cc5F)c5nc(c(-c6c(F)cc(S(=O)(=O)[O-])cc6F)c6ccc3[nH]6)C=C5)C=C4)cc2)CC1)Nc1ccccc1Oc1ccccc1
REMARK SMILES IDX 12 1 11 2 10 3 8 4 9 5 7 7 4 8 5 9 87 10 6 12 86 13 3 14
REMARK SMILES IDX 2 15 1 16 88 17 89 19 90 20 94 21 91 22 93 23 92 24 95 25
REMARK SMILES IDX 96 26 97 27 101 28 98 29 100 30 99 31 13 32 14 33 15 34
REMARK SMILES IDX 16 35 17 36 18 37 19 39 20 40 21 41 85 42 22 43 84 44 23 45
REMARK SMILES IDX 24 46 25 47 78 48 26 49 83 50 77 51 79 52 27 53 82 54 76 55
REMARK SMILES IDX 75 56 28 58 62 59 41 60 61 61 42 62 45 63 60 64 80 65 43 66
REMARK SMILES IDX 44 67 59 69 81 70 46 71 29 72 30 73 39 74 31 75 32 76 38 77
REMARK SMILES IDX 40 78 33 79 34 80 35 81 36 82 37 83 63 84 64 85 73 86 65 87
REMARK SMILES IDX 66 88 72 89 74 90 67 91 68 92 69 93 70 94 71 95 47 96 48 97
REMARK SMILES IDX 57 98 49 99 50 100 56 101 58 102 51 103 52 104 53 105 54 106
REMARK SMILES IDX 55 107
REMARK H PARENT 10 6 4 11 88 18 17 38 79 57 45 68
REMARK Flexibility Score: inf
ROOT
ATOM      1  C   UNL A   1      35.216  22.165  25.622  1.00  0.00     0.021 C 
ENDROOT
BRANCH   1   2
ATOM      2  C   UNL A   1      34.274  21.692  26.726  1.00  0.00     0.116 C 
BRANCH   2   3
ATOM      3  N   UNL A   1      33.850  20.322  26.480  1.00  0.00    -0.356 N 
ATOM      4  C   UNL A   1      32.799  19.832  25.766  1.00  0.00     0.223 C 
ATOM      5  O   UNL A   1      32.590  18.617  25.792  1.00  0.00    -0.275 OA
ATOM      6  H   UNL A   1      34.416  19.635  26.901  1.00  0.00     0.163 HD
BRANCH   4   7
ATOM      7  C   UNL A   1      31.947  20.750  24.910  1.00  0.00     0.089 C 
ATOM      8  N   UNL A   1      32.179  23.372  23.671  1.00  0.00    -0.327 N 
ATOM      9  C   UNL A   1      31.205  23.201  24.767  1.00  0.00     0.263 C 
ATOM     10  C   UNL A   1      32.149  22.176  22.819  1.00  0.00     0.263 C 
ATOM     11  H   UNL A   1      33.134  23.472  24.015  1.00  0.00     0.348 HD
ATOM     12  C   UNL A   1      31.511  22.010  25.666  1.00  0.00     0.075 C 
ATOM     13  C   UNL A   1      32.670  20.977  23.580  1.00  0.00     0.075 C 
BRANCH   8  14
ATOM     14  C   UNL A   1      31.809  24.612  22.935  1.00  0.00     0.363 C 
BRANCH  14  15
ATOM     15  C   UNL A   1      31.382  25.770  23.834  1.00  0.00     0.279 C 
ATOM     16  O   UNL A   1      30.202  25.946  24.144  1.00  0.00    -0.268 OA
ATOM     17  N   UNL A   1      32.414  26.623  24.171  1.00  0.00    -0.318 N 
ATOM     18  H   UNL A   1      33.293  26.502  23.746  1.00  0.00     0.170 HD
BRANCH  17  19
ATOM     19  C   UNL A   1      32.240  27.659  25.107  1.00  0.00     0.084 A 
ATOM     20  C   UNL A   1      32.623  27.336  26.422  1.00  0.00     0.030 A 
ATOM     21  C   UNL A   1      31.770  28.953  24.817  1.00  0.00     0.150 A 
ATOM     22  C   UNL A   1      32.641  28.306  27.425  1.00  0.00     0.002 A 
ATOM     23  C   UNL A   1      31.786  29.911  25.850  1.00  0.00     0.049 A 
ATOM     24  C   UNL A   1      32.233  29.600  27.135  1.00  0.00     0.004 A 
BRANCH  21  25
ATOM     25  O   UNL A   1      31.226  29.491  23.667  1.00  0.00    -0.455 OA
BRANCH  25  26
ATOM     26  C   UNL A   1      29.894  29.754  23.517  1.00  0.00     0.127 A 
ATOM     27  C   UNL A   1      29.104  28.715  23.015  1.00  0.00     0.047 A 
ATOM     28  C   UNL A   1      29.333  31.010  23.747  1.00  0.00     0.047 A 
ATOM     29  C   UNL A   1      27.735  28.897  22.834  1.00  0.00     0.004 A 
ATOM     30  C   UNL A   1      27.959  31.194  23.558  1.00  0.00     0.004 A 
ATOM     31  C   UNL A   1      27.159  30.135  23.115  1.00  0.00     0.000 A 
ENDBRANCH  25  26
ENDBRANCH  21  25
ENDBRANCH  17  19
ENDBRANCH  14  15
ENDBRANCH   8  14
ENDBRANCH   4   7
ENDBRANCH   2   3
ENDBRANCH   1   2
BRANCH   1  32
ATOM     32  C   UNL A   1      36.630  21.592  25.753  1.00  0.00     0.002 C 
BRANCH  32  33
ATOM     33  C   UNL A   1      36.857  20.297  24.968  1.00  0.00     0.002 C 
BRANCH  33  34
ATOM     34  C   UNL A   1      38.329  19.965  24.704  1.00  0.00     0.021 C 
BRANCH  34  35
ATOM     35  C   UNL A   1      39.257  20.267  25.875  1.00  0.00     0.116 C 
BRANCH  35  36
ATOM     36  N   UNL A   1      40.299  19.265  26.008  1.00  0.00    -0.352 N 
ATOM     37  C   UNL A   1      41.648  19.431  26.182  1.00  0.00     0.251 C 
ATOM     38  H   UNL A   1      39.992  18.331  25.969  1.00  0.00     0.163 HD
ATOM     39  O   UNL A   1      42.401  18.471  26.054  1.00  0.00    -0.269 OA
BRANCH  37  40
ATOM     40  C   UNL A   1      42.188  20.767  26.507  1.00  0.00     0.039 A 
ATOM     41  C   UNL A   1      42.553  21.613  25.460  1.00  0.00     0.014 A 
ATOM     42  C   UNL A   1      42.355  21.175  27.834  1.00  0.00     0.014 A 
ATOM     43  C   UNL A   1      43.053  22.884  25.745  1.00  0.00     0.010 A 
ATOM     44  C   UNL A   1      42.779  22.471  28.115  1.00  0.00     0.010 A 
ATOM     45  C   UNL A   1      43.148  23.334  27.074  1.00  0.00    -0.014 A 
BRANCH  45  46
ATOM     46  C   UNL A   1      43.646  24.700  27.371  1.00  0.00     0.031 A 
ATOM     47  C   UNL A   1      45.096  25.045  27.154  1.00  0.00     0.074 A 
ATOM     48  C   UNL A   1      42.789  25.627  27.843  1.00  0.00     0.049 A 
ATOM     49  N   UNL A   1      45.708  26.186  27.340  1.00  0.00    -0.248 NA
ATOM     50  C   UNL A   1      45.980  23.963  26.688  1.00  0.00     0.031 C 
ATOM     51  C   UNL A   1      41.374  25.395  28.146  1.00  0.00     0.029 A 
ATOM     52  N   UNL A   1      42.977  26.951  28.144  1.00  0.00    -0.354 N 
ATOM     53  C   UNL A   1      47.038  25.964  27.002  1.00  0.00     0.074 A 
ATOM     54  C   UNL A   1      47.161  24.561  26.674  1.00  0.00     0.031 C 
ATOM     55  C   UNL A   1      40.815  26.547  28.552  1.00  0.00     0.029 A 
ATOM     56  C   UNL A   1      41.835  27.590  28.569  1.00  0.00     0.049 A 
ATOM     57  H   UNL A   1      43.849  27.404  28.062  1.00  0.00     0.167 HD
ATOM     58  C   UNL A   1      48.055  26.855  26.932  1.00  0.00     0.037 A 
ATOM     59  C   UNL A   1      41.634  28.872  28.927  1.00  0.00     0.037 A 
ATOM     60  C   UNL A   1      47.925  28.254  27.249  1.00  0.00     0.049 A 
ATOM     61  C   UNL A   1      42.788  29.838  28.850  1.00  0.00     0.074 A 
ATOM     62  C   UNL A   1      48.892  29.244  27.201  1.00  0.00     0.029 A 
ATOM     63  N   UNL A   1      46.751  28.865  27.663  1.00  0.00    -0.354 N 
ATOM     64  N   UNL A   1      44.027  29.618  28.482  1.00  0.00    -0.248 NA
ATOM     65  C   UNL A   1      42.509  31.231  29.223  1.00  0.00     0.031 C 
ATOM     66  C   UNL A   1      48.310  30.446  27.617  1.00  0.00     0.029 A 
ATOM     67  C   UNL A   1      46.969  30.216  27.878  1.00  0.00     0.049 A 
ATOM     68  H   UNL A   1      45.888  28.406  27.787  1.00  0.00     0.167 HD
ATOM     69  C   UNL A   1      44.667  30.851  28.545  1.00  0.00     0.074 A 
ATOM     70  C   UNL A   1      43.670  31.815  28.964  1.00  0.00     0.031 C 
ATOM     71  C   UNL A   1      45.962  31.162  28.284  1.00  0.00     0.037 A 
BRANCH  58  72
ATOM     72  C   UNL A   1      49.394  26.351  26.463  1.00  0.00     0.058 A 
ATOM     73  C   UNL A   1      49.856  26.612  25.163  1.00  0.00     0.135 A 
ATOM     74  C   UNL A   1      50.248  25.654  27.332  1.00  0.00     0.135 A 
ATOM     75  F   UNL A   1      49.073  27.258  24.285  1.00  0.00    -0.206 F 
ATOM     76  C   UNL A   1      51.108  26.186  24.734  1.00  0.00     0.059 A 
ATOM     77  C   UNL A   1      51.518  25.241  26.933  1.00  0.00     0.059 A 
ATOM     78  F   UNL A   1      49.857  25.373  28.585  1.00  0.00    -0.206 F 
ATOM     79  C   UNL A   1      51.935  25.505  25.629  1.00  0.00     0.060 A 
BRANCH  79  80
ATOM     80  S   UNL A   1      53.569  24.987  25.064  1.00  0.00     0.124 S 
ATOM     81  O   UNL A   1      54.438  25.691  26.003  1.00  0.00    -0.237 OA
ATOM     82  O   UNL A   1      53.508  23.537  25.223  1.00  0.00    -0.237 OA
ATOM     83  O   UNL A   1      53.620  25.463  23.685  1.00  0.00    -0.744 OA
ENDBRANCH  79  80
ENDBRANCH  58  72
BRANCH  59  84
ATOM     84  C   UNL A   1      40.290  29.332  29.372  1.00  0.00     0.058 A 
ATOM     85  C   UNL A   1      39.305  29.700  28.442  1.00  0.00     0.135 A 
ATOM     86  C   UNL A   1      39.978  29.454  30.734  1.00  0.00     0.135 A 
ATOM     87  F   UNL A   1      39.554  29.601  27.127  1.00  0.00    -0.206 F 
ATOM     88  C   UNL A   1      38.079  30.219  28.845  1.00  0.00     0.059 A 
ATOM     89  C   UNL A   1      38.747  29.940  31.161  1.00  0.00     0.059 A 
ATOM     90  F   UNL A   1      40.874  29.092  31.665  1.00  0.00    -0.206 F 
ATOM     91  C   UNL A   1      37.813  30.343  30.209  1.00  0.00     0.060 A 
BRANCH  91  92
ATOM     92  S   UNL A   1      36.225  31.028  30.726  1.00  0.00     0.124 S 
ATOM     93  O   UNL A   1      35.969  30.279  31.950  1.00  0.00    -0.237 OA
ATOM     94  O   UNL A   1      36.539  32.443  30.895  1.00  0.00    -0.237 OA
ATOM     95  O   UNL A   1      35.346  30.719  29.601  1.00  0.00    -0.744 OA
ENDBRANCH  91  92
ENDBRANCH  59  84
BRANCH  71  96
ATOM     96  C   UNL A   1      46.352  32.610  28.399  1.00  0.00     0.058 A 
ATOM     97  C   UNL A   1      46.208  33.504  27.326  1.00  0.00     0.135 A 
ATOM     98  C   UNL A   1      46.878  33.111  29.602  1.00  0.00     0.135 A 
ATOM     99  F   UNL A   1      45.712  33.078  26.153  1.00  0.00    -0.206 F 
ATOM    100  C   UNL A   1      46.622  34.829  27.423  1.00  0.00     0.059 A 
ATOM    101  C   UNL A   1      47.267  34.440  29.732  1.00  0.00     0.059 A 
ATOM    102  F   UNL A   1      47.020  32.304  30.666  1.00  0.00    -0.206 F 
ATOM    103  C   UNL A   1      47.157  35.285  28.629  1.00  0.00     0.060 A 
BRANCH 103 104
ATOM    104  S   UNL A   1      47.705  37.001  28.739  1.00  0.00     0.124 S 
ATOM    105  O   UNL A   1      47.726  37.391  27.333  1.00  0.00    -0.237 OA
ATOM    106  O   UNL A   1      46.659  37.613  29.551  1.00  0.00    -0.237 OA
ATOM    107  O   UNL A   1      49.012  36.899  29.382  1.00  0.00    -0.744 OA
ENDBRANCH 103 104
ENDBRANCH  71  96
ENDBRANCH  45  46
ENDBRANCH  37  40
ENDBRANCH  35  36
ENDBRANCH  34  35
ENDBRANCH  33  34
ENDBRANCH  32  33
ENDBRANCH   1  32
TORSDOF 21
ENDMDL
MODEL 3
REMARK VINA RESULT:     -12.1      1.068      2.387
REMARK SMILES O=C(C[NH+]1CCC(C(=O)NCCCCCCNC(=O)c2ccc(-c3c4nc(c(-c5c(F)cc(S(=O)(=O)[O-])cc5F)c5ccc([nH]5)c(-c5c(F)cc(S(=O)(=O)[O-])cc5F)c5nc(c(-c6c(F)cc(S(=O)(=O)[O-])cc6F)c6ccc3[nH]6)C=C5)C=C4)cc2)CC1)Nc1ccccc1Oc1ccccc1
REMARK SMILES IDX 12 1 11 2 10 3 8 4 9 5 7 7 4 8 5 9 87 10 6 12 86 13 3 14
REMARK SMILES IDX 2 15 1 16 88 17 89 19 90 20 94 21 91 22 93 23 92 24 95 25
REMARK SMILES IDX 96 26 97 27 101 28 98 29 100 30 99 31 13 32 14 33 15 34
REMARK SMILES IDX 16 35 17 36 18 37 19 39 20 40 21 41 85 42 22 43 84 44 23 45
REMARK SMILES IDX 24 46 25 47 78 48 26 49 83 50 77 51 79 52 27 53 82 54 76 55
REMARK SMILES IDX 75 56 28 58 62 59 41 60 61 61 42 62 45 63 60 64 80 65 43 66
REMARK SMILES IDX 44 67 59 69 81 70 46 71 29 72 30 73 39 74 31 75 32 76 38 77
REMARK SMILES IDX 40 78 33 79 34 80 35 81 36 82 37 83 63 84 64 85 73 86 65 87
REMARK SMILES IDX 66 88 72 89 74 90 67 91 68 92 69 93 70 94 71 95 47 96 48 97
REMARK SMILES IDX 57 98 49 99 50 100 56 101 58 102 51 103 52 104 53 105 54 106
REMARK SMILES IDX 55 107
REMARK H PARENT 10 6 4 11 88 18 17 38 79 57 45 68
REMARK Flexibility Score: inf
ROOT
ATOM      1  C   UNL A   1      38.532  23.240  26.303  1.00  0.00     0.021 C 
ENDROOT
BRANCH   1   2
ATOM      2  C   UNL A   1      37.181  23.045  25.620  1.00  0.00     0.116 C 
BRANCH   2   3
ATOM      3  N   UNL A   1      36.114  22.999  26.609  1.00  0.00    -0.356 N 
ATOM      4  C   UNL A   1      34.764  23.091  26.464  1.00  0.00     0.223 C 
ATOM      5  O   UNL A   1      34.067  23.127  27.481  1.00  0.00    -0.275 OA
ATOM      6  H   UNL A   1      36.420  22.883  27.538  1.00  0.00     0.163 HD
BRANCH   4   7
ATOM      7  C   UNL A   1      34.129  23.086  25.086  1.00  0.00     0.089 C 
ATOM      8  N   UNL A   1      31.947  24.432  23.711  1.00  0.00    -0.327 N 
ATOM      9  C   UNL A   1      31.825  22.983  23.966  1.00  0.00     0.263 C 
ATOM     10  C   UNL A   1      33.332  24.729  23.322  1.00  0.00     0.263 C 
ATOM     11  H   UNL A   1      31.742  24.989  24.540  1.00  0.00     0.348 HD
ATOM     12  C   UNL A   1      32.717  22.491  25.099  1.00  0.00     0.075 C 
ATOM     13  C   UNL A   1      34.267  24.487  24.486  1.00  0.00     0.075 C 
BRANCH   8  14
ATOM     14  C   UNL A   1      30.964  24.783  22.651  1.00  0.00     0.363 C 
BRANCH  14  15
ATOM     15  C   UNL A   1      30.727  26.283  22.488  1.00  0.00     0.279 C 
ATOM     16  O   UNL A   1      31.322  26.942  21.633  1.00  0.00    -0.268 OA
ATOM     17  N   UNL A   1      29.873  26.818  23.432  1.00  0.00    -0.318 N 
ATOM     18  H   UNL A   1      29.571  26.253  24.179  1.00  0.00     0.170 HD
BRANCH  17  19
ATOM     19  C   UNL A   1      29.425  28.149  23.353  1.00  0.00     0.084 A 
ATOM     20  C   UNL A   1      28.059  28.293  23.048  1.00  0.00     0.030 A 
ATOM     21  C   UNL A   1      30.209  29.293  23.592  1.00  0.00     0.150 A 
ATOM     22  C   UNL A   1      27.444  29.545  23.078  1.00  0.00     0.002 A 
ATOM     23  C   UNL A   1      29.566  30.546  23.603  1.00  0.00     0.049 A 
ATOM     24  C   UNL A   1      28.197  30.673  23.368  1.00  0.00     0.004 A 
BRANCH  21  25
ATOM     25  O   UNL A   1      31.568  29.444  23.787  1.00  0.00    -0.455 OA
BRANCH  25  26
ATOM     26  C   UNL A   1      32.192  29.170  24.971  1.00  0.00     0.127 A 
ATOM     27  C   UNL A   1      33.442  28.548  24.890  1.00  0.00     0.047 A 
ATOM     28  C   UNL A   1      31.602  29.392  26.214  1.00  0.00     0.047 A 
ATOM     29  C   UNL A   1      34.149  28.237  26.050  1.00  0.00     0.004 A 
ATOM     30  C   UNL A   1      32.309  29.073  27.378  1.00  0.00     0.004 A 
ATOM     31  C   UNL A   1      33.587  28.507  27.296  1.00  0.00     0.000 A 
ENDBRANCH  25  26
ENDBRANCH  21  25
ENDBRANCH  17  19
ENDBRANCH  14  15
ENDBRANCH   8  14
ENDBRANCH   4   7
ENDBRANCH   2   3
ENDBRANCH   1   2
BRANCH   1  32
ATOM     32  C   UNL A   1      39.300  21.929  26.498  1.00  0.00     0.002 C 
BRANCH  32  33
ATOM     33  C   UNL A   1      40.555  22.061  27.366  1.00  0.00     0.002 C 
BRANCH  33  34
ATOM     34  C   UNL A   1      41.854  22.249  26.578  1.00  0.00     0.021 C 
BRANCH  34  35
ATOM     35  C   UNL A   1      42.635  23.504  26.953  1.00  0.00     0.116 C 
BRANCH  35  36
ATOM     36  N   UNL A   1      42.762  24.414  25.828  1.00  0.00    -0.352 N 
ATOM     37  C   UNL A   1      42.440  25.744  25.744  1.00  0.00     0.251 C 
ATOM     38  H   UNL A   1      43.134  24.019  25.007  1.00  0.00     0.163 HD
ATOM     39  O   UNL A   1      42.411  26.295  24.649  1.00  0.00    -0.269 OA
BRANCH  37  40
ATOM     40  C   UNL A   1      42.117  26.499  26.972  1.00  0.00     0.039 A 
ATOM     41  C   UNL A   1      42.873  27.632  27.278  1.00  0.00     0.014 A 
ATOM     42  C   UNL A   1      41.093  26.083  27.828  1.00  0.00     0.014 A 
ATOM     43  C   UNL A   1      42.576  28.367  28.426  1.00  0.00     0.010 A 
ATOM     44  C   UNL A   1      40.749  26.861  28.930  1.00  0.00     0.010 A 
ATOM     45  C   UNL A   1      41.496  28.003  29.249  1.00  0.00    -0.014 A 
BRANCH  45  46
ATOM     46  C   UNL A   1      41.162  28.809  30.450  1.00  0.00     0.031 A 
ATOM     47  C   UNL A   1      41.969  28.663  31.713  1.00  0.00     0.074 A 
ATOM     48  C   UNL A   1      40.124  29.667  30.400  1.00  0.00     0.049 A 
ATOM     49  N   UNL A   1      41.837  29.293  32.852  1.00  0.00    -0.248 NA
ATOM     50  C   UNL A   1      43.052  27.664  31.705  1.00  0.00     0.031 C 
ATOM     51  C   UNL A   1      39.235  29.855  29.250  1.00  0.00     0.029 A 
ATOM     52  N   UNL A   1      39.645  30.550  31.334  1.00  0.00    -0.354 N 
ATOM     53  C   UNL A   1      42.824  28.780  33.687  1.00  0.00     0.074 A 
ATOM     54  C   UNL A   1      43.496  27.732  32.951  1.00  0.00     0.031 C 
ATOM     55  C   UNL A   1      38.345  30.820  29.534  1.00  0.00     0.029 A 
ATOM     56  C   UNL A   1      38.577  31.297  30.893  1.00  0.00     0.049 A 
ATOM     57  H   UNL A   1      40.030  30.641  32.236  1.00  0.00     0.167 HD
ATOM     58  C   UNL A   1      43.165  29.173  34.937  1.00  0.00     0.037 A 
ATOM     59  C   UNL A   1      37.870  32.260  31.514  1.00  0.00     0.037 A 
ATOM     60  C   UNL A   1      42.499  30.224  35.662  1.00  0.00     0.049 A 
ATOM     61  C   UNL A   1      38.266  32.667  32.909  1.00  0.00     0.074 A 
ATOM     62  C   UNL A   1      42.773  30.706  36.931  1.00  0.00     0.029 A 
ATOM     63  N   UNL A   1      41.431  30.965  35.178  1.00  0.00    -0.354 N 
ATOM     64  N   UNL A   1      39.233  32.202  33.663  1.00  0.00    -0.248 NA
ATOM     65  C   UNL A   1      37.482  33.743  33.531  1.00  0.00     0.031 C 
ATOM     66  C   UNL A   1      41.850  31.715  37.226  1.00  0.00     0.029 A 
ATOM     67  C   UNL A   1      41.033  31.896  36.123  1.00  0.00     0.049 A 
ATOM     68  H   UNL A   1      41.017  30.846  34.292  1.00  0.00     0.167 HD
ATOM     69  C   UNL A   1      39.196  32.952  34.834  1.00  0.00     0.074 A 
ATOM     70  C   UNL A   1      38.125  33.915  34.675  1.00  0.00     0.031 C 
ATOM     71  C   UNL A   1      39.972  32.854  35.942  1.00  0.00     0.037 A 
BRANCH  58  72
ATOM     72  C   UNL A   1      44.333  28.484  35.591  1.00  0.00     0.058 A 
ATOM     73  C   UNL A   1      44.154  27.338  36.382  1.00  0.00     0.135 A 
ATOM     74  C   UNL A   1      45.646  28.935  35.381  1.00  0.00     0.135 A 
ATOM     75  F   UNL A   1      42.919  26.875  36.630  1.00  0.00    -0.206 F 
ATOM     76  C   UNL A   1      45.231  26.672  36.956  1.00  0.00     0.059 A 
ATOM     77  C   UNL A   1      46.742  28.267  35.923  1.00  0.00     0.059 A 
ATOM     78  F   UNL A   1      45.877  30.028  34.637  1.00  0.00    -0.206 F 
ATOM     79  C   UNL A   1      46.524  27.142  36.716  1.00  0.00     0.060 A 
BRANCH  79  80
ATOM     80  S   UNL A   1      47.911  26.245  37.443  1.00  0.00     0.124 S 
ATOM     81  O   UNL A   1      48.999  27.204  37.273  1.00  0.00    -0.237 OA
ATOM     82  O   UNL A   1      47.461  26.035  38.816  1.00  0.00    -0.237 OA
ATOM     83  O   UNL A   1      48.005  25.040  36.625  1.00  0.00    -0.744 OA
ENDBRANCH  79  80
ENDBRANCH  58  72
BRANCH  59  84
ATOM     84  C   UNL A   1      36.730  32.925  30.825  1.00  0.00     0.058 A 
ATOM     85  C   UNL A   1      36.944  33.811  29.757  1.00  0.00     0.135 A 
ATOM     86  C   UNL A   1      35.408  32.722  31.249  1.00  0.00     0.135 A 
ATOM     87  F   UNL A   1      38.191  34.037  29.315  1.00  0.00    -0.206 F 
ATOM     88  C   UNL A   1      35.896  34.508  29.167  1.00  0.00     0.059 A 
ATOM     89  C   UNL A   1      34.340  33.384  30.653  1.00  0.00     0.059 A 
ATOM     90  F   UNL A   1      35.144  31.866  32.248  1.00  0.00    -0.206 F 
ATOM     91  C   UNL A   1      34.597  34.294  29.629  1.00  0.00     0.060 A 
BRANCH  91  92
ATOM     92  S   UNL A   1      33.242  35.211  28.867  1.00  0.00     0.124 S 
ATOM     93  O   UNL A   1      33.958  36.297  28.208  1.00  0.00    -0.237 OA
ATOM     94  O   UNL A   1      32.647  34.210  27.987  1.00  0.00    -0.237 OA
ATOM     95  O   UNL A   1      32.418  35.599  30.008  1.00  0.00    -0.744 OA
ENDBRANCH  91  92
ENDBRANCH  59  84
BRANCH  71  96
ATOM     96  C   UNL A   1      39.718  33.848  37.044  1.00  0.00     0.058 A 
ATOM     97  C   UNL A   1      40.252  35.146  37.008  1.00  0.00     0.135 A 
ATOM     98  C   UNL A   1      38.927  33.495  38.150  1.00  0.00     0.135 A 
ATOM     99  F   UNL A   1      41.016  35.535  35.974  1.00  0.00    -0.206 F 
ATOM    100  C   UNL A   1      40.057  36.040  38.056  1.00  0.00     0.059 A 
ATOM    101  C   UNL A   1      38.691  34.384  39.193  1.00  0.00     0.059 A 
ATOM    102  F   UNL A   1      38.377  32.272  38.226  1.00  0.00    -0.206 F 
ATOM    103  C   UNL A   1      39.281  35.647  39.148  1.00  0.00     0.060 A 
BRANCH 103 104
ATOM    104  S   UNL A   1      39.048  36.809  40.508  1.00  0.00     0.124 S 
ATOM    105  O   UNL A   1      38.574  37.995  39.802  1.00  0.00    -0.237 OA
ATOM    106  O   UNL A   1      38.060  36.128  41.337  1.00  0.00    -0.237 OA
ATOM    107  O   UNL A   1      40.381  36.918  41.093  1.00  0.00    -0.744 OA
ENDBRANCH 103 104
ENDBRANCH  71  96
ENDBRANCH  45  46
ENDBRANCH  37  40
ENDBRANCH  35  36
ENDBRANCH  34  35
ENDBRANCH  33  34
ENDBRANCH  32  33
ENDBRANCH   1  32
TORSDOF 21
ENDMDL
