MODEL 1
REMARK VINA RESULT:      -9.6      0.000      0.000
REMARK SMILES CC[C@@H](C(=O)NCCCCCCNC(=O)c1ccc(-c2c3nc(c(-c4c(F)cc(S(=O)(=O)[O-])cc4F)c4ccc([nH]4)c(-c4c(F)cc(S(=O)(=O)[O-])cc4F)c4nc(c(-c5c(F)cc(S(=O)(=O)[O-])cc5F)c5ccc2[nH]5)C=C4)C=C3)cc1)N(C)C(=O)N(C)CC(C)(C)O
REMARK SMILES IDX 8 1 7 2 6 3 4 4 5 5 3 7 2 8 1 9 82 10 83 11 84 12 85 13
REMARK SMILES IDX 86 14 87 15 88 16 89 17 90 18 91 19 92 20 9 22 10 23 11 24
REMARK SMILES IDX 12 25 13 26 14 27 15 29 16 30 17 31 81 32 18 33 80 34 19 35
REMARK SMILES IDX 20 36 21 37 74 38 22 39 79 40 73 41 75 42 23 43 78 44 72 45
REMARK SMILES IDX 71 46 24 48 58 49 37 50 57 51 38 52 41 53 56 54 76 55 39 56
REMARK SMILES IDX 40 57 55 59 77 60 42 61 25 62 26 63 35 64 27 65 28 66 34 67
REMARK SMILES IDX 36 68 29 69 30 70 31 71 32 72 33 73 59 74 60 75 69 76 61 77
REMARK SMILES IDX 62 78 68 79 70 80 63 81 64 82 65 83 66 84 67 85 43 86 44 87
REMARK SMILES IDX 53 88 45 89 46 90 52 91 54 92 47 93 48 94 49 95 50 96 51 97
REMARK H PARENT 6 6 92 21 13 28 75 47 41 58
REMARK Flexibility Score: inf
ROOT
ATOM      1  C   UNL A   1      30.377  25.900  23.980  1.00  0.00     0.021 C 
ENDROOT
BRANCH   1   2
ATOM      2  C   UNL A   1      30.940  24.542  23.565  1.00  0.00     0.116 C 
BRANCH   2   3
ATOM      3  N   UNL A   1      32.363  24.494  23.793  1.00  0.00    -0.354 N 
ATOM      4  C   UNL A   1      33.123  23.729  24.620  1.00  0.00     0.242 C 
ATOM      5  O   UNL A   1      34.342  23.856  24.451  1.00  0.00    -0.273 OA
ATOM      6  H   UNL A   1      32.879  25.133  23.251  1.00  0.00     0.163 HD
BRANCH   4   7
ATOM      7  C   UNL A   1      32.506  22.686  25.612  1.00  0.00     0.175 C 
BRANCH   7   8
ATOM      8  C   UNL A   1      31.737  23.214  26.849  1.00  0.00     0.032 C 
ATOM      9  C   UNL A   1      30.236  22.971  26.885  1.00  0.00     0.006 C 
ENDBRANCH   7   8
BRANCH   7  10
ATOM     10  N   UNL A   1      33.636  21.768  26.009  1.00  0.00    -0.316 N 
ATOM     11  C   UNL A   1      34.043  21.874  27.398  1.00  0.00     0.149 C 
BRANCH  10  12
ATOM     12  C   UNL A   1      33.989  20.779  25.101  1.00  0.00     0.320 C 
ATOM     13  O   UNL A   1      35.186  20.612  24.831  1.00  0.00    -0.248 OA
BRANCH  12  14
ATOM     14  N   UNL A   1      33.072  19.973  24.455  1.00  0.00    -0.325 N 
ATOM     15  C   UNL A   1      32.273  20.202  23.260  1.00  0.00     0.148 C 
BRANCH  14  16
ATOM     16  C   UNL A   1      32.770  18.682  25.118  1.00  0.00     0.155 C 
BRANCH  16  17
ATOM     17  C   UNL A   1      33.662  17.465  24.726  1.00  0.00     0.077 C 
ATOM     18  C   UNL A   1      33.270  16.150  25.405  1.00  0.00     0.043 C 
ATOM     19  C   UNL A   1      33.568  17.266  23.206  1.00  0.00     0.043 C 
BRANCH  17  20
ATOM     20  O   UNL A   1      35.043  17.751  25.001  1.00  0.00    -0.389 OA
ATOM     21  H   UNL A   1      35.501  16.931  25.241  1.00  0.00     0.211 HD
ENDBRANCH  17  20
ENDBRANCH  16  17
ENDBRANCH  14  16
ENDBRANCH  12  14
ENDBRANCH  10  12
ENDBRANCH   7  10
ENDBRANCH   4   7
ENDBRANCH   2   3
ENDBRANCH   1   2
BRANCH   1  22
ATOM     22  C   UNL A   1      31.446  26.962  24.265  1.00  0.00     0.002 C 
BRANCH  22  23
ATOM     23  C   UNL A   1      31.501  27.462  25.712  1.00  0.00     0.002 C 
BRANCH  23  24
ATOM     24  C   UNL A   1      32.692  26.965  26.536  1.00  0.00     0.021 C 
BRANCH  24  25
ATOM     25  C   UNL A   1      33.901  27.897  26.562  1.00  0.00     0.116 C 
BRANCH  25  26
ATOM     26  N   UNL A   1      33.551  29.238  26.999  1.00  0.00    -0.352 N 
ATOM     27  C   UNL A   1      34.278  30.134  27.737  1.00  0.00     0.251 C 
ATOM     28  H   UNL A   1      32.659  29.548  26.725  1.00  0.00     0.163 HD
ATOM     29  O   UNL A   1      33.729  31.150  28.170  1.00  0.00    -0.269 OA
BRANCH  27  30
ATOM     30  C   UNL A   1      35.706  29.886  28.033  1.00  0.00     0.039 A 
ATOM     31  C   UNL A   1      36.057  29.427  29.306  1.00  0.00     0.014 A 
ATOM     32  C   UNL A   1      36.700  30.133  27.081  1.00  0.00     0.014 A 
ATOM     33  C   UNL A   1      37.397  29.168  29.604  1.00  0.00     0.010 A 
ATOM     34  C   UNL A   1      38.027  29.811  27.358  1.00  0.00     0.010 A 
ATOM     35  C   UNL A   1      38.391  29.332  28.625  1.00  0.00    -0.014 A 
BRANCH  35  36
ATOM     36  C   UNL A   1      39.807  28.991  28.921  1.00  0.00     0.031 A 
ATOM     37  C   UNL A   1      40.729  30.006  29.541  1.00  0.00     0.074 A 
ATOM     38  C   UNL A   1      40.273  27.770  28.593  1.00  0.00     0.049 A 
ATOM     39  N   UNL A   1      41.988  29.881  29.875  1.00  0.00    -0.248 NA
ATOM     40  C   UNL A   1      40.172  31.344  29.794  1.00  0.00     0.031 C 
ATOM     41  C   UNL A   1      39.497  26.721  27.926  1.00  0.00     0.029 A 
ATOM     42  N   UNL A   1      41.510  27.203  28.771  1.00  0.00    -0.354 N 
ATOM     43  C   UNL A   1      42.377  31.122  30.368  1.00  0.00     0.074 A 
ATOM     44  C   UNL A   1      41.234  32.000  30.240  1.00  0.00     0.031 C 
ATOM     45  C   UNL A   1      40.268  25.632  27.776  1.00  0.00     0.029 A 
ATOM     46  C   UNL A   1      41.597  25.910  28.311  1.00  0.00     0.049 A 
ATOM     47  H   UNL A   1      42.265  27.678  29.189  1.00  0.00     0.167 HD
ATOM     48  C   UNL A   1      43.568  31.488  30.898  1.00  0.00     0.037 A 
ATOM     49  C   UNL A   1      42.628  25.045  28.321  1.00  0.00     0.037 A 
ATOM     50  C   UNL A   1      44.694  30.602  31.044  1.00  0.00     0.049 A 
ATOM     51  C   UNL A   1      43.930  25.463  28.948  1.00  0.00     0.074 A 
ATOM     52  C   UNL A   1      45.921  30.857  31.637  1.00  0.00     0.029 A 
ATOM     53  N   UNL A   1      44.736  29.291  30.592  1.00  0.00    -0.354 N 
ATOM     54  N   UNL A   1      44.254  26.615  29.484  1.00  0.00    -0.248 NA
ATOM     55  C   UNL A   1      45.000  24.458  28.984  1.00  0.00     0.031 C 
ATOM     56  C   UNL A   1      46.717  29.714  31.504  1.00  0.00     0.029 A 
ATOM     57  C   UNL A   1      45.973  28.731  30.871  1.00  0.00     0.049 A 
ATOM     58  H   UNL A   1      43.995  28.827  30.139  1.00  0.00     0.167 HD
ATOM     59  C   UNL A   1      45.561  26.470  29.936  1.00  0.00     0.074 A 
ATOM     60  C   UNL A   1      45.958  25.110  29.629  1.00  0.00     0.031 C 
ATOM     61  C   UNL A   1      46.359  27.380  30.548  1.00  0.00     0.037 A 
BRANCH  48  62
ATOM     62  C   UNL A   1      43.714  32.912  31.364  1.00  0.00     0.058 A 
ATOM     63  C   UNL A   1      43.393  33.296  32.677  1.00  0.00     0.135 A 
ATOM     64  C   UNL A   1      44.205  33.902  30.497  1.00  0.00     0.135 A 
ATOM     65  F   UNL A   1      42.906  32.395  33.544  1.00  0.00    -0.206 F 
ATOM     66  C   UNL A   1      43.521  34.615  33.102  1.00  0.00     0.059 A 
ATOM     67  C   UNL A   1      44.368  35.222  30.909  1.00  0.00     0.059 A 
ATOM     68  F   UNL A   1      44.529  33.592  29.232  1.00  0.00    -0.206 F 
ATOM     69  C   UNL A   1      44.007  35.571  32.210  1.00  0.00     0.060 A 
BRANCH  69  70
ATOM     70  S   UNL A   1      44.165  37.279  32.776  1.00  0.00     0.124 S 
ATOM     71  O   UNL A   1      45.486  37.257  33.398  1.00  0.00    -0.237 OA
ATOM     72  O   UNL A   1      44.065  38.031  31.529  1.00  0.00    -0.237 OA
ATOM     73  O   UNL A   1      43.041  37.440  33.692  1.00  0.00    -0.744 OA
ENDBRANCH  69  70
ENDBRANCH  48  62
BRANCH  49  74
ATOM     74  C   UNL A   1      42.454  23.683  27.749  1.00  0.00     0.058 A 
ATOM     75  C   UNL A   1      42.507  23.467  26.365  1.00  0.00     0.135 A 
ATOM     76  C   UNL A   1      42.262  22.568  28.579  1.00  0.00     0.135 A 
ATOM     77  F   UNL A   1      42.683  24.505  25.532  1.00  0.00    -0.206 F 
ATOM     78  C   UNL A   1      42.366  22.196  25.820  1.00  0.00     0.059 A 
ATOM     79  C   UNL A   1      42.143  21.283  28.059  1.00  0.00     0.059 A 
ATOM     80  F   UNL A   1      42.223  22.718  29.912  1.00  0.00    -0.206 F 
ATOM     81  C   UNL A   1      42.189  21.108  26.676  1.00  0.00     0.060 A 
BRANCH  81  82
ATOM     82  S   UNL A   1      42.075  19.453  25.964  1.00  0.00     0.124 S 
ATOM     83  O   UNL A   1      42.610  18.630  27.043  1.00  0.00    -0.237 OA
ATOM     84  O   UNL A   1      40.644  19.324  25.712  1.00  0.00    -0.237 OA
ATOM     85  O   UNL A   1      42.907  19.546  24.768  1.00  0.00    -0.744 OA
ENDBRANCH  81  82
ENDBRANCH  49  74
BRANCH  61  86
ATOM     86  C   UNL A   1      47.739  26.925  30.935  1.00  0.00     0.058 A 
ATOM     87  C   UNL A   1      47.988  26.292  32.164  1.00  0.00     0.135 A 
ATOM     88  C   UNL A   1      48.823  27.110  30.062  1.00  0.00     0.135 A 
ATOM     89  F   UNL A   1      46.987  26.096  33.038  1.00  0.00    -0.206 F 
ATOM     90  C   UNL A   1      49.270  25.893  32.530  1.00  0.00     0.059 A 
ATOM     91  C   UNL A   1      50.108  26.693  30.394  1.00  0.00     0.059 A 
ATOM     92  F   UNL A   1      48.638  27.697  28.869  1.00  0.00    -0.206 F 
ATOM     93  C   UNL A   1      50.325  26.103  31.639  1.00  0.00     0.060 A 
BRANCH  93  94
ATOM     94  S   UNL A   1      51.984  25.581  32.123  1.00  0.00     0.124 S 
ATOM     95  O   UNL A   1      51.797  24.146  32.306  1.00  0.00    -0.237 OA
ATOM     96  O   UNL A   1      52.786  25.973  30.968  1.00  0.00    -0.237 OA
ATOM     97  O   UNL A   1      52.237  26.344  33.341  1.00  0.00    -0.744 OA
ENDBRANCH  93  94
ENDBRANCH  61  86
ENDBRANCH  35  36
ENDBRANCH  27  30
ENDBRANCH  25  26
ENDBRANCH  24  25
ENDBRANCH  23  24
ENDBRANCH  22  23
ENDBRANCH   1  22
TORSDOF 23
ENDMDL
MODEL 2
REMARK VINA RESULT:      -9.4      5.119     10.777
REMARK SMILES CC[C@@H](C(=O)NCCCCCCNC(=O)c1ccc(-c2c3nc(c(-c4c(F)cc(S(=O)(=O)[O-])cc4F)c4ccc([nH]4)c(-c4c(F)cc(S(=O)(=O)[O-])cc4F)c4nc(c(-c5c(F)cc(S(=O)(=O)[O-])cc5F)c5ccc2[nH]5)C=C4)C=C3)cc1)N(C)C(=O)N(C)CC(C)(C)O
REMARK SMILES IDX 8 1 7 2 6 3 4 4 5 5 3 7 2 8 1 9 82 10 83 11 84 12 85 13
REMARK SMILES IDX 86 14 87 15 88 16 89 17 90 18 91 19 92 20 9 22 10 23 11 24
REMARK SMILES IDX 12 25 13 26 14 27 15 29 16 30 17 31 81 32 18 33 80 34 19 35
REMARK SMILES IDX 20 36 21 37 74 38 22 39 79 40 73 41 75 42 23 43 78 44 72 45
REMARK SMILES IDX 71 46 24 48 58 49 37 50 57 51 38 52 41 53 56 54 76 55 39 56
REMARK SMILES IDX 40 57 55 59 77 60 42 61 25 62 26 63 35 64 27 65 28 66 34 67
REMARK SMILES IDX 36 68 29 69 30 70 31 71 32 72 33 73 59 74 60 75 69 76 61 77
REMARK SMILES IDX 62 78 68 79 70 80 63 81 64 82 65 83 66 84 67 85 43 86 44 87
REMARK SMILES IDX 53 88 45 89 46 90 52 91 54 92 47 93 48 94 49 95 50 96 51 97
REMARK H PARENT 6 6 92 21 13 28 75 47 41 58
REMARK Flexibility Score: inf
ROOT
ATOM      1  C   UNL A   1      35.248  22.759  23.502  1.00  0.00     0.021 C 
ENDROOT
BRANCH   1   2
ATOM      2  C   UNL A   1      34.511  24.031  23.918  1.00  0.00     0.116 C 
BRANCH   2   3
ATOM      3  N   UNL A   1      34.297  24.887  22.777  1.00  0.00    -0.354 N 
ATOM      4  C   UNL A   1      33.329  25.800  22.499  1.00  0.00     0.242 C 
ATOM      5  O   UNL A   1      33.538  26.465  21.476  1.00  0.00    -0.273 OA
ATOM      6  H   UNL A   1      34.975  24.792  22.070  1.00  0.00     0.163 HD
BRANCH   4   7
ATOM      7  C   UNL A   1      32.121  26.071  23.457  1.00  0.00     0.175 C 
BRANCH   7   8
ATOM      8  C   UNL A   1      30.906  25.113  23.399  1.00  0.00     0.032 C 
ATOM      9  C   UNL A   1      31.203  23.625  23.282  1.00  0.00     0.006 C 
ENDBRANCH   7   8
BRANCH   7  10
ATOM     10  N   UNL A   1      31.712  27.504  23.219  1.00  0.00    -0.316 N 
ATOM     11  C   UNL A   1      30.578  27.669  22.328  1.00  0.00     0.149 C 
BRANCH  10  12
ATOM     12  C   UNL A   1      32.284  28.465  24.041  1.00  0.00     0.320 C 
ATOM     13  O   UNL A   1      33.153  29.214  23.573  1.00  0.00    -0.248 OA
BRANCH  12  14
ATOM     14  N   UNL A   1      31.957  28.624  25.373  1.00  0.00    -0.325 N 
ATOM     15  C   UNL A   1      31.191  27.780  26.278  1.00  0.00     0.148 C 
BRANCH  14  16
ATOM     16  C   UNL A   1      32.376  29.907  25.988  1.00  0.00     0.155 C 
BRANCH  16  17
ATOM     17  C   UNL A   1      33.704  29.894  26.804  1.00  0.00     0.077 C 
ATOM     18  C   UNL A   1      34.027  31.215  27.506  1.00  0.00     0.043 C 
ATOM     19  C   UNL A   1      33.607  28.795  27.872  1.00  0.00     0.043 C 
BRANCH  17  20
ATOM     20  O   UNL A   1      34.804  29.524  25.957  1.00  0.00    -0.389 OA
ATOM     21  H   UNL A   1      35.624  29.519  26.475  1.00  0.00     0.211 HD
ENDBRANCH  17  20
ENDBRANCH  16  17
ENDBRANCH  14  16
ENDBRANCH  12  14
ENDBRANCH  10  12
ENDBRANCH   7  10
ENDBRANCH   4   7
ENDBRANCH   2   3
ENDBRANCH   1   2
BRANCH   1  22
ATOM     22  C   UNL A   1      36.228  22.229  24.556  1.00  0.00     0.002 C 
BRANCH  22  23
ATOM     23  C   UNL A   1      36.430  23.135  25.775  1.00  0.00     0.002 C 
BRANCH  23  24
ATOM     24  C   UNL A   1      37.612  24.104  25.687  1.00  0.00     0.021 C 
BRANCH  24  25
ATOM     25  C   UNL A   1      38.749  23.836  26.668  1.00  0.00     0.116 C 
BRANCH  25  26
ATOM     26  N   UNL A   1      40.055  24.046  26.066  1.00  0.00    -0.352 N 
ATOM     27  C   UNL A   1      40.999  25.002  26.335  1.00  0.00     0.251 C 
ATOM     28  H   UNL A   1      40.298  23.406  25.360  1.00  0.00     0.163 HD
ATOM     29  O   UNL A   1      41.965  25.130  25.581  1.00  0.00    -0.269 OA
BRANCH  27  30
ATOM     30  C   UNL A   1      40.859  25.891  27.510  1.00  0.00     0.039 A 
ATOM     31  C   UNL A   1      41.804  26.903  27.701  1.00  0.00     0.014 A 
ATOM     32  C   UNL A   1      39.829  25.713  28.439  1.00  0.00     0.014 A 
ATOM     33  C   UNL A   1      41.685  27.767  28.792  1.00  0.00     0.010 A 
ATOM     34  C   UNL A   1      39.673  26.616  29.489  1.00  0.00     0.010 A 
ATOM     35  C   UNL A   1      40.603  27.648  29.681  1.00  0.00    -0.014 A 
BRANCH  35  36
ATOM     36  C   UNL A   1      40.438  28.610  30.802  1.00  0.00     0.031 A 
ATOM     37  C   UNL A   1      41.273  28.487  32.049  1.00  0.00     0.074 A 
ATOM     38  C   UNL A   1      39.502  29.575  30.710  1.00  0.00     0.049 A 
ATOM     39  N   UNL A   1      41.270  29.239  33.120  1.00  0.00    -0.248 NA
ATOM     40  C   UNL A   1      42.215  27.359  32.112  1.00  0.00     0.031 C 
ATOM     41  C   UNL A   1      38.584  29.756  29.583  1.00  0.00     0.029 A 
ATOM     42  N   UNL A   1      39.165  30.583  31.577  1.00  0.00    -0.354 N 
ATOM     43  C   UNL A   1      42.198  28.672  33.987  1.00  0.00     0.074 A 
ATOM     44  C   UNL A   1      42.706  27.483  33.336  1.00  0.00     0.031 C 
ATOM     45  C   UNL A   1      37.807  30.825  29.817  1.00  0.00     0.029 A 
ATOM     46  C   UNL A   1      38.151  31.391  31.117  1.00  0.00     0.049 A 
ATOM     47  H   UNL A   1      39.605  30.716  32.448  1.00  0.00     0.167 HD
ATOM     48  C   UNL A   1      42.605  29.114  35.201  1.00  0.00     0.037 A 
ATOM     49  C   UNL A   1      37.568  32.468  31.676  1.00  0.00     0.037 A 
ATOM     50  C   UNL A   1      42.112  30.311  35.832  1.00  0.00     0.049 A 
ATOM     51  C   UNL A   1      38.062  32.961  33.009  1.00  0.00     0.074 A 
ATOM     52  C   UNL A   1      42.514  30.884  37.027  1.00  0.00     0.029 A 
ATOM     53  N   UNL A   1      41.106  31.120  35.322  1.00  0.00    -0.354 N 
ATOM     54  N   UNL A   1      38.999  32.459  33.777  1.00  0.00    -0.248 NA
ATOM     55  C   UNL A   1      37.429  34.173  33.542  1.00  0.00     0.031 C 
ATOM     56  C   UNL A   1      41.722  32.014  37.260  1.00  0.00     0.029 A 
ATOM     57  C   UNL A   1      40.858  32.174  36.189  1.00  0.00     0.049 A 
ATOM     58  H   UNL A   1      40.637  30.967  34.470  1.00  0.00     0.167 HD
ATOM     59  C   UNL A   1      39.080  33.303  34.879  1.00  0.00     0.074 A 
ATOM     60  C   UNL A   1      38.110  34.359  34.665  1.00  0.00     0.031 C 
ATOM     61  C   UNL A   1      39.882  33.211  35.969  1.00  0.00     0.037 A 
BRANCH  48  62
ATOM     62  C   UNL A   1      43.640  28.297  35.927  1.00  0.00     0.058 A 
ATOM     63  C   UNL A   1      45.014  28.557  35.792  1.00  0.00     0.135 A 
ATOM     64  C   UNL A   1      43.254  27.258  36.790  1.00  0.00     0.135 A 
ATOM     65  F   UNL A   1      45.440  29.530  34.971  1.00  0.00    -0.206 F 
ATOM     66  C   UNL A   1      45.968  27.795  36.459  1.00  0.00     0.059 A 
ATOM     67  C   UNL A   1      44.191  26.501  37.489  1.00  0.00     0.059 A 
ATOM     68  F   UNL A   1      41.956  26.965  36.958  1.00  0.00    -0.206 F 
ATOM     69  C   UNL A   1      45.548  26.767  37.303  1.00  0.00     0.060 A 
BRANCH  69  70
ATOM     70  S   UNL A   1      46.798  25.785  38.158  1.00  0.00     0.124 S 
ATOM     71  O   UNL A   1      48.018  26.515  37.826  1.00  0.00    -0.237 OA
ATOM     72  O   UNL A   1      46.367  25.874  39.550  1.00  0.00    -0.237 OA
ATOM     73  O   UNL A   1      46.670  24.465  37.550  1.00  0.00    -0.744 OA
ENDBRANCH  69  70
ENDBRANCH  48  62
BRANCH  49  74
ATOM     74  C   UNL A   1      36.476  33.173  30.954  1.00  0.00     0.058 A 
ATOM     75  C   UNL A   1      35.136  33.016  31.338  1.00  0.00     0.135 A 
ATOM     76  C   UNL A   1      36.754  34.041  29.887  1.00  0.00     0.135 A 
ATOM     77  F   UNL A   1      34.821  32.192  32.349  1.00  0.00    -0.206 F 
ATOM     78  C   UNL A   1      34.107  33.686  30.684  1.00  0.00     0.059 A 
ATOM     79  C   UNL A   1      35.745  34.740  29.233  1.00  0.00     0.059 A 
ATOM     80  F   UNL A   1      38.021  34.240  29.494  1.00  0.00    -0.206 F 
ATOM     81  C   UNL A   1      34.423  34.551  29.634  1.00  0.00     0.060 A 
BRANCH  81  82
ATOM     82  S   UNL A   1      33.089  35.468  28.835  1.00  0.00     0.124 S 
ATOM     83  O   UNL A   1      32.390  34.407  28.118  1.00  0.00    -0.237 OA
ATOM     84  O   UNL A   1      32.383  36.041  29.976  1.00  0.00    -0.237 OA
ATOM     85  O   UNL A   1      33.800  36.433  28.001  1.00  0.00    -0.744 OA
ENDBRANCH  81  82
ENDBRANCH  49  74
BRANCH  61  86
ATOM     86  C   UNL A   1      39.750  34.292  37.006  1.00  0.00     0.058 A 
ATOM     87  C   UNL A   1      40.397  35.530  36.865  1.00  0.00     0.135 A 
ATOM     88  C   UNL A   1      38.955  34.094  38.146  1.00  0.00     0.135 A 
ATOM     89  F   UNL A   1      41.174  35.769  35.796  1.00  0.00    -0.206 F 
ATOM     90  C   UNL A   1      40.292  36.520  37.837  1.00  0.00     0.059 A 
ATOM     91  C   UNL A   1      38.812  35.080  39.117  1.00  0.00     0.059 A 
ATOM     92  F   UNL A   1      38.303  32.934  38.323  1.00  0.00    -0.206 F 
ATOM     93  C   UNL A   1      39.501  36.284  38.962  1.00  0.00     0.060 A 
BRANCH  93  94
ATOM     94  S   UNL A   1      39.370  37.574  40.218  1.00  0.00     0.124 S 
ATOM     95  O   UNL A   1      38.742  36.850  41.317  1.00  0.00    -0.237 OA
ATOM     96  O   UNL A   1      40.764  37.955  40.424  1.00  0.00    -0.237 OA
ATOM     97  O   UNL A   1      38.539  38.588  39.577  1.00  0.00    -0.744 OA
ENDBRANCH  93  94
ENDBRANCH  61  86
ENDBRANCH  35  36
ENDBRANCH  27  30
ENDBRANCH  25  26
ENDBRANCH  24  25
ENDBRANCH  23  24
ENDBRANCH  22  23
ENDBRANCH   1  22
TORSDOF 23
ENDMDL
MODEL 3
REMARK VINA RESULT:      -9.2      2.886      3.894
REMARK SMILES CC[C@@H](C(=O)NCCCCCCNC(=O)c1ccc(-c2c3nc(c(-c4c(F)cc(S(=O)(=O)[O-])cc4F)c4ccc([nH]4)c(-c4c(F)cc(S(=O)(=O)[O-])cc4F)c4nc(c(-c5c(F)cc(S(=O)(=O)[O-])cc5F)c5ccc2[nH]5)C=C4)C=C3)cc1)N(C)C(=O)N(C)CC(C)(C)O
REMARK SMILES IDX 8 1 7 2 6 3 4 4 5 5 3 7 2 8 1 9 82 10 83 11 84 12 85 13
REMARK SMILES IDX 86 14 87 15 88 16 89 17 90 18 91 19 92 20 9 22 10 23 11 24
REMARK SMILES IDX 12 25 13 26 14 27 15 29 16 30 17 31 81 32 18 33 80 34 19 35
REMARK SMILES IDX 20 36 21 37 74 38 22 39 79 40 73 41 75 42 23 43 78 44 72 45
REMARK SMILES IDX 71 46 24 48 58 49 37 50 57 51 38 52 41 53 56 54 76 55 39 56
REMARK SMILES IDX 40 57 55 59 77 60 42 61 25 62 26 63 35 64 27 65 28 66 34 67
REMARK SMILES IDX 36 68 29 69 30 70 31 71 32 72 33 73 59 74 60 75 69 76 61 77
REMARK SMILES IDX 62 78 68 79 70 80 63 81 64 82 65 83 66 84 67 85 43 86 44 87
REMARK SMILES IDX 53 88 45 89 46 90 52 91 54 92 47 93 48 94 49 95 50 96 51 97
REMARK H PARENT 6 6 92 21 13 28 75 47 41 58
REMARK Flexibility Score: inf
ROOT
ATOM      1  C   UNL A   1      30.570  25.993  25.494  1.00  0.00     0.021 C 
ENDROOT
BRANCH   1   2
ATOM      2  C   UNL A   1      30.668  25.246  24.164  1.00  0.00     0.116 C 
BRANCH   2   3
ATOM      3  N   UNL A   1      31.964  25.447  23.565  1.00  0.00    -0.354 N 
ATOM      4  C   UNL A   1      32.942  24.574  23.207  1.00  0.00     0.242 C 
ATOM      5  O   UNL A   1      33.877  25.088  22.581  1.00  0.00    -0.273 OA
ATOM      6  H   UNL A   1      32.181  26.390  23.384  1.00  0.00     0.163 HD
BRANCH   4   7
ATOM      7  C   UNL A   1      32.833  23.032  23.458  1.00  0.00     0.175 C 
BRANCH   7   8
ATOM      8  C   UNL A   1      31.719  22.245  22.724  1.00  0.00     0.032 C 
ATOM      9  C   UNL A   1      32.078  20.862  22.202  1.00  0.00     0.006 C 
ENDBRANCH   7   8
BRANCH   7  10
ATOM     10  N   UNL A   1      32.745  22.856  24.954  1.00  0.00    -0.316 N 
ATOM     11  C   UNL A   1      31.526  22.221  25.419  1.00  0.00     0.149 C 
BRANCH  10  12
ATOM     12  C   UNL A   1      33.905  23.087  25.681  1.00  0.00     0.320 C 
ATOM     13  O   UNL A   1      34.006  24.135  26.334  1.00  0.00    -0.248 OA
BRANCH  12  14
ATOM     14  N   UNL A   1      34.979  22.219  25.703  1.00  0.00    -0.325 N 
ATOM     15  C   UNL A   1      35.124  20.863  25.193  1.00  0.00     0.148 C 
BRANCH  14  16
ATOM     16  C   UNL A   1      36.174  22.694  26.441  1.00  0.00     0.155 C 
BRANCH  16  17
ATOM     17  C   UNL A   1      37.448  22.999  25.594  1.00  0.00     0.077 C 
ATOM     18  C   UNL A   1      38.443  23.945  26.269  1.00  0.00     0.043 C 
ATOM     19  C   UNL A   1      38.167  21.673  25.305  1.00  0.00     0.043 C 
BRANCH  17  20
ATOM     20  O   UNL A   1      37.076  23.532  24.313  1.00  0.00    -0.389 OA
ATOM     21  H   UNL A   1      36.393  22.971  23.915  1.00  0.00     0.211 HD
ENDBRANCH  17  20
ENDBRANCH  16  17
ENDBRANCH  14  16
ENDBRANCH  12  14
ENDBRANCH  10  12
ENDBRANCH   7  10
ENDBRANCH   4   7
ENDBRANCH   2   3
ENDBRANCH   1   2
BRANCH   1  22
ATOM     22  C   UNL A   1      31.056  27.446  25.433  1.00  0.00     0.002 C 
BRANCH  22  23
ATOM     23  C   UNL A   1      31.750  27.956  26.701  1.00  0.00     0.002 C 
BRANCH  23  24
ATOM     24  C   UNL A   1      33.250  27.661  26.793  1.00  0.00     0.021 C 
BRANCH  24  25
ATOM     25  C   UNL A   1      34.151  28.620  26.020  1.00  0.00     0.116 C 
BRANCH  25  26
ATOM     26  N   UNL A   1      33.920  30.008  26.387  1.00  0.00    -0.352 N 
ATOM     27  C   UNL A   1      34.550  30.780  27.327  1.00  0.00     0.251 C 
ATOM     28  H   UNL A   1      33.205  30.460  25.886  1.00  0.00     0.163 HD
ATOM     29  O   UNL A   1      34.078  31.879  27.624  1.00  0.00    -0.269 OA
BRANCH  27  30
ATOM     30  C   UNL A   1      35.777  30.299  27.999  1.00  0.00     0.039 A 
ATOM     31  C   UNL A   1      37.005  30.465  27.352  1.00  0.00     0.014 A 
ATOM     32  C   UNL A   1      35.724  29.661  29.242  1.00  0.00     0.014 A 
ATOM     33  C   UNL A   1      38.180  30.037  27.973  1.00  0.00     0.010 A 
ATOM     34  C   UNL A   1      36.903  29.295  29.890  1.00  0.00     0.010 A 
ATOM     35  C   UNL A   1      38.143  29.472  29.259  1.00  0.00    -0.014 A 
BRANCH  35  36
ATOM     36  C   UNL A   1      39.399  29.080  29.949  1.00  0.00     0.031 A 
ATOM     37  C   UNL A   1      39.828  29.770  31.215  1.00  0.00     0.074 A 
ATOM     38  C   UNL A   1      40.177  28.122  29.407  1.00  0.00     0.049 A 
ATOM     39  N   UNL A   1      40.886  29.554  31.955  1.00  0.00    -0.248 NA
ATOM     40  C   UNL A   1      38.971  30.862  31.702  1.00  0.00     0.031 C 
ATOM     41  C   UNL A   1      39.906  27.426  28.147  1.00  0.00     0.029 A 
ATOM     42  N   UNL A   1      41.355  27.569  29.843  1.00  0.00    -0.354 N 
ATOM     43  C   UNL A   1      40.828  30.486  32.985  1.00  0.00     0.074 A 
ATOM     44  C   UNL A   1      39.659  31.303  32.746  1.00  0.00     0.031 C 
ATOM     45  C   UNL A   1      40.874  26.522  27.926  1.00  0.00     0.029 A 
ATOM     46  C   UNL A   1      41.847  26.591  29.011  1.00  0.00     0.049 A 
ATOM     47  H   UNL A   1      41.807  27.848  30.673  1.00  0.00     0.167 HD
ATOM     48  C   UNL A   1      41.661  30.632  34.044  1.00  0.00     0.037 A 
ATOM     49  C   UNL A   1      42.954  25.831  29.113  1.00  0.00     0.037 A 
ATOM     50  C   UNL A   1      42.810  29.799  34.290  1.00  0.00     0.049 A 
ATOM     51  C   UNL A   1      43.842  25.986  30.316  1.00  0.00     0.074 A 
ATOM     52  C   UNL A   1      43.674  29.819  35.373  1.00  0.00     0.029 A 
ATOM     53  N   UNL A   1      43.261  28.799  33.440  1.00  0.00    -0.354 N 
ATOM     54  N   UNL A   1      43.727  26.818  31.323  1.00  0.00    -0.248 NA
ATOM     55  C   UNL A   1      45.003  25.091  30.403  1.00  0.00     0.031 C 
ATOM     56  C   UNL A   1      44.670  28.860  35.156  1.00  0.00     0.029 A 
ATOM     57  C   UNL A   1      44.402  28.210  33.962  1.00  0.00     0.049 A 
ATOM     58  H   UNL A   1      42.833  28.545  32.591  1.00  0.00     0.167 HD
ATOM     59  C   UNL A   1      44.791  26.536  32.173  1.00  0.00     0.074 A 
ATOM     60  C   UNL A   1      45.526  25.442  31.570  1.00  0.00     0.031 C 
ATOM     61  C   UNL A   1      45.130  27.130  33.345  1.00  0.00     0.037 A 
BRANCH  48  62
ATOM     62  C   UNL A   1      41.354  31.734  35.022  1.00  0.00     0.058 A 
ATOM     63  C   UNL A   1      41.984  32.988  34.943  1.00  0.00     0.135 A 
ATOM     64  C   UNL A   1      40.400  31.547  36.036  1.00  0.00     0.135 A 
ATOM     65  F   UNL A   1      42.913  33.219  34.002  1.00  0.00    -0.206 F 
ATOM     66  C   UNL A   1      41.704  34.003  35.853  1.00  0.00     0.059 A 
ATOM     67  C   UNL A   1      40.084  32.557  36.940  1.00  0.00     0.059 A 
ATOM     68  F   UNL A   1      39.767  30.370  36.158  1.00  0.00    -0.206 F 
ATOM     69  C   UNL A   1      40.755  33.777  36.850  1.00  0.00     0.060 A 
BRANCH  69  70
ATOM     70  S   UNL A   1      40.405  35.101  38.026  1.00  0.00     0.124 S 
ATOM     71  O   UNL A   1      41.163  34.660  39.194  1.00  0.00    -0.237 OA
ATOM     72  O   UNL A   1      40.930  36.277  37.338  1.00  0.00    -0.237 OA
ATOM     73  O   UNL A   1      38.953  35.058  38.167  1.00  0.00    -0.744 OA
ENDBRANCH  69  70
ENDBRANCH  48  62
BRANCH  49  74
ATOM     74  C   UNL A   1      43.259  24.828  28.058  1.00  0.00     0.058 A 
ATOM     75  C   UNL A   1      44.076  25.153  26.965  1.00  0.00     0.135 A 
ATOM     76  C   UNL A   1      42.765  23.517  28.139  1.00  0.00     0.135 A 
ATOM     77  F   UNL A   1      44.566  26.396  26.842  1.00  0.00    -0.206 F 
ATOM     78  C   UNL A   1      44.385  24.218  25.983  1.00  0.00     0.059 A 
ATOM     79  C   UNL A   1      43.080  22.558  27.182  1.00  0.00     0.059 A 
ATOM     80  F   UNL A   1      41.995  23.150  29.175  1.00  0.00    -0.206 F 
ATOM     81  C   UNL A   1      43.885  22.920  26.103  1.00  0.00     0.060 A 
BRANCH  81  82
ATOM     82  S   UNL A   1      44.347  21.695  24.860  1.00  0.00     0.124 S 
ATOM     83  O   UNL A   1      45.726  21.402  25.233  1.00  0.00    -0.237 OA
ATOM     84  O   UNL A   1      43.379  20.631  25.103  1.00  0.00    -0.237 OA
ATOM     85  O   UNL A   1      44.172  22.414  23.601  1.00  0.00    -0.744 OA
ENDBRANCH  81  82
ENDBRANCH  49  74
BRANCH  61  86
ATOM     86  C   UNL A   1      46.343  26.596  34.054  1.00  0.00     0.058 A 
ATOM     87  C   UNL A   1      47.619  27.143  33.843  1.00  0.00     0.135 A 
ATOM     88  C   UNL A   1      46.227  25.536  34.968  1.00  0.00     0.135 A 
ATOM     89  F   UNL A   1      47.786  28.154  32.977  1.00  0.00    -0.206 F 
ATOM     90  C   UNL A   1      48.744  26.632  34.484  1.00  0.00     0.059 A 
ATOM     91  C   UNL A   1      47.334  25.027  35.641  1.00  0.00     0.059 A 
ATOM     92  F   UNL A   1      45.028  24.985  35.217  1.00  0.00    -0.206 F 
ATOM     93  C   UNL A   1      48.591  25.570  35.378  1.00  0.00     0.060 A 
BRANCH  93  94
ATOM     94  S   UNL A   1      50.056  24.914  36.204  1.00  0.00     0.124 S 
ATOM     95  O   UNL A   1      51.053  25.929  35.881  1.00  0.00    -0.237 OA
ATOM     96  O   UNL A   1      49.634  24.863  37.600  1.00  0.00    -0.237 OA
ATOM     97  O   UNL A   1      50.251  23.616  35.567  1.00  0.00    -0.744 OA
ENDBRANCH  93  94
ENDBRANCH  61  86
ENDBRANCH  35  36
ENDBRANCH  27  30
ENDBRANCH  25  26
ENDBRANCH  24  25
ENDBRANCH  23  24
ENDBRANCH  22  23
ENDBRANCH   1  22
TORSDOF 23
ENDMDL
