MODEL 1
REMARK VINA RESULT:     -11.9      0.000      0.000
REMARK SMILES O=C(N[C@@H]1C=C[C@@H](C(=O)NCCCCCCNC(=O)c2ccc(-c3c4nc(c(-c5c(F)cc(S(=O)(=O)[O-])cc5F)c5ccc([nH]5)c(-c5c(F)cc(S(=O)(=O)[O-])cc5F)c5nc(c(-c6c(F)cc(S(=O)(=O)[O-])cc6F)c6ccc3[nH]6)C=C5)C=C4)cc2)C1)Oc1ccccc1
REMARK SMILES IDX 13 1 12 2 11 3 10 4 8 5 9 6 7 8 4 9 5 10 86 11 6 12 3 13
REMARK SMILES IDX 1 14 2 15 87 17 88 18 89 19 93 20 90 21 92 22 91 23 14 24
REMARK SMILES IDX 15 25 16 26 17 27 18 28 19 30 20 31 21 32 85 33 22 34 84 35
REMARK SMILES IDX 23 36 24 37 25 38 78 39 26 40 83 41 77 42 79 43 27 44 82 45
REMARK SMILES IDX 76 46 75 47 28 49 62 50 41 51 61 52 42 53 45 54 60 55 80 56
REMARK SMILES IDX 43 57 44 58 59 60 81 61 46 62 29 63 30 64 39 65 31 66 32 67
REMARK SMILES IDX 38 68 40 69 33 70 34 71 35 72 36 73 37 74 63 75 64 76 73 77
REMARK SMILES IDX 65 78 66 79 72 80 74 81 67 82 68 83 69 84 70 85 71 86 47 87
REMARK SMILES IDX 48 88 57 89 49 90 50 91 56 92 58 93 51 94 52 95 53 96 54 97
REMARK SMILES IDX 55 98
REMARK H PARENT 10 7 3 16 17 29 79 48 45 59
REMARK Flexibility Score: inf
ROOT
ATOM      1  C   UNL A   1      38.190  21.279  25.383  1.00  0.00     0.002 C 
ENDROOT
BRANCH   1   2
ATOM      2  C   UNL A   1      37.445  20.032  24.919  1.00  0.00     0.021 C 
BRANCH   2   3
ATOM      3  C   UNL A   1      35.936  20.177  25.001  1.00  0.00     0.116 C 
BRANCH   3   4
ATOM      4  N   UNL A   1      35.272  18.939  24.622  1.00  0.00    -0.356 N 
ATOM      5  C   UNL A   1      33.971  18.542  24.762  1.00  0.00     0.227 C 
ATOM      6  O   UNL A   1      33.690  17.384  24.440  1.00  0.00    -0.274 OA
ATOM      7  H   UNL A   1      35.858  18.274  24.192  1.00  0.00     0.163 HD
BRANCH   5   8
ATOM      8  C   UNL A   1      32.872  19.509  25.223  1.00  0.00     0.103 C 
ATOM      9  C   UNL A   1      32.659  21.923  25.673  1.00  0.00     0.109 C 
ATOM     10  C   UNL A   1      32.539  21.591  24.247  1.00  0.00    -0.006 C 
ATOM     11  C   UNL A   1      33.285  20.612  26.216  1.00  0.00     0.047 C 
ATOM     12  C   UNL A   1      32.469  20.280  24.011  1.00  0.00    -0.016 C 
BRANCH   9  13
ATOM     13  N   UNL A   1      31.346  22.182  26.246  1.00  0.00    -0.315 N 
ATOM     14  O   UNL A   1      29.760  23.149  27.469  1.00  0.00    -0.224 OA
ATOM     15  C   UNL A   1      30.642  23.300  26.620  1.00  0.00     0.413 C 
ATOM     16  H   UNL A   1      30.839  21.353  26.405  1.00  0.00     0.167 HD
BRANCH  15  17
ATOM     17  O   UNL A   1      30.878  24.602  26.094  1.00  0.00    -0.410 OA
BRANCH  17  18
ATOM     18  C   UNL A   1      31.797  25.702  26.180  1.00  0.00     0.132 A 
ATOM     19  C   UNL A   1      33.139  25.423  25.921  1.00  0.00     0.047 A 
ATOM     20  C   UNL A   1      31.355  27.001  26.434  1.00  0.00     0.047 A 
ATOM     21  C   UNL A   1      34.035  26.485  25.776  1.00  0.00     0.004 A 
ATOM     22  C   UNL A   1      32.261  28.058  26.279  1.00  0.00     0.004 A 
ATOM     23  C   UNL A   1      33.591  27.801  25.924  1.00  0.00     0.000 A 
ENDBRANCH  17  18
ENDBRANCH  15  17
ENDBRANCH   9  13
ENDBRANCH   5   8
ENDBRANCH   3   4
ENDBRANCH   2   3
ENDBRANCH   1   2
BRANCH   1  24
ATOM     24  C   UNL A   1      37.334  22.549  25.431  1.00  0.00     0.002 C 
BRANCH  24  25
ATOM     25  C   UNL A   1      38.052  23.805  25.934  1.00  0.00     0.021 C 
BRANCH  25  26
ATOM     26  C   UNL A   1      39.190  23.541  26.916  1.00  0.00     0.116 C 
BRANCH  26  27
ATOM     27  N   UNL A   1      40.495  23.708  26.296  1.00  0.00    -0.352 N 
ATOM     28  C   UNL A   1      41.373  24.754  26.392  1.00  0.00     0.251 C 
ATOM     29  H   UNL A   1      40.789  22.962  25.723  1.00  0.00     0.163 HD
ATOM     30  O   UNL A   1      42.347  24.810  25.640  1.00  0.00    -0.269 OA
BRANCH  28  31
ATOM     31  C   UNL A   1      41.135  25.823  27.382  1.00  0.00     0.039 A 
ATOM     32  C   UNL A   1      40.148  25.636  28.351  1.00  0.00     0.014 A 
ATOM     33  C   UNL A   1      41.890  27.001  27.360  1.00  0.00     0.014 A 
ATOM     34  C   UNL A   1      39.962  26.602  29.341  1.00  0.00     0.010 A 
ATOM     35  C   UNL A   1      41.751  27.929  28.388  1.00  0.00     0.010 A 
ATOM     36  C   UNL A   1      40.790  27.736  29.391  1.00  0.00    -0.014 A 
BRANCH  36  37
ATOM     37  C   UNL A   1      40.684  28.710  30.510  1.00  0.00     0.031 A 
ATOM     38  C   UNL A   1      41.549  28.565  31.732  1.00  0.00     0.074 A 
ATOM     39  C   UNL A   1      39.754  29.684  30.448  1.00  0.00     0.049 A 
ATOM     40  N   UNL A   1      41.554  29.282  32.825  1.00  0.00    -0.248 NA
ATOM     41  C   UNL A   1      42.518  27.457  31.737  1.00  0.00     0.031 C 
ATOM     42  C   UNL A   1      38.818  29.889  29.339  1.00  0.00     0.029 A 
ATOM     43  N   UNL A   1      39.430  30.677  31.339  1.00  0.00    -0.354 N 
ATOM     44  C   UNL A   1      42.511  28.706  33.654  1.00  0.00     0.074 A 
ATOM     45  C   UNL A   1      43.036  27.555  32.953  1.00  0.00     0.031 C 
ATOM     46  C   UNL A   1      38.037  30.947  29.611  1.00  0.00     0.029 A 
ATOM     47  C   UNL A   1      38.385  31.470  30.927  1.00  0.00     0.049 A 
ATOM     48  H   UNL A   1      39.903  30.809  32.193  1.00  0.00     0.167 HD
ATOM     49  C   UNL A   1      42.923  29.113  34.878  1.00  0.00     0.037 A 
ATOM     50  C   UNL A   1      37.762  32.493  31.547  1.00  0.00     0.037 A 
ATOM     51  C   UNL A   1      42.411  30.278  35.554  1.00  0.00     0.049 A 
ATOM     52  C   UNL A   1      38.242  32.924  32.906  1.00  0.00     0.074 A 
ATOM     53  C   UNL A   1      42.826  30.822  36.758  1.00  0.00     0.029 A 
ATOM     54  N   UNL A   1      41.368  31.070  35.097  1.00  0.00    -0.354 N 
ATOM     55  N   UNL A   1      39.214  32.426  33.633  1.00  0.00    -0.248 NA
ATOM     56  C   UNL A   1      37.548  34.059  33.528  1.00  0.00     0.031 C 
ATOM     57  C   UNL A   1      41.993  31.904  37.058  1.00  0.00     0.029 A 
ATOM     58  C   UNL A   1      41.100  32.074  36.013  1.00  0.00     0.049 A 
ATOM     59  H   UNL A   1      40.890  30.938  34.247  1.00  0.00     0.167 HD
ATOM     60  C   UNL A   1      39.258  33.197  34.789  1.00  0.00     0.074 A 
ATOM     61  C   UNL A   1      38.232  34.210  34.654  1.00  0.00     0.031 C 
ATOM     62  C   UNL A   1      40.072  33.075  35.867  1.00  0.00     0.037 A 
BRANCH  49  63
ATOM     63  C   UNL A   1      43.978  28.300  35.577  1.00  0.00     0.058 A 
ATOM     64  C   UNL A   1      45.348  28.506  35.346  1.00  0.00     0.135 A 
ATOM     65  C   UNL A   1      43.616  27.348  36.544  1.00  0.00     0.135 A 
ATOM     66  F   UNL A   1      45.753  29.393  34.423  1.00  0.00    -0.206 F 
ATOM     67  C   UNL A   1      46.318  27.788  36.037  1.00  0.00     0.059 A 
ATOM     68  C   UNL A   1      44.569  26.639  37.268  1.00  0.00     0.059 A 
ATOM     69  F   UNL A   1      42.320  27.108  36.803  1.00  0.00    -0.206 F 
ATOM     70  C   UNL A   1      45.919  26.859  37.000  1.00  0.00     0.060 A 
BRANCH  70  71
ATOM     71  S   UNL A   1      47.193  25.958  37.907  1.00  0.00     0.124 S 
ATOM     72  O   UNL A   1      48.390  26.302  37.145  1.00  0.00    -0.237 OA
ATOM     73  O   UNL A   1      47.100  26.544  39.239  1.00  0.00    -0.237 OA
ATOM     74  O   UNL A   1      46.765  24.566  37.805  1.00  0.00    -0.744 OA
ENDBRANCH  70  71
ENDBRANCH  49  63
BRANCH  50  75
ATOM     75  C   UNL A   1      36.611  33.170  30.892  1.00  0.00     0.058 A 
ATOM     76  C   UNL A   1      35.299  32.981  31.349  1.00  0.00     0.135 A 
ATOM     77  C   UNL A   1      36.802  34.022  29.791  1.00  0.00     0.135 A 
ATOM     78  F   UNL A   1      35.062  32.172  32.393  1.00  0.00    -0.206 F 
ATOM     79  C   UNL A   1      34.214  33.592  30.727  1.00  0.00     0.059 A 
ATOM     80  C   UNL A   1      35.737  34.668  29.171  1.00  0.00     0.059 A 
ATOM     81  F   UNL A   1      38.039  34.252  29.325  1.00  0.00    -0.206 F 
ATOM     82  C   UNL A   1      34.445  34.436  29.639  1.00  0.00     0.060 A 
BRANCH  82  83
ATOM     83  S   UNL A   1      33.037  35.256  28.862  1.00  0.00     0.124 S 
ATOM     84  O   UNL A   1      32.188  35.537  30.015  1.00  0.00    -0.237 OA
ATOM     85  O   UNL A   1      33.666  36.414  28.233  1.00  0.00    -0.237 OA
ATOM     86  O   UNL A   1      32.531  34.247  27.935  1.00  0.00    -0.744 OA
ENDBRANCH  82  83
ENDBRANCH  50  75
BRANCH  62  87
ATOM     87  C   UNL A   1      39.902  34.072  36.980  1.00  0.00     0.058 A 
ATOM     88  C   UNL A   1      40.460  35.358  36.909  1.00  0.00     0.135 A 
ATOM     89  C   UNL A   1      39.126  33.757  38.108  1.00  0.00     0.135 A 
ATOM     90  F   UNL A   1      41.217  35.709  35.857  1.00  0.00    -0.206 F 
ATOM     91  C   UNL A   1      40.275  36.288  37.927  1.00  0.00     0.059 A 
ATOM     92  C   UNL A   1      38.901  34.683  39.123  1.00  0.00     0.059 A 
ATOM     93  F   UNL A   1      38.561  32.545  38.222  1.00  0.00    -0.206 F 
ATOM     94  C   UNL A   1      39.489  35.943  39.029  1.00  0.00     0.060 A 
BRANCH  94  95
ATOM     95  S   UNL A   1      39.228  37.172  40.323  1.00  0.00     0.124 S 
ATOM     96  O   UNL A   1      38.376  36.440  41.256  1.00  0.00    -0.237 OA
ATOM     97  O   UNL A   1      40.589  37.438  40.780  1.00  0.00    -0.237 OA
ATOM     98  O   UNL A   1      38.583  38.277  39.619  1.00  0.00    -0.744 OA
ENDBRANCH  94  95
ENDBRANCH  62  87
ENDBRANCH  36  37
ENDBRANCH  28  31
ENDBRANCH  26  27
ENDBRANCH  25  26
ENDBRANCH  24  25
ENDBRANCH   1  24
TORSDOF 19
ENDMDL
MODEL 2
REMARK VINA RESULT:     -11.6      2.646      9.025
REMARK SMILES O=C(N[C@@H]1C=C[C@@H](C(=O)NCCCCCCNC(=O)c2ccc(-c3c4nc(c(-c5c(F)cc(S(=O)(=O)[O-])cc5F)c5ccc([nH]5)c(-c5c(F)cc(S(=O)(=O)[O-])cc5F)c5nc(c(-c6c(F)cc(S(=O)(=O)[O-])cc6F)c6ccc3[nH]6)C=C5)C=C4)cc2)C1)Oc1ccccc1
REMARK SMILES IDX 13 1 12 2 11 3 10 4 8 5 9 6 7 8 4 9 5 10 86 11 6 12 3 13
REMARK SMILES IDX 1 14 2 15 87 17 88 18 89 19 93 20 90 21 92 22 91 23 14 24
REMARK SMILES IDX 15 25 16 26 17 27 18 28 19 30 20 31 21 32 85 33 22 34 84 35
REMARK SMILES IDX 23 36 24 37 25 38 78 39 26 40 83 41 77 42 79 43 27 44 82 45
REMARK SMILES IDX 76 46 75 47 28 49 62 50 41 51 61 52 42 53 45 54 60 55 80 56
REMARK SMILES IDX 43 57 44 58 59 60 81 61 46 62 29 63 30 64 39 65 31 66 32 67
REMARK SMILES IDX 38 68 40 69 33 70 34 71 35 72 36 73 37 74 63 75 64 76 73 77
REMARK SMILES IDX 65 78 66 79 72 80 74 81 67 82 68 83 69 84 70 85 71 86 47 87
REMARK SMILES IDX 48 88 57 89 49 90 50 91 56 92 58 93 51 94 52 95 53 96 54 97
REMARK SMILES IDX 55 98
REMARK H PARENT 10 7 3 16 17 29 79 48 45 59
REMARK Flexibility Score: inf
ROOT
ATOM      1  C   UNL A   1      35.591  31.321  27.923  1.00  0.00     0.002 C 
ENDROOT
BRANCH   1   2
ATOM      2  C   UNL A   1      35.551  29.799  27.826  1.00  0.00     0.021 C 
BRANCH   2   3
ATOM      3  C   UNL A   1      34.474  29.293  26.884  1.00  0.00     0.116 C 
BRANCH   3   4
ATOM      4  N   UNL A   1      33.317  28.815  27.625  1.00  0.00    -0.356 N 
ATOM      5  C   UNL A   1      32.295  27.985  27.252  1.00  0.00     0.227 C 
ATOM      6  O   UNL A   1      31.374  27.816  28.056  1.00  0.00    -0.274 OA
ATOM      7  H   UNL A   1      33.259  29.143  28.552  1.00  0.00     0.163 HD
BRANCH   5   8
ATOM      8  C   UNL A   1      32.317  27.218  25.923  1.00  0.00     0.103 C 
ATOM      9  C   UNL A   1      32.272  24.864  25.191  1.00  0.00     0.109 C 
ATOM     10  C   UNL A   1      30.939  25.396  25.499  1.00  0.00    -0.006 C 
ATOM     11  C   UNL A   1      33.166  25.933  25.872  1.00  0.00     0.047 C 
ATOM     12  C   UNL A   1      30.929  26.712  25.717  1.00  0.00    -0.016 C 
BRANCH   9  13
ATOM     13  N   UNL A   1      32.479  24.815  23.751  1.00  0.00    -0.315 N 
ATOM     14  O   UNL A   1      33.428  25.158  21.770  1.00  0.00    -0.224 OA
ATOM     15  C   UNL A   1      33.569  24.734  22.919  1.00  0.00     0.413 C 
ATOM     16  H   UNL A   1      31.631  24.848  23.251  1.00  0.00     0.167 HD
BRANCH  15  17
ATOM     17  O   UNL A   1      34.830  24.202  23.309  1.00  0.00    -0.410 OA
BRANCH  17  18
ATOM     18  C   UNL A   1      35.420  23.071  23.969  1.00  0.00     0.132 A 
ATOM     19  C   UNL A   1      34.546  22.104  24.464  1.00  0.00     0.047 A 
ATOM     20  C   UNL A   1      36.804  22.912  24.041  1.00  0.00     0.047 A 
ATOM     21  C   UNL A   1      35.066  20.889  24.916  1.00  0.00     0.004 A 
ATOM     22  C   UNL A   1      37.315  21.687  24.490  1.00  0.00     0.004 A 
ATOM     23  C   UNL A   1      36.445  20.669  24.900  1.00  0.00     0.000 A 
ENDBRANCH  17  18
ENDBRANCH  15  17
ENDBRANCH   9  13
ENDBRANCH   5   8
ENDBRANCH   3   4
ENDBRANCH   2   3
ENDBRANCH   1   2
BRANCH   1  24
ATOM     24  C   UNL A   1      34.463  31.933  28.761  1.00  0.00     0.002 C 
BRANCH  24  25
ATOM     25  C   UNL A   1      33.562  32.926  28.021  1.00  0.00     0.021 C 
BRANCH  25  26
ATOM     26  C   UNL A   1      33.952  34.392  28.188  1.00  0.00     0.116 C 
BRANCH  26  27
ATOM     27  N   UNL A   1      33.099  35.078  29.146  1.00  0.00    -0.352 N 
ATOM     28  C   UNL A   1      33.164  35.087  30.513  1.00  0.00     0.251 C 
ATOM     29  H   UNL A   1      32.369  35.611  28.755  1.00  0.00     0.163 HD
ATOM     30  O   UNL A   1      32.238  35.566  31.169  1.00  0.00    -0.269 OA
BRANCH  28  31
ATOM     31  C   UNL A   1      34.334  34.502  31.196  1.00  0.00     0.039 A 
ATOM     32  C   UNL A   1      34.127  33.517  32.164  1.00  0.00     0.014 A 
ATOM     33  C   UNL A   1      35.632  34.915  30.876  1.00  0.00     0.014 A 
ATOM     34  C   UNL A   1      35.224  32.899  32.764  1.00  0.00     0.010 A 
ATOM     35  C   UNL A   1      36.724  34.248  31.424  1.00  0.00     0.010 A 
ATOM     36  C   UNL A   1      36.531  33.229  32.369  1.00  0.00    -0.014 A 
BRANCH  36  37
ATOM     37  C   UNL A   1      37.702  32.491  32.910  1.00  0.00     0.031 A 
ATOM     38  C   UNL A   1      38.348  32.923  34.199  1.00  0.00     0.074 A 
ATOM     39  C   UNL A   1      38.224  31.472  32.198  1.00  0.00     0.049 A 
ATOM     40  N   UNL A   1      39.407  32.437  34.791  1.00  0.00    -0.248 NA
ATOM     41  C   UNL A   1      37.738  34.063  34.902  1.00  0.00     0.031 C 
ATOM     42  C   UNL A   1      37.719  31.000  30.905  1.00  0.00     0.029 A 
ATOM     43  N   UNL A   1      39.300  30.658  32.448  1.00  0.00    -0.354 N 
ATOM     44  C   UNL A   1      39.602  33.218  35.924  1.00  0.00     0.074 A 
ATOM     45  C   UNL A   1      38.575  34.237  35.914  1.00  0.00     0.031 C 
ATOM     46  C   UNL A   1      38.475  29.974  30.485  1.00  0.00     0.029 A 
ATOM     47  C   UNL A   1      39.542  29.741  31.452  1.00  0.00     0.049 A 
ATOM     48  H   UNL A   1      39.847  30.724  33.265  1.00  0.00     0.167 HD
ATOM     49  C   UNL A   1      40.541  33.084  36.891  1.00  0.00     0.037 A 
ATOM     50  C   UNL A   1      40.525  28.827  31.321  1.00  0.00     0.037 A 
ATOM     51  C   UNL A   1      41.542  32.048  36.903  1.00  0.00     0.049 A 
ATOM     52  C   UNL A   1      41.554  28.699  32.410  1.00  0.00     0.074 A 
ATOM     53  C   UNL A   1      42.484  31.777  37.882  1.00  0.00     0.029 A 
ATOM     54  N   UNL A   1      41.744  31.123  35.889  1.00  0.00    -0.354 N 
ATOM     55  N   UNL A   1      41.665  29.386  33.523  1.00  0.00    -0.248 NA
ATOM     56  C   UNL A   1      42.589  27.672  32.233  1.00  0.00     0.031 C 
ATOM     57  C   UNL A   1      43.293  30.729  37.431  1.00  0.00     0.029 A 
ATOM     58  C   UNL A   1      42.818  30.306  36.200  1.00  0.00     0.049 A 
ATOM     59  H   UNL A   1      41.203  31.058  35.069  1.00  0.00     0.167 HD
ATOM     60  C   UNL A   1      42.769  28.862  34.185  1.00  0.00     0.074 A 
ATOM     61  C   UNL A   1      43.277  27.785  33.360  1.00  0.00     0.031 C 
ATOM     62  C   UNL A   1      43.316  29.239  35.367  1.00  0.00     0.037 A 
BRANCH  49  63
ATOM     63  C   UNL A   1      40.542  34.078  38.020  1.00  0.00     0.058 A 
ATOM     64  C   UNL A   1      39.788  33.876  39.187  1.00  0.00     0.135 A 
ATOM     65  C   UNL A   1      41.364  35.216  37.964  1.00  0.00     0.135 A 
ATOM     66  F   UNL A   1      38.973  32.813  39.290  1.00  0.00    -0.206 F 
ATOM     67  C   UNL A   1      39.837  34.772  40.249  1.00  0.00     0.059 A 
ATOM     68  C   UNL A   1      41.451  36.110  39.026  1.00  0.00     0.059 A 
ATOM     69  F   UNL A   1      42.105  35.460  36.871  1.00  0.00    -0.206 F 
ATOM     70  C   UNL A   1      40.676  35.885  40.161  1.00  0.00     0.060 A 
BRANCH  70  71
ATOM     71  S   UNL A   1      40.748  37.021  41.562  1.00  0.00     0.124 S 
ATOM     72  O   UNL A   1      39.432  36.825  42.163  1.00  0.00    -0.237 OA
ATOM     73  O   UNL A   1      41.876  36.501  42.326  1.00  0.00    -0.237 OA
ATOM     74  O   UNL A   1      40.963  38.322  40.936  1.00  0.00    -0.744 OA
ENDBRANCH  70  71
ENDBRANCH  49  63
BRANCH  50  75
ATOM     75  C   UNL A   1      40.586  27.970  30.106  1.00  0.00     0.058 A 
ATOM     76  C   UNL A   1      39.682  26.915  29.912  1.00  0.00     0.135 A 
ATOM     77  C   UNL A   1      41.554  28.189  29.112  1.00  0.00     0.135 A 
ATOM     78  F   UNL A   1      38.743  26.659  30.836  1.00  0.00    -0.206 F 
ATOM     79  C   UNL A   1      39.747  26.094  28.791  1.00  0.00     0.059 A 
ATOM     80  C   UNL A   1      41.621  27.402  27.967  1.00  0.00     0.059 A 
ATOM     81  F   UNL A   1      42.431  29.198  29.238  1.00  0.00    -0.206 F 
ATOM     82  C   UNL A   1      40.721  26.348  27.823  1.00  0.00     0.060 A 
BRANCH  82  83
ATOM     83  S   UNL A   1      40.775  25.303  26.352  1.00  0.00     0.124 S 
ATOM     84  O   UNL A   1      41.745  24.288  26.749  1.00  0.00    -0.237 OA
ATOM     85  O   UNL A   1      39.390  24.855  26.244  1.00  0.00    -0.237 OA
ATOM     86  O   UNL A   1      41.213  26.220  25.304  1.00  0.00    -0.744 OA
ENDBRANCH  82  83
ENDBRANCH  50  75
BRANCH  62  87
ATOM     87  C   UNL A   1      44.516  28.473  35.853  1.00  0.00     0.058 A 
ATOM     88  C   UNL A   1      45.824  28.885  35.554  1.00  0.00     0.135 A 
ATOM     89  C   UNL A   1      44.358  27.343  36.673  1.00  0.00     0.135 A 
ATOM     90  F   UNL A   1      46.032  29.954  34.767  1.00  0.00    -0.206 F 
ATOM     91  C   UNL A   1      46.932  28.193  36.030  1.00  0.00     0.059 A 
ATOM     92  C   UNL A   1      45.452  26.654  37.186  1.00  0.00     0.059 A 
ATOM     93  F   UNL A   1      43.129  26.911  36.998  1.00  0.00    -0.206 F 
ATOM     94  C   UNL A   1      46.736  27.079  36.850  1.00  0.00     0.060 A 
BRANCH  94  95
ATOM     95  S   UNL A   1      48.182  26.213  37.491  1.00  0.00     0.124 S 
ATOM     96  O   UNL A   1      48.849  27.270  38.245  1.00  0.00    -0.237 OA
ATOM     97  O   UNL A   1      47.580  25.148  38.287  1.00  0.00    -0.237 OA
ATOM     98  O   UNL A   1      48.876  25.769  36.285  1.00  0.00    -0.744 OA
ENDBRANCH  94  95
ENDBRANCH  62  87
ENDBRANCH  36  37
ENDBRANCH  28  31
ENDBRANCH  26  27
ENDBRANCH  25  26
ENDBRANCH  24  25
ENDBRANCH   1  24
TORSDOF 19
ENDMDL
MODEL 3
REMARK VINA RESULT:     -11.6      5.339     12.196
REMARK SMILES O=C(N[C@@H]1C=C[C@@H](C(=O)NCCCCCCNC(=O)c2ccc(-c3c4nc(c(-c5c(F)cc(S(=O)(=O)[O-])cc5F)c5ccc([nH]5)c(-c5c(F)cc(S(=O)(=O)[O-])cc5F)c5nc(c(-c6c(F)cc(S(=O)(=O)[O-])cc6F)c6ccc3[nH]6)C=C5)C=C4)cc2)C1)Oc1ccccc1
REMARK SMILES IDX 13 1 12 2 11 3 10 4 8 5 9 6 7 8 4 9 5 10 86 11 6 12 3 13
REMARK SMILES IDX 1 14 2 15 87 17 88 18 89 19 93 20 90 21 92 22 91 23 14 24
REMARK SMILES IDX 15 25 16 26 17 27 18 28 19 30 20 31 21 32 85 33 22 34 84 35
REMARK SMILES IDX 23 36 24 37 25 38 78 39 26 40 83 41 77 42 79 43 27 44 82 45
REMARK SMILES IDX 76 46 75 47 28 49 62 50 41 51 61 52 42 53 45 54 60 55 80 56
REMARK SMILES IDX 43 57 44 58 59 60 81 61 46 62 29 63 30 64 39 65 31 66 32 67
REMARK SMILES IDX 38 68 40 69 33 70 34 71 35 72 36 73 37 74 63 75 64 76 73 77
REMARK SMILES IDX 65 78 66 79 72 80 74 81 67 82 68 83 69 84 70 85 71 86 47 87
REMARK SMILES IDX 48 88 57 89 49 90 50 91 56 92 58 93 51 94 52 95 53 96 54 97
REMARK SMILES IDX 55 98
REMARK H PARENT 10 7 3 16 17 29 79 48 45 59
REMARK Flexibility Score: inf
ROOT
ATOM      1  C   UNL A   1      33.081  35.133  28.959  1.00  0.00     0.002 C 
ENDROOT
BRANCH   1   2
ATOM      2  C   UNL A   1      32.615  36.085  30.056  1.00  0.00     0.021 C 
BRANCH   2   3
ATOM      3  C   UNL A   1      33.597  37.211  30.320  1.00  0.00     0.116 C 
BRANCH   3   4
ATOM      4  N   UNL A   1      33.678  37.508  31.742  1.00  0.00    -0.356 N 
ATOM      5  C   UNL A   1      34.127  36.753  32.791  1.00  0.00     0.227 C 
ATOM      6  O   UNL A   1      33.992  37.216  33.927  1.00  0.00    -0.274 OA
ATOM      7  H   UNL A   1      33.356  38.404  31.993  1.00  0.00     0.163 HD
BRANCH   5   8
ATOM      8  C   UNL A   1      34.850  35.416  32.577  1.00  0.00     0.103 C 
ATOM      9  C   UNL A   1      35.664  33.556  33.975  1.00  0.00     0.109 C 
ATOM     10  C   UNL A   1      34.231  33.462  33.671  1.00  0.00    -0.006 C 
ATOM     11  C   UNL A   1      35.934  35.037  33.604  1.00  0.00     0.047 C 
ATOM     12  C   UNL A   1      33.819  34.356  32.769  1.00  0.00    -0.016 C 
BRANCH   9  13
ATOM     13  N   UNL A   1      36.422  32.635  33.139  1.00  0.00    -0.315 N 
ATOM     14  O   UNL A   1      37.821  31.920  31.566  1.00  0.00    -0.224 OA
ATOM     15  C   UNL A   1      37.666  32.636  32.558  1.00  0.00     0.413 C 
ATOM     16  H   UNL A   1      35.919  31.812  32.942  1.00  0.00     0.167 HD
BRANCH  15  17
ATOM     17  O   UNL A   1      38.764  33.410  33.029  1.00  0.00    -0.410 OA
BRANCH  17  18
ATOM     18  C   UNL A   1      39.467  33.752  34.234  1.00  0.00     0.132 A 
ATOM     19  C   UNL A   1      40.134  32.717  34.889  1.00  0.00     0.047 A 
ATOM     20  C   UNL A   1      39.541  35.071  34.682  1.00  0.00     0.047 A 
ATOM     21  C   UNL A   1      41.006  33.029  35.934  1.00  0.00     0.004 A 
ATOM     22  C   UNL A   1      40.424  35.374  35.727  1.00  0.00     0.004 A 
ATOM     23  C   UNL A   1      41.175  34.358  36.332  1.00  0.00     0.000 A 
ENDBRANCH  17  18
ENDBRANCH  15  17
ENDBRANCH   9  13
ENDBRANCH   5   8
ENDBRANCH   3   4
ENDBRANCH   2   3
ENDBRANCH   1   2
BRANCH   1  24
ATOM     24  C   UNL A   1      34.441  34.477  29.222  1.00  0.00     0.002 C 
BRANCH  24  25
ATOM     25  C   UNL A   1      34.434  32.946  29.258  1.00  0.00     0.021 C 
BRANCH  25  26
ATOM     26  C   UNL A   1      34.529  32.273  27.891  1.00  0.00     0.116 C 
BRANCH  26  27
ATOM     27  N   UNL A   1      33.937  30.945  27.894  1.00  0.00    -0.352 N 
ATOM     28  C   UNL A   1      34.551  29.722  27.941  1.00  0.00     0.251 C 
ATOM     29  H   UNL A   1      32.953  30.922  27.855  1.00  0.00     0.163 HD
ATOM     30  O   UNL A   1      33.897  28.698  27.737  1.00  0.00    -0.269 OA
BRANCH  28  31
ATOM     31  C   UNL A   1      35.999  29.639  28.213  1.00  0.00     0.039 A 
ATOM     32  C   UNL A   1      36.424  29.268  29.490  1.00  0.00     0.014 A 
ATOM     33  C   UNL A   1      36.934  29.915  27.210  1.00  0.00     0.014 A 
ATOM     34  C   UNL A   1      37.787  29.109  29.743  1.00  0.00     0.010 A 
ATOM     35  C   UNL A   1      38.287  29.687  27.445  1.00  0.00     0.010 A 
ATOM     36  C   UNL A   1      38.727  29.277  28.713  1.00  0.00    -0.014 A 
BRANCH  36  37
ATOM     37  C   UNL A   1      40.168  28.991  28.938  1.00  0.00     0.031 A 
ATOM     38  C   UNL A   1      40.747  27.652  28.571  1.00  0.00     0.074 A 
ATOM     39  C   UNL A   1      40.937  29.921  29.540  1.00  0.00     0.049 A 
ATOM     40  N   UNL A   1      41.963  27.206  28.747  1.00  0.00    -0.248 NA
ATOM     41  C   UNL A   1      39.836  26.679  27.945  1.00  0.00     0.031 C 
ATOM     42  C   UNL A   1      40.473  31.234  29.995  1.00  0.00     0.029 A 
ATOM     43  N   UNL A   1      42.264  29.903  29.888  1.00  0.00    -0.354 N 
ATOM     44  C   UNL A   1      41.961  25.899  28.272  1.00  0.00     0.074 A 
ATOM     45  C   UNL A   1      40.613  25.611  27.838  1.00  0.00     0.031 C 
ATOM     46  C   UNL A   1      41.501  31.898  30.548  1.00  0.00     0.029 A 
ATOM     47  C   UNL A   1      42.684  31.046  30.527  1.00  0.00     0.049 A 
ATOM     48  H   UNL A   1      42.861  29.142  29.697  1.00  0.00     0.167 HD
ATOM     49  C   UNL A   1      42.997  25.030  28.190  1.00  0.00     0.037 A 
ATOM     50  C   UNL A   1      43.882  31.366  31.055  1.00  0.00     0.037 A 
ATOM     51  C   UNL A   1      44.343  25.339  28.600  1.00  0.00     0.049 A 
ATOM     52  C   UNL A   1      45.014  30.381  30.949  1.00  0.00     0.074 A 
ATOM     53  C   UNL A   1      45.478  24.555  28.478  1.00  0.00     0.029 A 
ATOM     54  N   UNL A   1      44.736  26.514  29.223  1.00  0.00    -0.354 N 
ATOM     55  N   UNL A   1      45.018  29.186  30.409  1.00  0.00    -0.248 NA
ATOM     56  C   UNL A   1      46.307  30.787  31.517  1.00  0.00     0.031 C 
ATOM     57  C   UNL A   1      46.543  25.231  29.082  1.00  0.00     0.029 A 
ATOM     58  C   UNL A   1      46.086  26.461  29.526  1.00  0.00     0.049 A 
ATOM     59  H   UNL A   1      44.142  27.274  29.420  1.00  0.00     0.167 HD
ATOM     60  C   UNL A   1      46.314  28.705  30.557  1.00  0.00     0.074 A 
ATOM     61  C   UNL A   1      47.073  29.748  31.215  1.00  0.00     0.031 C 
ATOM     62  C   UNL A   1      46.829  27.507  30.185  1.00  0.00     0.037 A 
BRANCH  49  63
ATOM     63  C   UNL A   1      42.726  23.656  27.639  1.00  0.00     0.058 A 
ATOM     64  C   UNL A   1      42.730  23.397  26.259  1.00  0.00     0.135 A 
ATOM     65  C   UNL A   1      42.529  22.570  28.506  1.00  0.00     0.135 A 
ATOM     66  F   UNL A   1      42.900  24.399  25.382  1.00  0.00    -0.206 F 
ATOM     67  C   UNL A   1      42.534  22.114  25.759  1.00  0.00     0.059 A 
ATOM     68  C   UNL A   1      42.359  21.273  28.031  1.00  0.00     0.059 A 
ATOM     69  F   UNL A   1      42.512  22.761  29.836  1.00  0.00    -0.206 F 
ATOM     70  C   UNL A   1      42.353  21.056  26.654  1.00  0.00     0.060 A 
BRANCH  70  71
ATOM     71  S   UNL A   1      42.129  19.394  25.988  1.00  0.00     0.124 S 
ATOM     72  O   UNL A   1      42.600  18.570  27.097  1.00  0.00    -0.237 OA
ATOM     73  O   UNL A   1      40.694  19.352  25.733  1.00  0.00    -0.237 OA
ATOM     74  O   UNL A   1      42.977  19.386  24.799  1.00  0.00    -0.744 OA
ENDBRANCH  70  71
ENDBRANCH  49  63
BRANCH  50  75
ATOM     75  C   UNL A   1      44.068  32.674  31.741  1.00  0.00     0.058 A 
ATOM     76  C   UNL A   1      44.549  33.796  31.052  1.00  0.00     0.135 A 
ATOM     77  C   UNL A   1      43.765  32.826  33.104  1.00  0.00     0.135 A 
ATOM     78  F   UNL A   1      44.859  33.700  29.750  1.00  0.00    -0.206 F 
ATOM     79  C   UNL A   1      44.747  35.016  31.691  1.00  0.00     0.059 A 
ATOM     80  C   UNL A   1      43.925  34.043  33.759  1.00  0.00     0.059 A 
ATOM     81  F   UNL A   1      43.282  31.789  33.807  1.00  0.00    -0.206 F 
ATOM     82  C   UNL A   1      44.431  35.129  33.046  1.00  0.00     0.060 A 
BRANCH  82  83
ATOM     83  S   UNL A   1      44.654  36.725  33.859  1.00  0.00     0.124 S 
ATOM     84  O   UNL A   1      45.760  36.440  34.766  1.00  0.00    -0.237 OA
ATOM     85  O   UNL A   1      44.961  37.602  32.733  1.00  0.00    -0.237 OA
ATOM     86  O   UNL A   1      43.361  36.962  34.493  1.00  0.00    -0.744 OA
ENDBRANCH  82  83
ENDBRANCH  50  75
BRANCH  62  87
ATOM     87  C   UNL A   1      48.288  27.263  30.462  1.00  0.00     0.058 A 
ATOM     88  C   UNL A   1      48.718  26.635  31.641  1.00  0.00     0.135 A 
ATOM     89  C   UNL A   1      49.263  27.612  29.512  1.00  0.00     0.135 A 
ATOM     90  F   UNL A   1      47.828  26.288  32.586  1.00  0.00    -0.206 F 
ATOM     91  C   UNL A   1      50.065  26.383  31.881  1.00  0.00     0.059 A 
ATOM     92  C   UNL A   1      50.612  27.339  29.717  1.00  0.00     0.059 A 
ATOM     93  F   UNL A   1      48.905  28.205  28.363  1.00  0.00    -0.206 F 
ATOM     94  C   UNL A   1      51.005  26.735  30.910  1.00  0.00     0.060 A 
BRANCH  94  95
ATOM     95  S   UNL A   1      52.744  26.368  31.218  1.00  0.00     0.124 S 
ATOM     96  O   UNL A   1      53.258  26.218  29.860  1.00  0.00    -0.237 OA
ATOM     97  O   UNL A   1      53.191  27.556  31.938  1.00  0.00    -0.237 OA
ATOM     98  O   UNL A   1      52.698  25.142  32.011  1.00  0.00    -0.744 OA
ENDBRANCH  94  95
ENDBRANCH  62  87
ENDBRANCH  36  37
ENDBRANCH  28  31
ENDBRANCH  26  27
ENDBRANCH  25  26
ENDBRANCH  24  25
ENDBRANCH   1  24
TORSDOF 19
ENDMDL
