MODEL 1
REMARK VINA RESULT:     -11.2      0.000      0.000
REMARK SMILES CCC[N@@H+]1CC2(CCN(c3nccnc3C)CC2)C[C@H]1C(=O)NCCCCCCNC(=O)c1ccc(-c2c3nc(c(-c4c(F)cc(S(=O)(=O)[O-])cc4F)c4ccc([nH]4)c(-c4c(F)cc(S(=O)(=O)[O-])cc4F)c4nc(c(-c5c(F)cc(S(=O)(=O)[O-])cc5F)c5ccc2[nH]5)C=C4)C=C3)cc1
REMARK SMILES IDX 27 1 26 2 25 3 24 4 23 5 21 6 22 7 20 9 4 10 5 11 6 13 19 14
REMARK SMILES IDX 7 15 18 16 8 17 17 18 9 19 3 20 2 21 1 22 10 23 11 24 15 25
REMARK SMILES IDX 12 26 14 27 16 28 13 29 28 30 29 31 30 32 31 33 32 35 33 36
REMARK SMILES IDX 34 37 98 38 35 39 97 40 36 41 37 42 38 43 91 44 39 45 96 46
REMARK SMILES IDX 90 47 92 48 40 49 95 50 89 51 88 52 41 54 75 55 54 56 74 57
REMARK SMILES IDX 55 58 58 59 73 60 93 61 56 62 57 63 72 65 94 66 59 67 42 68
REMARK SMILES IDX 43 69 52 70 44 71 45 72 51 73 53 74 46 75 47 76 48 77 49 78
REMARK SMILES IDX 50 79 76 80 77 81 86 82 78 83 79 84 85 85 87 86 80 87 81 88
REMARK SMILES IDX 82 89 83 90 84 91 60 92 61 93 70 94 62 95 63 96 69 97 71 98
REMARK SMILES IDX 64 99 65 100 66 101 67 102 68 103
REMARK H PARENT 23 8 4 12 30 34 92 53 58 64
REMARK Flexibility Score: inf
ROOT
ATOM      1  C   UNL A   1      39.734  21.445  26.634  1.00  0.00     0.002 C 
ENDROOT
BRANCH   1   2
ATOM      2  C   UNL A   1      39.056  20.526  25.606  1.00  0.00     0.002 C 
BRANCH   2   3
ATOM      3  C   UNL A   1      37.722  21.035  25.058  1.00  0.00     0.021 C 
BRANCH   3   4
ATOM      4  C   UNL A   1      37.410  22.466  25.483  1.00  0.00     0.116 C 
BRANCH   4   5
ATOM      5  N   UNL A   1      36.387  22.590  26.482  1.00  0.00    -0.351 N 
ATOM      6  C   UNL A   1      35.037  22.702  26.356  1.00  0.00     0.278 C 
ATOM      7  O   UNL A   1      34.401  22.615  27.418  1.00  0.00    -0.268 OA
ATOM      8  H   UNL A   1      36.716  22.595  27.411  1.00  0.00     0.163 HD
BRANCH   6   9
ATOM      9  C   UNL A   1      34.259  22.900  25.019  1.00  0.00     0.274 C 
ATOM     10  N   UNL A   1      32.896  22.296  25.031  1.00  0.00    -0.324 N 
ATOM     11  C   UNL A   1      31.948  23.422  25.084  1.00  0.00     0.270 C 
ATOM     12  H   UNL A   1      32.699  21.699  25.834  1.00  0.00     0.348 HD
ATOM     13  C   UNL A   1      32.610  24.646  24.416  1.00  0.00     0.029 C 
ATOM     14  C   UNL A   1      34.118  24.303  24.432  1.00  0.00     0.088 C 
ATOM     15  C   UNL A   1      32.409  26.018  25.128  1.00  0.00     0.034 C 
ATOM     16  C   UNL A   1      32.033  24.813  22.977  1.00  0.00     0.034 C 
ATOM     17  C   UNL A   1      30.956  26.461  25.154  1.00  0.00     0.119 C 
ATOM     18  C   UNL A   1      30.570  25.314  22.992  1.00  0.00     0.119 C 
ATOM     19  N   UNL A   1      30.538  26.530  23.775  1.00  0.00    -0.355 N 
BRANCH  10  20
ATOM     20  C   UNL A   1      32.773  21.417  23.845  1.00  0.00     0.262 C 
BRANCH  20  21
ATOM     21  C   UNL A   1      32.703  19.898  24.064  1.00  0.00     0.058 C 
ATOM     22  C   UNL A   1      33.993  19.285  24.597  1.00  0.00     0.010 C 
ENDBRANCH  20  21
ENDBRANCH  10  20
BRANCH  19  23
ATOM     23  C   UNL A   1      29.685  27.547  23.410  1.00  0.00     0.150 A 
ATOM     24  N   UNL A   1      28.355  27.361  23.560  1.00  0.00    -0.236 NA
ATOM     25  C   UNL A   1      30.191  28.744  22.858  1.00  0.00     0.080 A 
ATOM     26  C   UNL A   1      27.565  28.398  23.189  1.00  0.00     0.133 A 
ATOM     27  N   UNL A   1      29.388  29.769  22.478  1.00  0.00    -0.256 NA
ATOM     28  C   UNL A   1      31.663  28.948  22.645  1.00  0.00     0.071 C 
ATOM     29  C   UNL A   1      28.067  29.571  22.657  1.00  0.00     0.131 A 
ENDBRANCH  19  23
ENDBRANCH   6   9
ENDBRANCH   4   5
ENDBRANCH   3   4
ENDBRANCH   2   3
ENDBRANCH   1   2
BRANCH   1  30
ATOM     30  C   UNL A   1      41.075  22.051  26.208  1.00  0.00     0.021 C 
BRANCH  30  31
ATOM     31  C   UNL A   1      41.185  23.563  26.392  1.00  0.00     0.116 C 
BRANCH  31  32
ATOM     32  N   UNL A   1      42.375  24.106  25.751  1.00  0.00    -0.352 N 
ATOM     33  C   UNL A   1      42.950  25.344  25.871  1.00  0.00     0.251 C 
ATOM     34  H   UNL A   1      42.837  23.489  25.137  1.00  0.00     0.163 HD
ATOM     35  O   UNL A   1      43.814  25.699  25.068  1.00  0.00    -0.269 OA
BRANCH  33  36
ATOM     36  C   UNL A   1      42.528  26.253  26.954  1.00  0.00     0.039 A 
ATOM     37  C   UNL A   1      41.690  25.771  27.963  1.00  0.00     0.014 A 
ATOM     38  C   UNL A   1      42.957  27.584  26.968  1.00  0.00     0.014 A 
ATOM     39  C   UNL A   1      41.342  26.605  29.026  1.00  0.00     0.010 A 
ATOM     40  C   UNL A   1      42.667  28.389  28.065  1.00  0.00     0.010 A 
ATOM     41  C   UNL A   1      41.861  27.907  29.106  1.00  0.00    -0.014 A 
BRANCH  41  42
ATOM     42  C   UNL A   1      41.601  28.772  30.286  1.00  0.00     0.031 A 
ATOM     43  C   UNL A   1      42.417  28.610  31.538  1.00  0.00     0.074 A 
ATOM     44  C   UNL A   1      40.574  29.644  30.251  1.00  0.00     0.049 A 
ATOM     45  N   UNL A   1      42.281  29.206  32.694  1.00  0.00    -0.248 NA
ATOM     46  C   UNL A   1      43.517  27.632  31.492  1.00  0.00     0.031 C 
ATOM     47  C   UNL A   1      39.684  29.856  29.107  1.00  0.00     0.029 A 
ATOM     48  N   UNL A   1      40.092  30.502  31.207  1.00  0.00    -0.354 N 
ATOM     49  C   UNL A   1      43.266  28.670  33.516  1.00  0.00     0.074 A 
ATOM     50  C   UNL A   1      43.960  27.665  32.741  1.00  0.00     0.031 C 
ATOM     51  C   UNL A   1      38.779  30.795  29.421  1.00  0.00     0.029 A 
ATOM     52  C   UNL A   1      38.991  31.219  30.800  1.00  0.00     0.049 A 
ATOM     53  H   UNL A   1      40.497  30.597  32.099  1.00  0.00     0.167 HD
ATOM     54  C   UNL A   1      43.574  29.001  34.793  1.00  0.00     0.037 A 
ATOM     55  C   UNL A   1      38.227  32.106  31.469  1.00  0.00     0.037 A 
ATOM     56  C   UNL A   1      42.882  30.013  35.550  1.00  0.00     0.049 A 
ATOM     57  C   UNL A   1      38.576  32.440  32.894  1.00  0.00     0.074 A 
ATOM     58  C   UNL A   1      43.153  30.463  36.831  1.00  0.00     0.029 A 
ATOM     59  N   UNL A   1      41.778  30.724  35.102  1.00  0.00    -0.354 N 
ATOM     60  N   UNL A   1      39.555  31.974  33.634  1.00  0.00    -0.248 NA
ATOM     61  C   UNL A   1      37.721  33.421  33.576  1.00  0.00     0.031 C 
ATOM     62  C   UNL A   1      42.179  31.404  37.178  1.00  0.00     0.029 A 
ATOM     63  C   UNL A   1      41.336  31.587  36.092  1.00  0.00     0.049 A 
ATOM     64  H   UNL A   1      41.369  30.631  34.212  1.00  0.00     0.167 HD
ATOM     65  C   UNL A   1      39.445  32.621  34.861  1.00  0.00     0.074 A 
ATOM     66  C   UNL A   1      38.319  33.525  34.755  1.00  0.00     0.031 C 
ATOM     67  C   UNL A   1      40.209  32.479  35.973  1.00  0.00     0.037 A 
BRANCH  54  68
ATOM     68  C   UNL A   1      44.705  28.262  35.456  1.00  0.00     0.058 A 
ATOM     69  C   UNL A   1      44.489  27.089  36.199  1.00  0.00     0.135 A 
ATOM     70  C   UNL A   1      46.030  28.708  35.314  1.00  0.00     0.135 A 
ATOM     71  F   UNL A   1      43.242  26.625  36.379  1.00  0.00    -0.206 F 
ATOM     72  C   UNL A   1      45.539  26.402  36.798  1.00  0.00     0.059 A 
ATOM     73  C   UNL A   1      47.099  28.019  35.880  1.00  0.00     0.059 A 
ATOM     74  F   UNL A   1      46.296  29.823  34.616  1.00  0.00    -0.206 F 
ATOM     75  C   UNL A   1      46.841  26.873  36.632  1.00  0.00     0.060 A 
BRANCH  75  76
ATOM     76  S   UNL A   1      48.192  25.963  37.410  1.00  0.00     0.124 S 
ATOM     77  O   UNL A   1      49.209  26.001  36.362  1.00  0.00    -0.237 OA
ATOM     78  O   UNL A   1      48.470  26.771  38.592  1.00  0.00    -0.237 OA
ATOM     79  O   UNL A   1      47.612  24.650  37.672  1.00  0.00    -0.744 OA
ENDBRANCH  75  76
ENDBRANCH  54  68
BRANCH  55  80
ATOM     80  C   UNL A   1      37.067  32.747  30.793  1.00  0.00     0.058 A 
ATOM     81  C   UNL A   1      35.760  32.291  31.022  1.00  0.00     0.135 A 
ATOM     82  C   UNL A   1      37.236  33.831  29.917  1.00  0.00     0.135 A 
ATOM     83  F   UNL A   1      35.545  31.255  31.847  1.00  0.00    -0.206 F 
ATOM     84  C   UNL A   1      34.664  32.870  30.390  1.00  0.00     0.059 A 
ATOM     85  C   UNL A   1      36.152  34.447  29.299  1.00  0.00     0.059 A 
ATOM     86  F   UNL A   1      38.464  34.315  29.669  1.00  0.00    -0.206 F 
ATOM     87  C   UNL A   1      34.871  33.950  29.532  1.00  0.00     0.060 A 
BRANCH  87  88
ATOM     88  S   UNL A   1      33.440  34.710  28.735  1.00  0.00     0.124 S 
ATOM     89  O   UNL A   1      34.035  35.903  28.144  1.00  0.00    -0.237 OA
ATOM     90  O   UNL A   1      33.026  33.670  27.799  1.00  0.00    -0.237 OA
ATOM     91  O   UNL A   1      32.525  34.948  29.848  1.00  0.00    -0.744 OA
ENDBRANCH  87  88
ENDBRANCH  55  80
BRANCH  67  92
ATOM     92  C   UNL A   1      39.865  33.334  37.163  1.00  0.00     0.058 A 
ATOM     93  C   UNL A   1      38.851  32.971  38.064  1.00  0.00     0.135 A 
ATOM     94  C   UNL A   1      40.593  34.504  37.434  1.00  0.00     0.135 A 
ATOM     95  F   UNL A   1      38.119  31.867  37.848  1.00  0.00    -0.206 F 
ATOM     96  C   UNL A   1      38.557  33.749  39.179  1.00  0.00     0.059 A 
ATOM     97  C   UNL A   1      40.337  35.280  38.560  1.00  0.00     0.059 A 
ATOM     98  F   UNL A   1      41.579  34.893  36.610  1.00  0.00    -0.206 F 
ATOM     99  C   UNL A   1      39.309  34.900  39.421  1.00  0.00     0.060 A 
BRANCH  99 100
ATOM    100  S   UNL A   1      38.940  35.878  40.892  1.00  0.00     0.124 S 
ATOM    101  O   UNL A   1      37.906  35.071  41.530  1.00  0.00    -0.237 OA
ATOM    102  O   UNL A   1      40.229  35.911  41.575  1.00  0.00    -0.237 OA
ATOM    103  O   UNL A   1      38.493  37.156  40.349  1.00  0.00    -0.744 OA
ENDBRANCH  99 100
ENDBRANCH  67  92
ENDBRANCH  41  42
ENDBRANCH  33  36
ENDBRANCH  31  32
ENDBRANCH  30  31
ENDBRANCH   1  30
TORSDOF 19
ENDMDL
MODEL 2
REMARK VINA RESULT:     -10.9      4.737      9.062
REMARK SMILES CCC[N@@H+]1CC2(CCN(c3nccnc3C)CC2)C[C@H]1C(=O)NCCCCCCNC(=O)c1ccc(-c2c3nc(c(-c4c(F)cc(S(=O)(=O)[O-])cc4F)c4ccc([nH]4)c(-c4c(F)cc(S(=O)(=O)[O-])cc4F)c4nc(c(-c5c(F)cc(S(=O)(=O)[O-])cc5F)c5ccc2[nH]5)C=C4)C=C3)cc1
REMARK SMILES IDX 27 1 26 2 25 3 24 4 23 5 21 6 22 7 20 9 4 10 5 11 6 13 19 14
REMARK SMILES IDX 7 15 18 16 8 17 17 18 9 19 3 20 2 21 1 22 10 23 11 24 15 25
REMARK SMILES IDX 12 26 14 27 16 28 13 29 28 30 29 31 30 32 31 33 32 35 33 36
REMARK SMILES IDX 34 37 98 38 35 39 97 40 36 41 37 42 38 43 91 44 39 45 96 46
REMARK SMILES IDX 90 47 92 48 40 49 95 50 89 51 88 52 41 54 75 55 54 56 74 57
REMARK SMILES IDX 55 58 58 59 73 60 93 61 56 62 57 63 72 65 94 66 59 67 42 68
REMARK SMILES IDX 43 69 52 70 44 71 45 72 51 73 53 74 46 75 47 76 48 77 49 78
REMARK SMILES IDX 50 79 76 80 77 81 86 82 78 83 79 84 85 85 87 86 80 87 81 88
REMARK SMILES IDX 82 89 83 90 84 91 60 92 61 93 70 94 62 95 63 96 69 97 71 98
REMARK SMILES IDX 64 99 65 100 66 101 67 102 68 103
REMARK H PARENT 23 8 4 12 30 34 92 53 58 64
REMARK Flexibility Score: inf
ROOT
ATOM      1  C   UNL A   1      42.270  22.486  25.557  1.00  0.00     0.002 C 
ENDROOT
BRANCH   1   2
ATOM      2  C   UNL A   1      43.730  22.236  25.149  1.00  0.00     0.002 C 
BRANCH   2   3
ATOM      3  C   UNL A   1      44.729  22.180  26.305  1.00  0.00     0.021 C 
BRANCH   3   4
ATOM      4  C   UNL A   1      44.318  23.046  27.491  1.00  0.00     0.116 C 
BRANCH   4   5
ATOM      5  N   UNL A   1      45.406  23.677  28.183  1.00  0.00    -0.351 N 
ATOM      6  C   UNL A   1      45.993  24.888  27.988  1.00  0.00     0.278 C 
ATOM      7  O   UNL A   1      46.802  25.227  28.867  1.00  0.00    -0.268 OA
ATOM      8  H   UNL A   1      45.790  23.146  28.918  1.00  0.00     0.163 HD
BRANCH   6   9
ATOM      9  C   UNL A   1      45.716  25.855  26.797  1.00  0.00     0.274 C 
ATOM     10  N   UNL A   1      46.152  27.258  27.058  1.00  0.00    -0.324 N 
ATOM     11  C   UNL A   1      47.339  27.483  26.217  1.00  0.00     0.270 C 
ATOM     12  H   UNL A   1      46.424  27.449  28.022  1.00  0.00     0.348 HD
ATOM     13  C   UNL A   1      47.238  26.568  24.977  1.00  0.00     0.029 C 
ATOM     14  C   UNL A   1      46.213  25.489  25.400  1.00  0.00     0.088 C 
ATOM     15  C   UNL A   1      48.550  25.854  24.532  1.00  0.00     0.034 C 
ATOM     16  C   UNL A   1      46.768  27.417  23.757  1.00  0.00     0.034 C 
ATOM     17  C   UNL A   1      49.625  26.827  24.079  1.00  0.00     0.119 C 
ATOM     18  C   UNL A   1      47.875  28.375  23.255  1.00  0.00     0.119 C 
ATOM     19  N   UNL A   1      49.049  27.574  22.988  1.00  0.00    -0.355 N 
BRANCH  10  20
ATOM     20  C   UNL A   1      45.002  28.153  26.787  1.00  0.00     0.262 C 
BRANCH  20  21
ATOM     21  C   UNL A   1      44.797  29.375  27.694  1.00  0.00     0.058 C 
ATOM     22  C   UNL A   1      43.510  30.145  27.421  1.00  0.00     0.010 C 
ENDBRANCH  20  21
ENDBRANCH  10  20
BRANCH  19  23
ATOM     23  C   UNL A   1      49.866  27.905  21.930  1.00  0.00     0.150 A 
ATOM     24  N   UNL A   1      50.642  29.006  22.033  1.00  0.00    -0.236 NA
ATOM     25  C   UNL A   1      49.864  27.128  20.752  1.00  0.00     0.080 A 
ATOM     26  C   UNL A   1      51.430  29.280  20.964  1.00  0.00     0.133 A 
ATOM     27  N   UNL A   1      50.648  27.420  19.684  1.00  0.00    -0.256 NA
ATOM     28  C   UNL A   1      48.976  25.926  20.606  1.00  0.00     0.071 C 
ATOM     29  C   UNL A   1      51.429  28.510  19.816  1.00  0.00     0.131 A 
ENDBRANCH  19  23
ENDBRANCH   6   9
ENDBRANCH   4   5
ENDBRANCH   3   4
ENDBRANCH   2   3
ENDBRANCH   1   2
BRANCH   1  30
ATOM     30  C   UNL A   1      41.474  21.250  25.988  1.00  0.00     0.021 C 
BRANCH  30  31
ATOM     31  C   UNL A   1      40.178  21.548  26.740  1.00  0.00     0.116 C 
BRANCH  31  32
ATOM     32  N   UNL A   1      39.164  22.128  25.870  1.00  0.00    -0.352 N 
ATOM     33  C   UNL A   1      38.597  23.376  25.892  1.00  0.00     0.251 C 
ATOM     34  H   UNL A   1      38.834  21.533  25.158  1.00  0.00     0.163 HD
ATOM     35  O   UNL A   1      37.585  23.601  25.228  1.00  0.00    -0.269 OA
BRANCH  33  36
ATOM     36  C   UNL A   1      39.193  24.443  26.718  1.00  0.00     0.039 A 
ATOM     37  C   UNL A   1      40.094  25.338  26.134  1.00  0.00     0.014 A 
ATOM     38  C   UNL A   1      38.866  24.556  28.073  1.00  0.00     0.014 A 
ATOM     39  C   UNL A   1      40.609  26.391  26.891  1.00  0.00     0.010 A 
ATOM     40  C   UNL A   1      39.325  25.647  28.805  1.00  0.00     0.010 A 
ATOM     41  C   UNL A   1      40.196  26.577  28.220  1.00  0.00    -0.014 A 
BRANCH  41  42
ATOM     42  C   UNL A   1      40.639  27.756  29.008  1.00  0.00     0.031 A 
ATOM     43  C   UNL A   1      41.957  27.732  29.731  1.00  0.00     0.074 A 
ATOM     44  C   UNL A   1      39.811  28.812  29.137  1.00  0.00     0.049 A 
ATOM     45  N   UNL A   1      42.472  28.624  30.537  1.00  0.00    -0.248 NA
ATOM     46  C   UNL A   1      42.798  26.539  29.540  1.00  0.00     0.031 C 
ATOM     47  C   UNL A   1      38.487  28.928  28.520  1.00  0.00     0.029 A 
ATOM     48  N   UNL A   1      39.950  29.981  29.842  1.00  0.00    -0.354 N 
ATOM     49  C   UNL A   1      43.688  28.097  30.959  1.00  0.00     0.074 A 
ATOM     50  C   UNL A   1      43.810  26.788  30.358  1.00  0.00     0.031 C 
ATOM     51  C   UNL A   1      37.946  30.109  28.858  1.00  0.00     0.029 A 
ATOM     52  C   UNL A   1      38.858  30.813  29.752  1.00  0.00     0.049 A 
ATOM     53  H   UNL A   1      40.755  30.203  30.363  1.00  0.00     0.167 HD
ATOM     54  C   UNL A   1      44.622  28.665  31.758  1.00  0.00     0.037 A 
ATOM     55  C   UNL A   1      38.612  32.001  30.337  1.00  0.00     0.037 A 
ATOM     56  C   UNL A   1      44.493  29.977  32.340  1.00  0.00     0.049 A 
ATOM     57  C   UNL A   1      39.657  32.600  31.239  1.00  0.00     0.074 A 
ATOM     58  C   UNL A   1      45.408  30.665  33.118  1.00  0.00     0.029 A 
ATOM     59  N   UNL A   1      43.378  30.793  32.220  1.00  0.00    -0.354 N 
ATOM     60  N   UNL A   1      40.832  32.120  31.572  1.00  0.00    -0.248 NA
ATOM     61  C   UNL A   1      39.348  33.903  31.843  1.00  0.00     0.031 C 
ATOM     62  C   UNL A   1      44.824  31.873  33.514  1.00  0.00     0.029 A 
ATOM     63  C   UNL A   1      43.569  31.965  32.934  1.00  0.00     0.049 A 
ATOM     64  H   UNL A   1      42.571  30.573  31.702  1.00  0.00     0.167 HD
ATOM     65  C   UNL A   1      41.409  33.071  32.407  1.00  0.00     0.074 A 
ATOM     66  C   UNL A   1      40.463  34.162  32.511  1.00  0.00     0.031 C 
ATOM     67  C   UNL A   1      42.614  33.042  33.031  1.00  0.00     0.037 A 
BRANCH  54  68
ATOM     68  C   UNL A   1      45.867  27.872  32.054  1.00  0.00     0.058 A 
ATOM     69  C   UNL A   1      47.007  27.951  31.237  1.00  0.00     0.135 A 
ATOM     70  C   UNL A   1      45.938  27.051  33.193  1.00  0.00     0.135 A 
ATOM     71  F   UNL A   1      46.992  28.708  30.128  1.00  0.00    -0.206 F 
ATOM     72  C   UNL A   1      48.159  27.227  31.521  1.00  0.00     0.059 A 
ATOM     73  C   UNL A   1      47.091  26.341  33.513  1.00  0.00     0.059 A 
ATOM     74  F   UNL A   1      44.878  26.936  34.009  1.00  0.00    -0.206 F 
ATOM     75  C   UNL A   1      48.193  26.426  32.663  1.00  0.00     0.060 A 
BRANCH  75  76
ATOM     76  S   UNL A   1      49.701  25.500  33.021  1.00  0.00     0.124 S 
ATOM     77  O   UNL A   1      49.194  24.447  33.897  1.00  0.00    -0.237 OA
ATOM     78  O   UNL A   1      50.125  25.071  31.693  1.00  0.00    -0.237 OA
ATOM     79  O   UNL A   1      50.563  26.487  33.664  1.00  0.00    -0.744 OA
ENDBRANCH  75  76
ENDBRANCH  54  68
BRANCH  55  80
ATOM     80  C   UNL A   1      37.328  32.707  30.078  1.00  0.00     0.058 A 
ATOM     81  C   UNL A   1      37.245  33.715  29.105  1.00  0.00     0.135 A 
ATOM     82  C   UNL A   1      36.158  32.384  30.784  1.00  0.00     0.135 A 
ATOM     83  F   UNL A   1      38.336  34.064  28.406  1.00  0.00    -0.206 F 
ATOM     84  C   UNL A   1      36.057  34.394  28.856  1.00  0.00     0.059 A 
ATOM     85  C   UNL A   1      34.950  33.026  30.529  1.00  0.00     0.059 A 
ATOM     86  F   UNL A   1      36.176  31.420  31.719  1.00  0.00    -0.206 F 
ATOM     87  C   UNL A   1      34.914  34.040  29.573  1.00  0.00     0.060 A 
BRANCH  87  88
ATOM     88  S   UNL A   1      33.370  34.910  29.226  1.00  0.00     0.124 S 
ATOM     89  O   UNL A   1      32.714  33.986  28.308  1.00  0.00    -0.237 OA
ATOM     90  O   UNL A   1      32.778  35.020  30.556  1.00  0.00    -0.237 OA
ATOM     91  O   UNL A   1      33.820  36.168  28.637  1.00  0.00    -0.744 OA
ENDBRANCH  87  88
ENDBRANCH  55  80
BRANCH  67  92
ATOM     92  C   UNL A   1      42.988  34.235  33.868  1.00  0.00     0.058 A 
ATOM     93  C   UNL A   1      42.760  34.265  35.253  1.00  0.00     0.135 A 
ATOM     94  C   UNL A   1      43.632  35.341  33.287  1.00  0.00     0.135 A 
ATOM     95  F   UNL A   1      42.140  33.240  35.858  1.00  0.00    -0.206 F 
ATOM     96  C   UNL A   1      43.134  35.358  36.028  1.00  0.00     0.059 A 
ATOM     97  C   UNL A   1      44.044  36.430  34.048  1.00  0.00     0.059 A 
ATOM     98  F   UNL A   1      43.884  35.360  31.968  1.00  0.00    -0.206 F 
ATOM     99  C   UNL A   1      43.781  36.434  35.417  1.00  0.00     0.060 A 
BRANCH  99 100
ATOM    100  S   UNL A   1      44.296  37.827  36.442  1.00  0.00     0.124 S 
ATOM    101  O   UNL A   1      44.080  38.953  35.539  1.00  0.00    -0.237 OA
ATOM    102  O   UNL A   1      43.378  37.737  37.573  1.00  0.00    -0.237 OA
ATOM    103  O   UNL A   1      45.691  37.527  36.749  1.00  0.00    -0.744 OA
ENDBRANCH  99 100
ENDBRANCH  67  92
ENDBRANCH  41  42
ENDBRANCH  33  36
ENDBRANCH  31  32
ENDBRANCH  30  31
ENDBRANCH   1  30
TORSDOF 19
ENDMDL
MODEL 3
REMARK VINA RESULT:     -10.9      1.375      8.065
REMARK SMILES CCC[N@@H+]1CC2(CCN(c3nccnc3C)CC2)C[C@H]1C(=O)NCCCCCCNC(=O)c1ccc(-c2c3nc(c(-c4c(F)cc(S(=O)(=O)[O-])cc4F)c4ccc([nH]4)c(-c4c(F)cc(S(=O)(=O)[O-])cc4F)c4nc(c(-c5c(F)cc(S(=O)(=O)[O-])cc5F)c5ccc2[nH]5)C=C4)C=C3)cc1
REMARK SMILES IDX 27 1 26 2 25 3 24 4 23 5 21 6 22 7 20 9 4 10 5 11 6 13 19 14
REMARK SMILES IDX 7 15 18 16 8 17 17 18 9 19 3 20 2 21 1 22 10 23 11 24 15 25
REMARK SMILES IDX 12 26 14 27 16 28 13 29 28 30 29 31 30 32 31 33 32 35 33 36
REMARK SMILES IDX 34 37 98 38 35 39 97 40 36 41 37 42 38 43 91 44 39 45 96 46
REMARK SMILES IDX 90 47 92 48 40 49 95 50 89 51 88 52 41 54 75 55 54 56 74 57
REMARK SMILES IDX 55 58 58 59 73 60 93 61 56 62 57 63 72 65 94 66 59 67 42 68
REMARK SMILES IDX 43 69 52 70 44 71 45 72 51 73 53 74 46 75 47 76 48 77 49 78
REMARK SMILES IDX 50 79 76 80 77 81 86 82 78 83 79 84 85 85 87 86 80 87 81 88
REMARK SMILES IDX 82 89 83 90 84 91 60 92 61 93 70 94 62 95 63 96 69 97 71 98
REMARK SMILES IDX 64 99 65 100 66 101 67 102 68 103
REMARK H PARENT 23 8 4 12 30 34 92 53 58 64
REMARK Flexibility Score: inf
ROOT
ATOM      1  C   UNL A   1      39.317  23.667  26.906  1.00  0.00     0.002 C 
ENDROOT
BRANCH   1   2
ATOM      2  C   UNL A   1      39.099  22.354  26.140  1.00  0.00     0.002 C 
BRANCH   2   3
ATOM      3  C   UNL A   1      37.721  22.197  25.495  1.00  0.00     0.021 C 
BRANCH   3   4
ATOM      4  C   UNL A   1      36.730  23.269  25.937  1.00  0.00     0.116 C 
BRANCH   4   5
ATOM      5  N   UNL A   1      35.718  22.817  26.848  1.00  0.00    -0.351 N 
ATOM      6  C   UNL A   1      34.421  22.470  26.626  1.00  0.00     0.278 C 
ATOM      7  O   UNL A   1      33.844  21.948  27.594  1.00  0.00    -0.268 OA
ATOM      8  H   UNL A   1      36.008  22.747  27.786  1.00  0.00     0.163 HD
BRANCH   6   9
ATOM      9  C   UNL A   1      33.644  22.650  25.287  1.00  0.00     0.274 C 
ATOM     10  N   UNL A   1      32.240  22.152  25.343  1.00  0.00    -0.324 N 
ATOM     11  C   UNL A   1      31.379  23.346  25.340  1.00  0.00     0.270 C 
ATOM     12  H   UNL A   1      32.009  21.616  26.179  1.00  0.00     0.348 HD
ATOM     13  C   UNL A   1      32.122  24.479  24.599  1.00  0.00     0.029 C 
ATOM     14  C   UNL A   1      33.601  24.025  24.623  1.00  0.00     0.088 C 
ATOM     15  C   UNL A   1      32.031  25.900  25.234  1.00  0.00     0.034 C 
ATOM     16  C   UNL A   1      31.542  24.608  23.157  1.00  0.00     0.034 C 
ATOM     17  C   UNL A   1      30.615  26.450  25.247  1.00  0.00     0.119 C 
ATOM     18  C   UNL A   1      30.120  25.217  23.155  1.00  0.00     0.119 C 
ATOM     19  N   UNL A   1      30.188  26.473  23.869  1.00  0.00    -0.355 N 
BRANCH  10  20
ATOM     20  C   UNL A   1      32.039  21.219  24.209  1.00  0.00     0.262 C 
BRANCH  20  21
ATOM     21  C   UNL A   1      32.879  19.934  24.160  1.00  0.00     0.058 C 
ATOM     22  C   UNL A   1      32.856  19.125  25.451  1.00  0.00     0.010 C 
ENDBRANCH  20  21
ENDBRANCH  10  20
BRANCH  19  23
ATOM     23  C   UNL A   1      29.408  27.530  23.454  1.00  0.00     0.150 A 
ATOM     24  N   UNL A   1      28.065  27.423  23.560  1.00  0.00    -0.236 NA
ATOM     25  C   UNL A   1      30.001  28.682  22.897  1.00  0.00     0.080 A 
ATOM     26  C   UNL A   1      27.349  28.495  23.141  1.00  0.00     0.133 A 
ATOM     27  N   UNL A   1      29.272  29.743  22.469  1.00  0.00    -0.256 NA
ATOM     28  C   UNL A   1      31.489  28.798  22.732  1.00  0.00     0.071 C 
ATOM     29  C   UNL A   1      27.937  29.625  22.604  1.00  0.00     0.131 A 
ENDBRANCH  19  23
ENDBRANCH   6   9
ENDBRANCH   4   5
ENDBRANCH   3   4
ENDBRANCH   2   3
ENDBRANCH   1   2
BRANCH   1  30
ATOM     30  C   UNL A   1      40.774  24.103  27.089  1.00  0.00     0.021 C 
BRANCH  30  31
ATOM     31  C   UNL A   1      41.224  25.244  26.180  1.00  0.00     0.116 C 
BRANCH  31  32
ATOM     32  N   UNL A   1      42.651  25.184  25.894  1.00  0.00    -0.352 N 
ATOM     33  C   UNL A   1      43.682  25.928  26.407  1.00  0.00     0.251 C 
ATOM     34  H   UNL A   1      42.916  24.506  25.231  1.00  0.00     0.163 HD
ATOM     35  O   UNL A   1      44.789  25.896  25.868  1.00  0.00    -0.269 OA
BRANCH  33  36
ATOM     36  C   UNL A   1      43.463  26.771  27.598  1.00  0.00     0.039 A 
ATOM     37  C   UNL A   1      43.699  28.146  27.515  1.00  0.00     0.014 A 
ATOM     38  C   UNL A   1      43.029  26.202  28.799  1.00  0.00     0.014 A 
ATOM     39  C   UNL A   1      43.429  28.960  28.615  1.00  0.00     0.010 A 
ATOM     40  C   UNL A   1      42.694  27.024  29.870  1.00  0.00     0.010 A 
ATOM     41  C   UNL A   1      42.886  28.411  29.788  1.00  0.00    -0.014 A 
BRANCH  41  42
ATOM     42  C   UNL A   1      42.480  29.271  30.929  1.00  0.00     0.031 A 
ATOM     43  C   UNL A   1      41.217  30.084  30.853  1.00  0.00     0.074 A 
ATOM     44  C   UNL A   1      43.296  29.379  31.996  1.00  0.00     0.049 A 
ATOM     45  N   UNL A   1      40.746  30.957  31.705  1.00  0.00    -0.248 NA
ATOM     46  C   UNL A   1      40.386  29.910  29.650  1.00  0.00     0.031 C 
ATOM     47  C   UNL A   1      44.570  28.674  32.161  1.00  0.00     0.029 A 
ATOM     48  N   UNL A   1      43.187  30.135  33.136  1.00  0.00    -0.354 N 
ATOM     49  C   UNL A   1      39.573  31.445  31.139  1.00  0.00     0.074 A 
ATOM     50  C   UNL A   1      39.432  30.806  29.849  1.00  0.00     0.031 C 
ATOM     51  C   UNL A   1      45.113  29.016  33.340  1.00  0.00     0.029 A 
ATOM     52  C   UNL A   1      44.255  29.998  33.993  1.00  0.00     0.049 A 
ATOM     53  H   UNL A   1      42.418  30.720  33.324  1.00  0.00     0.167 HD
ATOM     54  C   UNL A   1      38.688  32.329  31.658  1.00  0.00     0.037 A 
ATOM     55  C   UNL A   1      44.521  30.608  35.165  1.00  0.00     0.037 A 
ATOM     56  C   UNL A   1      38.836  32.948  32.951  1.00  0.00     0.049 A 
ATOM     57  C   UNL A   1      43.532  31.602  35.710  1.00  0.00     0.074 A 
ATOM     58  C   UNL A   1      37.967  33.814  33.593  1.00  0.00     0.029 A 
ATOM     59  N   UNL A   1      39.925  32.778  33.794  1.00  0.00    -0.354 N 
ATOM     60  N   UNL A   1      42.393  32.001  35.194  1.00  0.00    -0.248 NA
ATOM     61  C   UNL A   1      43.861  32.231  36.997  1.00  0.00     0.031 C 
ATOM     62  C   UNL A   1      38.556  34.211  34.797  1.00  0.00     0.029 A 
ATOM     63  C   UNL A   1      39.765  33.547  34.936  1.00  0.00     0.049 A 
ATOM     64  H   UNL A   1      40.696  32.196  33.609  1.00  0.00     0.167 HD
ATOM     65  C   UNL A   1      41.861  32.909  36.103  1.00  0.00     0.074 A 
ATOM     66  C   UNL A   1      42.792  32.985  37.210  1.00  0.00     0.031 C 
ATOM     67  C   UNL A   1      40.705  33.615  36.028  1.00  0.00     0.037 A 
BRANCH  54  68
ATOM     68  C   UNL A   1      37.483  32.683  30.830  1.00  0.00     0.058 A 
ATOM     69  C   UNL A   1      37.507  33.737  29.901  1.00  0.00     0.135 A 
ATOM     70  C   UNL A   1      36.298  31.935  30.936  1.00  0.00     0.135 A 
ATOM     71  F   UNL A   1      38.607  34.494  29.767  1.00  0.00    -0.206 F 
ATOM     72  C   UNL A   1      36.395  34.052  29.128  1.00  0.00     0.059 A 
ATOM     73  C   UNL A   1      35.183  32.214  30.151  1.00  0.00     0.059 A 
ATOM     74  F   UNL A   1      36.218  30.918  31.808  1.00  0.00    -0.206 F 
ATOM     75  C   UNL A   1      35.237  33.284  29.258  1.00  0.00     0.060 A 
BRANCH  75  76
ATOM     76  S   UNL A   1      33.807  33.702  28.240  1.00  0.00     0.124 S 
ATOM     77  O   UNL A   1      34.400  34.618  27.268  1.00  0.00    -0.237 OA
ATOM     78  O   UNL A   1      33.405  32.400  27.719  1.00  0.00    -0.237 OA
ATOM     79  O   UNL A   1      32.879  34.310  29.188  1.00  0.00    -0.744 OA
ENDBRANCH  75  76
ENDBRANCH  54  68
BRANCH  55  80
ATOM     80  C   UNL A   1      45.770  30.283  35.905  1.00  0.00     0.058 A 
ATOM     81  C   UNL A   1      45.797  29.246  36.850  1.00  0.00     0.135 A 
ATOM     82  C   UNL A   1      46.961  30.991  35.679  1.00  0.00     0.135 A 
ATOM     83  F   UNL A   1      44.684  28.543  37.107  1.00  0.00    -0.206 F 
ATOM     84  C   UNL A   1      46.952  28.936  37.561  1.00  0.00     0.059 A 
ATOM     85  C   UNL A   1      48.138  30.677  36.353  1.00  0.00     0.059 A 
ATOM     86  F   UNL A   1      46.996  31.987  34.778  1.00  0.00    -0.206 F 
ATOM     87  C   UNL A   1      48.119  29.657  37.302  1.00  0.00     0.060 A 
BRANCH  87  88
ATOM     88  S   UNL A   1      49.619  29.231  38.212  1.00  0.00     0.124 S 
ATOM     89  O   UNL A   1      49.718  27.798  37.957  1.00  0.00    -0.237 OA
ATOM     90  O   UNL A   1      50.619  30.069  37.558  1.00  0.00    -0.237 OA
ATOM     91  O   UNL A   1      49.295  29.604  39.586  1.00  0.00    -0.744 OA
ENDBRANCH  87  88
ENDBRANCH  55  80
BRANCH  67  92
ATOM     92  C   UNL A   1      40.371  34.520  37.183  1.00  0.00     0.058 A 
ATOM     93  C   UNL A   1      40.725  35.879  37.182  1.00  0.00     0.135 A 
ATOM     94  C   UNL A   1      39.640  34.035  38.280  1.00  0.00     0.135 A 
ATOM     95  F   UNL A   1      41.431  36.392  36.163  1.00  0.00    -0.206 F 
ATOM     96  C   UNL A   1      40.388  36.718  38.238  1.00  0.00     0.059 A 
ATOM     97  C   UNL A   1      39.264  34.864  39.332  1.00  0.00     0.059 A 
ATOM     98  F   UNL A   1      39.266  32.747  38.328  1.00  0.00    -0.206 F 
ATOM     99  C   UNL A   1      39.652  36.203  39.308  1.00  0.00     0.060 A 
BRANCH  99 100
ATOM    100  S   UNL A   1      39.189  37.314  40.652  1.00  0.00     0.124 S 
ATOM    101  O   UNL A   1      38.236  38.198  39.988  1.00  0.00    -0.237 OA
ATOM    102  O   UNL A   1      38.622  36.396  41.634  1.00  0.00    -0.237 OA
ATOM    103  O   UNL A   1      40.455  37.931  41.036  1.00  0.00    -0.744 OA
ENDBRANCH  99 100
ENDBRANCH  67  92
ENDBRANCH  41  42
ENDBRANCH  33  36
ENDBRANCH  31  32
ENDBRANCH  30  31
ENDBRANCH   1  30
TORSDOF 19
ENDMDL
