MODEL 1
REMARK VINA RESULT:     -11.2      0.000      0.000
REMARK SMILES CC(C)(C)OC(=O)CSc1ccnc(C(=O)NCCCCCCNC(=O)c2ccc(-c3c4nc(c(-c5c(F)cc(S(=O)(=O)[O-])cc5F)c5ccc([nH]5)c(-c5c(F)cc(S(=O)(=O)[O-])cc5F)c5nc(c(-c6c(F)cc(S(=O)(=O)[O-])cc6F)c6ccc3[nH]6)C=C5)C=C4)cc2)c1
REMARK SMILES IDX 19 1 18 2 17 3 15 4 16 5 14 7 10 8 11 9 93 10 12 11 13 12
REMARK SMILES IDX 9 13 8 14 6 15 7 16 5 17 2 18 1 19 3 20 4 21 20 22 21 23
REMARK SMILES IDX 22 24 23 25 24 26 25 27 26 29 27 30 28 31 92 32 29 33 91 34
REMARK SMILES IDX 30 35 31 36 32 37 85 38 33 39 90 40 84 41 86 42 34 43 89 44
REMARK SMILES IDX 83 45 82 46 35 48 69 49 48 50 68 51 49 52 52 53 67 54 87 55
REMARK SMILES IDX 50 56 51 57 66 59 88 60 53 61 36 62 37 63 46 64 38 65 39 66
REMARK SMILES IDX 45 67 47 68 40 69 41 70 42 71 43 72 44 73 70 74 71 75 80 76
REMARK SMILES IDX 72 77 73 78 79 79 81 80 74 81 75 82 76 83 77 84 78 85 54 86
REMARK SMILES IDX 55 87 64 88 56 89 57 90 63 91 65 92 58 93 59 94 60 95 61 96
REMARK SMILES IDX 62 97
REMARK H PARENT 17 6 24 28 86 47 52 58
REMARK Flexibility Score: inf
ROOT
ATOM      1  C   UNL A   1      35.080  22.164  26.576  1.00  0.00     0.021 C 
ENDROOT
BRANCH   1   2
ATOM      2  C   UNL A   1      33.770  21.674  27.183  1.00  0.00     0.116 C 
BRANCH   2   3
ATOM      3  N   UNL A   1      33.029  20.812  26.283  1.00  0.00    -0.351 N 
ATOM      4  C   UNL A   1      32.400  20.954  25.068  1.00  0.00     0.269 C 
ATOM      5  O   UNL A   1      31.846  19.930  24.651  1.00  0.00    -0.268 OA
ATOM      6  H   UNL A   1      32.959  19.893  26.629  1.00  0.00     0.163 HD
BRANCH   4   7
ATOM      7  C   UNL A   1      32.326  22.217  24.239  1.00  0.00     0.129 A 
ATOM      8  C   UNL A   1      31.465  24.362  23.582  1.00  0.00     0.012 A 
ATOM      9  C   UNL A   1      32.416  24.426  22.574  1.00  0.00     0.035 A 
ATOM     10  C   UNL A   1      31.460  23.273  24.454  1.00  0.00     0.049 A 
ATOM     11  C   UNL A   1      33.285  23.363  22.448  1.00  0.00     0.113 A 
ATOM     12  N   UNL A   1      33.244  22.268  23.233  1.00  0.00    -0.251 NA
BRANCH   8  13
ATOM     13  S   UNL A   1      30.281  25.683  23.784  1.00  0.00    -0.114 SA
BRANCH  13  14
ATOM     14  C   UNL A   1      30.921  26.884  22.553  1.00  0.00     0.197 C 
BRANCH  14  15
ATOM     15  C   UNL A   1      30.637  28.311  22.962  1.00  0.00     0.316 C 
ATOM     16  O   UNL A   1      31.068  28.817  23.992  1.00  0.00    -0.251 OA
BRANCH  15  17
ATOM     17  O   UNL A   1      29.871  28.937  22.031  1.00  0.00    -0.459 OA
BRANCH  17  18
ATOM     18  C   UNL A   1      28.721  29.733  22.402  1.00  0.00     0.104 C 
ATOM     19  C   UNL A   1      27.727  28.710  22.973  1.00  0.00     0.056 C 
ATOM     20  C   UNL A   1      28.091  30.413  21.184  1.00  0.00     0.056 C 
ATOM     21  C   UNL A   1      29.070  30.742  23.502  1.00  0.00     0.056 C 
ENDBRANCH  17  18
ENDBRANCH  15  17
ENDBRANCH  14  15
ENDBRANCH  13  14
ENDBRANCH   8  13
ENDBRANCH   4   7
ENDBRANCH   2   3
ENDBRANCH   1   2
BRANCH   1  22
ATOM     22  C   UNL A   1      35.055  23.618  26.101  1.00  0.00     0.002 C 
BRANCH  22  23
ATOM     23  C   UNL A   1      36.222  24.037  25.197  1.00  0.00     0.002 C 
BRANCH  23  24
ATOM     24  C   UNL A   1      37.567  23.370  25.501  1.00  0.00     0.021 C 
BRANCH  24  25
ATOM     25  C   UNL A   1      38.463  24.148  26.458  1.00  0.00     0.116 C 
BRANCH  25  26
ATOM     26  N   UNL A   1      39.870  24.000  26.122  1.00  0.00    -0.352 N 
ATOM     27  C   UNL A   1      40.937  24.787  26.472  1.00  0.00     0.251 C 
ATOM     28  H   UNL A   1      40.088  23.220  25.561  1.00  0.00     0.163 HD
ATOM     29  O   UNL A   1      42.016  24.640  25.907  1.00  0.00    -0.269 OA
BRANCH  27  30
ATOM     30  C   UNL A   1      40.780  25.819  27.519  1.00  0.00     0.039 A 
ATOM     31  C   UNL A   1      39.769  25.670  28.472  1.00  0.00     0.014 A 
ATOM     32  C   UNL A   1      41.612  26.943  27.547  1.00  0.00     0.014 A 
ATOM     33  C   UNL A   1      39.627  26.621  29.484  1.00  0.00     0.010 A 
ATOM     34  C   UNL A   1      41.517  27.851  28.598  1.00  0.00     0.010 A 
ATOM     35  C   UNL A   1      40.518  27.704  29.573  1.00  0.00    -0.014 A 
BRANCH  35  36
ATOM     36  C   UNL A   1      40.420  28.694  30.676  1.00  0.00     0.031 A 
ATOM     37  C   UNL A   1      41.304  28.568  31.887  1.00  0.00     0.074 A 
ATOM     38  C   UNL A   1      39.492  29.669  30.613  1.00  0.00     0.049 A 
ATOM     39  N   UNL A   1      41.325  29.296  32.973  1.00  0.00    -0.248 NA
ATOM     40  C   UNL A   1      42.272  27.458  31.890  1.00  0.00     0.031 C 
ATOM     41  C   UNL A   1      38.547  29.866  29.511  1.00  0.00     0.029 A 
ATOM     42  N   UNL A   1      39.184  30.672  31.497  1.00  0.00    -0.354 N 
ATOM     43  C   UNL A   1      42.294  28.728  33.792  1.00  0.00     0.074 A 
ATOM     44  C   UNL A   1      42.798  27.561  33.101  1.00  0.00     0.031 C 
ATOM     45  C   UNL A   1      37.784  30.940  29.772  1.00  0.00     0.029 A 
ATOM     46  C   UNL A   1      38.156  31.482  31.076  1.00  0.00     0.049 A 
ATOM     47  H   UNL A   1      39.654  30.800  32.352  1.00  0.00     0.167 HD
ATOM     48  C   UNL A   1      42.738  29.152  35.000  1.00  0.00     0.037 A 
ATOM     49  C   UNL A   1      37.574  32.540  31.673  1.00  0.00     0.037 A 
ATOM     50  C   UNL A   1      42.244  30.327  35.670  1.00  0.00     0.049 A 
ATOM     51  C   UNL A   1      38.078  32.990  33.018  1.00  0.00     0.074 A 
ATOM     52  C   UNL A   1      42.670  30.879  36.866  1.00  0.00     0.029 A 
ATOM     53  N   UNL A   1      41.210  31.129  35.207  1.00  0.00    -0.354 N 
ATOM     54  N   UNL A   1      39.042  32.481  33.748  1.00  0.00    -0.248 NA
ATOM     55  C   UNL A   1      37.423  34.159  33.616  1.00  0.00     0.031 C 
ATOM     56  C   UNL A   1      41.860  31.983  37.151  1.00  0.00     0.029 A 
ATOM     57  C   UNL A   1      40.965  32.154  36.106  1.00  0.00     0.049 A 
ATOM     58  H   UNL A   1      40.721  30.989  34.364  1.00  0.00     0.167 HD
ATOM     59  C   UNL A   1      39.127  33.286  34.880  1.00  0.00     0.074 A 
ATOM     60  C   UNL A   1      38.124  34.320  34.730  1.00  0.00     0.031 C 
ATOM     61  C   UNL A   1      39.963  33.178  35.943  1.00  0.00     0.037 A 
BRANCH  48  62
ATOM     62  C   UNL A   1      43.806  28.334  35.677  1.00  0.00     0.058 A 
ATOM     63  C   UNL A   1      43.491  27.306  36.581  1.00  0.00     0.135 A 
ATOM     64  C   UNL A   1      45.164  28.568  35.403  1.00  0.00     0.135 A 
ATOM     65  F   UNL A   1      42.211  27.046  36.890  1.00  0.00    -0.206 F 
ATOM     66  C   UNL A   1      44.482  26.567  37.217  1.00  0.00     0.059 A 
ATOM     67  C   UNL A   1      46.172  27.820  36.004  1.00  0.00     0.059 A 
ATOM     68  F   UNL A   1      45.524  29.537  34.546  1.00  0.00    -0.206 F 
ATOM     69  C   UNL A   1      45.821  26.834  36.926  1.00  0.00     0.060 A 
BRANCH  69  70
ATOM     70  S   UNL A   1      47.096  25.874  37.769  1.00  0.00     0.124 S 
ATOM     71  O   UNL A   1      46.437  24.579  37.911  1.00  0.00    -0.237 OA
ATOM     72  O   UNL A   1      48.202  25.920  36.817  1.00  0.00    -0.237 OA
ATOM     73  O   UNL A   1      47.310  26.608  39.012  1.00  0.00    -0.744 OA
ENDBRANCH  69  70
ENDBRANCH  48  62
BRANCH  49  74
ATOM     74  C   UNL A   1      36.468  33.261  30.988  1.00  0.00     0.058 A 
ATOM     75  C   UNL A   1      35.148  33.158  31.448  1.00  0.00     0.135 A 
ATOM     76  C   UNL A   1      36.711  34.089  29.881  1.00  0.00     0.135 A 
ATOM     77  F   UNL A   1      34.863  32.373  32.499  1.00  0.00    -0.206 F 
ATOM     78  C   UNL A   1      34.105  33.841  30.831  1.00  0.00     0.059 A 
ATOM     79  C   UNL A   1      35.690  34.803  29.263  1.00  0.00     0.059 A 
ATOM     80  F   UNL A   1      37.961  34.235  29.412  1.00  0.00    -0.206 F 
ATOM     81  C   UNL A   1      34.387  34.666  29.742  1.00  0.00     0.060 A 
BRANCH  81  82
ATOM     82  S   UNL A   1      33.035  35.597  28.988  1.00  0.00     0.124 S 
ATOM     83  O   UNL A   1      32.284  36.025  30.161  1.00  0.00    -0.237 OA
ATOM     84  O   UNL A   1      33.752  36.646  28.269  1.00  0.00    -0.237 OA
ATOM     85  O   UNL A   1      32.378  34.606  28.142  1.00  0.00    -0.744 OA
ENDBRANCH  81  82
ENDBRANCH  49  74
BRANCH  61  86
ATOM     86  C   UNL A   1      39.852  34.226  37.018  1.00  0.00     0.058 A 
ATOM     87  C   UNL A   1      40.375  35.517  36.848  1.00  0.00     0.135 A 
ATOM     88  C   UNL A   1      39.167  33.947  38.212  1.00  0.00     0.135 A 
ATOM     89  F   UNL A   1      41.045  35.834  35.729  1.00  0.00    -0.206 F 
ATOM     90  C   UNL A   1      40.242  36.490  37.834  1.00  0.00     0.059 A 
ATOM     91  C   UNL A   1      38.997  34.913  39.198  1.00  0.00     0.059 A 
ATOM     92  F   UNL A   1      38.639  32.731  38.421  1.00  0.00    -0.206 F 
ATOM     93  C   UNL A   1      39.549  36.179  39.006  1.00  0.00     0.060 A 
BRANCH  93  94
ATOM     94  S   UNL A   1      39.353  37.461  40.261  1.00  0.00     0.124 S 
ATOM     95  O   UNL A   1      40.742  37.802  40.551  1.00  0.00    -0.237 OA
ATOM     96  O   UNL A   1      38.585  38.479  39.551  1.00  0.00    -0.237 OA
ATOM     97  O   UNL A   1      38.637  36.779  41.335  1.00  0.00    -0.744 OA
ENDBRANCH  93  94
ENDBRANCH  61  86
ENDBRANCH  35  36
ENDBRANCH  27  30
ENDBRANCH  25  26
ENDBRANCH  24  25
ENDBRANCH  23  24
ENDBRANCH  22  23
ENDBRANCH   1  22
TORSDOF 21
ENDMDL
MODEL 2
REMARK VINA RESULT:     -10.9      6.843     12.031
REMARK SMILES CC(C)(C)OC(=O)CSc1ccnc(C(=O)NCCCCCCNC(=O)c2ccc(-c3c4nc(c(-c5c(F)cc(S(=O)(=O)[O-])cc5F)c5ccc([nH]5)c(-c5c(F)cc(S(=O)(=O)[O-])cc5F)c5nc(c(-c6c(F)cc(S(=O)(=O)[O-])cc6F)c6ccc3[nH]6)C=C5)C=C4)cc2)c1
REMARK SMILES IDX 19 1 18 2 17 3 15 4 16 5 14 7 10 8 11 9 93 10 12 11 13 12
REMARK SMILES IDX 9 13 8 14 6 15 7 16 5 17 2 18 1 19 3 20 4 21 20 22 21 23
REMARK SMILES IDX 22 24 23 25 24 26 25 27 26 29 27 30 28 31 92 32 29 33 91 34
REMARK SMILES IDX 30 35 31 36 32 37 85 38 33 39 90 40 84 41 86 42 34 43 89 44
REMARK SMILES IDX 83 45 82 46 35 48 69 49 48 50 68 51 49 52 52 53 67 54 87 55
REMARK SMILES IDX 50 56 51 57 66 59 88 60 53 61 36 62 37 63 46 64 38 65 39 66
REMARK SMILES IDX 45 67 47 68 40 69 41 70 42 71 43 72 44 73 70 74 71 75 80 76
REMARK SMILES IDX 72 77 73 78 79 79 81 80 74 81 75 82 76 83 77 84 78 85 54 86
REMARK SMILES IDX 55 87 64 88 56 89 57 90 63 91 65 92 58 93 59 94 60 95 61 96
REMARK SMILES IDX 62 97
REMARK H PARENT 17 6 24 28 86 47 52 58
REMARK Flexibility Score: inf
ROOT
ATOM      1  C   UNL A   1      32.818  27.953  24.887  1.00  0.00     0.021 C 
ENDROOT
BRANCH   1   2
ATOM      2  C   UNL A   1      31.867  27.024  24.140  1.00  0.00     0.116 C 
BRANCH   2   3
ATOM      3  N   UNL A   1      32.343  26.695  22.810  1.00  0.00    -0.351 N 
ATOM      4  C   UNL A   1      33.049  25.662  22.238  1.00  0.00     0.269 C 
ATOM      5  O   UNL A   1      33.271  25.798  21.029  1.00  0.00    -0.268 OA
ATOM      6  H   UNL A   1      32.099  27.384  22.151  1.00  0.00     0.163 HD
BRANCH   4   7
ATOM      7  C   UNL A   1      33.566  24.429  22.944  1.00  0.00     0.129 A 
ATOM      8  C   UNL A   1      33.398  22.397  24.216  1.00  0.00     0.012 A 
ATOM      9  C   UNL A   1      34.776  22.252  24.150  1.00  0.00     0.035 A 
ATOM     10  C   UNL A   1      32.787  23.465  23.559  1.00  0.00     0.049 A 
ATOM     11  C   UNL A   1      35.489  23.220  23.476  1.00  0.00     0.113 A 
ATOM     12  N   UNL A   1      34.922  24.300  22.900  1.00  0.00    -0.251 NA
BRANCH   8  13
ATOM     13  S   UNL A   1      32.411  21.205  25.105  1.00  0.00    -0.114 SA
BRANCH  13  14
ATOM     14  C   UNL A   1      33.595  19.805  25.195  1.00  0.00     0.197 C 
BRANCH  14  15
ATOM     15  C   UNL A   1      32.894  18.470  25.082  1.00  0.00     0.316 C 
ATOM     16  O   UNL A   1      31.792  18.327  24.566  1.00  0.00    -0.251 OA
BRANCH  15  17
ATOM     17  O   UNL A   1      33.660  17.478  25.607  1.00  0.00    -0.459 OA
BRANCH  17  18
ATOM     18  C   UNL A   1      33.936  16.261  24.874  1.00  0.00     0.104 C 
ATOM     19  C   UNL A   1      35.329  15.838  25.365  1.00  0.00     0.056 C 
ATOM     20  C   UNL A   1      33.996  16.516  23.366  1.00  0.00     0.056 C 
ATOM     21  C   UNL A   1      32.936  15.156  25.228  1.00  0.00     0.056 C 
ENDBRANCH  17  18
ENDBRANCH  15  17
ENDBRANCH  14  15
ENDBRANCH  13  14
ENDBRANCH   8  13
ENDBRANCH   4   7
ENDBRANCH   2   3
ENDBRANCH   1   2
BRANCH   1  22
ATOM     22  C   UNL A   1      33.225  27.459  26.277  1.00  0.00     0.002 C 
BRANCH  22  23
ATOM     23  C   UNL A   1      33.136  28.502  27.399  1.00  0.00     0.002 C 
BRANCH  23  24
ATOM     24  C   UNL A   1      34.029  29.735  27.230  1.00  0.00     0.021 C 
BRANCH  24  25
ATOM     25  C   UNL A   1      35.425  29.599  27.828  1.00  0.00     0.116 C 
BRANCH  25  26
ATOM     26  N   UNL A   1      35.478  30.097  29.193  1.00  0.00    -0.352 N 
ATOM     27  C   UNL A   1      36.508  30.050  30.097  1.00  0.00     0.251 C 
ATOM     28  H   UNL A   1      34.655  30.531  29.514  1.00  0.00     0.163 HD
ATOM     29  O   UNL A   1      36.297  30.313  31.278  1.00  0.00    -0.269 OA
BRANCH  27  30
ATOM     30  C   UNL A   1      37.865  29.671  29.651  1.00  0.00     0.039 A 
ATOM     31  C   UNL A   1      38.227  29.890  28.319  1.00  0.00     0.014 A 
ATOM     32  C   UNL A   1      38.772  29.081  30.538  1.00  0.00     0.014 A 
ATOM     33  C   UNL A   1      39.515  29.565  27.890  1.00  0.00     0.010 A 
ATOM     34  C   UNL A   1      40.077  28.825  30.127  1.00  0.00     0.010 A 
ATOM     35  C   UNL A   1      40.460  29.056  28.797  1.00  0.00    -0.014 A 
BRANCH  35  36
ATOM     36  C   UNL A   1      41.852  28.759  28.373  1.00  0.00     0.031 A 
ATOM     37  C   UNL A   1      42.236  27.363  27.962  1.00  0.00     0.074 A 
ATOM     38  C   UNL A   1      42.783  29.733  28.417  1.00  0.00     0.049 A 
ATOM     39  N   UNL A   1      43.409  26.897  27.617  1.00  0.00    -0.248 NA
ATOM     40  C   UNL A   1      41.167  26.352  27.967  1.00  0.00     0.031 C 
ATOM     41  C   UNL A   1      42.541  31.113  28.842  1.00  0.00     0.029 A 
ATOM     42  N   UNL A   1      44.120  29.710  28.110  1.00  0.00    -0.354 N 
ATOM     43  C   UNL A   1      43.223  25.541  27.378  1.00  0.00     0.074 A 
ATOM     44  C   UNL A   1      41.837  25.248  27.673  1.00  0.00     0.031 C 
ATOM     45  C   UNL A   1      43.684  31.811  28.743  1.00  0.00     0.029 A 
ATOM     46  C   UNL A   1      44.747  30.920  28.288  1.00  0.00     0.049 A 
ATOM     47  H   UNL A   1      44.586  28.903  27.792  1.00  0.00     0.167 HD
ATOM     48  C   UNL A   1      44.120  24.627  26.934  1.00  0.00     0.037 A 
ATOM     49  C   UNL A   1      46.035  31.273  28.110  1.00  0.00     0.037 A 
ATOM     50  C   UNL A   1      45.493  24.934  26.624  1.00  0.00     0.049 A 
ATOM     51  C   UNL A   1      47.016  30.241  27.623  1.00  0.00     0.074 A 
ATOM     52  C   UNL A   1      46.466  24.097  26.108  1.00  0.00     0.029 A 
ATOM     53  N   UNL A   1      46.089  26.174  26.807  1.00  0.00    -0.354 N 
ATOM     54  N   UNL A   1      46.808  28.977  27.338  1.00  0.00    -0.248 NA
ATOM     55  C   UNL A   1      48.403  30.682  27.427  1.00  0.00     0.031 C 
ATOM     56  C   UNL A   1      47.663  24.815  26.028  1.00  0.00     0.029 A 
ATOM     57  C   UNL A   1      47.424  26.117  26.440  1.00  0.00     0.049 A 
ATOM     58  H   UNL A   1      45.631  26.977  27.148  1.00  0.00     0.167 HD
ATOM     59  C   UNL A   1      48.032  28.479  26.901  1.00  0.00     0.074 A 
ATOM     60  C   UNL A   1      48.970  29.582  26.951  1.00  0.00     0.031 C 
ATOM     61  C   UNL A   1      48.347  27.224  26.494  1.00  0.00     0.037 A 
BRANCH  48  62
ATOM     62  C   UNL A   1      43.645  23.208  26.766  1.00  0.00     0.058 A 
ATOM     63  C   UNL A   1      43.434  22.362  27.867  1.00  0.00     0.135 A 
ATOM     64  C   UNL A   1      43.377  22.693  25.487  1.00  0.00     0.135 A 
ATOM     65  F   UNL A   1      43.685  22.796  29.112  1.00  0.00    -0.206 F 
ATOM     66  C   UNL A   1      43.013  21.046  27.704  1.00  0.00     0.059 A 
ATOM     67  C   UNL A   1      42.925  21.390  25.302  1.00  0.00     0.059 A 
ATOM     68  F   UNL A   1      43.559  23.457  24.398  1.00  0.00    -0.206 F 
ATOM     69  C   UNL A   1      42.765  20.567  26.417  1.00  0.00     0.060 A 
BRANCH  69  70
ATOM     70  S   UNL A   1      42.232  18.854  26.221  1.00  0.00     0.124 S 
ATOM     71  O   UNL A   1      40.870  19.030  25.723  1.00  0.00    -0.237 OA
ATOM     72  O   UNL A   1      43.196  18.335  25.256  1.00  0.00    -0.237 OA
ATOM     73  O   UNL A   1      42.341  18.307  27.569  1.00  0.00    -0.744 OA
ENDBRANCH  69  70
ENDBRANCH  48  62
BRANCH  49  74
ATOM     74  C   UNL A   1      46.461  32.674  28.369  1.00  0.00     0.058 A 
ATOM     75  C   UNL A   1      46.931  33.063  29.632  1.00  0.00     0.135 A 
ATOM     76  C   UNL A   1      46.436  33.644  27.355  1.00  0.00     0.135 A 
ATOM     77  F   UNL A   1      46.968  32.172  30.636  1.00  0.00    -0.206 F 
ATOM     78  C   UNL A   1      47.352  34.364  29.885  1.00  0.00     0.059 A 
ATOM     79  C   UNL A   1      46.876  34.945  27.576  1.00  0.00     0.059 A 
ATOM     80  F   UNL A   1      46.010  33.319  26.123  1.00  0.00    -0.206 F 
ATOM     81  C   UNL A   1      47.326  35.297  28.848  1.00  0.00     0.060 A 
BRANCH  81  82
ATOM     82  S   UNL A   1      47.933  36.967  29.172  1.00  0.00     0.124 S 
ATOM     83  O   UNL A   1      47.519  37.670  27.964  1.00  0.00    -0.237 OA
ATOM     84  O   UNL A   1      47.217  37.320  30.395  1.00  0.00    -0.237 OA
ATOM     85  O   UNL A   1      49.371  36.775  29.331  1.00  0.00    -0.744 OA
ENDBRANCH  81  82
ENDBRANCH  49  74
BRANCH  61  86
ATOM     86  C   UNL A   1      49.759  26.980  26.037  1.00  0.00     0.058 A 
ATOM     87  C   UNL A   1      50.755  26.532  26.919  1.00  0.00     0.135 A 
ATOM     88  C   UNL A   1      50.106  27.144  24.686  1.00  0.00     0.135 A 
ATOM     89  F   UNL A   1      50.478  26.365  28.223  1.00  0.00    -0.206 F 
ATOM     90  C   UNL A   1      52.051  26.278  26.483  1.00  0.00     0.059 A 
ATOM     91  C   UNL A   1      51.388  26.868  24.222  1.00  0.00     0.059 A 
ATOM     92  F   UNL A   1      49.190  27.560  23.799  1.00  0.00    -0.206 F 
ATOM     93  C   UNL A   1      52.358  26.447  25.131  1.00  0.00     0.060 A 
BRANCH  93  94
ATOM     94  S   UNL A   1      54.035  26.079  24.573  1.00  0.00     0.124 S 
ATOM     95  O   UNL A   1      53.939  26.369  23.146  1.00  0.00    -0.237 OA
ATOM     96  O   UNL A   1      54.837  27.013  25.358  1.00  0.00    -0.237 OA
ATOM     97  O   UNL A   1      54.206  24.671  24.918  1.00  0.00    -0.744 OA
ENDBRANCH  93  94
ENDBRANCH  61  86
ENDBRANCH  35  36
ENDBRANCH  27  30
ENDBRANCH  25  26
ENDBRANCH  24  25
ENDBRANCH  23  24
ENDBRANCH  22  23
ENDBRANCH   1  22
TORSDOF 21
ENDMDL
MODEL 3
REMARK VINA RESULT:     -10.5      3.330      9.552
REMARK SMILES CC(C)(C)OC(=O)CSc1ccnc(C(=O)NCCCCCCNC(=O)c2ccc(-c3c4nc(c(-c5c(F)cc(S(=O)(=O)[O-])cc5F)c5ccc([nH]5)c(-c5c(F)cc(S(=O)(=O)[O-])cc5F)c5nc(c(-c6c(F)cc(S(=O)(=O)[O-])cc6F)c6ccc3[nH]6)C=C5)C=C4)cc2)c1
REMARK SMILES IDX 19 1 18 2 17 3 15 4 16 5 14 7 10 8 11 9 93 10 12 11 13 12
REMARK SMILES IDX 9 13 8 14 6 15 7 16 5 17 2 18 1 19 3 20 4 21 20 22 21 23
REMARK SMILES IDX 22 24 23 25 24 26 25 27 26 29 27 30 28 31 92 32 29 33 91 34
REMARK SMILES IDX 30 35 31 36 32 37 85 38 33 39 90 40 84 41 86 42 34 43 89 44
REMARK SMILES IDX 83 45 82 46 35 48 69 49 48 50 68 51 49 52 52 53 67 54 87 55
REMARK SMILES IDX 50 56 51 57 66 59 88 60 53 61 36 62 37 63 46 64 38 65 39 66
REMARK SMILES IDX 45 67 47 68 40 69 41 70 42 71 43 72 44 73 70 74 71 75 80 76
REMARK SMILES IDX 72 77 73 78 79 79 81 80 74 81 75 82 76 83 77 84 78 85 54 86
REMARK SMILES IDX 55 87 64 88 56 89 57 90 63 91 65 92 58 93 59 94 60 95 61 96
REMARK SMILES IDX 62 97
REMARK H PARENT 17 6 24 28 86 47 52 58
REMARK Flexibility Score: inf
ROOT
ATOM      1  C   UNL A   1      31.231  29.254  24.273  1.00  0.00     0.021 C 
ENDROOT
BRANCH   1   2
ATOM      2  C   UNL A   1      31.116  28.857  22.805  1.00  0.00     0.116 C 
BRANCH   2   3
ATOM      3  N   UNL A   1      32.354  28.315  22.279  1.00  0.00    -0.351 N 
ATOM      4  C   UNL A   1      32.937  27.072  22.200  1.00  0.00     0.269 C 
ATOM      5  O   UNL A   1      34.057  27.060  21.675  1.00  0.00    -0.268 OA
ATOM      6  H   UNL A   1      32.918  29.013  21.875  1.00  0.00     0.163 HD
BRANCH   4   7
ATOM      7  C   UNL A   1      32.347  25.771  22.698  1.00  0.00     0.129 A 
ATOM      8  C   UNL A   1      32.392  23.504  23.491  1.00  0.00     0.012 A 
ATOM      9  C   UNL A   1      31.008  23.519  23.588  1.00  0.00     0.035 A 
ATOM     10  C   UNL A   1      33.067  24.659  23.096  1.00  0.00     0.049 A 
ATOM     11  C   UNL A   1      30.356  24.678  23.226  1.00  0.00     0.113 A 
ATOM     12  N   UNL A   1      30.986  25.779  22.769  1.00  0.00    -0.251 NA
BRANCH   8  13
ATOM     13  S   UNL A   1      33.305  22.027  23.906  1.00  0.00    -0.114 SA
BRANCH  13  14
ATOM     14  C   UNL A   1      33.596  22.316  25.695  1.00  0.00     0.197 C 
BRANCH  14  15
ATOM     15  C   UNL A   1      34.870  23.093  25.937  1.00  0.00     0.316 C 
ATOM     16  O   UNL A   1      34.901  24.308  26.093  1.00  0.00    -0.251 OA
BRANCH  15  17
ATOM     17  O   UNL A   1      35.943  22.260  25.975  1.00  0.00    -0.459 OA
BRANCH  17  18
ATOM     18  C   UNL A   1      37.144  22.530  25.213  1.00  0.00     0.104 C 
ATOM     19  C   UNL A   1      37.807  23.695  25.964  1.00  0.00     0.056 C 
ATOM     20  C   UNL A   1      36.814  22.979  23.787  1.00  0.00     0.056 C 
ATOM     21  C   UNL A   1      38.098  21.332  25.229  1.00  0.00     0.056 C 
ENDBRANCH  17  18
ENDBRANCH  15  17
ENDBRANCH  14  15
ENDBRANCH  13  14
ENDBRANCH   8  13
ENDBRANCH   4   7
ENDBRANCH   2   3
ENDBRANCH   1   2
BRANCH   1  22
ATOM     22  C   UNL A   1      30.987  28.111  25.260  1.00  0.00     0.002 C 
BRANCH  22  23
ATOM     23  C   UNL A   1      31.991  28.012  26.417  1.00  0.00     0.002 C 
BRANCH  23  24
ATOM     24  C   UNL A   1      33.369  27.450  26.051  1.00  0.00     0.021 C 
BRANCH  24  25
ATOM     25  C   UNL A   1      34.478  28.491  25.953  1.00  0.00     0.116 C 
BRANCH  25  26
ATOM     26  N   UNL A   1      34.004  29.820  26.306  1.00  0.00    -0.352 N 
ATOM     27  C   UNL A   1      34.414  30.652  27.315  1.00  0.00     0.251 C 
ATOM     28  H   UNL A   1      33.283  30.173  25.735  1.00  0.00     0.163 HD
ATOM     29  O   UNL A   1      33.744  31.639  27.604  1.00  0.00    -0.269 OA
BRANCH  27  30
ATOM     30  C   UNL A   1      35.655  30.352  28.061  1.00  0.00     0.039 A 
ATOM     31  C   UNL A   1      35.574  29.600  29.236  1.00  0.00     0.014 A 
ATOM     32  C   UNL A   1      36.892  30.829  27.616  1.00  0.00     0.014 A 
ATOM     33  C   UNL A   1      36.740  29.283  29.936  1.00  0.00     0.010 A 
ATOM     34  C   UNL A   1      38.059  30.451  28.274  1.00  0.00     0.010 A 
ATOM     35  C   UNL A   1      37.995  29.682  29.445  1.00  0.00    -0.014 A 
BRANCH  35  36
ATOM     36  C   UNL A   1      39.250  29.305  30.144  1.00  0.00     0.031 A 
ATOM     37  C   UNL A   1      39.673  30.038  31.388  1.00  0.00     0.074 A 
ATOM     38  C   UNL A   1      40.037  28.343  29.624  1.00  0.00     0.049 A 
ATOM     39  N   UNL A   1      40.759  29.894  32.103  1.00  0.00    -0.248 NA
ATOM     40  C   UNL A   1      38.771  31.094  31.876  1.00  0.00     0.031 C 
ATOM     41  C   UNL A   1      39.755  27.592  28.398  1.00  0.00     0.029 A 
ATOM     42  N   UNL A   1      41.238  27.837  30.053  1.00  0.00    -0.354 N 
ATOM     43  C   UNL A   1      40.678  30.845  33.112  1.00  0.00     0.074 A 
ATOM     44  C   UNL A   1      39.465  31.599  32.885  1.00  0.00     0.031 C 
ATOM     45  C   UNL A   1      40.741  26.704  28.189  1.00  0.00     0.029 A 
ATOM     46  C   UNL A   1      41.743  26.850  29.240  1.00  0.00     0.049 A 
ATOM     47  H   UNL A   1      41.695  28.152  30.866  1.00  0.00     0.167 HD
ATOM     48  C   UNL A   1      41.527  31.057  34.148  1.00  0.00     0.037 A 
ATOM     49  C   UNL A   1      42.887  26.144  29.328  1.00  0.00     0.037 A 
ATOM     50  C   UNL A   1      42.723  30.287  34.377  1.00  0.00     0.049 A 
ATOM     51  C   UNL A   1      43.819  26.401  30.482  1.00  0.00     0.074 A 
ATOM     52  C   UNL A   1      43.616  30.379  35.430  1.00  0.00     0.029 A 
ATOM     53  N   UNL A   1      43.196  29.287  33.538  1.00  0.00    -0.354 N 
ATOM     54  N   UNL A   1      43.693  27.259  31.466  1.00  0.00    -0.248 NA
ATOM     55  C   UNL A   1      45.042  25.591  30.541  1.00  0.00     0.031 C 
ATOM     56  C   UNL A   1      44.656  29.472  35.200  1.00  0.00     0.029 A 
ATOM     57  C   UNL A   1      44.383  28.774  34.034  1.00  0.00     0.049 A 
ATOM     58  H   UNL A   1      42.752  28.988  32.711  1.00  0.00     0.167 HD
ATOM     59  C   UNL A   1      44.808  27.072  32.278  1.00  0.00     0.074 A 
ATOM     60  C   UNL A   1      45.589  26.012  31.673  1.00  0.00     0.031 C 
ATOM     61  C   UNL A   1      45.150  27.717  33.421  1.00  0.00     0.037 A 
BRANCH  48  62
ATOM     62  C   UNL A   1      41.195  32.171  35.104  1.00  0.00     0.058 A 
ATOM     63  C   UNL A   1      41.737  33.459  34.959  1.00  0.00     0.135 A 
ATOM     64  C   UNL A   1      40.307  31.955  36.171  1.00  0.00     0.135 A 
ATOM     65  F   UNL A   1      42.601  33.721  33.965  1.00  0.00    -0.206 F 
ATOM     66  C   UNL A   1      41.442  34.480  35.856  1.00  0.00     0.059 A 
ATOM     67  C   UNL A   1      39.973  32.969  37.063  1.00  0.00     0.059 A 
ATOM     68  F   UNL A   1      39.757  30.744  36.358  1.00  0.00    -0.206 F 
ATOM     69  C   UNL A   1      40.562  34.224  36.909  1.00  0.00     0.060 A 
BRANCH  69  70
ATOM     70  S   UNL A   1      40.198  35.555  38.073  1.00  0.00     0.124 S 
ATOM     71  O   UNL A   1      38.919  35.116  38.624  1.00  0.00    -0.237 OA
ATOM     72  O   UNL A   1      41.336  35.491  38.985  1.00  0.00    -0.237 OA
ATOM     73  O   UNL A   1      40.142  36.742  37.227  1.00  0.00    -0.744 OA
ENDBRANCH  69  70
ENDBRANCH  48  62
BRANCH  49  74
ATOM     74  C   UNL A   1      43.198  25.109  28.307  1.00  0.00     0.058 A 
ATOM     75  C   UNL A   1      42.904  23.757  28.540  1.00  0.00     0.135 A 
ATOM     76  C   UNL A   1      43.765  25.450  27.069  1.00  0.00     0.135 A 
ATOM     77  F   UNL A   1      42.367  23.380  29.711  1.00  0.00    -0.206 F 
ATOM     78  C   UNL A   1      43.169  22.778  27.588  1.00  0.00     0.059 A 
ATOM     79  C   UNL A   1      44.016  24.493  26.091  1.00  0.00     0.059 A 
ATOM     80  F   UNL A   1      44.050  26.732  26.790  1.00  0.00    -0.206 F 
ATOM     81  C   UNL A   1      43.721  23.158  26.363  1.00  0.00     0.060 A 
BRANCH  81  82
ATOM     82  S   UNL A   1      44.003  21.887  25.111  1.00  0.00     0.124 S 
ATOM     83  O   UNL A   1      42.919  20.954  25.389  1.00  0.00    -0.237 OA
ATOM     84  O   UNL A   1      43.889  22.650  23.871  1.00  0.00    -0.237 OA
ATOM     85  O   UNL A   1      45.347  21.406  25.419  1.00  0.00    -0.744 OA
ENDBRANCH  81  82
ENDBRANCH  49  74
BRANCH  61  86
ATOM     86  C   UNL A   1      46.410  27.275  34.115  1.00  0.00     0.058 A 
ATOM     87  C   UNL A   1      47.648  27.884  33.857  1.00  0.00     0.135 A 
ATOM     88  C   UNL A   1      46.366  26.265  35.090  1.00  0.00     0.135 A 
ATOM     89  F   UNL A   1      47.747  28.850  32.930  1.00  0.00    -0.206 F 
ATOM     90  C   UNL A   1      48.803  27.492  34.526  1.00  0.00     0.059 A 
ATOM     91  C   UNL A   1      47.502  25.877  35.790  1.00  0.00     0.059 A 
ATOM     92  F   UNL A   1      45.205  25.657  35.381  1.00  0.00    -0.206 F 
ATOM     93  C   UNL A   1      48.720  26.487  35.493  1.00  0.00     0.060 A 
BRANCH  93  94
ATOM     94  S   UNL A   1      50.220  26.012  36.377  1.00  0.00     0.124 S 
ATOM     95  O   UNL A   1      50.650  27.291  36.935  1.00  0.00    -0.237 OA
ATOM     96  O   UNL A   1      49.720  25.036  37.340  1.00  0.00    -0.237 OA
ATOM     97  O   UNL A   1      51.075  25.466  35.326  1.00  0.00    -0.744 OA
ENDBRANCH  93  94
ENDBRANCH  61  86
ENDBRANCH  35  36
ENDBRANCH  27  30
ENDBRANCH  25  26
ENDBRANCH  24  25
ENDBRANCH  23  24
ENDBRANCH  22  23
ENDBRANCH   1  22
TORSDOF 21
ENDMDL
