MODEL 1
REMARK VINA RESULT:     -10.7      0.000      0.000
REMARK SMILES O=C(NCCCCCCNC(=O)[C@H]1CCO[C@H]1Cc1ccccc1)c1ccc(-c2c3nc(c(-c4c(F)cc(S(=O)(=O)[O-])cc4F)c4ccc([nH]4)c(-c4c(F)cc(S(=O)(=O)[O-])cc4F)c4nc(c(-c5c(F)cc(S(=O)(=O)[O-])cc5F)c5ccc2[nH]5)C=C4)C=C3)cc1
REMARK SMILES IDX 6 1 5 2 4 3 3 4 1 5 2 6 25 8 26 9 90 10 27 11 89 12 28 13
REMARK SMILES IDX 29 14 30 15 83 16 31 17 88 18 82 19 84 20 32 21 87 22 81 23
REMARK SMILES IDX 80 24 33 26 67 27 46 28 66 29 47 30 50 31 65 32 85 33 48 34
REMARK SMILES IDX 49 35 64 37 86 38 51 39 34 40 35 41 44 42 36 43 37 44 43 45
REMARK SMILES IDX 45 46 38 47 39 48 40 49 41 50 42 51 68 52 69 53 78 54 70 55
REMARK SMILES IDX 71 56 77 57 79 58 72 59 73 60 74 61 75 62 76 63 52 64 53 65
REMARK SMILES IDX 62 66 54 67 55 68 61 69 63 70 56 71 57 72 58 73 59 74 60 75
REMARK SMILES IDX 7 76 8 77 9 78 10 79 11 80 12 82 13 83 14 84 17 85 15 86
REMARK SMILES IDX 16 87 18 88 19 89 20 90 24 91 21 92 23 93 22 94
REMARK H PARENT 3 7 84 25 50 36 10 81
REMARK Flexibility Score: inf
ROOT
ATOM      1  C   UNL A   1      41.575  20.806  26.515  1.00  0.00     0.002 C 
ENDROOT
BRANCH   1   2
ATOM      2  C   UNL A   1      40.815  21.573  27.598  1.00  0.00     0.021 C 
BRANCH   2   3
ATOM      3  C   UNL A   1      40.483  23.018  27.247  1.00  0.00     0.116 C 
BRANCH   3   4
ATOM      4  N   UNL A   1      41.402  23.573  26.270  1.00  0.00    -0.352 N 
ATOM      5  O   UNL A   1      42.580  25.194  25.234  1.00  0.00    -0.269 OA
ATOM      6  C   UNL A   1      41.953  24.829  26.228  1.00  0.00     0.251 C 
ATOM      7  H   UNL A   1      41.665  22.968  25.540  1.00  0.00     0.163 HD
BRANCH   6   8
ATOM      8  C   UNL A   1      41.768  25.750  27.370  1.00  0.00     0.039 A 
ATOM      9  C   UNL A   1      40.674  25.611  28.230  1.00  0.00     0.014 A 
ATOM     10  C   UNL A   1      42.704  26.765  27.580  1.00  0.00     0.014 A 
ATOM     11  C   UNL A   1      40.455  26.555  29.230  1.00  0.00     0.010 A 
ATOM     12  C   UNL A   1      42.519  27.671  28.627  1.00  0.00     0.010 A 
ATOM     13  C   UNL A   1      41.381  27.589  29.444  1.00  0.00    -0.014 A 
BRANCH  13  14
ATOM     14  C   UNL A   1      41.179  28.544  30.561  1.00  0.00     0.031 A 
ATOM     15  C   UNL A   1      42.044  28.491  31.789  1.00  0.00     0.074 A 
ATOM     16  C   UNL A   1      40.194  29.459  30.465  1.00  0.00     0.049 A 
ATOM     17  N   UNL A   1      41.973  29.213  32.878  1.00  0.00    -0.248 NA
ATOM     18  C   UNL A   1      43.123  27.492  31.800  1.00  0.00     0.031 C 
ATOM     19  C   UNL A   1      39.287  29.600  29.324  1.00  0.00     0.029 A 
ATOM     20  N   UNL A   1      39.790  30.438  31.334  1.00  0.00    -0.354 N 
ATOM     21  C   UNL A   1      42.981  28.744  33.714  1.00  0.00     0.074 A 
ATOM     22  C   UNL A   1      43.637  27.661  33.011  1.00  0.00     0.031 C 
ATOM     23  C   UNL A   1      38.446  30.619  29.555  1.00  0.00     0.029 A 
ATOM     24  C   UNL A   1      38.717  31.167  30.878  1.00  0.00     0.049 A 
ATOM     25  H   UNL A   1      40.226  30.603  32.202  1.00  0.00     0.167 HD
ATOM     26  C   UNL A   1      43.325  29.181  34.950  1.00  0.00     0.037 A 
ATOM     27  C   UNL A   1      38.013  32.151  31.469  1.00  0.00     0.037 A 
ATOM     28  C   UNL A   1      42.671  30.266  35.635  1.00  0.00     0.049 A 
ATOM     29  C   UNL A   1      38.403  32.607  32.844  1.00  0.00     0.074 A 
ATOM     30  C   UNL A   1      42.966  30.803  36.878  1.00  0.00     0.029 A 
ATOM     31  N   UNL A   1      41.588  30.979  35.141  1.00  0.00    -0.354 N 
ATOM     32  N   UNL A   1      39.374  32.168  33.610  1.00  0.00    -0.248 NA
ATOM     33  C   UNL A   1      37.607  33.689  33.436  1.00  0.00     0.031 C 
ATOM     34  C   UNL A   1      42.039  31.816  37.149  1.00  0.00     0.029 A 
ATOM     35  C   UNL A   1      41.192  31.939  36.058  1.00  0.00     0.049 A 
ATOM     36  H   UNL A   1      41.163  30.825  34.267  1.00  0.00     0.167 HD
ATOM     37  C   UNL A   1      39.317  32.932  34.769  1.00  0.00     0.074 A 
ATOM     38  C   UNL A   1      38.222  33.866  34.600  1.00  0.00     0.031 C 
ATOM     39  C   UNL A   1      40.102  32.865  35.872  1.00  0.00     0.037 A 
BRANCH  26  40
ATOM     40  C   UNL A   1      44.448  28.465  35.650  1.00  0.00     0.058 A 
ATOM     41  C   UNL A   1      44.217  27.344  36.462  1.00  0.00     0.135 A 
ATOM     42  C   UNL A   1      45.776  28.896  35.492  1.00  0.00     0.135 A 
ATOM     43  F   UNL A   1      42.966  26.899  36.659  1.00  0.00    -0.206 F 
ATOM     44  C   UNL A   1      45.257  26.698  37.123  1.00  0.00     0.059 A 
ATOM     45  C   UNL A   1      46.834  28.250  36.124  1.00  0.00     0.059 A 
ATOM     46  F   UNL A   1      46.054  29.960  34.723  1.00  0.00    -0.206 F 
ATOM     47  C   UNL A   1      46.562  27.163  36.954  1.00  0.00     0.060 A 
BRANCH  47  48
ATOM     48  S   UNL A   1      47.899  26.333  37.838  1.00  0.00     0.124 S 
ATOM     49  O   UNL A   1      47.355  26.270  39.191  1.00  0.00    -0.237 OA
ATOM     50  O   UNL A   1      47.995  25.056  37.137  1.00  0.00    -0.237 OA
ATOM     51  O   UNL A   1      49.036  27.230  37.658  1.00  0.00    -0.744 OA
ENDBRANCH  47  48
ENDBRANCH  26  40
BRANCH  27  52
ATOM     52  C   UNL A   1      36.868  32.758  30.744  1.00  0.00     0.058 A 
ATOM     53  C   UNL A   1      35.551  32.377  31.031  1.00  0.00     0.135 A 
ATOM     54  C   UNL A   1      37.067  33.778  29.801  1.00  0.00     0.135 A 
ATOM     55  F   UNL A   1      35.313  31.403  31.924  1.00  0.00    -0.206 F 
ATOM     56  C   UNL A   1      34.466  32.987  30.410  1.00  0.00     0.059 A 
ATOM     57  C   UNL A   1      35.999  34.418  29.184  1.00  0.00     0.059 A 
ATOM     58  F   UNL A   1      38.311  34.190  29.508  1.00  0.00    -0.206 F 
ATOM     59  C   UNL A   1      34.701  34.013  29.492  1.00  0.00     0.060 A 
BRANCH  59  60
ATOM     60  S   UNL A   1      33.286  34.859  28.756  1.00  0.00     0.124 S 
ATOM     61  O   UNL A   1      32.480  35.158  29.934  1.00  0.00    -0.237 OA
ATOM     62  O   UNL A   1      33.916  36.004  28.105  1.00  0.00    -0.237 OA
ATOM     63  O   UNL A   1      32.734  33.859  27.848  1.00  0.00    -0.744 OA
ENDBRANCH  59  60
ENDBRANCH  27  52
BRANCH  39  64
ATOM     64  C   UNL A   1      39.826  33.849  36.972  1.00  0.00     0.058 A 
ATOM     65  C   UNL A   1      39.005  33.525  38.062  1.00  0.00     0.135 A 
ATOM     66  C   UNL A   1      40.435  35.114  36.960  1.00  0.00     0.135 A 
ATOM     67  F   UNL A   1      38.393  32.331  38.115  1.00  0.00    -0.206 F 
ATOM     68  C   UNL A   1      38.785  34.427  39.097  1.00  0.00     0.059 A 
ATOM     69  C   UNL A   1      40.246  36.024  37.995  1.00  0.00     0.059 A 
ATOM     70  F   UNL A   1      41.236  35.470  35.941  1.00  0.00    -0.206 F 
ATOM     71  C   UNL A   1      39.411  35.674  39.056  1.00  0.00     0.060 A 
BRANCH  71  72
ATOM     72  S   UNL A   1      39.155  36.822  40.425  1.00  0.00     0.124 S 
ATOM     73  O   UNL A   1      40.520  37.021  40.901  1.00  0.00    -0.237 OA
ATOM     74  O   UNL A   1      38.540  37.969  39.764  1.00  0.00    -0.237 OA
ATOM     75  O   UNL A   1      38.277  36.083  41.327  1.00  0.00    -0.744 OA
ENDBRANCH  71  72
ENDBRANCH  39  64
ENDBRANCH  13  14
ENDBRANCH   6   8
ENDBRANCH   3   4
ENDBRANCH   2   3
ENDBRANCH   1   2
BRANCH   1  76
ATOM     76  C   UNL A   1      42.309  19.552  26.997  1.00  0.00     0.002 C 
BRANCH  76  77
ATOM     77  C   UNL A   1      42.616  18.509  25.914  1.00  0.00     0.021 C 
BRANCH  77  78
ATOM     78  C   UNL A   1      43.829  18.829  25.035  1.00  0.00     0.116 C 
BRANCH  78  79
ATOM     79  N   UNL A   1      44.986  19.124  25.854  1.00  0.00    -0.356 N 
ATOM     80  C   UNL A   1      46.082  19.776  25.370  1.00  0.00     0.225 C 
ATOM     81  H   UNL A   1      44.982  18.844  26.797  1.00  0.00     0.163 HD
ATOM     82  O   UNL A   1      47.156  19.178  25.374  1.00  0.00    -0.275 OA
BRANCH  80  83
ATOM     83  C   UNL A   1      45.909  21.134  24.729  1.00  0.00     0.110 C 
ATOM     84  C   UNL A   1      44.675  21.402  23.893  1.00  0.00     0.044 C 
ATOM     85  C   UNL A   1      45.838  22.290  25.734  1.00  0.00     0.135 C 
ATOM     86  C   UNL A   1      44.716  22.913  23.770  1.00  0.00     0.161 C 
ATOM     87  O   UNL A   1      45.421  23.420  24.916  1.00  0.00    -0.377 OA
BRANCH  85  88
ATOM     88  C   UNL A   1      44.798  22.212  26.883  1.00  0.00     0.068 C 
BRANCH  88  89
ATOM     89  C   UNL A   1      44.865  23.275  27.949  1.00  0.00    -0.045 A 
ATOM     90  C   UNL A   1      43.914  23.308  28.979  1.00  0.00     0.004 A 
ATOM     91  C   UNL A   1      45.896  24.225  27.950  1.00  0.00     0.004 A 
ATOM     92  C   UNL A   1      44.020  24.240  30.013  1.00  0.00     0.000 A 
ATOM     93  C   UNL A   1      46.005  25.150  28.989  1.00  0.00     0.000 A 
ATOM     94  C   UNL A   1      45.072  25.154  30.023  1.00  0.00     0.000 A 
ENDBRANCH  88  89
ENDBRANCH  85  88
ENDBRANCH  80  83
ENDBRANCH  78  79
ENDBRANCH  77  78
ENDBRANCH  76  77
ENDBRANCH   1  76
TORSDOF 18
ENDMDL
MODEL 2
REMARK VINA RESULT:     -10.4      6.847     13.049
REMARK SMILES O=C(NCCCCCCNC(=O)[C@H]1CCO[C@H]1Cc1ccccc1)c1ccc(-c2c3nc(c(-c4c(F)cc(S(=O)(=O)[O-])cc4F)c4ccc([nH]4)c(-c4c(F)cc(S(=O)(=O)[O-])cc4F)c4nc(c(-c5c(F)cc(S(=O)(=O)[O-])cc5F)c5ccc2[nH]5)C=C4)C=C3)cc1
REMARK SMILES IDX 6 1 5 2 4 3 3 4 1 5 2 6 25 8 26 9 90 10 27 11 89 12 28 13
REMARK SMILES IDX 29 14 30 15 83 16 31 17 88 18 82 19 84 20 32 21 87 22 81 23
REMARK SMILES IDX 80 24 33 26 67 27 46 28 66 29 47 30 50 31 65 32 85 33 48 34
REMARK SMILES IDX 49 35 64 37 86 38 51 39 34 40 35 41 44 42 36 43 37 44 43 45
REMARK SMILES IDX 45 46 38 47 39 48 40 49 41 50 42 51 68 52 69 53 78 54 70 55
REMARK SMILES IDX 71 56 77 57 79 58 72 59 73 60 74 61 75 62 76 63 52 64 53 65
REMARK SMILES IDX 62 66 54 67 55 68 61 69 63 70 56 71 57 72 58 73 59 74 60 75
REMARK SMILES IDX 7 76 8 77 9 78 10 79 11 80 12 82 13 83 14 84 17 85 15 86
REMARK SMILES IDX 16 87 18 88 19 89 20 90 24 91 21 92 23 93 22 94
REMARK H PARENT 3 7 84 25 50 36 10 81
REMARK Flexibility Score: inf
ROOT
ATOM      1  C   UNL A   1      33.368  27.813  26.513  1.00  0.00     0.002 C 
ENDROOT
BRANCH   1   2
ATOM      2  C   UNL A   1      33.855  29.227  26.832  1.00  0.00     0.021 C 
BRANCH   2   3
ATOM      3  C   UNL A   1      35.185  29.294  27.573  1.00  0.00     0.116 C 
BRANCH   3   4
ATOM      4  N   UNL A   1      35.122  30.150  28.744  1.00  0.00    -0.352 N 
ATOM      5  O   UNL A   1      35.846  31.056  30.679  1.00  0.00    -0.269 OA
ATOM      6  C   UNL A   1      36.114  30.447  29.644  1.00  0.00     0.251 C 
ATOM      7  H   UNL A   1      34.250  30.573  28.916  1.00  0.00     0.163 HD
BRANCH   6   8
ATOM      8  C   UNL A   1      37.501  30.011  29.376  1.00  0.00     0.039 A 
ATOM      9  C   UNL A   1      38.326  29.571  30.416  1.00  0.00     0.014 A 
ATOM     10  C   UNL A   1      37.980  30.045  28.063  1.00  0.00     0.014 A 
ATOM     11  C   UNL A   1      39.663  29.275  30.161  1.00  0.00     0.010 A 
ATOM     12  C   UNL A   1      39.302  29.680  27.800  1.00  0.00     0.010 A 
ATOM     13  C   UNL A   1      40.161  29.316  28.848  1.00  0.00    -0.014 A 
BRANCH  13  14
ATOM     14  C   UNL A   1      41.565  28.923  28.576  1.00  0.00     0.031 A 
ATOM     15  C   UNL A   1      42.678  29.931  28.653  1.00  0.00     0.074 A 
ATOM     16  C   UNL A   1      41.830  27.645  28.242  1.00  0.00     0.049 A 
ATOM     17  N   UNL A   1      43.952  29.772  28.397  1.00  0.00    -0.248 NA
ATOM     18  C   UNL A   1      42.314  31.295  29.064  1.00  0.00     0.031 C 
ATOM     19  C   UNL A   1      40.830  26.581  28.128  1.00  0.00     0.029 A 
ATOM     20  N   UNL A   1      43.012  27.023  27.938  1.00  0.00    -0.354 N 
ATOM     21  C   UNL A   1      44.538  31.017  28.592  1.00  0.00     0.074 A 
ATOM     22  C   UNL A   1      43.476  31.926  28.971  1.00  0.00     0.031 C 
ATOM     23  C   UNL A   1      41.442  25.435  27.799  1.00  0.00     0.029 A 
ATOM     24  C   UNL A   1      42.867  25.693  27.625  1.00  0.00     0.049 A 
ATOM     25  H   UNL A   1      43.882  27.485  27.943  1.00  0.00     0.167 HD
ATOM     26  C   UNL A   1      45.843  31.366  28.469  1.00  0.00     0.037 A 
ATOM     27  C   UNL A   1      43.775  24.784  27.219  1.00  0.00     0.037 A 
ATOM     28  C   UNL A   1      46.893  30.451  28.100  1.00  0.00     0.049 A 
ATOM     29  C   UNL A   1      45.209  25.197  27.075  1.00  0.00     0.074 A 
ATOM     30  C   UNL A   1      48.249  30.700  27.978  1.00  0.00     0.029 A 
ATOM     31  N   UNL A   1      46.706  29.111  27.791  1.00  0.00    -0.354 N 
ATOM     32  N   UNL A   1      45.751  26.373  27.287  1.00  0.00    -0.248 NA
ATOM     33  C   UNL A   1      46.158  24.165  26.639  1.00  0.00     0.031 C 
ATOM     34  C   UNL A   1      48.876  29.521  27.560  1.00  0.00     0.029 A 
ATOM     35  C   UNL A   1      47.917  28.525  27.462  1.00  0.00     0.049 A 
ATOM     36  H   UNL A   1      45.838  28.646  27.803  1.00  0.00     0.167 HD
ATOM     37  C   UNL A   1      47.107  26.219  27.026  1.00  0.00     0.074 A 
ATOM     38  C   UNL A   1      47.304  24.834  26.649  1.00  0.00     0.031 C 
ATOM     39  C   UNL A   1      48.096  27.142  27.094  1.00  0.00     0.037 A 
BRANCH  26  40
ATOM     40  C   UNL A   1      46.201  32.806  28.713  1.00  0.00     0.058 A 
ATOM     41  C   UNL A   1      46.552  33.274  29.989  1.00  0.00     0.135 A 
ATOM     42  C   UNL A   1      46.209  33.728  27.653  1.00  0.00     0.135 A 
ATOM     43  F   UNL A   1      46.547  32.440  31.040  1.00  0.00    -0.206 F 
ATOM     44  C   UNL A   1      46.864  34.612  30.212  1.00  0.00     0.059 A 
ATOM     45  C   UNL A   1      46.540  35.065  27.849  1.00  0.00     0.059 A 
ATOM     46  F   UNL A   1      45.884  33.333  26.412  1.00  0.00    -0.206 F 
ATOM     47  C   UNL A   1      46.847  35.502  29.137  1.00  0.00     0.060 A 
BRANCH  47  48
ATOM     48  S   UNL A   1      47.227  37.240  29.445  1.00  0.00     0.124 S 
ATOM     49  O   UNL A   1      46.208  37.905  28.639  1.00  0.00    -0.237 OA
ATOM     50  O   UNL A   1      47.057  37.348  30.891  1.00  0.00    -0.237 OA
ATOM     51  O   UNL A   1      48.599  37.379  28.967  1.00  0.00    -0.744 OA
ENDBRANCH  47  48
ENDBRANCH  26  40
BRANCH  27  52
ATOM     52  C   UNL A   1      43.331  23.398  26.924  1.00  0.00     0.058 A 
ATOM     53  C   UNL A   1      43.220  22.944  25.603  1.00  0.00     0.135 A 
ATOM     54  C   UNL A   1      43.075  22.485  27.958  1.00  0.00     0.135 A 
ATOM     55  F   UNL A   1      43.452  23.784  24.582  1.00  0.00    -0.206 F 
ATOM     56  C   UNL A   1      42.873  21.628  25.315  1.00  0.00     0.059 A 
ATOM     57  C   UNL A   1      42.749  21.159  27.695  1.00  0.00     0.059 A 
ATOM     58  F   UNL A   1      43.188  22.869  29.239  1.00  0.00    -0.206 F 
ATOM     59  C   UNL A   1      42.647  20.740  26.370  1.00  0.00     0.060 A 
BRANCH  59  60
ATOM     60  S   UNL A   1      42.283  19.014  25.987  1.00  0.00     0.124 S 
ATOM     61  O   UNL A   1      43.147  18.782  24.835  1.00  0.00    -0.237 OA
ATOM     62  O   UNL A   1      42.669  18.337  27.221  1.00  0.00    -0.237 OA
ATOM     63  O   UNL A   1      40.850  19.027  25.710  1.00  0.00    -0.744 OA
ENDBRANCH  59  60
ENDBRANCH  27  52
BRANCH  39  64
ATOM     64  C   UNL A   1      49.491  26.678  26.784  1.00  0.00     0.058 A 
ATOM     65  C   UNL A   1      50.361  26.236  27.792  1.00  0.00     0.135 A 
ATOM     66  C   UNL A   1      49.942  26.625  25.456  1.00  0.00     0.135 A 
ATOM     67  F   UNL A   1      49.979  26.276  29.078  1.00  0.00    -0.206 F 
ATOM     68  C   UNL A   1      51.637  25.771  27.495  1.00  0.00     0.059 A 
ATOM     69  C   UNL A   1      51.206  26.143  25.134  1.00  0.00     0.059 A 
ATOM     70  F   UNL A   1      49.144  27.030  24.454  1.00  0.00    -0.206 F 
ATOM     71  C   UNL A   1      52.051  25.727  26.162  1.00  0.00     0.060 A 
BRANCH  71  72
ATOM     72  S   UNL A   1      53.693  25.080  25.783  1.00  0.00     0.124 S 
ATOM     73  O   UNL A   1      54.365  25.213  27.071  1.00  0.00    -0.237 OA
ATOM     74  O   UNL A   1      53.403  23.715  25.356  1.00  0.00    -0.237 OA
ATOM     75  O   UNL A   1      54.173  25.970  24.729  1.00  0.00    -0.744 OA
ENDBRANCH  71  72
ENDBRANCH  39  64
ENDBRANCH  13  14
ENDBRANCH   6   8
ENDBRANCH   3   4
ENDBRANCH   2   3
ENDBRANCH   1   2
BRANCH   1  76
ATOM     76  C   UNL A   1      31.882  27.559  26.786  1.00  0.00     0.002 C 
BRANCH  76  77
ATOM     77  C   UNL A   1      31.098  26.927  25.628  1.00  0.00     0.021 C 
BRANCH  77  78
ATOM     78  C   UNL A   1      30.565  25.517  25.903  1.00  0.00     0.116 C 
BRANCH  78  79
ATOM     79  N   UNL A   1      31.443  24.811  26.812  1.00  0.00    -0.356 N 
ATOM     80  C   UNL A   1      32.144  23.701  26.444  1.00  0.00     0.225 C 
ATOM     81  H   UNL A   1      31.538  25.145  27.733  1.00  0.00     0.163 HD
ATOM     82  O   UNL A   1      31.906  22.648  27.032  1.00  0.00    -0.275 OA
BRANCH  80  83
ATOM     83  C   UNL A   1      33.070  23.775  25.252  1.00  0.00     0.110 C 
ATOM     84  C   UNL A   1      34.524  24.139  25.470  1.00  0.00     0.044 C 
ATOM     85  C   UNL A   1      33.211  22.451  24.491  1.00  0.00     0.135 C 
ATOM     86  C   UNL A   1      35.137  23.744  24.141  1.00  0.00     0.161 C 
ATOM     87  O   UNL A   1      34.318  22.705  23.580  1.00  0.00    -0.377 OA
BRANCH  85  88
ATOM     88  C   UNL A   1      33.617  21.180  25.283  1.00  0.00     0.068 C 
BRANCH  88  89
ATOM     89  C   UNL A   1      33.578  19.866  24.548  1.00  0.00    -0.045 A 
ATOM     90  C   UNL A   1      34.625  18.943  24.687  1.00  0.00     0.004 A 
ATOM     91  C   UNL A   1      32.483  19.529  23.741  1.00  0.00     0.004 A 
ATOM     92  C   UNL A   1      34.555  17.691  24.073  1.00  0.00     0.000 A 
ATOM     93  C   UNL A   1      32.410  18.274  23.133  1.00  0.00     0.000 A 
ATOM     94  C   UNL A   1      33.442  17.353  23.304  1.00  0.00     0.000 A 
ENDBRANCH  88  89
ENDBRANCH  85  88
ENDBRANCH  80  83
ENDBRANCH  78  79
ENDBRANCH  77  78
ENDBRANCH  76  77
ENDBRANCH   1  76
TORSDOF 18
ENDMDL
MODEL 3
REMARK VINA RESULT:     -10.4      5.735     11.508
REMARK SMILES O=C(NCCCCCCNC(=O)[C@H]1CCO[C@H]1Cc1ccccc1)c1ccc(-c2c3nc(c(-c4c(F)cc(S(=O)(=O)[O-])cc4F)c4ccc([nH]4)c(-c4c(F)cc(S(=O)(=O)[O-])cc4F)c4nc(c(-c5c(F)cc(S(=O)(=O)[O-])cc5F)c5ccc2[nH]5)C=C4)C=C3)cc1
REMARK SMILES IDX 6 1 5 2 4 3 3 4 1 5 2 6 25 8 26 9 90 10 27 11 89 12 28 13
REMARK SMILES IDX 29 14 30 15 83 16 31 17 88 18 82 19 84 20 32 21 87 22 81 23
REMARK SMILES IDX 80 24 33 26 67 27 46 28 66 29 47 30 50 31 65 32 85 33 48 34
REMARK SMILES IDX 49 35 64 37 86 38 51 39 34 40 35 41 44 42 36 43 37 44 43 45
REMARK SMILES IDX 45 46 38 47 39 48 40 49 41 50 42 51 68 52 69 53 78 54 70 55
REMARK SMILES IDX 71 56 77 57 79 58 72 59 73 60 74 61 75 62 76 63 52 64 53 65
REMARK SMILES IDX 62 66 54 67 55 68 61 69 63 70 56 71 57 72 58 73 59 74 60 75
REMARK SMILES IDX 7 76 8 77 9 78 10 79 11 80 12 82 13 83 14 84 17 85 15 86
REMARK SMILES IDX 16 87 18 88 19 89 20 90 24 91 21 92 23 93 22 94
REMARK H PARENT 3 7 84 25 50 36 10 81
REMARK Flexibility Score: inf
ROOT
ATOM      1  C   UNL A   1      32.533  29.020  24.631  1.00  0.00     0.002 C 
ENDROOT
BRANCH   1   2
ATOM      2  C   UNL A   1      33.541  27.969  25.100  1.00  0.00     0.021 C 
BRANCH   2   3
ATOM      3  C   UNL A   1      34.121  28.214  26.488  1.00  0.00     0.116 C 
BRANCH   3   4
ATOM      4  N   UNL A   1      33.725  29.499  27.034  1.00  0.00    -0.352 N 
ATOM      5  O   UNL A   1      33.876  31.306  28.376  1.00  0.00    -0.269 OA
ATOM      6  C   UNL A   1      34.428  30.330  27.869  1.00  0.00     0.251 C 
ATOM      7  H   UNL A   1      32.832  29.818  26.769  1.00  0.00     0.163 HD
BRANCH   6   8
ATOM      8  C   UNL A   1      35.843  30.033  28.177  1.00  0.00     0.039 A 
ATOM      9  C   UNL A   1      36.834  30.181  27.201  1.00  0.00     0.014 A 
ATOM     10  C   UNL A   1      36.180  29.600  29.462  1.00  0.00     0.014 A 
ATOM     11  C   UNL A   1      38.141  29.786  27.476  1.00  0.00     0.010 A 
ATOM     12  C   UNL A   1      37.506  29.271  29.756  1.00  0.00     0.010 A 
ATOM     13  C   UNL A   1      38.491  29.337  28.760  1.00  0.00    -0.014 A 
BRANCH  13  14
ATOM     14  C   UNL A   1      39.902  28.993  29.065  1.00  0.00     0.031 A 
ATOM     15  C   UNL A   1      40.822  29.999  29.699  1.00  0.00     0.074 A 
ATOM     16  C   UNL A   1      40.354  27.763  28.752  1.00  0.00     0.049 A 
ATOM     17  N   UNL A   1      42.094  29.885  29.986  1.00  0.00    -0.248 NA
ATOM     18  C   UNL A   1      40.242  31.304  30.048  1.00  0.00     0.031 C 
ATOM     19  C   UNL A   1      39.554  26.707  28.127  1.00  0.00     0.029 A 
ATOM     20  N   UNL A   1      41.589  27.193  28.914  1.00  0.00    -0.354 N 
ATOM     21  C   UNL A   1      42.474  31.107  30.528  1.00  0.00     0.074 A 
ATOM     22  C   UNL A   1      41.301  31.955  30.512  1.00  0.00     0.031 C 
ATOM     23  C   UNL A   1      40.313  25.612  27.976  1.00  0.00     0.029 A 
ATOM     24  C   UNL A   1      41.664  25.904  28.442  1.00  0.00     0.049 A 
ATOM     25  H   UNL A   1      42.350  27.662  29.327  1.00  0.00     0.167 HD
ATOM     26  C   UNL A   1      43.689  31.482  30.998  1.00  0.00     0.037 A 
ATOM     27  C   UNL A   1      42.708  25.057  28.369  1.00  0.00     0.037 A 
ATOM     28  C   UNL A   1      44.848  30.626  31.018  1.00  0.00     0.049 A 
ATOM     29  C   UNL A   1      44.047  25.500  28.881  1.00  0.00     0.074 A 
ATOM     30  C   UNL A   1      46.116  30.904  31.500  1.00  0.00     0.029 A 
ATOM     31  N   UNL A   1      44.883  29.327  30.531  1.00  0.00    -0.354 N 
ATOM     32  N   UNL A   1      44.383  26.651  29.412  1.00  0.00    -0.248 NA
ATOM     33  C   UNL A   1      45.148  24.534  28.785  1.00  0.00     0.031 C 
ATOM     34  C   UNL A   1      46.926  29.786  31.273  1.00  0.00     0.029 A 
ATOM     35  C   UNL A   1      46.153  28.796  30.686  1.00  0.00     0.049 A 
ATOM     36  H   UNL A   1      44.118  28.853  30.133  1.00  0.00     0.167 HD
ATOM     37  C   UNL A   1      45.731  26.544  29.730  1.00  0.00     0.074 A 
ATOM     38  C   UNL A   1      46.146  25.211  29.340  1.00  0.00     0.031 C 
ATOM     39  C   UNL A   1      46.548  27.464  30.296  1.00  0.00     0.037 A 
BRANCH  26  40
ATOM     40  C   UNL A   1      43.831  32.891  31.507  1.00  0.00     0.058 A 
ATOM     41  C   UNL A   1      44.164  33.954  30.653  1.00  0.00     0.135 A 
ATOM     42  C   UNL A   1      43.614  33.184  32.863  1.00  0.00     0.135 A 
ATOM     43  F   UNL A   1      44.397  33.729  29.351  1.00  0.00    -0.206 F 
ATOM     44  C   UNL A   1      44.313  35.252  31.133  1.00  0.00     0.059 A 
ATOM     45  C   UNL A   1      43.733  34.478  33.360  1.00  0.00     0.059 A 
ATOM     46  F   UNL A   1      43.289  32.205  33.722  1.00  0.00    -0.206 F 
ATOM     47  C   UNL A   1      44.103  35.503  32.490  1.00  0.00     0.060 A 
BRANCH  47  48
ATOM     48  S   UNL A   1      44.327  37.186  33.104  1.00  0.00     0.124 S 
ATOM     49  O   UNL A   1      43.014  37.459  33.683  1.00  0.00    -0.237 OA
ATOM     50  O   UNL A   1      45.418  37.030  34.061  1.00  0.00    -0.237 OA
ATOM     51  O   UNL A   1      44.655  37.946  31.902  1.00  0.00    -0.744 OA
ENDBRANCH  47  48
ENDBRANCH  26  40
BRANCH  27  52
ATOM     52  C   UNL A   1      42.507  23.707  27.784  1.00  0.00     0.058 A 
ATOM     53  C   UNL A   1      42.574  23.507  26.398  1.00  0.00     0.135 A 
ATOM     54  C   UNL A   1      42.313  22.585  28.602  1.00  0.00     0.135 A 
ATOM     55  F   UNL A   1      42.755  24.552  25.576  1.00  0.00    -0.206 F 
ATOM     56  C   UNL A   1      42.456  22.238  25.842  1.00  0.00     0.059 A 
ATOM     57  C   UNL A   1      42.216  21.303  28.072  1.00  0.00     0.059 A 
ATOM     58  F   UNL A   1      42.262  22.725  29.936  1.00  0.00    -0.206 F 
ATOM     59  C   UNL A   1      42.285  21.140  26.689  1.00  0.00     0.060 A 
BRANCH  59  60
ATOM     60  S   UNL A   1      42.222  19.487  25.965  1.00  0.00     0.124 S 
ATOM     61  O   UNL A   1      42.711  18.667  27.067  1.00  0.00    -0.237 OA
ATOM     62  O   UNL A   1      40.805  19.345  25.644  1.00  0.00    -0.237 OA
ATOM     63  O   UNL A   1      43.110  19.593  24.812  1.00  0.00    -0.744 OA
ENDBRANCH  59  60
ENDBRANCH  27  52
BRANCH  39  64
ATOM     64  C   UNL A   1      47.969  27.054  30.557  1.00  0.00     0.058 A 
ATOM     65  C   UNL A   1      48.985  27.278  29.615  1.00  0.00     0.135 A 
ATOM     66  C   UNL A   1      48.326  26.477  31.786  1.00  0.00     0.135 A 
ATOM     67  F   UNL A   1      48.693  27.819  28.422  1.00  0.00    -0.206 F 
ATOM     68  C   UNL A   1      50.306  26.931  29.878  1.00  0.00     0.059 A 
ATOM     69  C   UNL A   1      49.644  26.143  32.078  1.00  0.00     0.059 A 
ATOM     70  F   UNL A   1      47.391  26.249  32.723  1.00  0.00    -0.206 F 
ATOM     71  C   UNL A   1      50.627  26.365  31.114  1.00  0.00     0.060 A 
BRANCH  71  72
ATOM     72  S   UNL A   1      52.350  25.959  31.463  1.00  0.00     0.124 S 
ATOM     73  O   UNL A   1      52.237  24.584  31.940  1.00  0.00    -0.237 OA
ATOM     74  O   UNL A   1      52.984  26.127  30.159  1.00  0.00    -0.237 OA
ATOM     75  O   UNL A   1      52.734  26.943  32.470  1.00  0.00    -0.744 OA
ENDBRANCH  71  72
ENDBRANCH  39  64
ENDBRANCH  13  14
ENDBRANCH   6   8
ENDBRANCH   3   4
ENDBRANCH   2   3
ENDBRANCH   1   2
BRANCH   1  76
ATOM     76  C   UNL A   1      31.229  28.460  24.055  1.00  0.00     0.002 C 
BRANCH  76  77
ATOM     77  C   UNL A   1      31.255  28.137  22.555  1.00  0.00     0.021 C 
BRANCH  77  78
ATOM     78  C   UNL A   1      30.784  26.725  22.192  1.00  0.00     0.116 C 
BRANCH  78  79
ATOM     79  N   UNL A   1      31.858  25.972  21.579  1.00  0.00    -0.356 N 
ATOM     80  C   UNL A   1      32.917  25.491  22.289  1.00  0.00     0.225 C 
ATOM     81  H   UNL A   1      31.820  25.800  20.611  1.00  0.00     0.163 HD
ATOM     82  O   UNL A   1      34.039  25.904  22.001  1.00  0.00    -0.275 OA
BRANCH  80  83
ATOM     83  C   UNL A   1      32.662  24.590  23.475  1.00  0.00     0.110 C 
ATOM     84  C   UNL A   1      32.060  23.220  23.244  1.00  0.00     0.044 C 
ATOM     85  C   UNL A   1      33.928  24.224  24.261  1.00  0.00     0.135 C 
ATOM     86  C   UNL A   1      32.319  22.547  24.578  1.00  0.00     0.161 C 
ATOM     87  O   UNL A   1      33.471  23.176  25.162  1.00  0.00    -0.377 OA
BRANCH  85  88
ATOM     88  C   UNL A   1      35.126  23.607  23.491  1.00  0.00     0.068 C 
BRANCH  88  89
ATOM     89  C   UNL A   1      36.294  23.120  24.308  1.00  0.00    -0.045 A 
ATOM     90  C   UNL A   1      36.892  23.957  25.262  1.00  0.00     0.004 A 
ATOM     91  C   UNL A   1      36.782  21.815  24.155  1.00  0.00     0.004 A 
ATOM     92  C   UNL A   1      37.921  23.483  26.078  1.00  0.00     0.000 A 
ATOM     93  C   UNL A   1      37.805  21.340  24.976  1.00  0.00     0.000 A 
ATOM     94  C   UNL A   1      38.370  22.171  25.942  1.00  0.00     0.000 A 
ENDBRANCH  88  89
ENDBRANCH  85  88
ENDBRANCH  80  83
ENDBRANCH  78  79
ENDBRANCH  77  78
ENDBRANCH  76  77
ENDBRANCH   1  76
TORSDOF 18
ENDMDL
