MODEL 1
REMARK VINA RESULT:     -10.8      0.000      0.000
REMARK SMILES C[C@@H]1C[N@@H+](CC(C)(C)C(=O)NCCCCCCNC(=O)c2ccc(-c3c4nc(c(-c5c(F)cc(S(=O)(=O)[O-])cc5F)c5ccc([nH]5)c(-c5c(F)cc(S(=O)(=O)[O-])cc5F)c5nc(c(-c6c(F)cc(S(=O)(=O)[O-])cc6F)c6ccc3[nH]6)C=C5)C=C4)cc2)CC[C@@H]1[NH3+]
REMARK SMILES IDX 14 1 13 2 12 3 11 4 9 5 10 6 6 8 7 9 8 10 5 11 4 12 1 13
REMARK SMILES IDX 2 14 3 15 89 16 88 17 87 18 90 20 15 24 16 25 17 26 18 27
REMARK SMILES IDX 19 28 20 30 21 31 22 32 86 33 23 34 85 35 24 36 25 37 26 38
REMARK SMILES IDX 79 39 27 40 84 41 78 42 80 43 28 44 83 45 77 46 76 47 29 49
REMARK SMILES IDX 63 50 42 51 62 52 43 53 46 54 61 55 81 56 44 57 45 58 60 60
REMARK SMILES IDX 82 61 47 62 30 63 31 64 40 65 32 66 33 67 39 68 41 69 34 70
REMARK SMILES IDX 35 71 36 72 37 73 38 74 64 75 65 76 74 77 66 78 67 79 73 80
REMARK SMILES IDX 75 81 68 82 69 83 70 84 71 85 72 86 48 87 49 88 58 89 50 90
REMARK SMILES IDX 51 91 57 92 59 93 52 94 53 95 54 96 55 97 56 98
REMARK H PARENT 11 7 4 19 90 21 90 22 90 23 18 29 80 48 46 59
REMARK Flexibility Score: inf
ROOT
ATOM      1  C   UNL A   1      32.585  29.774  27.162  1.00  0.00     0.002 C 
ENDROOT
BRANCH   1   2
ATOM      2  C   UNL A   1      31.763  28.537  27.540  1.00  0.00     0.021 C 
BRANCH   2   3
ATOM      3  C   UNL A   1      31.467  27.602  26.370  1.00  0.00     0.116 C 
BRANCH   3   4
ATOM      4  N   UNL A   1      31.529  26.229  26.813  1.00  0.00    -0.355 N 
ATOM      5  C   UNL A   1      31.177  25.096  26.155  1.00  0.00     0.231 C 
ATOM      6  O   UNL A   1      30.684  24.207  26.858  1.00  0.00    -0.274 OA
ATOM      7  H   UNL A   1      31.876  26.095  27.724  1.00  0.00     0.163 HD
BRANCH   5   8
ATOM      8  C   UNL A   1      31.336  24.937  24.632  1.00  0.00     0.092 C 
ATOM      9  C   UNL A   1      32.546  25.660  24.017  1.00  0.00     0.027 C 
ATOM     10  C   UNL A   1      30.052  25.532  24.012  1.00  0.00     0.027 C 
BRANCH   8  11
ATOM     11  C   UNL A   1      31.386  23.395  24.281  1.00  0.00     0.278 C 
BRANCH  11  12
ATOM     12  N   UNL A   1      32.460  22.481  24.763  1.00  0.00    -0.333 N 
ATOM     13  C   UNL A   1      35.481  22.281  25.634  1.00  0.00     0.020 C 
ATOM     14  C   UNL A   1      34.812  21.637  24.410  1.00  0.00     0.099 C 
ATOM     15  C   UNL A   1      33.637  22.481  23.889  1.00  0.00     0.271 C 
ATOM     16  C   UNL A   1      34.290  20.206  24.641  1.00  0.00     0.194 C 
ATOM     17  C   UNL A   1      33.125  20.222  25.636  1.00  0.00     0.126 C 
ATOM     18  C   UNL A   1      32.008  21.135  25.118  1.00  0.00     0.268 C 
ATOM     19  H   UNL A   1      32.758  22.885  25.651  1.00  0.00     0.348 HD
BRANCH  16  20
ATOM     20  N   UNL A   1      35.336  19.269  25.054  1.00  0.00    -0.355 N 
ATOM     21  H   UNL A   1      35.206  18.380  24.571  1.00  0.00     0.344 HD
ATOM     22  H   UNL A   1      35.280  19.120  26.062  1.00  0.00     0.344 HD
ATOM     23  H   UNL A   1      36.250  19.654  24.818  1.00  0.00     0.344 HD
ENDBRANCH  16  20
ENDBRANCH  11  12
ENDBRANCH   8  11
ENDBRANCH   5   8
ENDBRANCH   3   4
ENDBRANCH   2   3
ENDBRANCH   1   2
BRANCH   1  24
ATOM     24  C   UNL A   1      31.862  30.776  26.258  1.00  0.00     0.002 C 
BRANCH  24  25
ATOM     25  C   UNL A   1      31.574  32.132  26.907  1.00  0.00     0.021 C 
BRANCH  25  26
ATOM     26  C   UNL A   1      32.793  32.800  27.531  1.00  0.00     0.116 C 
BRANCH  26  27
ATOM     27  N   UNL A   1      32.568  34.213  27.782  1.00  0.00    -0.352 N 
ATOM     28  C   UNL A   1      33.133  35.017  28.741  1.00  0.00     0.251 C 
ATOM     29  H   UNL A   1      31.923  34.654  27.184  1.00  0.00     0.163 HD
ATOM     30  O   UNL A   1      32.679  36.134  28.955  1.00  0.00    -0.269 OA
BRANCH  28  31
ATOM     31  C   UNL A   1      34.281  34.510  29.524  1.00  0.00     0.039 A 
ATOM     32  C   UNL A   1      34.045  33.944  30.778  1.00  0.00     0.014 A 
ATOM     33  C   UNL A   1      35.581  34.588  29.015  1.00  0.00     0.014 A 
ATOM     34  C   UNL A   1      35.111  33.407  31.501  1.00  0.00     0.010 A 
ATOM     35  C   UNL A   1      36.628  33.980  29.701  1.00  0.00     0.010 A 
ATOM     36  C   UNL A   1      36.405  33.392  30.955  1.00  0.00    -0.014 A 
BRANCH  36  37
ATOM     37  C   UNL A   1      37.541  32.773  31.685  1.00  0.00     0.031 A 
ATOM     38  C   UNL A   1      38.221  31.552  31.125  1.00  0.00     0.074 A 
ATOM     39  C   UNL A   1      37.921  33.274  32.877  1.00  0.00     0.049 A 
ATOM     40  N   UNL A   1      39.183  30.833  31.642  1.00  0.00    -0.248 NA
ATOM     41  C   UNL A   1      37.737  31.060  29.824  1.00  0.00     0.031 C 
ATOM     42  C   UNL A   1      37.309  34.427  33.543  1.00  0.00     0.029 A 
ATOM     43  N   UNL A   1      38.905  32.876  33.745  1.00  0.00    -0.354 N 
ATOM     44  C   UNL A   1      39.413  29.802  30.739  1.00  0.00     0.074 A 
ATOM     45  C   UNL A   1      38.450  29.954  29.670  1.00  0.00     0.031 C 
ATOM     46  C   UNL A   1      37.946  34.655  34.702  1.00  0.00     0.029 A 
ATOM     47  C   UNL A   1      38.982  33.643  34.884  1.00  0.00     0.049 A 
ATOM     48  H   UNL A   1      39.502  32.112  33.569  1.00  0.00     0.167 HD
ATOM     49  C   UNL A   1      40.356  28.831  30.785  1.00  0.00     0.037 A 
ATOM     50  C   UNL A   1      39.786  33.535  35.960  1.00  0.00     0.037 A 
ATOM     51  C   UNL A   1      41.323  28.700  31.843  1.00  0.00     0.049 A 
ATOM     52  C   UNL A   1      40.815  32.437  35.996  1.00  0.00     0.074 A 
ATOM     53  C   UNL A   1      42.355  27.784  31.956  1.00  0.00     0.029 A 
ATOM     54  N   UNL A   1      41.375  29.502  32.975  1.00  0.00    -0.354 N 
ATOM     55  N   UNL A   1      41.062  31.509  35.101  1.00  0.00    -0.248 NA
ATOM     56  C   UNL A   1      41.680  32.375  37.181  1.00  0.00     0.031 C 
ATOM     57  C   UNL A   1      42.995  27.997  33.182  1.00  0.00     0.029 A 
ATOM     58  C   UNL A   1      42.404  29.085  33.805  1.00  0.00     0.049 A 
ATOM     59  H   UNL A   1      40.770  30.255  33.161  1.00  0.00     0.167 HD
ATOM     60  C   UNL A   1      42.128  30.770  35.604  1.00  0.00     0.074 A 
ATOM     61  C   UNL A   1      42.487  31.370  36.872  1.00  0.00     0.031 C 
ATOM     62  C   UNL A   1      42.753  29.695  35.064  1.00  0.00     0.037 A 
BRANCH  49  63
ATOM     63  C   UNL A   1      40.390  27.834  29.658  1.00  0.00     0.058 A 
ATOM     64  C   UNL A   1      39.505  26.744  29.607  1.00  0.00     0.135 A 
ATOM     65  C   UNL A   1      41.292  27.990  28.592  1.00  0.00     0.135 A 
ATOM     66  F   UNL A   1      38.631  26.535  30.605  1.00  0.00    -0.206 F 
ATOM     67  C   UNL A   1      39.534  25.830  28.559  1.00  0.00     0.059 A 
ATOM     68  C   UNL A   1      41.317  27.107  27.518  1.00  0.00     0.059 A 
ATOM     69  F   UNL A   1      42.162  29.013  28.588  1.00  0.00    -0.206 F 
ATOM     70  C   UNL A   1      40.442  26.020  27.517  1.00  0.00     0.060 A 
BRANCH  70  71
ATOM     71  S   UNL A   1      40.460  24.830  26.162  1.00  0.00     0.124 S 
ATOM     72  O   UNL A   1      41.343  23.796  26.693  1.00  0.00    -0.237 OA
ATOM     73  O   UNL A   1      39.052  24.464  26.050  1.00  0.00    -0.237 OA
ATOM     74  O   UNL A   1      40.997  25.595  25.041  1.00  0.00    -0.744 OA
ENDBRANCH  70  71
ENDBRANCH  49  63
BRANCH  50  75
ATOM     75  C   UNL A   1      39.659  34.502  37.084  1.00  0.00     0.058 A 
ATOM     76  C   UNL A   1      38.950  34.170  38.248  1.00  0.00     0.135 A 
ATOM     77  C   UNL A   1      40.250  35.774  37.022  1.00  0.00     0.135 A 
ATOM     78  F   UNL A   1      38.361  32.969  38.355  1.00  0.00    -0.206 F 
ATOM     79  C   UNL A   1      38.815  35.068  39.301  1.00  0.00     0.059 A 
ATOM     80  C   UNL A   1      40.154  36.678  38.073  1.00  0.00     0.059 A 
ATOM     81  F   UNL A   1      40.954  36.136  35.937  1.00  0.00    -0.206 F 
ATOM     82  C   UNL A   1      39.424  36.320  39.206  1.00  0.00     0.060 A 
BRANCH  82  83
ATOM     83  S   UNL A   1      39.282  37.461  40.598  1.00  0.00     0.124 S 
ATOM     84  O   UNL A   1      38.768  36.584  41.645  1.00  0.00    -0.237 OA
ATOM     85  O   UNL A   1      40.658  37.916  40.763  1.00  0.00    -0.237 OA
ATOM     86  O   UNL A   1      38.350  38.473  40.109  1.00  0.00    -0.744 OA
ENDBRANCH  82  83
ENDBRANCH  50  75
BRANCH  62  87
ATOM     87  C   UNL A   1      43.915  29.112  35.824  1.00  0.00     0.058 A 
ATOM     88  C   UNL A   1      45.209  29.645  35.720  1.00  0.00     0.135 A 
ATOM     89  C   UNL A   1      43.717  28.040  36.708  1.00  0.00     0.135 A 
ATOM     90  F   UNL A   1      45.456  30.666  34.884  1.00  0.00    -0.206 F 
ATOM     91  C   UNL A   1      46.272  29.116  36.446  1.00  0.00     0.059 A 
ATOM     92  C   UNL A   1      44.758  27.517  37.469  1.00  0.00     0.059 A 
ATOM     93  F   UNL A   1      42.496  27.499  36.854  1.00  0.00    -0.206 F 
ATOM     94  C   UNL A   1      46.035  28.054  37.321  1.00  0.00     0.060 A 
BRANCH  94  95
ATOM     95  S   UNL A   1      47.417  27.404  38.283  1.00  0.00     0.124 S 
ATOM     96  O   UNL A   1      46.729  26.826  39.433  1.00  0.00    -0.237 OA
ATOM     97  O   UNL A   1      48.019  26.449  37.358  1.00  0.00    -0.237 OA
ATOM     98  O   UNL A   1      48.223  28.588  38.565  1.00  0.00    -0.744 OA
ENDBRANCH  94  95
ENDBRANCH  62  87
ENDBRANCH  36  37
ENDBRANCH  28  31
ENDBRANCH  26  27
ENDBRANCH  25  26
ENDBRANCH  24  25
ENDBRANCH   1  24
TORSDOF 19
ENDMDL
MODEL 2
REMARK VINA RESULT:     -10.6      6.484     11.157
REMARK SMILES C[C@@H]1C[N@@H+](CC(C)(C)C(=O)NCCCCCCNC(=O)c2ccc(-c3c4nc(c(-c5c(F)cc(S(=O)(=O)[O-])cc5F)c5ccc([nH]5)c(-c5c(F)cc(S(=O)(=O)[O-])cc5F)c5nc(c(-c6c(F)cc(S(=O)(=O)[O-])cc6F)c6ccc3[nH]6)C=C5)C=C4)cc2)CC[C@@H]1[NH3+]
REMARK SMILES IDX 14 1 13 2 12 3 11 4 9 5 10 6 6 8 7 9 8 10 5 11 4 12 1 13
REMARK SMILES IDX 2 14 3 15 89 16 88 17 87 18 90 20 15 24 16 25 17 26 18 27
REMARK SMILES IDX 19 28 20 30 21 31 22 32 86 33 23 34 85 35 24 36 25 37 26 38
REMARK SMILES IDX 79 39 27 40 84 41 78 42 80 43 28 44 83 45 77 46 76 47 29 49
REMARK SMILES IDX 63 50 42 51 62 52 43 53 46 54 61 55 81 56 44 57 45 58 60 60
REMARK SMILES IDX 82 61 47 62 30 63 31 64 40 65 32 66 33 67 39 68 41 69 34 70
REMARK SMILES IDX 35 71 36 72 37 73 38 74 64 75 65 76 74 77 66 78 67 79 73 80
REMARK SMILES IDX 75 81 68 82 69 83 70 84 71 85 72 86 48 87 49 88 58 89 50 90
REMARK SMILES IDX 51 91 57 92 59 93 52 94 53 95 54 96 55 97 56 98
REMARK H PARENT 11 7 4 19 90 21 90 22 90 23 18 29 80 48 46 59
REMARK Flexibility Score: inf
ROOT
ATOM      1  C   UNL A   1      33.856  30.292  27.174  1.00  0.00     0.002 C 
ENDROOT
BRANCH   1   2
ATOM      2  C   UNL A   1      32.351  30.064  26.989  1.00  0.00     0.021 C 
BRANCH   2   3
ATOM      3  C   UNL A   1      31.909  29.967  25.530  1.00  0.00     0.116 C 
BRANCH   3   4
ATOM      4  N   UNL A   1      32.795  29.083  24.809  1.00  0.00    -0.355 N 
ATOM      5  C   UNL A   1      32.752  27.732  24.690  1.00  0.00     0.231 C 
ATOM      6  O   UNL A   1      33.852  27.170  24.647  1.00  0.00    -0.274 OA
ATOM      7  H   UNL A   1      33.536  29.524  24.335  1.00  0.00     0.163 HD
BRANCH   5   8
ATOM      8  C   UNL A   1      31.431  26.943  24.656  1.00  0.00     0.092 C 
ATOM      9  C   UNL A   1      30.288  27.605  23.869  1.00  0.00     0.027 C 
ATOM     10  C   UNL A   1      30.987  26.806  26.129  1.00  0.00     0.027 C 
BRANCH   8  11
ATOM     11  C   UNL A   1      31.716  25.494  24.088  1.00  0.00     0.278 C 
BRANCH  11  12
ATOM     12  N   UNL A   1      32.148  24.351  24.941  1.00  0.00    -0.333 N 
ATOM     13  C   UNL A   1      34.479  23.190  26.714  1.00  0.00     0.020 C 
ATOM     14  C   UNL A   1      33.935  22.627  25.392  1.00  0.00     0.099 C 
ATOM     15  C   UNL A   1      33.396  23.738  24.476  1.00  0.00     0.271 C 
ATOM     16  C   UNL A   1      32.822  21.574  25.552  1.00  0.00     0.194 C 
ATOM     17  C   UNL A   1      31.561  22.221  26.135  1.00  0.00     0.126 C 
ATOM     18  C   UNL A   1      31.101  23.372  25.234  1.00  0.00     0.268 C 
ATOM     19  H   UNL A   1      32.353  24.773  25.847  1.00  0.00     0.348 HD
BRANCH  16  20
ATOM     20  N   UNL A   1      33.238  20.408  26.332  1.00  0.00    -0.355 N 
ATOM     21  H   UNL A   1      34.239  20.464  26.521  1.00  0.00     0.344 HD
ATOM     22  H   UNL A   1      33.039  19.558  25.804  1.00  0.00     0.344 HD
ATOM     23  H   UNL A   1      32.726  20.388  27.214  1.00  0.00     0.344 HD
ENDBRANCH  16  20
ENDBRANCH  11  12
ENDBRANCH   8  11
ENDBRANCH   5   8
ENDBRANCH   3   4
ENDBRANCH   2   3
ENDBRANCH   1   2
BRANCH   1  24
ATOM     24  C   UNL A   1      34.222  31.475  28.074  1.00  0.00     0.002 C 
BRANCH  24  25
ATOM     25  C   UNL A   1      35.626  32.041  27.848  1.00  0.00     0.021 C 
BRANCH  25  26
ATOM     26  C   UNL A   1      36.324  32.512  29.117  1.00  0.00     0.116 C 
BRANCH  26  27
ATOM     27  N   UNL A   1      35.983  31.686  30.262  1.00  0.00    -0.352 N 
ATOM     28  C   UNL A   1      36.656  30.604  30.774  1.00  0.00     0.251 C 
ATOM     29  H   UNL A   1      35.158  31.937  30.736  1.00  0.00     0.163 HD
ATOM     30  O   UNL A   1      36.124  29.889  31.614  1.00  0.00    -0.269 OA
BRANCH  28  31
ATOM     31  C   UNL A   1      38.018  30.302  30.284  1.00  0.00     0.039 A 
ATOM     32  C   UNL A   1      39.070  30.261  31.200  1.00  0.00     0.014 A 
ATOM     33  C   UNL A   1      38.249  30.053  28.928  1.00  0.00     0.014 A 
ATOM     34  C   UNL A   1      40.350  29.919  30.761  1.00  0.00     0.010 A 
ATOM     35  C   UNL A   1      39.508  29.634  28.508  1.00  0.00     0.010 A 
ATOM     36  C   UNL A   1      40.573  29.571  29.419  1.00  0.00    -0.014 A 
BRANCH  36  37
ATOM     37  C   UNL A   1      41.916  29.147  28.947  1.00  0.00     0.031 A 
ATOM     38  C   UNL A   1      43.031  30.153  28.843  1.00  0.00     0.074 A 
ATOM     39  C   UNL A   1      42.114  27.871  28.558  1.00  0.00     0.049 A 
ATOM     40  N   UNL A   1      44.249  29.991  28.396  1.00  0.00    -0.248 NA
ATOM     41  C   UNL A   1      42.729  31.527  29.275  1.00  0.00     0.031 C 
ATOM     42  C   UNL A   1      41.098  26.817  28.572  1.00  0.00     0.029 A 
ATOM     43  N   UNL A   1      43.233  27.246  28.069  1.00  0.00    -0.354 N 
ATOM     44  C   UNL A   1      44.854  31.240  28.483  1.00  0.00     0.074 A 
ATOM     45  C   UNL A   1      43.851  32.161  28.969  1.00  0.00     0.031 C 
ATOM     46  C   UNL A   1      41.646  25.672  28.134  1.00  0.00     0.029 A 
ATOM     47  C   UNL A   1      43.037  25.919  27.769  1.00  0.00     0.049 A 
ATOM     48  H   UNL A   1      44.095  27.705  27.946  1.00  0.00     0.167 HD
ATOM     49  C   UNL A   1      46.135  31.581  28.204  1.00  0.00     0.037 A 
ATOM     50  C   UNL A   1      43.880  25.006  27.246  1.00  0.00     0.037 A 
ATOM     51  C   UNL A   1      47.131  30.652  27.739  1.00  0.00     0.049 A 
ATOM     52  C   UNL A   1      45.293  25.414  26.929  1.00  0.00     0.074 A 
ATOM     53  C   UNL A   1      48.471  30.885  27.481  1.00  0.00     0.029 A 
ATOM     54  N   UNL A   1      46.897  29.313  27.456  1.00  0.00    -0.354 N 
ATOM     55  N   UNL A   1      45.867  26.584  27.079  1.00  0.00    -0.248 NA
ATOM     56  C   UNL A   1      46.178  24.377  26.379  1.00  0.00     0.031 C 
ATOM     57  C   UNL A   1      49.033  29.704  26.988  1.00  0.00     0.029 A 
ATOM     58  C   UNL A   1      48.061  28.715  26.999  1.00  0.00     0.049 A 
ATOM     59  H   UNL A   1      46.033  28.856  27.563  1.00  0.00     0.167 HD
ATOM     60  C   UNL A   1      47.185  26.418  26.667  1.00  0.00     0.074 A 
ATOM     61  C   UNL A   1      47.327  25.030  26.278  1.00  0.00     0.031 C 
ATOM     62  C   UNL A   1      48.188  27.330  26.619  1.00  0.00     0.037 A 
BRANCH  49  63
ATOM     63  C   UNL A   1      46.533  33.020  28.397  1.00  0.00     0.058 A 
ATOM     64  C   UNL A   1      46.428  33.962  27.359  1.00  0.00     0.135 A 
ATOM     65  C   UNL A   1      46.988  33.474  29.645  1.00  0.00     0.135 A 
ATOM     66  F   UNL A   1      46.013  33.582  26.140  1.00  0.00    -0.206 F 
ATOM     67  C   UNL A   1      46.789  35.292  27.544  1.00  0.00     0.059 A 
ATOM     68  C   UNL A   1      47.324  34.807  29.862  1.00  0.00     0.059 A 
ATOM     69  F   UNL A   1      47.109  32.619  30.673  1.00  0.00    -0.206 F 
ATOM     70  C   UNL A   1      47.235  35.707  28.800  1.00  0.00     0.060 A 
BRANCH  70  71
ATOM     71  S   UNL A   1      47.690  37.438  29.023  1.00  0.00     0.124 S 
ATOM     72  O   UNL A   1      46.843  37.819  30.150  1.00  0.00    -0.237 OA
ATOM     73  O   UNL A   1      49.119  37.351  29.306  1.00  0.00    -0.237 OA
ATOM     74  O   UNL A   1      47.342  38.051  27.745  1.00  0.00    -0.744 OA
ENDBRANCH  70  71
ENDBRANCH  49  63
BRANCH  50  75
ATOM     75  C   UNL A   1      43.412  23.614  27.003  1.00  0.00     0.058 A 
ATOM     76  C   UNL A   1      43.049  23.187  25.718  1.00  0.00     0.135 A 
ATOM     77  C   UNL A   1      43.326  22.681  28.049  1.00  0.00     0.135 A 
ATOM     78  F   UNL A   1      43.107  24.042  24.685  1.00  0.00    -0.206 F 
ATOM     79  C   UNL A   1      42.600  21.892  25.479  1.00  0.00     0.059 A 
ATOM     80  C   UNL A   1      42.908  21.373  27.830  1.00  0.00     0.059 A 
ATOM     81  F   UNL A   1      43.678  23.034  29.296  1.00  0.00    -0.206 F 
ATOM     82  C   UNL A   1      42.537  20.990  26.543  1.00  0.00     0.060 A 
BRANCH  82  83
ATOM     83  S   UNL A   1      41.997  19.299  26.213  1.00  0.00     0.124 S 
ATOM     84  O   UNL A   1      40.551  19.466  26.114  1.00  0.00    -0.237 OA
ATOM     85  O   UNL A   1      42.692  18.994  24.967  1.00  0.00    -0.237 OA
ATOM     86  O   UNL A   1      42.469  18.562  27.382  1.00  0.00    -0.744 OA
ENDBRANCH  82  83
ENDBRANCH  50  75
BRANCH  62  87
ATOM     87  C   UNL A   1      49.539  26.853  26.158  1.00  0.00     0.058 A 
ATOM     88  C   UNL A   1      49.912  26.877  24.806  1.00  0.00     0.135 A 
ATOM     89  C   UNL A   1      50.492  26.415  27.093  1.00  0.00     0.135 A 
ATOM     90  F   UNL A   1      49.038  27.279  23.870  1.00  0.00    -0.206 F 
ATOM     91  C   UNL A   1      51.173  26.458  24.392  1.00  0.00     0.059 A 
ATOM     92  C   UNL A   1      51.770  26.023  26.705  1.00  0.00     0.059 A 
ATOM     93  F   UNL A   1      50.192  26.382  28.401  1.00  0.00    -0.206 F 
ATOM     94  C   UNL A   1      52.097  26.037  25.351  1.00  0.00     0.060 A 
BRANCH  94  95
ATOM     95  S   UNL A   1      53.740  25.531  24.803  1.00  0.00     0.124 S 
ATOM     96  O   UNL A   1      54.582  26.054  25.874  1.00  0.00    -0.237 OA
ATOM     97  O   UNL A   1      53.617  24.078  24.745  1.00  0.00    -0.237 OA
ATOM     98  O   UNL A   1      53.887  26.194  23.510  1.00  0.00    -0.744 OA
ENDBRANCH  94  95
ENDBRANCH  62  87
ENDBRANCH  36  37
ENDBRANCH  28  31
ENDBRANCH  26  27
ENDBRANCH  25  26
ENDBRANCH  24  25
ENDBRANCH   1  24
TORSDOF 19
ENDMDL
MODEL 3
REMARK VINA RESULT:     -10.6      6.407     11.077
REMARK SMILES C[C@@H]1C[N@@H+](CC(C)(C)C(=O)NCCCCCCNC(=O)c2ccc(-c3c4nc(c(-c5c(F)cc(S(=O)(=O)[O-])cc5F)c5ccc([nH]5)c(-c5c(F)cc(S(=O)(=O)[O-])cc5F)c5nc(c(-c6c(F)cc(S(=O)(=O)[O-])cc6F)c6ccc3[nH]6)C=C5)C=C4)cc2)CC[C@@H]1[NH3+]
REMARK SMILES IDX 14 1 13 2 12 3 11 4 9 5 10 6 6 8 7 9 8 10 5 11 4 12 1 13
REMARK SMILES IDX 2 14 3 15 89 16 88 17 87 18 90 20 15 24 16 25 17 26 18 27
REMARK SMILES IDX 19 28 20 30 21 31 22 32 86 33 23 34 85 35 24 36 25 37 26 38
REMARK SMILES IDX 79 39 27 40 84 41 78 42 80 43 28 44 83 45 77 46 76 47 29 49
REMARK SMILES IDX 63 50 42 51 62 52 43 53 46 54 61 55 81 56 44 57 45 58 60 60
REMARK SMILES IDX 82 61 47 62 30 63 31 64 40 65 32 66 33 67 39 68 41 69 34 70
REMARK SMILES IDX 35 71 36 72 37 73 38 74 64 75 65 76 74 77 66 78 67 79 73 80
REMARK SMILES IDX 75 81 68 82 69 83 70 84 71 85 72 86 48 87 49 88 58 89 50 90
REMARK SMILES IDX 51 91 57 92 59 93 52 94 53 95 54 96 55 97 56 98
REMARK H PARENT 11 7 4 19 90 21 90 22 90 23 18 29 80 48 46 59
REMARK Flexibility Score: inf
ROOT
ATOM      1  C   UNL A   1      32.300  28.629  27.504  1.00  0.00     0.002 C 
ENDROOT
BRANCH   1   2
ATOM      2  C   UNL A   1      31.429  27.989  26.418  1.00  0.00     0.021 C 
BRANCH   2   3
ATOM      3  C   UNL A   1      32.122  27.845  25.065  1.00  0.00     0.116 C 
BRANCH   3   4
ATOM      4  N   UNL A   1      31.134  27.736  24.018  1.00  0.00    -0.355 N 
ATOM      5  C   UNL A   1      31.260  27.232  22.765  1.00  0.00     0.231 C 
ATOM      6  O   UNL A   1      30.601  27.809  21.893  1.00  0.00    -0.274 OA
ATOM      7  H   UNL A   1      30.239  28.077  24.245  1.00  0.00     0.163 HD
BRANCH   5   8
ATOM      8  C   UNL A   1      32.191  26.052  22.435  1.00  0.00     0.092 C 
ATOM      9  C   UNL A   1      33.676  26.271  22.770  1.00  0.00     0.027 C 
ATOM     10  C   UNL A   1      32.067  25.833  20.911  1.00  0.00     0.027 C 
BRANCH   8  11
ATOM     11  C   UNL A   1      31.653  24.756  23.166  1.00  0.00     0.278 C 
BRANCH  11  12
ATOM     12  N   UNL A   1      32.180  24.277  24.475  1.00  0.00    -0.333 N 
ATOM     13  C   UNL A   1      34.772  23.476  26.077  1.00  0.00     0.020 C 
ATOM     14  C   UNL A   1      33.604  22.567  25.665  1.00  0.00     0.099 C 
ATOM     15  C   UNL A   1      32.949  23.034  24.355  1.00  0.00     0.271 C 
ATOM     16  C   UNL A   1      32.490  22.433  26.720  1.00  0.00     0.194 C 
ATOM     17  C   UNL A   1      31.768  23.772  26.901  1.00  0.00     0.126 C 
ATOM     18  C   UNL A   1      31.197  24.242  25.558  1.00  0.00     0.268 C 
ATOM     19  H   UNL A   1      32.840  24.999  24.763  1.00  0.00     0.348 HD
BRANCH  16  20
ATOM     20  N   UNL A   1      32.967  21.903  27.999  1.00  0.00    -0.355 N 
ATOM     21  H   UNL A   1      33.917  21.551  27.888  1.00  0.00     0.344 HD
ATOM     22  H   UNL A   1      32.355  21.143  28.300  1.00  0.00     0.344 HD
ATOM     23  H   UNL A   1      32.957  22.644  28.699  1.00  0.00     0.344 HD
ENDBRANCH  16  20
ENDBRANCH  11  12
ENDBRANCH   8  11
ENDBRANCH   5   8
ENDBRANCH   3   4
ENDBRANCH   2   3
ENDBRANCH   1   2
BRANCH   1  24
ATOM     24  C   UNL A   1      33.355  29.612  26.989  1.00  0.00     0.002 C 
BRANCH  24  25
ATOM     25  C   UNL A   1      34.778  29.340  27.479  1.00  0.00     0.021 C 
BRANCH  25  26
ATOM     26  C   UNL A   1      35.486  30.558  28.057  1.00  0.00     0.116 C 
BRANCH  26  27
ATOM     27  N   UNL A   1      35.359  30.625  29.502  1.00  0.00    -0.352 N 
ATOM     28  C   UNL A   1      36.280  30.293  30.464  1.00  0.00     0.251 C 
ATOM     29  H   UNL A   1      34.494  30.954  29.838  1.00  0.00     0.163 HD
ATOM     30  O   UNL A   1      35.942  30.206  31.638  1.00  0.00    -0.269 OA
BRANCH  28  31
ATOM     31  C   UNL A   1      37.677  30.022  30.063  1.00  0.00     0.039 A 
ATOM     32  C   UNL A   1      38.600  29.648  31.042  1.00  0.00     0.014 A 
ATOM     33  C   UNL A   1      38.069  30.128  28.725  1.00  0.00     0.014 A 
ATOM     34  C   UNL A   1      39.907  29.331  30.669  1.00  0.00     0.010 A 
ATOM     35  C   UNL A   1      39.348  29.734  28.346  1.00  0.00     0.010 A 
ATOM     36  C   UNL A   1      40.283  29.340  29.315  1.00  0.00    -0.014 A 
BRANCH  36  37
ATOM     37  C   UNL A   1      41.652  28.948  28.895  1.00  0.00     0.031 A 
ATOM     38  C   UNL A   1      42.747  29.980  28.833  1.00  0.00     0.074 A 
ATOM     39  C   UNL A   1      41.896  27.677  28.516  1.00  0.00     0.049 A 
ATOM     40  N   UNL A   1      43.984  29.848  28.432  1.00  0.00    -0.248 NA
ATOM     41  C   UNL A   1      42.395  31.347  29.252  1.00  0.00     0.031 C 
ATOM     42  C   UNL A   1      40.906  26.598  28.492  1.00  0.00     0.029 A 
ATOM     43  N   UNL A   1      43.047  27.079  28.071  1.00  0.00    -0.354 N 
ATOM     44  C   UNL A   1      44.555  31.111  28.541  1.00  0.00     0.074 A 
ATOM     45  C   UNL A   1      43.513  32.008  28.987  1.00  0.00     0.031 C 
ATOM     46  C   UNL A   1      41.497  25.467  28.077  1.00  0.00     0.029 A 
ATOM     47  C   UNL A   1      42.895  25.747  27.764  1.00  0.00     0.049 A 
ATOM     48  H   UNL A   1      43.903  27.559  27.979  1.00  0.00     0.167 HD
ATOM     49  C   UNL A   1      45.837  31.483  28.310  1.00  0.00     0.037 A 
ATOM     50  C   UNL A   1      43.779  24.855  27.275  1.00  0.00     0.037 A 
ATOM     51  C   UNL A   1      46.872  30.578  27.884  1.00  0.00     0.049 A 
ATOM     52  C   UNL A   1      45.193  25.297  27.011  1.00  0.00     0.074 A 
ATOM     53  C   UNL A   1      48.215  30.843  27.676  1.00  0.00     0.029 A 
ATOM     54  N   UNL A   1      46.681  29.233  27.594  1.00  0.00    -0.354 N 
ATOM     55  N   UNL A   1      45.732  26.481  27.181  1.00  0.00    -0.248 NA
ATOM     56  C   UNL A   1      46.122  24.282  26.496  1.00  0.00     0.031 C 
ATOM     57  C   UNL A   1      48.824  29.675  27.206  1.00  0.00     0.029 A 
ATOM     58  C   UNL A   1      47.876  28.664  27.182  1.00  0.00     0.049 A 
ATOM     59  H   UNL A   1      45.825  28.756  27.669  1.00  0.00     0.167 HD
ATOM     60  C   UNL A   1      47.069  26.346  26.820  1.00  0.00     0.074 A 
ATOM     61  C   UNL A   1      47.258  24.962  26.438  1.00  0.00     0.031 C 
ATOM     62  C   UNL A   1      48.050  27.282  26.808  1.00  0.00     0.037 A 
BRANCH  49  63
ATOM     63  C   UNL A   1      46.193  32.931  28.515  1.00  0.00     0.058 A 
ATOM     64  C   UNL A   1      46.642  33.415  29.756  1.00  0.00     0.135 A 
ATOM     65  C   UNL A   1      46.122  33.842  27.448  1.00  0.00     0.135 A 
ATOM     66  F   UNL A   1      46.714  32.593  30.816  1.00  0.00    -0.206 F 
ATOM     67  C   UNL A   1      46.977  34.752  29.938  1.00  0.00     0.059 A 
ATOM     68  C   UNL A   1      46.484  35.177  27.599  1.00  0.00     0.059 A 
ATOM     69  F   UNL A   1      45.699  33.436  26.240  1.00  0.00    -0.206 F 
ATOM     70  C   UNL A   1      46.897  35.626  28.853  1.00  0.00     0.060 A 
BRANCH  70  71
ATOM     71  S   UNL A   1      47.344  37.355  29.107  1.00  0.00     0.124 S 
ATOM     72  O   UNL A   1      47.436  37.837  27.731  1.00  0.00    -0.237 OA
ATOM     73  O   UNL A   1      46.215  37.860  29.881  1.00  0.00    -0.237 OA
ATOM     74  O   UNL A   1      48.611  37.279  29.827  1.00  0.00    -0.744 OA
ENDBRANCH  70  71
ENDBRANCH  49  63
BRANCH  50  75
ATOM     75  C   UNL A   1      43.354  23.453  27.016  1.00  0.00     0.058 A 
ATOM     76  C   UNL A   1      43.266  22.519  28.059  1.00  0.00     0.135 A 
ATOM     77  C   UNL A   1      43.019  23.019  25.723  1.00  0.00     0.135 A 
ATOM     78  F   UNL A   1      43.581  22.881  29.312  1.00  0.00    -0.206 F 
ATOM     79  C   UNL A   1      42.880  21.202  27.829  1.00  0.00     0.059 A 
ATOM     80  C   UNL A   1      42.603  21.716  25.473  1.00  0.00     0.059 A 
ATOM     81  F   UNL A   1      43.070  23.877  24.692  1.00  0.00    -0.206 F 
ATOM     82  C   UNL A   1      42.547  20.811  26.531  1.00  0.00     0.060 A 
BRANCH  82  83
ATOM     83  S   UNL A   1      42.003  19.112  26.252  1.00  0.00     0.124 S 
ATOM     84  O   UNL A   1      42.220  18.515  27.565  1.00  0.00    -0.237 OA
ATOM     85  O   UNL A   1      40.611  19.298  25.856  1.00  0.00    -0.237 OA
ATOM     86  O   UNL A   1      42.892  18.645  25.192  1.00  0.00    -0.744 OA
ENDBRANCH  82  83
ENDBRANCH  50  75
BRANCH  62  87
ATOM     87  C   UNL A   1      49.429  26.837  26.400  1.00  0.00     0.058 A 
ATOM     88  C   UNL A   1      50.337  26.297  27.324  1.00  0.00     0.135 A 
ATOM     89  C   UNL A   1      49.826  26.905  25.055  1.00  0.00     0.135 A 
ATOM     90  F   UNL A   1      50.011  26.216  28.624  1.00  0.00    -0.206 F 
ATOM     91  C   UNL A   1      51.601  25.865  26.933  1.00  0.00     0.059 A 
ATOM     92  C   UNL A   1      51.072  26.447  24.636  1.00  0.00     0.059 A 
ATOM     93  F   UNL A   1      48.993  27.403  24.127  1.00  0.00    -0.206 F 
ATOM     94  C   UNL A   1      51.957  25.940  25.585  1.00  0.00     0.060 A 
BRANCH  94  95
ATOM     95  S   UNL A   1      53.586  25.342  25.088  1.00  0.00     0.124 S 
ATOM     96  O   UNL A   1      53.518  23.939  25.486  1.00  0.00    -0.237 OA
ATOM     97  O   UNL A   1      53.586  25.595  23.651  1.00  0.00    -0.237 OA
ATOM     98  O   UNL A   1      54.504  26.170  25.864  1.00  0.00    -0.744 OA
ENDBRANCH  94  95
ENDBRANCH  62  87
ENDBRANCH  36  37
ENDBRANCH  28  31
ENDBRANCH  26  27
ENDBRANCH  25  26
ENDBRANCH  24  25
ENDBRANCH   1  24
TORSDOF 19
ENDMDL
