MODEL 1
REMARK VINA RESULT:     -11.4      0.000      0.000
REMARK SMILES O=C(CC1(NC(=O)C2(c3ccccc3)CC2)CCC1)NCCCCCCNC(=O)c1ccc(-c2c3nc(c(-c4c(F)cc(S(=O)(=O)[O-])cc4F)c4ccc([nH]4)c(-c4c(F)cc(S(=O)(=O)[O-])cc4F)c4nc(c(-c5c(F)cc(S(=O)(=O)[O-])cc5F)c5ccc2[nH]5)C=C4)C=C3)cc1
REMARK SMILES IDX 23 1 22 2 21 3 20 4 1 5 2 6 3 8 4 9 17 10 19 11 18 12 5 13
REMARK SMILES IDX 6 14 7 16 8 17 15 18 16 19 9 20 10 21 14 22 11 23 13 24
REMARK SMILES IDX 12 25 24 26 25 27 26 28 27 29 28 30 29 32 30 33 31 34 95 35
REMARK SMILES IDX 32 36 94 37 33 38 34 39 35 40 88 41 36 42 93 43 87 44 89 45
REMARK SMILES IDX 37 46 92 47 86 48 85 49 38 51 72 52 51 53 71 54 52 55 55 56
REMARK SMILES IDX 70 57 90 58 53 59 54 60 69 62 91 63 56 64 39 65 40 66 49 67
REMARK SMILES IDX 41 68 42 69 48 70 50 71 43 72 44 73 45 74 46 75 47 76 73 77
REMARK SMILES IDX 74 78 83 79 75 80 76 81 82 82 84 83 77 84 78 85 79 86 80 87
REMARK SMILES IDX 81 88 57 89 58 90 67 91 59 92 60 93 66 94 68 95 61 96 62 97
REMARK SMILES IDX 63 98 64 99 65 100
REMARK H PARENT 20 7 5 15 27 31 89 50 55 61
REMARK Flexibility Score: inf
ROOT
ATOM      1  C   UNL A   1      33.977  29.886  26.887  1.00  0.00     0.002 C 
ENDROOT
BRANCH   1   2
ATOM      2  C   UNL A   1      33.240  28.580  27.212  1.00  0.00     0.021 C 
BRANCH   2   3
ATOM      3  C   UNL A   1      32.947  27.618  26.050  1.00  0.00     0.116 C 
BRANCH   3   4
ATOM      4  N   UNL A   1      33.371  26.244  26.270  1.00  0.00    -0.356 N 
ATOM      5  O   UNL A   1      34.366  26.015  24.208  1.00  0.00    -0.275 OA
ATOM      6  C   UNL A   1      34.058  25.536  25.294  1.00  0.00     0.222 C 
ATOM      7  H   UNL A   1      33.166  25.807  27.128  1.00  0.00     0.163 HD
BRANCH   6   8
ATOM      8  C   UNL A   1      34.442  24.112  25.679  1.00  0.00     0.128 C 
BRANCH   8   9
ATOM      9  C   UNL A   1      35.130  23.273  24.588  1.00  0.00     0.049 C 
ATOM     10  C   UNL A   1      36.685  23.532  24.623  1.00  0.00     0.029 C 
ATOM     11  C   UNL A   1      35.513  21.758  24.797  1.00  0.00     0.029 C 
ATOM     12  C   UNL A   1      36.924  22.055  24.289  1.00  0.00     0.005 C 
BRANCH   9  13
ATOM     13  N   UNL A   1      34.595  23.539  23.203  1.00  0.00    -0.349 N 
ATOM     14  C   UNL A   1      33.507  23.102  22.461  1.00  0.00     0.231 C 
ATOM     15  H   UNL A   1      35.155  24.176  22.703  1.00  0.00     0.164 HD
ATOM     16  O   UNL A   1      33.477  23.393  21.271  1.00  0.00    -0.274 OA
BRANCH  14  17
ATOM     17  C   UNL A   1      32.336  22.337  23.062  1.00  0.00     0.074 C 
ATOM     18  C   UNL A   1      31.788  21.173  22.234  1.00  0.00     0.023 C 
ATOM     19  C   UNL A   1      32.607  20.853  23.426  1.00  0.00     0.023 C 
BRANCH  17  20
ATOM     20  C   UNL A   1      31.495  23.097  24.101  1.00  0.00    -0.032 A 
ATOM     21  C   UNL A   1      30.909  24.323  23.788  1.00  0.00     0.005 A 
ATOM     22  C   UNL A   1      31.351  22.692  25.439  1.00  0.00     0.005 A 
ATOM     23  C   UNL A   1      30.354  25.177  24.740  1.00  0.00     0.000 A 
ATOM     24  C   UNL A   1      30.705  23.495  26.392  1.00  0.00     0.000 A 
ATOM     25  C   UNL A   1      30.231  24.755  26.047  1.00  0.00     0.000 A 
ENDBRANCH  17  20
ENDBRANCH  14  17
ENDBRANCH   9  13
ENDBRANCH   8   9
ENDBRANCH   6   8
ENDBRANCH   3   4
ENDBRANCH   2   3
ENDBRANCH   1   2
BRANCH   1  26
ATOM     26  C   UNL A   1      33.617  31.122  27.722  1.00  0.00     0.002 C 
BRANCH  26  27
ATOM     27  C   UNL A   1      34.675  32.222  27.770  1.00  0.00     0.021 C 
BRANCH  27  28
ATOM     28  C   UNL A   1      35.938  31.876  28.555  1.00  0.00     0.116 C 
BRANCH  28  29
ATOM     29  N   UNL A   1      35.680  31.129  29.781  1.00  0.00    -0.352 N 
ATOM     30  C   UNL A   1      36.524  30.281  30.465  1.00  0.00     0.251 C 
ATOM     31  H   UNL A   1      34.784  31.246  30.171  1.00  0.00     0.163 HD
ATOM     32  O   UNL A   1      36.114  29.648  31.433  1.00  0.00    -0.269 OA
BRANCH  30  33
ATOM     33  C   UNL A   1      37.921  30.105  30.000  1.00  0.00     0.039 A 
ATOM     34  C   UNL A   1      38.958  30.127  30.936  1.00  0.00     0.014 A 
ATOM     35  C   UNL A   1      38.202  29.877  28.651  1.00  0.00     0.014 A 
ATOM     36  C   UNL A   1      40.265  29.834  30.531  1.00  0.00     0.010 A 
ATOM     37  C   UNL A   1      39.489  29.511  28.263  1.00  0.00     0.010 A 
ATOM     38  C   UNL A   1      40.534  29.477  29.199  1.00  0.00    -0.014 A 
BRANCH  38  39
ATOM     39  C   UNL A   1      41.894  29.050  28.769  1.00  0.00     0.031 A 
ATOM     40  C   UNL A   1      43.010  30.056  28.675  1.00  0.00     0.074 A 
ATOM     41  C   UNL A   1      42.104  27.774  28.387  1.00  0.00     0.049 A 
ATOM     42  N   UNL A   1      44.235  29.892  28.246  1.00  0.00    -0.248 NA
ATOM     43  C   UNL A   1      42.701  31.433  29.090  1.00  0.00     0.031 C 
ATOM     44  C   UNL A   1      41.092  26.715  28.377  1.00  0.00     0.029 A 
ATOM     45  N   UNL A   1      43.236  27.150  27.921  1.00  0.00    -0.354 N 
ATOM     46  C   UNL A   1      44.838  31.142  28.328  1.00  0.00     0.074 A 
ATOM     47  C   UNL A   1      43.826  32.067  28.793  1.00  0.00     0.031 C 
ATOM     48  C   UNL A   1      41.652  25.573  27.948  1.00  0.00     0.029 A 
ATOM     49  C   UNL A   1      43.051  25.822  27.615  1.00  0.00     0.049 A 
ATOM     50  H   UNL A   1      44.099  27.611  27.815  1.00  0.00     0.167 HD
ATOM     51  C   UNL A   1      46.121  31.485  28.062  1.00  0.00     0.037 A 
ATOM     52  C   UNL A   1      43.906  24.909  27.113  1.00  0.00     0.037 A 
ATOM     53  C   UNL A   1      47.130  30.557  27.623  1.00  0.00     0.049 A 
ATOM     54  C   UNL A   1      45.328  25.313  26.828  1.00  0.00     0.074 A 
ATOM     55  C   UNL A   1      48.473  30.795  27.386  1.00  0.00     0.029 A 
ATOM     56  N   UNL A   1      46.910  29.214  27.350  1.00  0.00    -0.354 N 
ATOM     57  N   UNL A   1      45.896  26.485  26.976  1.00  0.00    -0.248 NA
ATOM     58  C   UNL A   1      46.227  24.269  26.316  1.00  0.00     0.031 C 
ATOM     59  C   UNL A   1      49.055  29.608  26.926  1.00  0.00     0.029 A 
ATOM     60  C   UNL A   1      48.086  28.617  26.928  1.00  0.00     0.049 A 
ATOM     61  H   UNL A   1      46.044  28.754  27.444  1.00  0.00     0.167 HD
ATOM     62  C   UNL A   1      47.226  26.314  26.602  1.00  0.00     0.074 A 
ATOM     63  C   UNL A   1      47.378  24.922  26.233  1.00  0.00     0.031 C 
ATOM     64  C   UNL A   1      48.228  27.227  26.569  1.00  0.00     0.037 A 
BRANCH  51  65
ATOM     65  C   UNL A   1      46.511  32.927  28.246  1.00  0.00     0.058 A 
ATOM     66  C   UNL A   1      46.408  33.858  27.200  1.00  0.00     0.135 A 
ATOM     67  C   UNL A   1      46.956  33.395  29.494  1.00  0.00     0.135 A 
ATOM     68  F   UNL A   1      46.003  33.465  25.982  1.00  0.00    -0.206 F 
ATOM     69  C   UNL A   1      46.762  35.192  27.375  1.00  0.00     0.059 A 
ATOM     70  C   UNL A   1      47.285  34.731  29.700  1.00  0.00     0.059 A 
ATOM     71  F   UNL A   1      47.073  32.549  30.530  1.00  0.00    -0.206 F 
ATOM     72  C   UNL A   1      47.199  35.619  28.629  1.00  0.00     0.060 A 
BRANCH  72  73
ATOM     73  S   UNL A   1      47.646  37.356  28.840  1.00  0.00     0.124 S 
ATOM     74  O   UNL A   1      48.320  37.326  30.135  1.00  0.00    -0.237 OA
ATOM     75  O   UNL A   1      48.504  37.599  27.685  1.00  0.00    -0.237 OA
ATOM     76  O   UNL A   1      46.359  38.044  28.818  1.00  0.00    -0.744 OA
ENDBRANCH  72  73
ENDBRANCH  51  65
BRANCH  52  77
ATOM     77  C   UNL A   1      43.446  23.515  26.866  1.00  0.00     0.058 A 
ATOM     78  C   UNL A   1      43.295  23.024  25.560  1.00  0.00     0.135 A 
ATOM     79  C   UNL A   1      43.162  22.641  27.928  1.00  0.00     0.135 A 
ATOM     80  F   UNL A   1      43.546  23.822  24.511  1.00  0.00    -0.206 F 
ATOM     81  C   UNL A   1      42.861  21.725  25.314  1.00  0.00     0.059 A 
ATOM     82  C   UNL A   1      42.753  21.329  27.708  1.00  0.00     0.059 A 
ATOM     83  F   UNL A   1      43.307  23.055  29.197  1.00  0.00    -0.206 F 
ATOM     84  C   UNL A   1      42.596  20.884  26.396  1.00  0.00     0.060 A 
BRANCH  84  85
ATOM     85  S   UNL A   1      42.082  19.184  26.065  1.00  0.00     0.124 S 
ATOM     86  O   UNL A   1      40.631  19.325  25.989  1.00  0.00    -0.237 OA
ATOM     87  O   UNL A   1      42.762  18.898  24.806  1.00  0.00    -0.237 OA
ATOM     88  O   UNL A   1      42.586  18.450  27.222  1.00  0.00    -0.744 OA
ENDBRANCH  84  85
ENDBRANCH  52  77
BRANCH  64  89
ATOM     89  C   UNL A   1      49.592  26.748  26.154  1.00  0.00     0.058 A 
ATOM     90  C   UNL A   1      50.041  26.851  24.829  1.00  0.00     0.135 A 
ATOM     91  C   UNL A   1      50.482  26.228  27.109  1.00  0.00     0.135 A 
ATOM     92  F   UNL A   1      49.228  27.335  23.876  1.00  0.00    -0.206 F 
ATOM     93  C   UNL A   1      51.316  26.435  24.459  1.00  0.00     0.059 A 
ATOM     94  C   UNL A   1      51.771  25.833  26.767  1.00  0.00     0.059 A 
ATOM     95  F   UNL A   1      50.107  26.117  28.394  1.00  0.00    -0.206 F 
ATOM     96  C   UNL A   1      52.176  25.930  25.436  1.00  0.00     0.060 A 
BRANCH  96  97
ATOM     97  S   UNL A   1      53.840  25.427  24.949  1.00  0.00     0.124 S 
ATOM     98  O   UNL A   1      53.709  23.974  24.911  1.00  0.00    -0.237 OA
ATOM     99  O   UNL A   1      53.998  26.084  23.656  1.00  0.00    -0.237 OA
ATOM    100  O   UNL A   1      54.681  25.953  26.020  1.00  0.00    -0.744 OA
ENDBRANCH  96  97
ENDBRANCH  64  89
ENDBRANCH  38  39
ENDBRANCH  30  33
ENDBRANCH  28  29
ENDBRANCH  27  28
ENDBRANCH  26  27
ENDBRANCH   1  26
TORSDOF 20
ENDMDL
MODEL 2
REMARK VINA RESULT:     -11.0      1.214      2.658
REMARK SMILES O=C(CC1(NC(=O)C2(c3ccccc3)CC2)CCC1)NCCCCCCNC(=O)c1ccc(-c2c3nc(c(-c4c(F)cc(S(=O)(=O)[O-])cc4F)c4ccc([nH]4)c(-c4c(F)cc(S(=O)(=O)[O-])cc4F)c4nc(c(-c5c(F)cc(S(=O)(=O)[O-])cc5F)c5ccc2[nH]5)C=C4)C=C3)cc1
REMARK SMILES IDX 23 1 22 2 21 3 20 4 1 5 2 6 3 8 4 9 17 10 19 11 18 12 5 13
REMARK SMILES IDX 6 14 7 16 8 17 15 18 16 19 9 20 10 21 14 22 11 23 13 24
REMARK SMILES IDX 12 25 24 26 25 27 26 28 27 29 28 30 29 32 30 33 31 34 95 35
REMARK SMILES IDX 32 36 94 37 33 38 34 39 35 40 88 41 36 42 93 43 87 44 89 45
REMARK SMILES IDX 37 46 92 47 86 48 85 49 38 51 72 52 51 53 71 54 52 55 55 56
REMARK SMILES IDX 70 57 90 58 53 59 54 60 69 62 91 63 56 64 39 65 40 66 49 67
REMARK SMILES IDX 41 68 42 69 48 70 50 71 43 72 44 73 45 74 46 75 47 76 73 77
REMARK SMILES IDX 74 78 83 79 75 80 76 81 82 82 84 83 77 84 78 85 79 86 80 87
REMARK SMILES IDX 81 88 57 89 58 90 67 91 59 92 60 93 66 94 68 95 61 96 62 97
REMARK SMILES IDX 63 98 64 99 65 100
REMARK H PARENT 20 7 5 15 27 31 89 50 55 61
REMARK Flexibility Score: inf
ROOT
ATOM      1  C   UNL A   1      34.323  29.556  26.962  1.00  0.00     0.002 C 
ENDROOT
BRANCH   1   2
ATOM      2  C   UNL A   1      33.385  28.521  26.328  1.00  0.00     0.021 C 
BRANCH   2   3
ATOM      3  C   UNL A   1      33.793  27.924  24.972  1.00  0.00     0.116 C 
BRANCH   3   4
ATOM      4  N   UNL A   1      33.092  26.704  24.603  1.00  0.00    -0.356 N 
ATOM      5  O   UNL A   1      34.638  25.293  25.559  1.00  0.00    -0.275 OA
ATOM      6  C   UNL A   1      33.596  25.454  24.931  1.00  0.00     0.222 C 
ATOM      7  H   UNL A   1      32.242  26.767  24.110  1.00  0.00     0.163 HD
BRANCH   6   8
ATOM      8  C   UNL A   1      32.741  24.275  24.485  1.00  0.00     0.128 C 
BRANCH   8   9
ATOM      9  C   UNL A   1      32.156  23.394  25.603  1.00  0.00     0.049 C 
ATOM     10  C   UNL A   1      31.085  24.217  26.418  1.00  0.00     0.029 C 
ATOM     11  C   UNL A   1      30.983  22.371  25.353  1.00  0.00     0.029 C 
ATOM     12  C   UNL A   1      30.237  22.947  26.557  1.00  0.00     0.005 C 
BRANCH   9  13
ATOM     13  N   UNL A   1      33.203  22.842  26.539  1.00  0.00    -0.349 N 
ATOM     14  C   UNL A   1      34.170  21.851  26.468  1.00  0.00     0.231 C 
ATOM     15  H   UNL A   1      33.196  23.295  27.413  1.00  0.00     0.164 HD
ATOM     16  O   UNL A   1      34.742  21.540  27.506  1.00  0.00    -0.274 OA
BRANCH  14  17
ATOM     17  C   UNL A   1      34.589  21.181  25.166  1.00  0.00     0.074 C 
ATOM     18  C   UNL A   1      34.953  22.114  24.008  1.00  0.00     0.023 C 
ATOM     19  C   UNL A   1      36.055  21.422  24.716  1.00  0.00     0.023 C 
BRANCH  17  20
ATOM     20  C   UNL A   1      34.094  19.740  24.958  1.00  0.00    -0.032 A 
ATOM     21  C   UNL A   1      32.837  19.344  25.412  1.00  0.00     0.005 A 
ATOM     22  C   UNL A   1      34.886  18.711  24.422  1.00  0.00     0.005 A 
ATOM     23  C   UNL A   1      32.429  18.013  25.485  1.00  0.00     0.000 A 
ATOM     24  C   UNL A   1      34.450  17.377  24.393  1.00  0.00     0.000 A 
ATOM     25  C   UNL A   1      33.229  17.022  24.954  1.00  0.00     0.000 A 
ENDBRANCH  17  20
ENDBRANCH  14  17
ENDBRANCH   9  13
ENDBRANCH   8   9
ENDBRANCH   6   8
ENDBRANCH   3   4
ENDBRANCH   2   3
ENDBRANCH   1   2
BRANCH   1  26
ATOM     26  C   UNL A   1      33.676  30.793  27.600  1.00  0.00     0.002 C 
BRANCH  26  27
ATOM     27  C   UNL A   1      34.578  32.018  27.738  1.00  0.00     0.021 C 
BRANCH  27  28
ATOM     28  C   UNL A   1      35.855  31.798  28.546  1.00  0.00     0.116 C 
BRANCH  28  29
ATOM     29  N   UNL A   1      35.635  31.120  29.818  1.00  0.00    -0.352 N 
ATOM     30  C   UNL A   1      36.507  30.328  30.533  1.00  0.00     0.251 C 
ATOM     31  H   UNL A   1      34.745  31.245  30.219  1.00  0.00     0.163 HD
ATOM     32  O   UNL A   1      36.127  29.747  31.545  1.00  0.00    -0.269 OA
BRANCH  30  33
ATOM     33  C   UNL A   1      37.898  30.150  30.051  1.00  0.00     0.039 A 
ATOM     34  C   UNL A   1      38.957  30.324  30.946  1.00  0.00     0.014 A 
ATOM     35  C   UNL A   1      38.154  29.769  28.731  1.00  0.00     0.014 A 
ATOM     36  C   UNL A   1      40.263  30.032  30.540  1.00  0.00     0.010 A 
ATOM     37  C   UNL A   1      39.444  29.407  28.352  1.00  0.00     0.010 A 
ATOM     38  C   UNL A   1      40.513  29.527  29.253  1.00  0.00    -0.014 A 
BRANCH  38  39
ATOM     39  C   UNL A   1      41.877  29.101  28.837  1.00  0.00     0.031 A 
ATOM     40  C   UNL A   1      42.994  30.108  28.757  1.00  0.00     0.074 A 
ATOM     41  C   UNL A   1      42.092  27.826  28.455  1.00  0.00     0.049 A 
ATOM     42  N   UNL A   1      44.224  29.945  28.341  1.00  0.00    -0.248 NA
ATOM     43  C   UNL A   1      42.680  31.484  29.171  1.00  0.00     0.031 C 
ATOM     44  C   UNL A   1      41.081  26.767  28.431  1.00  0.00     0.029 A 
ATOM     45  N   UNL A   1      43.230  27.204  28.000  1.00  0.00    -0.354 N 
ATOM     46  C   UNL A   1      44.825  31.195  28.432  1.00  0.00     0.074 A 
ATOM     47  C   UNL A   1      43.808  32.119  28.888  1.00  0.00     0.031 C 
ATOM     48  C   UNL A   1      41.647  25.625  28.006  1.00  0.00     0.029 A 
ATOM     49  C   UNL A   1      43.049  25.876  27.689  1.00  0.00     0.049 A 
ATOM     50  H   UNL A   1      44.094  27.665  27.904  1.00  0.00     0.167 HD
ATOM     51  C   UNL A   1      46.111  31.540  28.181  1.00  0.00     0.037 A 
ATOM     52  C   UNL A   1      43.910  24.964  27.194  1.00  0.00     0.037 A 
ATOM     53  C   UNL A   1      47.125  30.613  27.750  1.00  0.00     0.049 A 
ATOM     54  C   UNL A   1      45.335  25.370  26.925  1.00  0.00     0.074 A 
ATOM     55  C   UNL A   1      48.470  30.853  27.529  1.00  0.00     0.029 A 
ATOM     56  N   UNL A   1      46.908  29.271  27.473  1.00  0.00    -0.354 N 
ATOM     57  N   UNL A   1      45.901  26.542  27.082  1.00  0.00    -0.248 NA
ATOM     58  C   UNL A   1      46.240  24.328  26.421  1.00  0.00     0.031 C 
ATOM     59  C   UNL A   1      49.057  29.667  27.073  1.00  0.00     0.029 A 
ATOM     60  C   UNL A   1      48.089  28.675  27.062  1.00  0.00     0.049 A 
ATOM     61  H   UNL A   1      46.042  28.810  27.556  1.00  0.00     0.167 HD
ATOM     62  C   UNL A   1      47.234  26.373  26.722  1.00  0.00     0.074 A 
ATOM     63  C   UNL A   1      47.391  24.981  26.352  1.00  0.00     0.031 C 
ATOM     64  C   UNL A   1      48.236  27.286  26.702  1.00  0.00     0.037 A 
BRANCH  51  65
ATOM     65  C   UNL A   1      46.498  32.982  28.373  1.00  0.00     0.058 A 
ATOM     66  C   UNL A   1      46.980  33.459  29.602  1.00  0.00     0.135 A 
ATOM     67  C   UNL A   1      46.425  33.890  27.304  1.00  0.00     0.135 A 
ATOM     68  F   UNL A   1      47.057  32.639  30.663  1.00  0.00    -0.206 F 
ATOM     69  C   UNL A   1      47.345  34.790  29.775  1.00  0.00     0.059 A 
ATOM     70  C   UNL A   1      46.814  35.220  27.445  1.00  0.00     0.059 A 
ATOM     71  F   UNL A   1      45.972  33.489  26.105  1.00  0.00    -0.206 F 
ATOM     72  C   UNL A   1      47.259  35.663  28.690  1.00  0.00     0.060 A 
BRANCH  72  73
ATOM     73  S   UNL A   1      47.744  37.385  28.929  1.00  0.00     0.124 S 
ATOM     74  O   UNL A   1      46.972  37.741  30.116  1.00  0.00    -0.237 OA
ATOM     75  O   UNL A   1      49.187  37.279  29.120  1.00  0.00    -0.237 OA
ATOM     76  O   UNL A   1      47.324  38.033  27.691  1.00  0.00    -0.744 OA
ENDBRANCH  72  73
ENDBRANCH  51  65
BRANCH  52  77
ATOM     77  C   UNL A   1      43.454  23.571  26.940  1.00  0.00     0.058 A 
ATOM     78  C   UNL A   1      43.123  23.144  25.644  1.00  0.00     0.135 A 
ATOM     79  C   UNL A   1      43.351  22.634  27.981  1.00  0.00     0.135 A 
ATOM     80  F   UNL A   1      43.196  24.003  24.616  1.00  0.00    -0.206 F 
ATOM     81  C   UNL A   1      42.690  21.846  25.392  1.00  0.00     0.059 A 
ATOM     82  C   UNL A   1      42.947  21.323  27.749  1.00  0.00     0.059 A 
ATOM     83  F   UNL A   1      43.672  22.987  29.236  1.00  0.00    -0.206 F 
ATOM     84  C   UNL A   1      42.609  20.941  26.452  1.00  0.00     0.060 A 
BRANCH  84  85
ATOM     85  S   UNL A   1      42.094  19.245  26.105  1.00  0.00     0.124 S 
ATOM     86  O   UNL A   1      40.667  19.416  25.855  1.00  0.00    -0.237 OA
ATOM     87  O   UNL A   1      42.910  18.909  24.942  1.00  0.00    -0.237 OA
ATOM     88  O   UNL A   1      42.441  18.532  27.331  1.00  0.00    -0.744 OA
ENDBRANCH  84  85
ENDBRANCH  52  77
BRANCH  64  89
ATOM     89  C   UNL A   1      49.605  26.809  26.301  1.00  0.00     0.058 A 
ATOM     90  C   UNL A   1      50.492  26.243  27.229  1.00  0.00     0.135 A 
ATOM     91  C   UNL A   1      50.012  26.870  24.958  1.00  0.00     0.135 A 
ATOM     92  F   UNL A   1      50.156  26.166  28.527  1.00  0.00    -0.206 F 
ATOM     93  C   UNL A   1      51.744  25.774  26.844  1.00  0.00     0.059 A 
ATOM     94  C   UNL A   1      51.247  26.380  24.546  1.00  0.00     0.059 A 
ATOM     95  F   UNL A   1      49.197  27.392  24.027  1.00  0.00    -0.206 F 
ATOM     96  C   UNL A   1      52.112  25.844  25.498  1.00  0.00     0.060 A 
BRANCH  96  97
ATOM     97  S   UNL A   1      53.725  25.199  25.007  1.00  0.00     0.124 S 
ATOM     98  O   UNL A   1      53.994  25.971  23.798  1.00  0.00    -0.237 OA
ATOM     99  O   UNL A   1      54.556  25.522  26.163  1.00  0.00    -0.237 OA
ATOM    100  O   UNL A   1      53.474  23.776  24.801  1.00  0.00    -0.744 OA
ENDBRANCH  96  97
ENDBRANCH  64  89
ENDBRANCH  38  39
ENDBRANCH  30  33
ENDBRANCH  28  29
ENDBRANCH  27  28
ENDBRANCH  26  27
ENDBRANCH   1  26
TORSDOF 20
ENDMDL
MODEL 3
REMARK VINA RESULT:     -10.9      2.615      8.836
REMARK SMILES O=C(CC1(NC(=O)C2(c3ccccc3)CC2)CCC1)NCCCCCCNC(=O)c1ccc(-c2c3nc(c(-c4c(F)cc(S(=O)(=O)[O-])cc4F)c4ccc([nH]4)c(-c4c(F)cc(S(=O)(=O)[O-])cc4F)c4nc(c(-c5c(F)cc(S(=O)(=O)[O-])cc5F)c5ccc2[nH]5)C=C4)C=C3)cc1
REMARK SMILES IDX 23 1 22 2 21 3 20 4 1 5 2 6 3 8 4 9 17 10 19 11 18 12 5 13
REMARK SMILES IDX 6 14 7 16 8 17 15 18 16 19 9 20 10 21 14 22 11 23 13 24
REMARK SMILES IDX 12 25 24 26 25 27 26 28 27 29 28 30 29 32 30 33 31 34 95 35
REMARK SMILES IDX 32 36 94 37 33 38 34 39 35 40 88 41 36 42 93 43 87 44 89 45
REMARK SMILES IDX 37 46 92 47 86 48 85 49 38 51 72 52 51 53 71 54 52 55 55 56
REMARK SMILES IDX 70 57 90 58 53 59 54 60 69 62 91 63 56 64 39 65 40 66 49 67
REMARK SMILES IDX 41 68 42 69 48 70 50 71 43 72 44 73 45 74 46 75 47 76 73 77
REMARK SMILES IDX 74 78 83 79 75 80 76 81 82 82 84 83 77 84 78 85 79 86 80 87
REMARK SMILES IDX 81 88 57 89 58 90 67 91 59 92 60 93 66 94 68 95 61 96 62 97
REMARK SMILES IDX 63 98 64 99 65 100
REMARK H PARENT 20 7 5 15 27 31 89 50 55 61
REMARK Flexibility Score: inf
ROOT
ATOM      1  C   UNL A   1      36.728  21.572  24.925  1.00  0.00     0.002 C 
ENDROOT
BRANCH   1   2
ATOM      2  C   UNL A   1      36.168  22.842  24.272  1.00  0.00     0.021 C 
BRANCH   2   3
ATOM      3  C   UNL A   1      34.812  23.364  24.773  1.00  0.00     0.116 C 
BRANCH   3   4
ATOM      4  N   UNL A   1      34.726  24.809  24.919  1.00  0.00    -0.356 N 
ATOM      5  O   UNL A   1      32.942  24.753  26.370  1.00  0.00    -0.275 OA
ATOM      6  C   UNL A   1      33.762  25.397  25.724  1.00  0.00     0.222 C 
ATOM      7  H   UNL A   1      35.366  25.381  24.436  1.00  0.00     0.163 HD
BRANCH   6   8
ATOM      8  C   UNL A   1      33.809  26.919  25.781  1.00  0.00     0.128 C 
BRANCH   8   9
ATOM      9  C   UNL A   1      32.483  27.631  26.106  1.00  0.00     0.049 C 
ATOM     10  C   UNL A   1      32.421  27.954  27.648  1.00  0.00     0.029 C 
ATOM     11  C   UNL A   1      32.282  29.182  25.909  1.00  0.00     0.029 C 
ATOM     12  C   UNL A   1      31.719  29.279  27.328  1.00  0.00     0.005 C 
BRANCH   9  13
ATOM     13  N   UNL A   1      31.265  26.842  25.695  1.00  0.00    -0.349 N 
ATOM     14  C   UNL A   1      30.340  26.914  24.663  1.00  0.00     0.231 C 
ATOM     15  H   UNL A   1      31.080  26.096  26.310  1.00  0.00     0.164 HD
ATOM     16  O   UNL A   1      29.346  26.201  24.741  1.00  0.00    -0.274 OA
BRANCH  14  17
ATOM     17  C   UNL A   1      30.529  27.784  23.429  1.00  0.00     0.074 C 
ATOM     18  C   UNL A   1      31.925  27.779  22.801  1.00  0.00     0.023 C 
ATOM     19  C   UNL A   1      30.849  27.034  22.108  1.00  0.00     0.023 C 
BRANCH  17  20
ATOM     20  C   UNL A   1      29.541  28.952  23.268  1.00  0.00    -0.032 A 
ATOM     21  C   UNL A   1      29.902  30.249  23.630  1.00  0.00     0.005 A 
ATOM     22  C   UNL A   1      28.203  28.795  22.869  1.00  0.00     0.005 A 
ATOM     23  C   UNL A   1      28.991  31.297  23.750  1.00  0.00     0.000 A 
ATOM     24  C   UNL A   1      27.294  29.864  22.885  1.00  0.00     0.000 A 
ATOM     25  C   UNL A   1      27.682  31.113  23.355  1.00  0.00     0.000 A 
ENDBRANCH  17  20
ENDBRANCH  14  17
ENDBRANCH   9  13
ENDBRANCH   8   9
ENDBRANCH   6   8
ENDBRANCH   3   4
ENDBRANCH   2   3
ENDBRANCH   1   2
BRANCH   1  26
ATOM     26  C   UNL A   1      38.215  21.574  25.302  1.00  0.00     0.002 C 
BRANCH  26  27
ATOM     27  C   UNL A   1      38.864  20.199  25.448  1.00  0.00     0.021 C 
BRANCH  27  28
ATOM     28  C   UNL A   1      40.061  20.141  26.395  1.00  0.00     0.116 C 
BRANCH  28  29
ATOM     29  N   UNL A   1      41.061  19.150  26.017  1.00  0.00    -0.352 N 
ATOM     30  C   UNL A   1      42.416  19.323  25.830  1.00  0.00     0.251 C 
ATOM     31  H   UNL A   1      40.723  18.236  25.876  1.00  0.00     0.163 HD
ATOM     32  O   UNL A   1      43.105  18.397  25.412  1.00  0.00    -0.269 OA
BRANCH  30  33
ATOM     33  C   UNL A   1      43.030  20.645  26.099  1.00  0.00     0.039 A 
ATOM     34  C   UNL A   1      43.457  21.429  25.025  1.00  0.00     0.014 A 
ATOM     35  C   UNL A   1      43.146  21.126  27.406  1.00  0.00     0.014 A 
ATOM     36  C   UNL A   1      43.918  22.729  25.256  1.00  0.00     0.010 A 
ATOM     37  C   UNL A   1      43.533  22.446  27.626  1.00  0.00     0.010 A 
ATOM     38  C   UNL A   1      43.917  23.266  26.554  1.00  0.00    -0.014 A 
BRANCH  38  39
ATOM     39  C   UNL A   1      44.294  24.683  26.810  1.00  0.00     0.031 A 
ATOM     40  C   UNL A   1      45.735  25.111  26.727  1.00  0.00     0.074 A 
ATOM     41  C   UNL A   1      43.350  25.567  27.194  1.00  0.00     0.049 A 
ATOM     42  N   UNL A   1      46.266  26.277  26.993  1.00  0.00    -0.248 NA
ATOM     43  C   UNL A   1      46.710  24.087  26.322  1.00  0.00     0.031 C 
ATOM     44  C   UNL A   1      41.927  25.265  27.366  1.00  0.00     0.029 A 
ATOM     45  N   UNL A   1      43.445  26.898  27.520  1.00  0.00    -0.354 N 
ATOM     46  C   UNL A   1      47.634  26.124  26.799  1.00  0.00     0.074 A 
ATOM     47  C   UNL A   1      47.857  24.737  26.449  1.00  0.00     0.031 C 
ATOM     48  C   UNL A   1      41.283  26.380  27.746  1.00  0.00     0.029 A 
ATOM     49  C   UNL A   1      42.247  27.467  27.883  1.00  0.00     0.049 A 
ATOM     50  H   UNL A   1      44.293  27.398  27.498  1.00  0.00     0.167 HD
ATOM     51  C   UNL A   1      48.613  27.057  26.882  1.00  0.00     0.037 A 
ATOM     52  C   UNL A   1      41.956  28.719  28.290  1.00  0.00     0.037 A 
ATOM     53  C   UNL A   1      48.383  28.441  27.207  1.00  0.00     0.049 A 
ATOM     54  C   UNL A   1      43.060  29.739  28.372  1.00  0.00     0.074 A 
ATOM     55  C   UNL A   1      49.300  29.476  27.255  1.00  0.00     0.029 A 
ATOM     56  N   UNL A   1      47.151  28.984  27.541  1.00  0.00    -0.354 N 
ATOM     57  N   UNL A   1      44.338  29.592  28.119  1.00  0.00    -0.248 NA
ATOM     58  C   UNL A   1      42.682  31.098  28.787  1.00  0.00     0.031 C 
ATOM     59  C   UNL A   1      48.632  30.635  27.665  1.00  0.00     0.029 A 
ATOM     60  C   UNL A   1      47.288  30.334  27.818  1.00  0.00     0.049 A 
ATOM     61  H   UNL A   1      46.303  28.483  27.576  1.00  0.00     0.167 HD
ATOM     62  C   UNL A   1      44.913  30.844  28.316  1.00  0.00     0.074 A 
ATOM     63  C   UNL A   1      43.839  31.739  28.698  1.00  0.00     0.031 C 
ATOM     64  C   UNL A   1      46.210  31.218  28.191  1.00  0.00     0.037 A 
BRANCH  51  65
ATOM     65  C   UNL A   1      50.026  26.614  26.609  1.00  0.00     0.058 A 
ATOM     66  C   UNL A   1      50.542  26.559  25.305  1.00  0.00     0.135 A 
ATOM     67  C   UNL A   1      50.887  26.279  27.667  1.00  0.00     0.135 A 
ATOM     68  F   UNL A   1      49.760  26.853  24.254  1.00  0.00    -0.206 F 
ATOM     69  C   UNL A   1      51.851  26.157  25.055  1.00  0.00     0.059 A 
ATOM     70  C   UNL A   1      52.209  25.904  27.444  1.00  0.00     0.059 A 
ATOM     71  F   UNL A   1      50.447  26.315  28.935  1.00  0.00    -0.206 F 
ATOM     72  C   UNL A   1      52.677  25.832  26.132  1.00  0.00     0.060 A 
BRANCH  72  73
ATOM     73  S   UNL A   1      54.374  25.320  25.791  1.00  0.00     0.124 S 
ATOM     74  O   UNL A   1      54.884  26.477  25.062  1.00  0.00    -0.237 OA
ATOM     75  O   UNL A   1      54.917  25.127  27.132  1.00  0.00    -0.237 OA
ATOM     76  O   UNL A   1      54.211  24.104  25.003  1.00  0.00    -0.744 OA
ENDBRANCH  72  73
ENDBRANCH  51  65
BRANCH  52  77
ATOM     77  C   UNL A   1      40.555  29.084  28.633  1.00  0.00     0.058 A 
ATOM     78  C   UNL A   1      40.134  29.161  29.969  1.00  0.00     0.135 A 
ATOM     79  C   UNL A   1      39.611  29.375  27.634  1.00  0.00     0.135 A 
ATOM     80  F   UNL A   1      40.995  28.884  30.960  1.00  0.00    -0.206 F 
ATOM     81  C   UNL A   1      38.825  29.496  30.304  1.00  0.00     0.059 A 
ATOM     82  C   UNL A   1      38.305  29.740  27.945  1.00  0.00     0.059 A 
ATOM     83  F   UNL A   1      39.967  29.333  26.340  1.00  0.00    -0.206 F 
ATOM     84  C   UNL A   1      37.919  29.787  29.284  1.00  0.00     0.060 A 
BRANCH  84  85
ATOM     85  S   UNL A   1      36.237  30.270  29.732  1.00  0.00     0.124 S 
ATOM     86  O   UNL A   1      36.345  31.724  29.758  1.00  0.00    -0.237 OA
ATOM     87  O   UNL A   1      35.454  29.706  28.637  1.00  0.00    -0.237 OA
ATOM     88  O   UNL A   1      36.038  29.628  31.028  1.00  0.00    -0.744 OA
ENDBRANCH  84  85
ENDBRANCH  52  77
BRANCH  64  89
ATOM     89  C   UNL A   1      46.544  32.664  28.432  1.00  0.00     0.058 A 
ATOM     90  C   UNL A   1      46.962  33.127  29.689  1.00  0.00     0.135 A 
ATOM     91  C   UNL A   1      46.495  33.589  27.376  1.00  0.00     0.135 A 
ATOM     92  F   UNL A   1      47.020  32.286  30.735  1.00  0.00    -0.206 F 
ATOM     93  C   UNL A   1      47.300  34.461  29.897  1.00  0.00     0.059 A 
ATOM     94  C   UNL A   1      46.856  34.921  27.554  1.00  0.00     0.059 A 
ATOM     95  F   UNL A   1      46.112  33.197  26.150  1.00  0.00    -0.206 F 
ATOM     96  C   UNL A   1      47.247  35.351  28.822  1.00  0.00     0.060 A 
BRANCH  96  97
ATOM     97  S   UNL A   1      47.722  37.070  29.096  1.00  0.00     0.124 S 
ATOM     98  O   UNL A   1      48.072  37.056  30.513  1.00  0.00    -0.237 OA
ATOM     99  O   UNL A   1      48.836  37.238  28.169  1.00  0.00    -0.237 OA
ATOM    100  O   UNL A   1      46.513  37.815  28.756  1.00  0.00    -0.744 OA
ENDBRANCH  96  97
ENDBRANCH  64  89
ENDBRANCH  38  39
ENDBRANCH  30  33
ENDBRANCH  28  29
ENDBRANCH  27  28
ENDBRANCH  26  27
ENDBRANCH   1  26
TORSDOF 20
ENDMDL
