MODEL 1
REMARK VINA RESULT:      -9.3      0.000      0.000
REMARK SMILES Cc1oc2ccc(OCc3ccc(Br)cc3)cc2c1C(=O)NCCCCCCNC(=O)c1ccc(-c2c3nc(c(-c4c(F)cc(S(=O)(=O)[O-])cc4F)c4ccc([nH]4)c(-c4c(F)cc(S(=O)(=O)[O-])cc4F)c4nc(c(-c5c(F)cc(S(=O)(=O)[O-])cc5F)c5ccc2[nH]5)C=C4)C=C3)cc1
REMARK SMILES IDX 25 1 24 2 23 3 22 4 20 5 21 6 19 8 1 9 2 10 3 11 4 12 18 13
REMARK SMILES IDX 5 14 17 15 6 16 7 17 8 18 9 19 10 20 11 21 16 22 12 23 15 24
REMARK SMILES IDX 13 25 14 26 26 27 27 28 28 29 29 30 30 31 31 33 32 34 33 35
REMARK SMILES IDX 97 36 34 37 96 38 35 39 36 40 37 41 90 42 38 43 95 44 89 45
REMARK SMILES IDX 91 46 39 47 94 48 88 49 87 50 40 52 74 53 53 54 73 55 54 56
REMARK SMILES IDX 57 57 72 58 92 59 55 60 56 61 71 63 93 64 58 65 41 66 42 67
REMARK SMILES IDX 51 68 43 69 44 70 50 71 52 72 45 73 46 74 47 75 48 76 49 77
REMARK SMILES IDX 75 78 76 79 85 80 77 81 78 82 84 83 86 84 79 85 80 86 81 87
REMARK SMILES IDX 82 88 83 89 59 90 60 91 69 92 61 93 62 94 68 95 70 96 63 97
REMARK SMILES IDX 64 98 65 99 66 100 67 101
REMARK H PARENT 22 7 29 32 91 51 57 62
REMARK Flexibility Score: inf
ROOT
ATOM      1  C   UNL A   1      37.374  33.368  30.167  1.00  0.00     0.002 C 
ENDROOT
BRANCH   1   2
ATOM      2  C   UNL A   1      37.816  34.469  31.131  1.00  0.00     0.021 C 
BRANCH   2   3
ATOM      3  C   UNL A   1      39.222  34.353  31.703  1.00  0.00     0.116 C 
BRANCH   3   4
ATOM      4  N   UNL A   1      39.296  34.374  33.140  1.00  0.00    -0.352 N 
ATOM      5  C   UNL A   1      38.976  33.416  34.070  1.00  0.00     0.255 C 
ATOM      6  O   UNL A   1      39.091  33.766  35.249  1.00  0.00    -0.269 OA
ATOM      7  H   UNL A   1      39.631  35.218  33.521  1.00  0.00     0.163 HD
BRANCH   5   8
ATOM      8  C   UNL A   1      38.517  32.062  33.739  1.00  0.00     0.088 A 
ATOM      9  C   UNL A   1      35.886  32.057  33.150  1.00  0.00     0.088 C 
ATOM     10  C   UNL A   1      37.263  31.563  33.367  1.00  0.00     0.115 A 
ATOM     11  O   UNL A   1      37.350  30.243  33.053  1.00  0.00    -0.461 OA
ATOM     12  C   UNL A   1      38.639  29.879  33.131  1.00  0.00     0.135 A 
ATOM     13  C   UNL A   1      39.415  30.920  33.607  1.00  0.00     0.037 A 
ATOM     14  C   UNL A   1      39.115  28.641  32.733  1.00  0.00     0.051 A 
ATOM     15  C   UNL A   1      40.794  30.655  33.800  1.00  0.00     0.059 A 
ATOM     16  C   UNL A   1      40.490  28.452  32.837  1.00  0.00     0.050 A 
ATOM     17  C   UNL A   1      41.317  29.394  33.445  1.00  0.00     0.120 A 
BRANCH  17  18
ATOM     18  O   UNL A   1      42.642  29.187  33.738  1.00  0.00    -0.489 OA
BRANCH  18  19
ATOM     19  C   UNL A   1      42.983  28.521  34.966  1.00  0.00     0.265 C 
BRANCH  19  20
ATOM     20  C   UNL A   1      43.266  27.037  34.806  1.00  0.00    -0.011 A 
ATOM     21  C   UNL A   1      42.318  26.066  35.174  1.00  0.00     0.008 A 
ATOM     22  C   UNL A   1      44.502  26.602  34.308  1.00  0.00     0.008 A 
ATOM     23  C   UNL A   1      42.619  24.704  35.116  1.00  0.00     0.016 A 
ATOM     24  C   UNL A   1      44.790  25.236  34.209  1.00  0.00     0.016 A 
ATOM     25  C   UNL A   1      43.855  24.295  34.633  1.00  0.00     0.017 A 
ATOM     26  Br  UNL A   1      44.262  22.452  34.552  1.00  0.00    -0.051 Br
ENDBRANCH  19  20
ENDBRANCH  18  19
ENDBRANCH  17  18
ENDBRANCH   5   8
ENDBRANCH   3   4
ENDBRANCH   2   3
ENDBRANCH   1   2
BRANCH   1  27
ATOM     27  C   UNL A   1      37.025  33.795  28.738  1.00  0.00     0.002 C 
BRANCH  27  28
ATOM     28  C   UNL A   1      35.618  33.454  28.241  1.00  0.00     0.021 C 
BRANCH  28  29
ATOM     29  C   UNL A   1      34.749  32.640  29.194  1.00  0.00     0.116 C 
BRANCH  29  30
ATOM     30  N   UNL A   1      34.011  31.584  28.523  1.00  0.00    -0.352 N 
ATOM     31  C   UNL A   1      34.457  30.383  28.030  1.00  0.00     0.251 C 
ATOM     32  H   UNL A   1      33.049  31.755  28.403  1.00  0.00     0.163 HD
ATOM     33  O   UNL A   1      33.700  29.685  27.355  1.00  0.00    -0.269 OA
BRANCH  31  34
ATOM     34  C   UNL A   1      35.845  29.939  28.284  1.00  0.00     0.039 A 
ATOM     35  C   UNL A   1      36.791  30.075  27.265  1.00  0.00     0.014 A 
ATOM     36  C   UNL A   1      36.215  29.382  29.511  1.00  0.00     0.014 A 
ATOM     37  C   UNL A   1      38.120  29.710  27.497  1.00  0.00     0.010 A 
ATOM     38  C   UNL A   1      37.554  29.090  29.767  1.00  0.00     0.010 A 
ATOM     39  C   UNL A   1      38.520  29.248  28.762  1.00  0.00    -0.014 A 
BRANCH  39  40
ATOM     40  C   UNL A   1      39.945  28.931  29.048  1.00  0.00     0.031 A 
ATOM     41  C   UNL A   1      40.850  29.974  29.646  1.00  0.00     0.074 A 
ATOM     42  C   UNL A   1      40.436  27.721  28.715  1.00  0.00     0.049 A 
ATOM     43  N   UNL A   1      42.128  29.900  29.917  1.00  0.00    -0.248 NA
ATOM     44  C   UNL A   1      40.246  31.278  29.960  1.00  0.00     0.031 C 
ATOM     45  C   UNL A   1      39.670  26.642  28.087  1.00  0.00     0.029 A 
ATOM     46  N   UNL A   1      41.697  27.196  28.848  1.00  0.00    -0.354 N 
ATOM     47  C   UNL A   1      42.483  31.147  30.421  1.00  0.00     0.074 A 
ATOM     48  C   UNL A   1      41.298  31.975  30.365  1.00  0.00     0.031 C 
ATOM     49  C   UNL A   1      40.469  25.577  27.914  1.00  0.00     0.029 A 
ATOM     50  C   UNL A   1      41.813  25.909  28.376  1.00  0.00     0.049 A 
ATOM     51  H   UNL A   1      42.449  27.693  29.244  1.00  0.00     0.167 HD
ATOM     52  C   UNL A   1      43.679  31.556  30.907  1.00  0.00     0.037 A 
ATOM     53  C   UNL A   1      42.883  25.091  28.312  1.00  0.00     0.037 A 
ATOM     54  C   UNL A   1      44.851  30.720  30.971  1.00  0.00     0.049 A 
ATOM     55  C   UNL A   1      44.206  25.574  28.843  1.00  0.00     0.074 A 
ATOM     56  C   UNL A   1      46.095  31.022  31.497  1.00  0.00     0.029 A 
ATOM     57  N   UNL A   1      44.926  29.421  30.491  1.00  0.00    -0.354 N 
ATOM     58  N   UNL A   1      44.507  26.734  29.378  1.00  0.00    -0.248 NA
ATOM     59  C   UNL A   1      45.334  24.637  28.765  1.00  0.00     0.031 C 
ATOM     60  C   UNL A   1      46.938  29.927  31.283  1.00  0.00     0.029 A 
ATOM     61  C   UNL A   1      46.204  28.919  30.680  1.00  0.00     0.049 A 
ATOM     62  H   UNL A   1      44.182  28.928  30.075  1.00  0.00     0.167 HD
ATOM     63  C   UNL A   1      45.850  26.655  29.727  1.00  0.00     0.074 A 
ATOM     64  C   UNL A   1      46.300  25.329  29.354  1.00  0.00     0.031 C 
ATOM     65  C   UNL A   1      46.639  27.594  30.306  1.00  0.00     0.037 A 
BRANCH  52  66
ATOM     66  C   UNL A   1      43.783  32.975  31.403  1.00  0.00     0.058 A 
ATOM     67  C   UNL A   1      43.959  34.055  30.522  1.00  0.00     0.135 A 
ATOM     68  C   UNL A   1      43.675  33.262  32.773  1.00  0.00     0.135 A 
ATOM     69  F   UNL A   1      44.082  33.840  29.202  1.00  0.00    -0.206 F 
ATOM     70  C   UNL A   1      44.059  35.364  30.984  1.00  0.00     0.059 A 
ATOM     71  C   UNL A   1      43.740  34.567  33.255  1.00  0.00     0.059 A 
ATOM     72  F   UNL A   1      43.504  32.271  33.661  1.00  0.00    -0.206 F 
ATOM     73  C   UNL A   1      43.949  35.610  32.353  1.00  0.00     0.060 A 
BRANCH  73  74
ATOM     74  S   UNL A   1      44.086  37.313  32.936  1.00  0.00     0.124 S 
ATOM     75  O   UNL A   1      45.387  37.290  33.599  1.00  0.00    -0.237 OA
ATOM     76  O   UNL A   1      44.024  38.073  31.692  1.00  0.00    -0.237 OA
ATOM     77  O   UNL A   1      42.934  37.464  33.819  1.00  0.00    -0.744 OA
ENDBRANCH  73  74
ENDBRANCH  52  66
BRANCH  53  78
ATOM     78  C   UNL A   1      42.738  23.725  27.741  1.00  0.00     0.058 A 
ATOM     79  C   UNL A   1      42.509  22.616  28.568  1.00  0.00     0.135 A 
ATOM     80  C   UNL A   1      42.808  23.502  26.356  1.00  0.00     0.135 A 
ATOM     81  F   UNL A   1      42.442  22.774  29.899  1.00  0.00    -0.206 F 
ATOM     82  C   UNL A   1      42.367  21.333  28.047  1.00  0.00     0.059 A 
ATOM     83  C   UNL A   1      42.641  22.234  25.809  1.00  0.00     0.059 A 
ATOM     84  F   UNL A   1      43.010  24.532  25.519  1.00  0.00    -0.206 F 
ATOM     85  C   UNL A   1      42.430  21.154  26.665  1.00  0.00     0.060 A 
BRANCH  85  86
ATOM     86  S   UNL A   1      42.189  19.494  25.996  1.00  0.00     0.124 S 
ATOM     87  O   UNL A   1      43.035  19.529  24.808  1.00  0.00    -0.237 OA
ATOM     88  O   UNL A   1      42.661  18.652  27.091  1.00  0.00    -0.237 OA
ATOM     89  O   UNL A   1      40.752  19.437  25.747  1.00  0.00    -0.744 OA
ENDBRANCH  85  86
ENDBRANCH  53  78
BRANCH  65  90
ATOM     90  C   UNL A   1      48.066  27.216  30.603  1.00  0.00     0.058 A 
ATOM     91  C   UNL A   1      48.417  26.499  31.758  1.00  0.00     0.135 A 
ATOM     92  C   UNL A   1      49.087  27.532  29.693  1.00  0.00     0.135 A 
ATOM     93  F   UNL A   1      47.481  26.178  32.665  1.00  0.00    -0.206 F 
ATOM     94  C   UNL A   1      49.734  26.132  32.012  1.00  0.00     0.059 A 
ATOM     95  C   UNL A   1      50.406  27.146  29.911  1.00  0.00     0.059 A 
ATOM     96  F   UNL A   1      48.806  28.208  28.568  1.00  0.00    -0.206 F 
ATOM     97  C   UNL A   1      50.722  26.456  31.080  1.00  0.00     0.060 A 
BRANCH  97  98
ATOM     98  S   UNL A   1      52.421  25.942  31.407  1.00  0.00     0.124 S 
ATOM     99  O   UNL A   1      52.856  26.952  32.364  1.00  0.00    -0.237 OA
ATOM    100  O   UNL A   1      52.241  24.596  31.942  1.00  0.00    -0.237 OA
ATOM    101  O   UNL A   1      53.055  26.007  30.093  1.00  0.00    -0.744 OA
ENDBRANCH  97  98
ENDBRANCH  65  90
ENDBRANCH  39  40
ENDBRANCH  31  34
ENDBRANCH  29  30
ENDBRANCH  28  29
ENDBRANCH  27  28
ENDBRANCH   1  27
TORSDOF 19
ENDMDL
MODEL 2
REMARK VINA RESULT:      -8.8      4.863     10.979
REMARK SMILES Cc1oc2ccc(OCc3ccc(Br)cc3)cc2c1C(=O)NCCCCCCNC(=O)c1ccc(-c2c3nc(c(-c4c(F)cc(S(=O)(=O)[O-])cc4F)c4ccc([nH]4)c(-c4c(F)cc(S(=O)(=O)[O-])cc4F)c4nc(c(-c5c(F)cc(S(=O)(=O)[O-])cc5F)c5ccc2[nH]5)C=C4)C=C3)cc1
REMARK SMILES IDX 25 1 24 2 23 3 22 4 20 5 21 6 19 8 1 9 2 10 3 11 4 12 18 13
REMARK SMILES IDX 5 14 17 15 6 16 7 17 8 18 9 19 10 20 11 21 16 22 12 23 15 24
REMARK SMILES IDX 13 25 14 26 26 27 27 28 28 29 29 30 30 31 31 33 32 34 33 35
REMARK SMILES IDX 97 36 34 37 96 38 35 39 36 40 37 41 90 42 38 43 95 44 89 45
REMARK SMILES IDX 91 46 39 47 94 48 88 49 87 50 40 52 74 53 53 54 73 55 54 56
REMARK SMILES IDX 57 57 72 58 92 59 55 60 56 61 71 63 93 64 58 65 41 66 42 67
REMARK SMILES IDX 51 68 43 69 44 70 50 71 52 72 45 73 46 74 47 75 48 76 49 77
REMARK SMILES IDX 75 78 76 79 85 80 77 81 78 82 84 83 86 84 79 85 80 86 81 87
REMARK SMILES IDX 82 88 83 89 59 90 60 91 69 92 61 93 62 94 68 95 70 96 63 97
REMARK SMILES IDX 64 98 65 99 66 100 67 101
REMARK H PARENT 22 7 29 32 91 51 57 62
REMARK Flexibility Score: inf
ROOT
ATOM      1  C   UNL A   1      34.483  25.876  25.331  1.00  0.00     0.002 C 
ENDROOT
BRANCH   1   2
ATOM      2  C   UNL A   1      34.051  27.249  24.815  1.00  0.00     0.021 C 
BRANCH   2   3
ATOM      3  C   UNL A   1      33.995  28.376  25.837  1.00  0.00     0.116 C 
BRANCH   3   4
ATOM      4  N   UNL A   1      32.990  28.220  26.856  1.00  0.00    -0.352 N 
ATOM      5  C   UNL A   1      31.689  27.788  26.775  1.00  0.00     0.255 C 
ATOM      6  O   UNL A   1      31.054  27.828  27.834  1.00  0.00    -0.269 OA
ATOM      7  H   UNL A   1      33.285  28.465  27.763  1.00  0.00     0.163 HD
BRANCH   5   8
ATOM      8  C   UNL A   1      31.050  27.312  25.542  1.00  0.00     0.088 A 
ATOM      9  C   UNL A   1      30.396  29.380  23.941  1.00  0.00     0.088 C 
ATOM     10  C   UNL A   1      30.551  27.990  24.425  1.00  0.00     0.115 A 
ATOM     11  O   UNL A   1      30.143  27.108  23.475  1.00  0.00    -0.461 OA
ATOM     12  C   UNL A   1      30.433  25.870  23.903  1.00  0.00     0.135 A 
ATOM     13  C   UNL A   1      30.934  25.902  25.192  1.00  0.00     0.037 A 
ATOM     14  C   UNL A   1      30.292  24.733  23.126  1.00  0.00     0.051 A 
ATOM     15  C   UNL A   1      31.226  24.653  25.797  1.00  0.00     0.059 A 
ATOM     16  C   UNL A   1      30.688  23.536  23.714  1.00  0.00     0.050 A 
ATOM     17  C   UNL A   1      31.060  23.464  25.056  1.00  0.00     0.120 A 
BRANCH  17  18
ATOM     18  O   UNL A   1      31.284  22.293  25.736  1.00  0.00    -0.489 OA
BRANCH  18  19
ATOM     19  C   UNL A   1      32.642  21.893  25.991  1.00  0.00     0.265 C 
BRANCH  19  20
ATOM     20  C   UNL A   1      33.065  20.636  25.250  1.00  0.00    -0.011 A 
ATOM     21  C   UNL A   1      32.153  19.902  24.471  1.00  0.00     0.008 A 
ATOM     22  C   UNL A   1      34.381  20.165  25.350  1.00  0.00     0.008 A 
ATOM     23  C   UNL A   1      32.521  18.697  23.871  1.00  0.00     0.016 A 
ATOM     24  C   UNL A   1      34.764  18.979  24.713  1.00  0.00     0.016 A 
ATOM     25  C   UNL A   1      33.827  18.240  23.995  1.00  0.00     0.017 A 
ATOM     26  Br  UNL A   1      34.326  16.610  23.180  1.00  0.00    -0.051 Br
ENDBRANCH  19  20
ENDBRANCH  18  19
ENDBRANCH  17  18
ENDBRANCH   5   8
ENDBRANCH   3   4
ENDBRANCH   2   3
ENDBRANCH   1   2
BRANCH   1  27
ATOM     27  C   UNL A   1      34.518  24.732  24.313  1.00  0.00     0.002 C 
BRANCH  27  28
ATOM     28  C   UNL A   1      35.601  23.668  24.509  1.00  0.00     0.021 C 
BRANCH  28  29
ATOM     29  C   UNL A   1      36.207  23.577  25.905  1.00  0.00     0.116 C 
BRANCH  29  30
ATOM     30  N   UNL A   1      37.220  22.542  26.014  1.00  0.00    -0.352 N 
ATOM     31  C   UNL A   1      38.558  22.655  26.300  1.00  0.00     0.251 C 
ATOM     32  H   UNL A   1      36.900  21.624  25.861  1.00  0.00     0.163 HD
ATOM     33  O   UNL A   1      39.286  21.667  26.198  1.00  0.00    -0.269 OA
BRANCH  31  34
ATOM     34  C   UNL A   1      39.130  23.957  26.703  1.00  0.00     0.039 A 
ATOM     35  C   UNL A   1      39.038  24.346  28.043  1.00  0.00     0.014 A 
ATOM     36  C   UNL A   1      39.746  24.799  25.773  1.00  0.00     0.014 A 
ATOM     37  C   UNL A   1      39.615  25.548  28.459  1.00  0.00     0.010 A 
ATOM     38  C   UNL A   1      40.387  25.959  26.202  1.00  0.00     0.010 A 
ATOM     39  C   UNL A   1      40.327  26.349  27.549  1.00  0.00    -0.014 A 
BRANCH  39  40
ATOM     40  C   UNL A   1      41.015  27.590  27.993  1.00  0.00     0.031 A 
ATOM     41  C   UNL A   1      42.513  27.703  27.904  1.00  0.00     0.074 A 
ATOM     42  C   UNL A   1      40.292  28.594  28.528  1.00  0.00     0.049 A 
ATOM     43  N   UNL A   1      43.292  28.681  28.289  1.00  0.00    -0.248 NA
ATOM     44  C   UNL A   1      43.233  26.556  27.329  1.00  0.00     0.031 C 
ATOM     45  C   UNL A   1      38.839  28.586  28.710  1.00  0.00     0.029 A 
ATOM     46  N   UNL A   1      40.681  29.812  29.027  1.00  0.00    -0.354 N 
ATOM     47  C   UNL A   1      44.590  28.265  28.015  1.00  0.00     0.074 A 
ATOM     48  C   UNL A   1      44.497  26.923  27.483  1.00  0.00     0.031 C 
ATOM     49  C   UNL A   1      38.457  29.752  29.256  1.00  0.00     0.029 A 
ATOM     50  C   UNL A   1      39.637  30.573  29.503  1.00  0.00     0.049 A 
ATOM     51  H   UNL A   1      41.618  30.114  29.044  1.00  0.00     0.167 HD
ATOM     52  C   UNL A   1      45.750  28.947  28.169  1.00  0.00     0.037 A 
ATOM     53  C   UNL A   1      39.632  31.790  30.083  1.00  0.00     0.037 A 
ATOM     54  C   UNL A   1      45.831  30.290  28.686  1.00  0.00     0.049 A 
ATOM     55  C   UNL A   1      40.935  32.522  30.260  1.00  0.00     0.074 A 
ATOM     56  C   UNL A   1      46.952  31.089  28.830  1.00  0.00     0.029 A 
ATOM     57  N   UNL A   1      44.753  31.029  29.150  1.00  0.00    -0.354 N 
ATOM     58  N   UNL A   1      42.147  32.140  29.932  1.00  0.00    -0.248 NA
ATOM     59  C   UNL A   1      40.871  33.852  30.880  1.00  0.00     0.031 C 
ATOM     60  C   UNL A   1      46.559  32.289  29.433  1.00  0.00     0.029 A 
ATOM     61  C   UNL A   1      45.185  32.263  29.608  1.00  0.00     0.049 A 
ATOM     62  H   UNL A   1      43.817  30.722  29.154  1.00  0.00     0.167 HD
ATOM     63  C   UNL A   1      42.985  33.193  30.280  1.00  0.00     0.074 A 
ATOM     64  C   UNL A   1      42.140  34.233  30.832  1.00  0.00     0.031 C 
ATOM     65  C   UNL A   1      44.332  33.292  30.153  1.00  0.00     0.037 A 
BRANCH  52  66
ATOM     66  C   UNL A   1      47.027  28.251  27.779  1.00  0.00     0.058 A 
ATOM     67  C   UNL A   1      47.745  27.459  28.690  1.00  0.00     0.135 A 
ATOM     68  C   UNL A   1      47.524  28.350  26.469  1.00  0.00     0.135 A 
ATOM     69  F   UNL A   1      47.326  27.337  29.959  1.00  0.00    -0.206 F 
ATOM     70  C   UNL A   1      48.927  26.821  28.327  1.00  0.00     0.059 A 
ATOM     71  C   UNL A   1      48.687  27.694  26.075  1.00  0.00     0.059 A 
ATOM     72  F   UNL A   1      46.879  29.092  25.555  1.00  0.00    -0.206 F 
ATOM     73  C   UNL A   1      49.391  26.945  27.017  1.00  0.00     0.060 A 
BRANCH  73  74
ATOM     74  S   UNL A   1      50.929  26.114  26.565  1.00  0.00     0.124 S 
ATOM     75  O   UNL A   1      50.783  24.837  27.258  1.00  0.00    -0.237 OA
ATOM     76  O   UNL A   1      50.837  26.060  25.110  1.00  0.00    -0.237 OA
ATOM     77  O   UNL A   1      51.962  26.999  27.094  1.00  0.00    -0.744 OA
ENDBRANCH  73  74
ENDBRANCH  52  66
BRANCH  53  78
ATOM     78  C   UNL A   1      38.346  32.397  30.519  1.00  0.00     0.058 A 
ATOM     79  C   UNL A   1      37.567  33.154  29.632  1.00  0.00     0.135 A 
ATOM     80  C   UNL A   1      37.861  32.219  31.825  1.00  0.00     0.135 A 
ATOM     81  F   UNL A   1      37.989  33.360  28.375  1.00  0.00    -0.206 F 
ATOM     82  C   UNL A   1      36.359  33.725  30.026  1.00  0.00     0.059 A 
ATOM     83  C   UNL A   1      36.644  32.755  32.233  1.00  0.00     0.059 A 
ATOM     84  F   UNL A   1      38.561  31.491  32.709  1.00  0.00    -0.206 F 
ATOM     85  C   UNL A   1      35.904  33.514  31.327  1.00  0.00     0.060 A 
BRANCH  85  86
ATOM     86  S   UNL A   1      34.310  34.212  31.810  1.00  0.00     0.124 S 
ATOM     87  O   UNL A   1      34.718  35.430  32.501  1.00  0.00    -0.237 OA
ATOM     88  O   UNL A   1      33.655  34.399  30.519  1.00  0.00    -0.237 OA
ATOM     89  O   UNL A   1      33.729  33.171  32.653  1.00  0.00    -0.744 OA
ENDBRANCH  85  86
ENDBRANCH  53  78
BRANCH  65  90
ATOM     90  C   UNL A   1      44.979  34.580  30.588  1.00  0.00     0.058 A 
ATOM     91  C   UNL A   1      45.468  34.760  31.892  1.00  0.00     0.135 A 
ATOM     92  C   UNL A   1      45.158  35.628  29.671  1.00  0.00     0.135 A 
ATOM     93  F   UNL A   1      45.316  33.793  32.811  1.00  0.00    -0.206 F 
ATOM     94  C   UNL A   1      46.088  35.944  32.277  1.00  0.00     0.059 A 
ATOM     95  C   UNL A   1      45.805  36.808  30.025  1.00  0.00     0.059 A 
ATOM     96  F   UNL A   1      44.720  35.505  28.408  1.00  0.00    -0.206 F 
ATOM     97  C   UNL A   1      46.256  36.961  31.335  1.00  0.00     0.060 A 
BRANCH  97  98
ATOM     98  S   UNL A   1      47.094  38.478  31.841  1.00  0.00     0.124 S 
ATOM     99  O   UNL A   1      46.218  38.959  32.903  1.00  0.00    -0.237 OA
ATOM    100  O   UNL A   1      48.399  37.984  32.270  1.00  0.00    -0.237 OA
ATOM    101  O   UNL A   1      47.105  39.284  30.623  1.00  0.00    -0.744 OA
ENDBRANCH  97  98
ENDBRANCH  65  90
ENDBRANCH  39  40
ENDBRANCH  31  34
ENDBRANCH  29  30
ENDBRANCH  28  29
ENDBRANCH  27  28
ENDBRANCH   1  27
TORSDOF 19
ENDMDL
MODEL 3
REMARK VINA RESULT:      -8.7      5.883     11.913
REMARK SMILES Cc1oc2ccc(OCc3ccc(Br)cc3)cc2c1C(=O)NCCCCCCNC(=O)c1ccc(-c2c3nc(c(-c4c(F)cc(S(=O)(=O)[O-])cc4F)c4ccc([nH]4)c(-c4c(F)cc(S(=O)(=O)[O-])cc4F)c4nc(c(-c5c(F)cc(S(=O)(=O)[O-])cc5F)c5ccc2[nH]5)C=C4)C=C3)cc1
REMARK SMILES IDX 25 1 24 2 23 3 22 4 20 5 21 6 19 8 1 9 2 10 3 11 4 12 18 13
REMARK SMILES IDX 5 14 17 15 6 16 7 17 8 18 9 19 10 20 11 21 16 22 12 23 15 24
REMARK SMILES IDX 13 25 14 26 26 27 27 28 28 29 29 30 30 31 31 33 32 34 33 35
REMARK SMILES IDX 97 36 34 37 96 38 35 39 36 40 37 41 90 42 38 43 95 44 89 45
REMARK SMILES IDX 91 46 39 47 94 48 88 49 87 50 40 52 74 53 53 54 73 55 54 56
REMARK SMILES IDX 57 57 72 58 92 59 55 60 56 61 71 63 93 64 58 65 41 66 42 67
REMARK SMILES IDX 51 68 43 69 44 70 50 71 52 72 45 73 46 74 47 75 48 76 49 77
REMARK SMILES IDX 75 78 76 79 85 80 77 81 78 82 84 83 86 84 79 85 80 86 81 87
REMARK SMILES IDX 82 88 83 89 59 90 60 91 69 92 61 93 62 94 68 95 70 96 63 97
REMARK SMILES IDX 64 98 65 99 66 100 67 101
REMARK H PARENT 22 7 29 32 91 51 57 62
REMARK Flexibility Score: inf
ROOT
ATOM      1  C   UNL A   1      35.218  22.390  25.617  1.00  0.00     0.002 C 
ENDROOT
BRANCH   1   2
ATOM      2  C   UNL A   1      34.335  21.869  26.751  1.00  0.00     0.021 C 
BRANCH   2   3
ATOM      3  C   UNL A   1      33.693  22.915  27.653  1.00  0.00     0.116 C 
BRANCH   3   4
ATOM      4  N   UNL A   1      32.255  22.880  27.694  1.00  0.00    -0.352 N 
ATOM      5  C   UNL A   1      31.319  23.589  26.983  1.00  0.00     0.255 C 
ATOM      6  O   UNL A   1      30.145  23.374  27.298  1.00  0.00    -0.269 OA
ATOM      7  H   UNL A   1      31.880  22.240  28.341  1.00  0.00     0.163 HD
BRANCH   5   8
ATOM      8  C   UNL A   1      31.640  24.551  25.922  1.00  0.00     0.088 A 
ATOM      9  C   UNL A   1      31.711  27.064  26.894  1.00  0.00     0.088 C 
ATOM     10  C   UNL A   1      31.794  25.942  25.934  1.00  0.00     0.115 A 
ATOM     11  O   UNL A   1      32.200  26.387  24.715  1.00  0.00    -0.461 OA
ATOM     12  C   UNL A   1      32.395  25.320  23.925  1.00  0.00     0.135 A 
ATOM     13  C   UNL A   1      32.012  24.157  24.568  1.00  0.00     0.037 A 
ATOM     14  C   UNL A   1      32.952  25.391  22.660  1.00  0.00     0.051 A 
ATOM     15  C   UNL A   1      32.104  22.954  23.824  1.00  0.00     0.059 A 
ATOM     16  C   UNL A   1      33.127  24.179  21.999  1.00  0.00     0.050 A 
ATOM     17  C   UNL A   1      32.631  22.983  22.515  1.00  0.00     0.120 A 
BRANCH  17  18
ATOM     18  O   UNL A   1      32.612  21.793  21.831  1.00  0.00    -0.489 OA
BRANCH  18  19
ATOM     19  C   UNL A   1      31.710  20.761  22.265  1.00  0.00     0.265 C 
BRANCH  19  20
ATOM     20  C   UNL A   1      32.393  19.598  22.964  1.00  0.00    -0.011 A 
ATOM     21  C   UNL A   1      32.968  19.744  24.240  1.00  0.00     0.008 A 
ATOM     22  C   UNL A   1      32.488  18.350  22.334  1.00  0.00     0.008 A 
ATOM     23  C   UNL A   1      33.678  18.702  24.836  1.00  0.00     0.016 A 
ATOM     24  C   UNL A   1      33.163  17.290  22.949  1.00  0.00     0.016 A 
ATOM     25  C   UNL A   1      33.772  17.477  24.187  1.00  0.00     0.017 A 
ATOM     26  Br  UNL A   1      34.731  16.064  24.996  1.00  0.00    -0.051 Br
ENDBRANCH  19  20
ENDBRANCH  18  19
ENDBRANCH  17  18
ENDBRANCH   5   8
ENDBRANCH   3   4
ENDBRANCH   2   3
ENDBRANCH   1   2
BRANCH   1  27
ATOM     27  C   UNL A   1      36.721  22.485  25.895  1.00  0.00     0.002 C 
BRANCH  27  28
ATOM     28  C   UNL A   1      37.360  23.870  25.763  1.00  0.00     0.021 C 
BRANCH  28  29
ATOM     29  C   UNL A   1      38.588  24.128  26.628  1.00  0.00     0.116 C 
BRANCH  29  30
ATOM     30  N   UNL A   1      39.761  24.487  25.850  1.00  0.00    -0.352 N 
ATOM     31  C   UNL A   1      40.686  25.478  26.069  1.00  0.00     0.251 C 
ATOM     32  H   UNL A   1      39.916  23.940  25.047  1.00  0.00     0.163 HD
ATOM     33  O   UNL A   1      41.530  25.722  25.207  1.00  0.00    -0.269 OA
BRANCH  31  34
ATOM     34  C   UNL A   1      40.655  26.267  27.320  1.00  0.00     0.039 A 
ATOM     35  C   UNL A   1      41.510  27.366  27.441  1.00  0.00     0.014 A 
ATOM     36  C   UNL A   1      39.800  25.927  28.372  1.00  0.00     0.014 A 
ATOM     37  C   UNL A   1      41.465  28.157  28.592  1.00  0.00     0.010 A 
ATOM     38  C   UNL A   1      39.701  26.760  29.484  1.00  0.00     0.010 A 
ATOM     39  C   UNL A   1      40.534  27.883  29.609  1.00  0.00    -0.014 A 
BRANCH  39  40
ATOM     40  C   UNL A   1      40.419  28.762  30.802  1.00  0.00     0.031 A 
ATOM     41  C   UNL A   1      39.401  29.871  30.834  1.00  0.00     0.074 A 
ATOM     42  C   UNL A   1      41.270  28.597  31.834  1.00  0.00     0.049 A 
ATOM     43  N   UNL A   1      39.188  30.769  31.761  1.00  0.00    -0.248 NA
ATOM     44  C   UNL A   1      38.524  30.002  29.660  1.00  0.00     0.031 C 
ATOM     45  C   UNL A   1      42.330  27.588  31.902  1.00  0.00     0.029 A 
ATOM     46  N   UNL A   1      41.387  29.279  33.019  1.00  0.00    -0.354 N 
ATOM     47  C   UNL A   1      38.163  31.577  31.280  1.00  0.00     0.074 A 
ATOM     48  C   UNL A   1      37.837  31.096  29.954  1.00  0.00     0.031 C 
ATOM     49  C   UNL A   1      42.970  27.701  33.076  1.00  0.00     0.029 A 
ATOM     50  C   UNL A   1      42.400  28.814  33.827  1.00  0.00     0.049 A 
ATOM     51  H   UNL A   1      40.802  30.030  33.269  1.00  0.00     0.167 HD
ATOM     52  C   UNL A   1      37.536  32.608  31.894  1.00  0.00     0.037 A 
ATOM     53  C   UNL A   1      42.828  29.243  35.031  1.00  0.00     0.037 A 
ATOM     54  C   UNL A   1      37.859  33.071  33.220  1.00  0.00     0.049 A 
ATOM     55  C   UNL A   1      42.127  30.402  35.687  1.00  0.00     0.074 A 
ATOM     56  C   UNL A   1      37.246  34.072  33.954  1.00  0.00     0.029 A 
ATOM     57  N   UNL A   1      38.884  32.570  34.009  1.00  0.00    -0.354 N 
ATOM     58  N   UNL A   1      41.115  31.111  35.246  1.00  0.00    -0.248 NA
ATOM     59  C   UNL A   1      42.622  30.816  37.006  1.00  0.00     0.031 C 
ATOM     60  C   UNL A   1      37.937  34.215  35.162  1.00  0.00     0.029 A 
ATOM     61  C   UNL A   1      38.941  33.261  35.208  1.00  0.00     0.049 A 
ATOM     62  H   UNL A   1      39.485  31.833  33.753  1.00  0.00     0.167 HD
ATOM     63  C   UNL A   1      40.834  32.036  36.244  1.00  0.00     0.074 A 
ATOM     64  C   UNL A   1      41.775  31.788  37.319  1.00  0.00     0.031 C 
ATOM     65  C   UNL A   1      39.883  33.002  36.272  1.00  0.00     0.037 A 
BRANCH  52  66
ATOM     66  C   UNL A   1      36.441  33.312  31.137  1.00  0.00     0.058 A 
ATOM     67  C   UNL A   1      35.088  33.168  31.488  1.00  0.00     0.135 A 
ATOM     68  C   UNL A   1      36.749  34.166  30.065  1.00  0.00     0.135 A 
ATOM     69  F   UNL A   1      34.733  32.355  32.496  1.00  0.00    -0.206 F 
ATOM     70  C   UNL A   1      34.079  33.816  30.783  1.00  0.00     0.059 A 
ATOM     71  C   UNL A   1      35.757  34.850  29.366  1.00  0.00     0.059 A 
ATOM     72  F   UNL A   1      38.023  34.344  29.685  1.00  0.00    -0.206 F 
ATOM     73  C   UNL A   1      34.424  34.655  29.722  1.00  0.00     0.060 A 
BRANCH  73  74
ATOM     74  S   UNL A   1      33.101  35.484  28.815  1.00  0.00     0.124 S 
ATOM     75  O   UNL A   1      32.294  36.024  29.907  1.00  0.00    -0.237 OA
ATOM     76  O   UNL A   1      33.834  36.466  28.025  1.00  0.00    -0.237 OA
ATOM     77  O   UNL A   1      32.481  34.404  28.054  1.00  0.00    -0.744 OA
ENDBRANCH  73  74
ENDBRANCH  52  66
BRANCH  53  78
ATOM     78  C   UNL A   1      43.966  28.557  35.699  1.00  0.00     0.058 A 
ATOM     79  C   UNL A   1      45.291  28.949  35.455  1.00  0.00     0.135 A 
ATOM     80  C   UNL A   1      43.754  27.509  36.610  1.00  0.00     0.135 A 
ATOM     81  F   UNL A   1      45.548  29.941  34.588  1.00  0.00    -0.206 F 
ATOM     82  C   UNL A   1      46.365  28.320  36.077  1.00  0.00     0.059 A 
ATOM     83  C   UNL A   1      44.809  26.884  37.265  1.00  0.00     0.059 A 
ATOM     84  F   UNL A   1      42.505  27.105  36.891  1.00  0.00    -0.206 F 
ATOM     85  C   UNL A   1      46.113  27.291  36.985  1.00  0.00     0.060 A 
BRANCH  85  86
ATOM     86  S   UNL A   1      47.511  26.519  37.828  1.00  0.00     0.124 S 
ATOM     87  O   UNL A   1      48.021  25.626  36.795  1.00  0.00    -0.237 OA
ATOM     88  O   UNL A   1      48.349  27.671  38.148  1.00  0.00    -0.237 OA
ATOM     89  O   UNL A   1      46.891  25.867  38.978  1.00  0.00    -0.744 OA
ENDBRANCH  85  86
ENDBRANCH  53  78
BRANCH  65  90
ATOM     90  C   UNL A   1      39.785  33.847  37.514  1.00  0.00     0.058 A 
ATOM     91  C   UNL A   1      40.420  35.095  37.613  1.00  0.00     0.135 A 
ATOM     92  C   UNL A   1      39.001  33.424  38.599  1.00  0.00     0.135 A 
ATOM     93  F   UNL A   1      41.188  35.545  36.607  1.00  0.00    -0.206 F 
ATOM     94  C   UNL A   1      40.303  35.881  38.755  1.00  0.00     0.059 A 
ATOM     95  C   UNL A   1      38.843  34.208  39.737  1.00  0.00     0.059 A 
ATOM     96  F   UNL A   1      38.363  32.244  38.554  1.00  0.00    -0.206 F 
ATOM     97  C   UNL A   1      39.508  35.431  39.810  1.00  0.00     0.060 A 
BRANCH  97  98
ATOM     98  S   UNL A   1      39.337  36.478  41.271  1.00  0.00     0.124 S 
ATOM     99  O   UNL A   1      38.272  35.797  41.999  1.00  0.00    -0.237 OA
ATOM    100  O   UNL A   1      40.666  36.398  41.869  1.00  0.00    -0.237 OA
ATOM    101  O   UNL A   1      38.984  37.782  40.716  1.00  0.00    -0.744 OA
ENDBRANCH  97  98
ENDBRANCH  65  90
ENDBRANCH  39  40
ENDBRANCH  31  34
ENDBRANCH  29  30
ENDBRANCH  28  29
ENDBRANCH  27  28
ENDBRANCH   1  27
TORSDOF 19
ENDMDL
