MODEL 1
REMARK VINA RESULT:     -12.3      0.000      0.000
REMARK SMILES [NH3+][C@@]1(C(=O)NCCCCCCNC(=O)c2ccc(-c3c4nc(c(-c5c(F)cc(S(=O)(=O)[O-])cc5F)c5ccc([nH]5)c(-c5c(F)cc(S(=O)(=O)[O-])cc5F)c5nc(c(-c6c(F)cc(S(=O)(=O)[O-])cc6F)c6ccc3[nH]6)C=C5)C=C4)cc2)CC[N@H+](Cc2ccc(OCC(=O)N3CCCCC3)cc2)C1
REMARK SMILES IDX 7 1 6 2 5 3 3 4 4 5 2 7 81 8 101 9 82 10 83 11 1 13 84 17
REMARK SMILES IDX 85 18 86 19 100 20 87 21 99 22 88 23 89 24 90 25 91 26 92 27
REMARK SMILES IDX 93 28 94 29 98 30 95 31 97 32 96 33 8 34 9 35 10 36 11 37
REMARK SMILES IDX 12 38 13 39 14 41 15 42 16 43 80 44 17 45 79 46 18 47 19 48
REMARK SMILES IDX 20 49 73 50 21 51 78 52 72 53 74 54 22 55 77 56 71 57 70 58
REMARK SMILES IDX 23 60 57 61 36 62 56 63 37 64 40 65 55 66 75 67 38 68 39 69
REMARK SMILES IDX 54 71 76 72 41 73 24 74 25 75 34 76 26 77 27 78 33 79 35 80
REMARK SMILES IDX 28 81 29 82 30 83 31 84 32 85 58 86 59 87 68 88 60 89 61 90
REMARK SMILES IDX 67 91 69 92 62 93 63 94 64 95 65 96 66 97 42 98 43 99 52 100
REMARK SMILES IDX 44 101 45 102 51 103 53 104 46 105 47 106 48 107 49 108
REMARK SMILES IDX 50 109
REMARK H PARENT 5 6 83 12 1 14 1 15 1 16 12 40 74 59 40 70
REMARK Flexibility Score: inf
ROOT
ATOM      1  C   UNL A   1      35.729  30.782  28.067  1.00  0.00     0.021 C 
ENDROOT
BRANCH   1   2
ATOM      2  C   UNL A   1      34.559  29.340  26.905  1.00  0.00     0.116 C 
BRANCH   2   3
ATOM      3  N   UNL A   1      34.393  29.047  25.400  1.00  0.00    -0.350 N 
ATOM      4  C   UNL A   1      33.271  29.124  24.636  1.00  0.00     0.287 C 
ATOM      5  O   UNL A   1      33.465  29.358  23.431  1.00  0.00    -0.268 OA
ATOM      6  H   UNL A   1      35.211  28.766  24.928  1.00  0.00     0.163 HD
BRANCH   4   7
ATOM      7  C   UNL A   1      31.794  28.926  25.172  1.00  0.00     0.228 C 
ATOM      8  C   UNL A   1      31.565  27.658  25.992  1.00  0.00     0.146 C 
ATOM      9  C   UNL A   1      30.701  28.883  24.087  1.00  0.00     0.342 C 
ATOM     10  C   UNL A   1      30.574  26.789  25.211  1.00  0.00     0.270 C 
ATOM     11  N   UNL A   1      30.139  27.526  24.030  1.00  0.00    -0.325 N 
ATOM     12  H   UNL A   1      29.124  27.629  24.059  1.00  0.00     0.348 HD
BRANCH   7  13
ATOM     13  N   UNL A   1      31.565  30.107  26.075  1.00  0.00    -0.340 N 
ATOM     14  H   UNL A   1      30.708  30.586  25.799  1.00  0.00     0.345 HD
ATOM     15  H   UNL A   1      32.353  30.750  26.000  1.00  0.00     0.345 HD
ATOM     16  H   UNL A   1      31.479  29.786  27.040  1.00  0.00     0.345 HD
ENDBRANCH   7  13
BRANCH  11  17
ATOM     17  C   UNL A   1      30.201  26.802  22.753  1.00  0.00     0.299 C 
BRANCH  17  18
ATOM     18  C   UNL A   1      31.179  25.643  22.752  1.00  0.00     0.006 A 
ATOM     19  C   UNL A   1      32.920  26.070  22.647  1.00  0.00     0.013 A 
ATOM     20  C   UNL A   1      30.672  24.013  23.388  1.00  0.00     0.013 A 
ATOM     21  C   UNL A   1      34.173  24.872  23.120  1.00  0.00     0.047 A 
ATOM     22  C   UNL A   1      31.929  22.822  23.897  1.00  0.00     0.047 A 
ATOM     23  C   UNL A   1      33.682  23.286  23.811  1.00  0.00     0.120 A 
BRANCH  23  24
ATOM     24  O   UNL A   1      34.754  22.504  24.097  1.00  0.00    -0.484 OA
BRANCH  24  25
ATOM     25  C   UNL A   1      34.654  21.630  25.187  1.00  0.00     0.329 C 
BRANCH  25  26
ATOM     26  C   UNL A   1      35.125  20.205  24.906  1.00  0.00     0.260 C 
ATOM     27  O   UNL A   1      36.332  19.956  24.995  1.00  0.00    -0.271 OA
ATOM     28  N   UNL A   1      34.184  19.212  24.644  1.00  0.00    -0.340 N 
ATOM     29  C   UNL A   1      34.640  17.827  24.604  1.00  0.00     0.119 C 
ATOM     30  C   UNL A   1      32.739  19.375  24.434  1.00  0.00     0.119 C 
ATOM     31  C   UNL A   1      34.282  17.177  23.274  1.00  0.00     0.022 C 
ATOM     32  C   UNL A   1      32.282  18.707  23.133  1.00  0.00     0.022 C 
ATOM     33  C   UNL A   1      32.780  17.269  23.011  1.00  0.00     0.004 C 
ENDBRANCH  25  26
ENDBRANCH  24  25
ENDBRANCH  23  24
ENDBRANCH  17  18
ENDBRANCH  11  17
ENDBRANCH   4   7
ENDBRANCH   2   3
ENDBRANCH   1   2
BRANCH   1  34
ATOM     34  C   UNL A   1      35.378  32.312  28.835  1.00  0.00     0.002 C 
BRANCH  34  35
ATOM     35  C   UNL A   1      35.631  33.630  28.073  1.00  0.00     0.002 C 
BRANCH  35  36
ATOM     36  C   UNL A   1      34.415  34.553  27.994  1.00  0.00     0.021 C 
BRANCH  36  37
ATOM     37  C   UNL A   1      33.264  34.074  28.865  1.00  0.00     0.116 C 
BRANCH  37  38
ATOM     38  N   UNL A   1      32.833  35.134  29.775  1.00  0.00    -0.352 N 
ATOM     39  C   UNL A   1      33.119  35.273  31.103  1.00  0.00     0.251 C 
ATOM     40  H   UNL A   1      32.265  35.834  29.381  1.00  0.00     0.163 HD
ATOM     41  O   UNL A   1      32.427  35.970  31.836  1.00  0.00    -0.269 OA
BRANCH  39  42
ATOM     42  C   UNL A   1      34.307  34.577  31.609  1.00  0.00     0.039 A 
ATOM     43  C   UNL A   1      34.178  33.330  32.216  1.00  0.00     0.014 A 
ATOM     44  C   UNL A   1      35.560  35.177  31.428  1.00  0.00     0.014 A 
ATOM     45  C   UNL A   1      35.327  32.671  32.635  1.00  0.00     0.010 A 
ATOM     46  C   UNL A   1      36.703  34.474  31.749  1.00  0.00     0.010 A 
ATOM     47  C   UNL A   1      36.592  33.237  32.395  1.00  0.00    -0.014 A 
BRANCH  47  48
ATOM     48  C   UNL A   1      37.819  32.584  32.886  1.00  0.00     0.031 A 
ATOM     49  C   UNL A   1      38.385  33.001  34.215  1.00  0.00     0.074 A 
ATOM     50  C   UNL A   1      38.428  31.667  32.113  1.00  0.00     0.049 A 
ATOM     51  N   UNL A   1      39.452  32.566  34.828  1.00  0.00    -0.248 NA
ATOM     52  C   UNL A   1      37.682  34.082  34.931  1.00  0.00     0.031 C 
ATOM     53  C   UNL A   1      37.994  31.267  30.771  1.00  0.00     0.029 A 
ATOM     54  N   UNL A   1      39.536  30.902  32.349  1.00  0.00    -0.354 N 
ATOM     55  C   UNL A   1      39.556  33.331  35.985  1.00  0.00     0.074 A 
ATOM     56  C   UNL A   1      38.493  34.306  35.954  1.00  0.00     0.031 C 
ATOM     57  C   UNL A   1      38.807  30.297  30.321  1.00  0.00     0.029 A 
ATOM     58  C   UNL A   1      39.821  30.023  31.332  1.00  0.00     0.049 A 
ATOM     59  H   UNL A   1      40.078  30.974  33.168  1.00  0.00     0.167 HD
ATOM     60  C   UNL A   1      40.440  33.200  37.000  1.00  0.00     0.037 A 
ATOM     61  C   UNL A   1      40.784  29.087  31.247  1.00  0.00     0.037 A 
ATOM     62  C   UNL A   1      41.456  32.184  37.031  1.00  0.00     0.049 A 
ATOM     63  C   UNL A   1      41.703  28.906  32.424  1.00  0.00     0.074 A 
ATOM     64  C   UNL A   1      42.367  31.901  38.031  1.00  0.00     0.029 A 
ATOM     65  N   UNL A   1      41.681  31.271  36.009  1.00  0.00    -0.354 N 
ATOM     66  N   UNL A   1      41.747  29.587  33.547  1.00  0.00    -0.248 NA
ATOM     67  C   UNL A   1      42.686  27.820  32.335  1.00  0.00     0.031 C 
ATOM     68  C   UNL A   1      43.162  30.832  37.602  1.00  0.00     0.029 A 
ATOM     69  C   UNL A   1      42.721  30.426  36.351  1.00  0.00     0.049 A 
ATOM     70  H   UNL A   1      41.176  31.232  35.165  1.00  0.00     0.167 HD
ATOM     71  C   UNL A   1      42.751  28.999  34.307  1.00  0.00     0.074 A 
ATOM     72  C   UNL A   1      43.271  27.895  33.522  1.00  0.00     0.031 C 
ATOM     73  C   UNL A   1      43.208  29.340  35.539  1.00  0.00     0.037 A 
BRANCH  60  74
ATOM     74  C   UNL A   1      40.321  34.159  38.152  1.00  0.00     0.058 A 
ATOM     75  C   UNL A   1      39.492  33.888  39.255  1.00  0.00     0.135 A 
ATOM     76  C   UNL A   1      41.040  35.365  38.157  1.00  0.00     0.135 A 
ATOM     77  F   UNL A   1      38.763  32.762  39.292  1.00  0.00    -0.206 F 
ATOM     78  C   UNL A   1      39.355  34.792  40.303  1.00  0.00     0.059 A 
ATOM     79  C   UNL A   1      40.940  36.270  39.211  1.00  0.00     0.059 A 
ATOM     80  F   UNL A   1      41.841  35.679  37.128  1.00  0.00    -0.206 F 
ATOM     81  C   UNL A   1      40.082  35.982  40.272  1.00  0.00     0.060 A 
BRANCH  81  82
ATOM     82  S   UNL A   1      39.897  37.143  41.641  1.00  0.00     0.124 S 
ATOM     83  O   UNL A   1      39.118  36.353  42.590  1.00  0.00    -0.237 OA
ATOM     84  O   UNL A   1      41.281  37.404  42.021  1.00  0.00    -0.237 OA
ATOM     85  O   UNL A   1      39.193  38.271  41.037  1.00  0.00    -0.744 OA
ENDBRANCH  81  82
ENDBRANCH  60  74
BRANCH  61  86
ATOM     86  C   UNL A   1      40.874  28.221  30.045  1.00  0.00     0.058 A 
ATOM     87  C   UNL A   1      39.968  27.168  29.845  1.00  0.00     0.135 A 
ATOM     88  C   UNL A   1      41.841  28.448  29.053  1.00  0.00     0.135 A 
ATOM     89  F   UNL A   1      39.023  26.915  30.763  1.00  0.00    -0.206 F 
ATOM     90  C   UNL A   1      40.028  26.357  28.717  1.00  0.00     0.059 A 
ATOM     91  C   UNL A   1      41.907  27.665  27.904  1.00  0.00     0.059 A 
ATOM     92  F   UNL A   1      42.713  29.458  29.183  1.00  0.00    -0.206 F 
ATOM     93  C   UNL A   1      41.002  26.614  27.751  1.00  0.00     0.060 A 
BRANCH  93  94
ATOM     94  S   UNL A   1      41.042  25.588  26.264  1.00  0.00     0.124 S 
ATOM     95  O   UNL A   1      41.291  26.583  25.228  1.00  0.00    -0.237 OA
ATOM     96  O   UNL A   1      42.143  24.673  26.551  1.00  0.00    -0.237 OA
ATOM     97  O   UNL A   1      39.718  24.974  26.248  1.00  0.00    -0.744 OA
ENDBRANCH  93  94
ENDBRANCH  61  86
BRANCH  73  98
ATOM     98  C   UNL A   1      44.309  28.493  36.106  1.00  0.00     0.058 A 
ATOM     99  C   UNL A   1      45.659  28.826  35.917  1.00  0.00     0.135 A 
ATOM    100  C   UNL A   1      44.007  27.354  36.868  1.00  0.00     0.135 A 
ATOM    101  F   UNL A   1      45.994  29.905  35.193  1.00  0.00    -0.206 F 
ATOM    102  C   UNL A   1      46.677  28.034  36.435  1.00  0.00     0.059 A 
ATOM    103  C   UNL A   1      45.010  26.563  37.418  1.00  0.00     0.059 A 
ATOM    104  F   UNL A   1      42.730  27.005  37.088  1.00  0.00    -0.206 F 
ATOM    105  C   UNL A   1      46.341  26.901  37.180  1.00  0.00     0.060 A 
BRANCH 105 106
ATOM    106  S   UNL A   1      47.670  25.883  37.852  1.00  0.00     0.124 S 
ATOM    107  O   UNL A   1      48.711  26.060  36.844  1.00  0.00    -0.237 OA
ATOM    108  O   UNL A   1      47.925  26.511  39.144  1.00  0.00    -0.237 OA
ATOM    109  O   UNL A   1      47.076  24.552  37.916  1.00  0.00    -0.744 OA
ENDBRANCH 105 106
ENDBRANCH  73  98
ENDBRANCH  47  48
ENDBRANCH  39  42
ENDBRANCH  37  38
ENDBRANCH  36  37
ENDBRANCH  35  36
ENDBRANCH  34  35
ENDBRANCH   1  34
TORSDOF 22
ENDMDL
MODEL 2
REMARK VINA RESULT:     -12.0      1.764      3.197
REMARK SMILES [NH3+][C@@]1(C(=O)NCCCCCCNC(=O)c2ccc(-c3c4nc(c(-c5c(F)cc(S(=O)(=O)[O-])cc5F)c5ccc([nH]5)c(-c5c(F)cc(S(=O)(=O)[O-])cc5F)c5nc(c(-c6c(F)cc(S(=O)(=O)[O-])cc6F)c6ccc3[nH]6)C=C5)C=C4)cc2)CC[N@H+](Cc2ccc(OCC(=O)N3CCCCC3)cc2)C1
REMARK SMILES IDX 7 1 6 2 5 3 3 4 4 5 2 7 81 8 101 9 82 10 83 11 1 13 84 17
REMARK SMILES IDX 85 18 86 19 100 20 87 21 99 22 88 23 89 24 90 25 91 26 92 27
REMARK SMILES IDX 93 28 94 29 98 30 95 31 97 32 96 33 8 34 9 35 10 36 11 37
REMARK SMILES IDX 12 38 13 39 14 41 15 42 16 43 80 44 17 45 79 46 18 47 19 48
REMARK SMILES IDX 20 49 73 50 21 51 78 52 72 53 74 54 22 55 77 56 71 57 70 58
REMARK SMILES IDX 23 60 57 61 36 62 56 63 37 64 40 65 55 66 75 67 38 68 39 69
REMARK SMILES IDX 54 71 76 72 41 73 24 74 25 75 34 76 26 77 27 78 33 79 35 80
REMARK SMILES IDX 28 81 29 82 30 83 31 84 32 85 58 86 59 87 68 88 60 89 61 90
REMARK SMILES IDX 67 91 69 92 62 93 63 94 64 95 65 96 66 97 42 98 43 99 52 100
REMARK SMILES IDX 44 101 45 102 51 103 53 104 46 105 47 106 48 107 49 108
REMARK SMILES IDX 50 109
REMARK H PARENT 5 6 83 12 1 14 1 15 1 16 12 40 74 59 40 70
REMARK Flexibility Score: inf
ROOT
ATOM      1  C   UNL A   1      35.556  31.233  28.117  1.00  0.00     0.021 C 
ENDROOT
BRANCH   1   2
ATOM      2  C   UNL A   1      34.221  30.032  26.862  1.00  0.00     0.116 C 
BRANCH   2   3
ATOM      3  N   UNL A   1      34.436  28.976  25.760  1.00  0.00    -0.350 N 
ATOM      4  C   UNL A   1      33.547  28.508  24.844  1.00  0.00     0.287 C 
ATOM      5  O   UNL A   1      34.046  28.096  23.783  1.00  0.00    -0.268 OA
ATOM      6  H   UNL A   1      35.339  28.587  25.713  1.00  0.00     0.163 HD
BRANCH   4   7
ATOM      7  C   UNL A   1      31.978  28.451  25.050  1.00  0.00     0.228 C 
ATOM      8  C   UNL A   1      31.521  27.977  26.429  1.00  0.00     0.146 C 
ATOM      9  C   UNL A   1      31.217  27.544  24.063  1.00  0.00     0.342 C 
ATOM     10  C   UNL A   1      30.767  26.659  26.225  1.00  0.00     0.270 C 
ATOM     11  N   UNL A   1      30.676  26.390  24.794  1.00  0.00    -0.325 N 
ATOM     12  H   UNL A   1      29.692  26.316  24.533  1.00  0.00     0.348 HD
BRANCH   7  13
ATOM     13  N   UNL A   1      31.528  29.876  24.880  1.00  0.00    -0.340 N 
ATOM     14  H   UNL A   1      31.696  30.391  25.745  1.00  0.00     0.345 HD
ATOM     15  H   UNL A   1      30.531  29.894  24.662  1.00  0.00     0.345 HD
ATOM     16  H   UNL A   1      32.051  30.310  24.119  1.00  0.00     0.345 HD
ENDBRANCH   7  13
BRANCH  11  17
ATOM     17  C   UNL A   1      31.071  25.045  24.359  1.00  0.00     0.299 C 
BRANCH  17  18
ATOM     18  C   UNL A   1      32.476  24.652  24.778  1.00  0.00     0.006 A 
ATOM     19  C   UNL A   1      32.625  23.767  26.333  1.00  0.00     0.013 A 
ATOM     20  C   UNL A   1      33.812  24.567  23.542  1.00  0.00     0.013 A 
ATOM     21  C   UNL A   1      34.116  22.834  26.700  1.00  0.00     0.047 A 
ATOM     22  C   UNL A   1      35.295  23.601  23.896  1.00  0.00     0.047 A 
ATOM     23  C   UNL A   1      35.411  22.690  25.462  1.00  0.00     0.120 A 
BRANCH  23  24
ATOM     24  O   UNL A   1      36.466  21.965  25.913  1.00  0.00    -0.484 OA
BRANCH  24  25
ATOM     25  C   UNL A   1      37.724  22.221  25.355  1.00  0.00     0.329 C 
BRANCH  25  26
ATOM     26  C   UNL A   1      38.630  23.109  26.205  1.00  0.00     0.260 C 
ATOM     27  O   UNL A   1      38.283  24.277  26.410  1.00  0.00    -0.271 OA
ATOM     28  N   UNL A   1      39.766  22.562  26.797  1.00  0.00    -0.340 N 
ATOM     29  C   UNL A   1      40.484  23.367  27.780  1.00  0.00     0.119 C 
ATOM     30  C   UNL A   1      40.336  21.225  26.583  1.00  0.00     0.119 C 
ATOM     31  C   UNL A   1      41.943  23.536  27.381  1.00  0.00     0.022 C 
ATOM     32  C   UNL A   1      41.824  21.301  26.219  1.00  0.00     0.022 C 
ATOM     33  C   UNL A   1      42.615  22.179  27.186  1.00  0.00     0.004 C 
ENDBRANCH  25  26
ENDBRANCH  24  25
ENDBRANCH  23  24
ENDBRANCH  17  18
ENDBRANCH  11  17
ENDBRANCH   4   7
ENDBRANCH   2   3
ENDBRANCH   1   2
BRANCH   1  34
ATOM     34  C   UNL A   1      35.353  32.654  29.115  1.00  0.00     0.002 C 
BRANCH  34  35
ATOM     35  C   UNL A   1      35.623  34.054  28.523  1.00  0.00     0.002 C 
BRANCH  35  36
ATOM     36  C   UNL A   1      34.474  35.045  28.708  1.00  0.00     0.021 C 
BRANCH  36  37
ATOM     37  C   UNL A   1      33.258  34.411  29.365  1.00  0.00     0.116 C 
BRANCH  37  38
ATOM     38  N   UNL A   1      32.727  35.280  30.413  1.00  0.00    -0.352 N 
ATOM     39  C   UNL A   1      33.008  35.257  31.750  1.00  0.00     0.251 C 
ATOM     40  H   UNL A   1      32.088  35.967  30.119  1.00  0.00     0.163 HD
ATOM     41  O   UNL A   1      32.254  35.768  32.569  1.00  0.00    -0.269 OA
BRANCH  39  42
ATOM     42  C   UNL A   1      34.265  34.622  32.160  1.00  0.00     0.039 A 
ATOM     43  C   UNL A   1      34.277  33.279  32.530  1.00  0.00     0.014 A 
ATOM     44  C   UNL A   1      35.439  35.383  32.129  1.00  0.00     0.014 A 
ATOM     45  C   UNL A   1      35.492  32.691  32.860  1.00  0.00     0.010 A 
ATOM     46  C   UNL A   1      36.655  34.769  32.354  1.00  0.00     0.010 A 
ATOM     47  C   UNL A   1      36.684  33.432  32.764  1.00  0.00    -0.014 A 
BRANCH  47  48
ATOM     48  C   UNL A   1      37.974  32.846  33.170  1.00  0.00     0.031 A 
ATOM     49  C   UNL A   1      38.497  33.118  34.553  1.00  0.00     0.074 A 
ATOM     50  C   UNL A   1      38.674  32.123  32.277  1.00  0.00     0.049 A 
ATOM     51  N   UNL A   1      39.606  32.711  35.108  1.00  0.00    -0.248 NA
ATOM     52  C   UNL A   1      37.686  34.000  35.412  1.00  0.00     0.031 C 
ATOM     53  C   UNL A   1      38.282  31.883  30.885  1.00  0.00     0.029 A 
ATOM     54  N   UNL A   1      39.858  31.451  32.411  1.00  0.00    -0.354 N 
ATOM     55  C   UNL A   1      39.632  33.301  36.367  1.00  0.00     0.074 A 
ATOM     56  C   UNL A   1      38.471  34.153  36.467  1.00  0.00     0.031 C 
ATOM     57  C   UNL A   1      39.191  31.082  30.307  1.00  0.00     0.029 A 
ATOM     58  C   UNL A   1      40.231  30.768  31.279  1.00  0.00     0.049 A 
ATOM     59  H   UNL A   1      40.392  31.457  33.238  1.00  0.00     0.167 HD
ATOM     60  C   UNL A   1      40.528  33.114  37.363  1.00  0.00     0.037 A 
ATOM     61  C   UNL A   1      41.287  29.961  31.069  1.00  0.00     0.037 A 
ATOM     62  C   UNL A   1      41.646  32.217  37.255  1.00  0.00     0.049 A 
ATOM     63  C   UNL A   1      42.224  29.704  32.217  1.00  0.00     0.074 A 
ATOM     64  C   UNL A   1      42.584  31.885  38.214  1.00  0.00     0.029 A 
ATOM     65  N   UNL A   1      41.963  31.495  36.113  1.00  0.00    -0.354 N 
ATOM     66  N   UNL A   1      42.199  30.212  33.429  1.00  0.00    -0.248 NA
ATOM     67  C   UNL A   1      43.315  28.754  31.981  1.00  0.00     0.031 C 
ATOM     68  C   UNL A   1      43.487  30.982  37.642  1.00  0.00     0.029 A 
ATOM     69  C   UNL A   1      43.087  30.722  36.339  1.00  0.00     0.049 A 
ATOM     70  H   UNL A   1      41.462  31.529  35.266  1.00  0.00     0.167 HD
ATOM     71  C   UNL A   1      43.261  29.627  34.107  1.00  0.00     0.074 A 
ATOM     72  C   UNL A   1      43.893  28.712  33.174  1.00  0.00     0.031 C 
ATOM     73  C   UNL A   1      43.684  29.826  35.381  1.00  0.00     0.037 A 
BRANCH  60  74
ATOM     74  C   UNL A   1      40.311  33.873  38.643  1.00  0.00     0.058 A 
ATOM     75  C   UNL A   1      40.994  35.073  38.912  1.00  0.00     0.135 A 
ATOM     76  C   UNL A   1      39.414  33.401  39.613  1.00  0.00     0.135 A 
ATOM     77  F   UNL A   1      41.881  35.558  38.031  1.00  0.00    -0.206 F 
ATOM     78  C   UNL A   1      40.819  35.756  40.111  1.00  0.00     0.059 A 
ATOM     79  C   UNL A   1      39.202  34.085  40.807  1.00  0.00     0.059 A 
ATOM     80  F   UNL A   1      38.740  32.258  39.412  1.00  0.00    -0.206 F 
ATOM     81  C   UNL A   1      39.922  35.254  41.054  1.00  0.00     0.060 A 
BRANCH  81  82
ATOM     82  S   UNL A   1      39.704  36.155  42.603  1.00  0.00     0.124 S 
ATOM     83  O   UNL A   1      39.677  37.537  42.135  1.00  0.00    -0.237 OA
ATOM     84  O   UNL A   1      38.435  35.628  43.096  1.00  0.00    -0.237 OA
ATOM     85  O   UNL A   1      40.879  35.778  43.383  1.00  0.00    -0.744 OA
ENDBRANCH  81  82
ENDBRANCH  60  74
BRANCH  61  86
ATOM     86  C   UNL A   1      41.465  29.298  29.753  1.00  0.00     0.058 A 
ATOM     87  C   UNL A   1      42.289  29.861  28.766  1.00  0.00     0.135 A 
ATOM     88  C   UNL A   1      40.848  28.070  29.466  1.00  0.00     0.135 A 
ATOM     89  F   UNL A   1      42.904  31.031  28.996  1.00  0.00    -0.206 F 
ATOM     90  C   UNL A   1      42.479  29.245  27.535  1.00  0.00     0.059 A 
ATOM     91  C   UNL A   1      41.041  27.422  28.249  1.00  0.00     0.059 A 
ATOM     92  F   UNL A   1      40.073  27.476  30.385  1.00  0.00    -0.206 F 
ATOM     93  C   UNL A   1      41.850  28.023  27.286  1.00  0.00     0.060 A 
BRANCH  93  94
ATOM     94  S   UNL A   1      42.143  27.204  25.702  1.00  0.00     0.124 S 
ATOM     95  O   UNL A   1      40.949  26.377  25.575  1.00  0.00    -0.237 OA
ATOM     96  O   UNL A   1      42.238  28.335  24.783  1.00  0.00    -0.237 OA
ATOM     97  O   UNL A   1      43.393  26.484  25.925  1.00  0.00    -0.744 OA
ENDBRANCH  93  94
ENDBRANCH  61  86
BRANCH  73  98
ATOM     98  C   UNL A   1      44.870  29.024  35.830  1.00  0.00     0.058 A 
ATOM     99  C   UNL A   1      44.716  27.774  36.449  1.00  0.00     0.135 A 
ATOM    100  C   UNL A   1      46.171  29.502  35.615  1.00  0.00     0.135 A 
ATOM    101  F   UNL A   1      43.490  27.280  36.678  1.00  0.00    -0.206 F 
ATOM    102  C   UNL A   1      45.816  27.039  36.873  1.00  0.00     0.059 A 
ATOM    103  C   UNL A   1      47.287  28.770  36.007  1.00  0.00     0.059 A 
ATOM    104  F   UNL A   1      46.368  30.686  35.013  1.00  0.00    -0.206 F 
ATOM    105  C   UNL A   1      47.098  27.549  36.652  1.00  0.00     0.060 A 
BRANCH 105 106
ATOM    106  S   UNL A   1      48.519  26.584  37.202  1.00  0.00     0.124 S 
ATOM    107  O   UNL A   1      49.421  27.634  37.667  1.00  0.00    -0.237 OA
ATOM    108  O   UNL A   1      47.942  25.738  38.242  1.00  0.00    -0.237 OA
ATOM    109  O   UNL A   1      48.940  25.883  35.994  1.00  0.00    -0.744 OA
ENDBRANCH 105 106
ENDBRANCH  73  98
ENDBRANCH  47  48
ENDBRANCH  39  42
ENDBRANCH  37  38
ENDBRANCH  36  37
ENDBRANCH  35  36
ENDBRANCH  34  35
ENDBRANCH   1  34
TORSDOF 22
ENDMDL
MODEL 3
REMARK VINA RESULT:     -11.2      1.883      8.379
REMARK SMILES [NH3+][C@@]1(C(=O)NCCCCCCNC(=O)c2ccc(-c3c4nc(c(-c5c(F)cc(S(=O)(=O)[O-])cc5F)c5ccc([nH]5)c(-c5c(F)cc(S(=O)(=O)[O-])cc5F)c5nc(c(-c6c(F)cc(S(=O)(=O)[O-])cc6F)c6ccc3[nH]6)C=C5)C=C4)cc2)CC[N@H+](Cc2ccc(OCC(=O)N3CCCCC3)cc2)C1
REMARK SMILES IDX 7 1 6 2 5 3 3 4 4 5 2 7 81 8 101 9 82 10 83 11 1 13 84 17
REMARK SMILES IDX 85 18 86 19 100 20 87 21 99 22 88 23 89 24 90 25 91 26 92 27
REMARK SMILES IDX 93 28 94 29 98 30 95 31 97 32 96 33 8 34 9 35 10 36 11 37
REMARK SMILES IDX 12 38 13 39 14 41 15 42 16 43 80 44 17 45 79 46 18 47 19 48
REMARK SMILES IDX 20 49 73 50 21 51 78 52 72 53 74 54 22 55 77 56 71 57 70 58
REMARK SMILES IDX 23 60 57 61 36 62 56 63 37 64 40 65 55 66 75 67 38 68 39 69
REMARK SMILES IDX 54 71 76 72 41 73 24 74 25 75 34 76 26 77 27 78 33 79 35 80
REMARK SMILES IDX 28 81 29 82 30 83 31 84 32 85 58 86 59 87 68 88 60 89 61 90
REMARK SMILES IDX 67 91 69 92 62 93 63 94 64 95 65 96 66 97 42 98 43 99 52 100
REMARK SMILES IDX 44 101 45 102 51 103 53 104 46 105 47 106 48 107 49 108
REMARK SMILES IDX 50 109
REMARK H PARENT 5 6 83 12 1 14 1 15 1 16 12 40 74 59 40 70
REMARK Flexibility Score: inf
ROOT
ATOM      1  C   UNL A   1      35.388  30.099  27.916  1.00  0.00     0.021 C 
ENDROOT
BRANCH   1   2
ATOM      2  C   UNL A   1      34.029  29.600  26.273  1.00  0.00     0.116 C 
BRANCH   2   3
ATOM      3  N   UNL A   1      34.163  28.787  24.970  1.00  0.00    -0.350 N 
ATOM      4  C   UNL A   1      33.203  28.473  24.059  1.00  0.00     0.287 C 
ATOM      5  O   UNL A   1      33.612  28.294  22.899  1.00  0.00    -0.268 OA
ATOM      6  H   UNL A   1      35.066  28.450  24.769  1.00  0.00     0.163 HD
BRANCH   4   7
ATOM      7  C   UNL A   1      31.661  28.317  24.384  1.00  0.00     0.228 C 
ATOM      8  C   UNL A   1      31.342  27.826  25.795  1.00  0.00     0.146 C 
ATOM      9  C   UNL A   1      30.888  27.356  23.460  1.00  0.00     0.342 C 
ATOM     10  C   UNL A   1      30.661  26.461  25.653  1.00  0.00     0.270 C 
ATOM     11  N   UNL A   1      30.479  26.176  24.234  1.00  0.00    -0.325 N 
ATOM     12  H   UNL A   1      29.485  26.037  24.049  1.00  0.00     0.348 HD
BRANCH   7  13
ATOM     13  N   UNL A   1      31.109  29.709  24.245  1.00  0.00    -0.340 N 
ATOM     14  H   UNL A   1      30.400  29.867  24.962  1.00  0.00     0.345 HD
ATOM     15  H   UNL A   1      30.689  29.818  23.322  1.00  0.00     0.345 HD
ATOM     16  H   UNL A   1      31.863  30.387  24.357  1.00  0.00     0.345 HD
ENDBRANCH   7  13
BRANCH  11  17
ATOM     17  C   UNL A   1      30.926  24.855  23.774  1.00  0.00     0.299 C 
BRANCH  17  18
ATOM     18  C   UNL A   1      32.308  24.468  24.268  1.00  0.00     0.006 A 
ATOM     19  C   UNL A   1      32.368  23.363  25.682  1.00  0.00     0.013 A 
ATOM     20  C   UNL A   1      33.754  24.635  23.172  1.00  0.00     0.013 A 
ATOM     21  C   UNL A   1      33.873  22.455  26.054  1.00  0.00     0.047 A 
ATOM     22  C   UNL A   1      35.254  23.696  23.525  1.00  0.00     0.047 A 
ATOM     23  C   UNL A   1      35.282  22.562  24.942  1.00  0.00     0.120 A 
BRANCH  23  24
ATOM     24  O   UNL A   1      36.333  21.826  25.385  1.00  0.00    -0.484 OA
BRANCH  24  25
ATOM     25  C   UNL A   1      37.541  22.491  25.632  1.00  0.00     0.329 C 
BRANCH  25  26
ATOM     26  C   UNL A   1      38.750  21.574  25.800  1.00  0.00     0.260 C 
ATOM     27  O   UNL A   1      38.648  20.396  25.441  1.00  0.00    -0.271 OA
ATOM     28  N   UNL A   1      39.952  22.102  26.264  1.00  0.00    -0.340 N 
ATOM     29  C   UNL A   1      41.143  21.262  26.200  1.00  0.00     0.119 C 
ATOM     30  C   UNL A   1      40.197  23.451  26.793  1.00  0.00     0.119 C 
ATOM     31  C   UNL A   1      41.780  21.119  27.574  1.00  0.00     0.022 C 
ATOM     32  C   UNL A   1      40.882  23.401  28.163  1.00  0.00     0.022 C 
ATOM     33  C   UNL A   1      42.106  22.487  28.168  1.00  0.00     0.004 C 
ENDBRANCH  25  26
ENDBRANCH  24  25
ENDBRANCH  23  24
ENDBRANCH  17  18
ENDBRANCH  11  17
ENDBRANCH   4   7
ENDBRANCH   2   3
ENDBRANCH   1   2
BRANCH   1  34
ATOM     34  C   UNL A   1      35.696  31.538  28.860  1.00  0.00     0.002 C 
BRANCH  34  35
ATOM     35  C   UNL A   1      36.042  32.864  28.149  1.00  0.00     0.002 C 
BRANCH  35  36
ATOM     36  C   UNL A   1      34.829  33.727  27.805  1.00  0.00     0.021 C 
BRANCH  36  37
ATOM     37  C   UNL A   1      33.582  33.311  28.571  1.00  0.00     0.116 C 
BRANCH  37  38
ATOM     38  N   UNL A   1      33.059  34.433  29.349  1.00  0.00    -0.352 N 
ATOM     39  C   UNL A   1      33.329  34.756  30.649  1.00  0.00     0.251 C 
ATOM     40  H   UNL A   1      32.435  35.030  28.878  1.00  0.00     0.163 HD
ATOM     41  O   UNL A   1      32.577  35.475  31.296  1.00  0.00    -0.269 OA
BRANCH  39  42
ATOM     42  C   UNL A   1      34.569  34.229  31.227  1.00  0.00     0.039 A 
ATOM     43  C   UNL A   1      35.751  34.959  31.123  1.00  0.00     0.014 A 
ATOM     44  C   UNL A   1      34.522  33.008  31.911  1.00  0.00     0.014 A 
ATOM     45  C   UNL A   1      36.898  34.461  31.728  1.00  0.00     0.010 A 
ATOM     46  C   UNL A   1      35.635  32.570  32.599  1.00  0.00     0.010 A 
ATOM     47  C   UNL A   1      36.840  33.270  32.475  1.00  0.00    -0.014 A 
BRANCH  47  48
ATOM     48  C   UNL A   1      38.057  32.691  33.072  1.00  0.00     0.031 A 
ATOM     49  C   UNL A   1      38.960  31.847  32.216  1.00  0.00     0.074 A 
ATOM     50  C   UNL A   1      38.306  32.892  34.378  1.00  0.00     0.049 A 
ATOM     51  N   UNL A   1      40.069  31.240  32.538  1.00  0.00    -0.248 NA
ATOM     52  C   UNL A   1      38.537  31.620  30.821  1.00  0.00     0.031 C 
ATOM     53  C   UNL A   1      37.436  33.625  35.303  1.00  0.00     0.029 A 
ATOM     54  N   UNL A   1      39.364  32.505  35.152  1.00  0.00    -0.354 N 
ATOM     55  C   UNL A   1      40.462  30.548  31.399  1.00  0.00     0.074 A 
ATOM     56  C   UNL A   1      39.438  30.746  30.401  1.00  0.00     0.031 C 
ATOM     57  C   UNL A   1      38.021  33.669  36.511  1.00  0.00     0.029 A 
ATOM     58  C   UNL A   1      39.292  32.956  36.447  1.00  0.00     0.049 A 
ATOM     59  H   UNL A   1      40.107  31.954  34.813  1.00  0.00     0.167 HD
ATOM     60  C   UNL A   1      41.599  29.843  31.194  1.00  0.00     0.037 A 
ATOM     61  C   UNL A   1      40.171  32.823  37.456  1.00  0.00     0.037 A 
ATOM     62  C   UNL A   1      42.627  29.707  32.188  1.00  0.00     0.049 A 
ATOM     63  C   UNL A   1      41.464  32.106  37.181  1.00  0.00     0.074 A 
ATOM     64  C   UNL A   1      43.854  29.080  32.083  1.00  0.00     0.029 A 
ATOM     65  N   UNL A   1      42.547  30.226  33.473  1.00  0.00    -0.354 N 
ATOM     66  N   UNL A   1      41.859  31.516  36.075  1.00  0.00    -0.248 NA
ATOM     67  C   UNL A   1      42.438  32.052  38.277  1.00  0.00     0.031 C 
ATOM     68  C   UNL A   1      44.506  29.197  33.316  1.00  0.00     0.029 A 
ATOM     69  C   UNL A   1      43.701  29.930  34.176  1.00  0.00     0.049 A 
ATOM     70  H   UNL A   1      41.782  30.730  33.833  1.00  0.00     0.167 HD
ATOM     71  C   UNL A   1      43.137  31.037  36.336  1.00  0.00     0.074 A 
ATOM     72  C   UNL A   1      43.453  31.426  37.698  1.00  0.00     0.031 C 
ATOM     73  C   UNL A   1      43.974  30.336  35.531  1.00  0.00     0.037 A 
BRANCH  60  74
ATOM     74  C   UNL A   1      41.783  29.199  29.848  1.00  0.00     0.058 A 
ATOM     75  C   UNL A   1      42.467  29.850  28.807  1.00  0.00     0.135 A 
ATOM     76  C   UNL A   1      41.271  27.917  29.591  1.00  0.00     0.135 A 
ATOM     77  F   UNL A   1      42.956  31.086  28.988  1.00  0.00    -0.206 F 
ATOM     78  C   UNL A   1      42.607  29.268  27.551  1.00  0.00     0.059 A 
ATOM     79  C   UNL A   1      41.425  27.304  28.350  1.00  0.00     0.059 A 
ATOM     80  F   UNL A   1      40.603  27.251  30.546  1.00  0.00    -0.206 F 
ATOM     81  C   UNL A   1      42.081  27.994  27.331  1.00  0.00     0.060 A 
BRANCH  81  82
ATOM     82  S   UNL A   1      42.273  27.251  25.698  1.00  0.00     0.124 S 
ATOM     83  O   UNL A   1      43.489  26.463  25.878  1.00  0.00    -0.237 OA
ATOM     84  O   UNL A   1      41.039  26.487  25.554  1.00  0.00    -0.237 OA
ATOM     85  O   UNL A   1      42.398  28.405  24.812  1.00  0.00    -0.744 OA
ENDBRANCH  81  82
ENDBRANCH  60  74
BRANCH  61  86
ATOM     86  C   UNL A   1      39.884  33.436  38.778  1.00  0.00     0.058 A 
ATOM     87  C   UNL A   1      40.517  34.623  39.174  1.00  0.00     0.135 A 
ATOM     88  C   UNL A   1      38.946  32.871  39.655  1.00  0.00     0.135 A 
ATOM     89  F   UNL A   1      41.418  35.204  38.367  1.00  0.00    -0.206 F 
ATOM     90  C   UNL A   1      40.248  35.220  40.401  1.00  0.00     0.059 A 
ATOM     91  C   UNL A   1      38.643  33.461  40.879  1.00  0.00     0.059 A 
ATOM     92  F   UNL A   1      38.293  31.751  39.312  1.00  0.00    -0.206 F 
ATOM     93  C   UNL A   1      39.308  34.630  41.247  1.00  0.00     0.060 A 
BRANCH  93  94
ATOM     94  S   UNL A   1      38.927  35.438  42.818  1.00  0.00     0.124 S 
ATOM     95  O   UNL A   1      39.713  34.643  43.754  1.00  0.00    -0.237 OA
ATOM     96  O   UNL A   1      39.396  36.801  42.585  1.00  0.00    -0.237 OA
ATOM     97  O   UNL A   1      37.478  35.295  42.925  1.00  0.00    -0.744 OA
ENDBRANCH  93  94
ENDBRANCH  61  86
BRANCH  73  98
ATOM     98  C   UNL A   1      45.311  29.969  36.106  1.00  0.00     0.058 A 
ATOM     99  C   UNL A   1      45.505  28.760  36.792  1.00  0.00     0.135 A 
ATOM    100  C   UNL A   1      46.412  30.823  35.944  1.00  0.00     0.135 A 
ATOM    101  F   UNL A   1      44.479  27.914  36.972  1.00  0.00    -0.206 F 
ATOM    102  C   UNL A   1      46.741  28.427  37.331  1.00  0.00     0.059 A 
ATOM    103  C   UNL A   1      47.664  30.497  36.453  1.00  0.00     0.059 A 
ATOM    104  F   UNL A   1      46.277  31.984  35.282  1.00  0.00    -0.206 F 
ATOM    105  C   UNL A   1      47.813  29.306  37.161  1.00  0.00     0.060 A 
BRANCH 105 106
ATOM    106  S   UNL A   1      49.415  28.862  37.862  1.00  0.00     0.124 S 
ATOM    107  O   UNL A   1      50.242  29.986  37.434  1.00  0.00    -0.237 OA
ATOM    108  O   UNL A   1      49.126  28.794  39.290  1.00  0.00    -0.237 OA
ATOM    109  O   UNL A   1      49.718  27.582  37.229  1.00  0.00    -0.744 OA
ENDBRANCH 105 106
ENDBRANCH  73  98
ENDBRANCH  47  48
ENDBRANCH  39  42
ENDBRANCH  37  38
ENDBRANCH  36  37
ENDBRANCH  35  36
ENDBRANCH  34  35
ENDBRANCH   1  34
TORSDOF 22
ENDMDL
