MODEL 1
REMARK VINA RESULT:      -9.5      0.000      0.000
REMARK SMILES O=C(COc1ccc(Br)cc1)NC(=S)Nc1ccc(Cl)cc1C(=O)NCCCCCCNC(=O)c1ccc(-c2c3nc(c(-c4c(F)cc(S(=O)(=O)[O-])cc4F)c4ccc([nH]4)c(-c4c(F)cc(S(=O)(=O)[O-])cc4F)c4nc(c(-c5c(F)cc(S(=O)(=O)[O-])cc5F)c5ccc2[nH]5)C=C4)C=C3)cc1
REMARK SMILES IDX 27 1 26 2 25 3 23 4 24 5 22 7 16 8 17 9 18 10 21 11 19 12
REMARK SMILES IDX 20 13 15 14 13 16 14 17 12 18 1 19 2 20 3 22 4 23 5 24 6 25
REMARK SMILES IDX 11 26 7 27 10 28 8 29 9 30 28 31 29 32 30 33 31 34 32 35
REMARK SMILES IDX 33 36 34 38 35 39 36 40 100 41 37 42 99 43 38 44 39 45 40 46
REMARK SMILES IDX 93 47 41 48 98 49 92 50 94 51 42 52 97 53 91 54 90 55 43 57
REMARK SMILES IDX 77 58 56 59 76 60 57 61 60 62 75 63 95 64 58 65 59 66 74 68
REMARK SMILES IDX 96 69 61 70 44 71 45 72 54 73 46 74 47 75 53 76 55 77 48 78
REMARK SMILES IDX 49 79 50 80 51 81 52 82 78 83 79 84 88 85 80 86 81 87 87 88
REMARK SMILES IDX 89 89 82 90 83 91 84 92 85 93 86 94 62 95 63 96 72 97 64 98
REMARK SMILES IDX 65 99 71 100 73 101 66 102 67 103 68 104 69 105 70 106
REMARK H PARENT 25 6 15 15 12 21 32 37 94 56 60 67
REMARK Flexibility Score: inf
ROOT
ATOM      1  C   UNL A   1      37.530  28.944  31.292  1.00  0.00     0.021 C 
ENDROOT
BRANCH   1   2
ATOM      2  C   UNL A   1      37.676  29.768  32.569  1.00  0.00     0.116 C 
BRANCH   2   3
ATOM      3  N   UNL A   1      36.578  30.650  32.876  1.00  0.00    -0.352 N 
ATOM      4  C   UNL A   1      36.078  31.748  32.217  1.00  0.00     0.253 C 
ATOM      5  O   UNL A   1      35.087  32.280  32.729  1.00  0.00    -0.269 OA
ATOM      6  H   UNL A   1      36.102  30.427  33.707  1.00  0.00     0.163 HD
BRANCH   4   7
ATOM      7  C   UNL A   1      36.636  32.385  30.980  1.00  0.00     0.064 A 
ATOM      8  C   UNL A   1      36.107  32.420  29.674  1.00  0.00     0.053 A 
ATOM      9  C   UNL A   1      36.756  33.164  28.663  1.00  0.00     0.028 A 
ATOM     10  C   UNL A   1      37.974  33.793  28.902  1.00  0.00     0.023 A 
ATOM     11  C   UNL A   1      37.880  33.026  31.191  1.00  0.00     0.036 A 
ATOM     12  C   UNL A   1      38.544  33.696  30.162  1.00  0.00     0.041 A 
ATOM     13  Cl  UNL A   1      40.085  34.407  30.449  1.00  0.00    -0.084 Cl
BRANCH   8  14
ATOM     14  N   UNL A   1      34.949  31.736  29.286  1.00  0.00    -0.332 N 
ATOM     15  H   UNL A   1      34.756  30.898  29.766  1.00  0.00     0.169 HD
BRANCH  14  16
ATOM     16  C   UNL A   1      34.057  32.095  28.321  1.00  0.00     0.177 C 
ATOM     17  S   UNL A   1      33.503  33.671  28.271  1.00  0.00    -0.040 S 
BRANCH  16  18
ATOM     18  N   UNL A   1      33.497  31.192  27.440  1.00  0.00    -0.300 N 
ATOM     19  O   UNL A   1      34.819  29.258  27.393  1.00  0.00    -0.271 OA
ATOM     20  C   UNL A   1      33.858  29.911  26.996  1.00  0.00     0.264 C 
ATOM     21  H   UNL A   1      32.660  31.519  27.034  1.00  0.00     0.172 HD
BRANCH  20  22
ATOM     22  C   UNL A   1      32.876  29.283  26.004  1.00  0.00     0.329 C 
BRANCH  22  23
ATOM     23  O   UNL A   1      33.408  28.149  25.313  1.00  0.00    -0.484 OA
BRANCH  23  24
ATOM     24  C   UNL A   1      32.725  27.000  25.617  1.00  0.00     0.120 A 
ATOM     25  C   UNL A   1      33.431  25.832  25.911  1.00  0.00     0.047 A 
ATOM     26  C   UNL A   1      31.335  27.020  25.703  1.00  0.00     0.047 A 
ATOM     27  C   UNL A   1      32.745  24.654  26.206  1.00  0.00     0.019 A 
ATOM     28  C   UNL A   1      30.645  25.846  26.027  1.00  0.00     0.019 A 
ATOM     29  C   UNL A   1      31.353  24.667  26.263  1.00  0.00     0.018 A 
ATOM     30  Br  UNL A   1      30.423  23.073  26.676  1.00  0.00    -0.051 Br
ENDBRANCH  23  24
ENDBRANCH  22  23
ENDBRANCH  20  22
ENDBRANCH  16  18
ENDBRANCH  14  16
ENDBRANCH   8  14
ENDBRANCH   4   7
ENDBRANCH   2   3
ENDBRANCH   1   2
BRANCH   1  31
ATOM     31  C   UNL A   1      38.677  27.996  30.931  1.00  0.00     0.002 C 
BRANCH  31  32
ATOM     32  C   UNL A   1      38.864  27.620  29.458  1.00  0.00     0.002 C 
BRANCH  32  33
ATOM     33  C   UNL A   1      39.394  26.219  29.145  1.00  0.00     0.021 C 
BRANCH  33  34
ATOM     34  C   UNL A   1      39.744  25.923  27.691  1.00  0.00     0.116 C 
BRANCH  34  35
ATOM     35  N   UNL A   1      41.078  25.378  27.521  1.00  0.00    -0.352 N 
ATOM     36  C   UNL A   1      42.302  25.958  27.748  1.00  0.00     0.251 C 
ATOM     37  H   UNL A   1      41.111  24.450  27.194  1.00  0.00     0.163 HD
ATOM     38  O   UNL A   1      43.325  25.352  27.418  1.00  0.00    -0.269 OA
BRANCH  36  39
ATOM     39  C   UNL A   1      42.413  27.307  28.350  1.00  0.00     0.039 A 
ATOM     40  C   UNL A   1      43.000  27.429  29.614  1.00  0.00     0.014 A 
ATOM     41  C   UNL A   1      41.922  28.446  27.705  1.00  0.00     0.014 A 
ATOM     42  C   UNL A   1      43.150  28.690  30.198  1.00  0.00     0.010 A 
ATOM     43  C   UNL A   1      42.132  29.711  28.260  1.00  0.00     0.010 A 
ATOM     44  C   UNL A   1      42.750  29.848  29.512  1.00  0.00    -0.014 A 
BRANCH  44  45
ATOM     45  C   UNL A   1      42.990  31.201  30.086  1.00  0.00     0.031 A 
ATOM     46  C   UNL A   1      44.040  32.107  29.500  1.00  0.00     0.074 A 
ATOM     47  C   UNL A   1      42.299  31.590  31.178  1.00  0.00     0.049 A 
ATOM     48  N   UNL A   1      44.423  33.292  29.901  1.00  0.00    -0.248 NA
ATOM     49  C   UNL A   1      44.773  31.609  28.324  1.00  0.00     0.031 C 
ATOM     50  C   UNL A   1      41.294  30.783  31.874  1.00  0.00     0.029 A 
ATOM     51  N   UNL A   1      42.344  32.756  31.902  1.00  0.00    -0.354 N 
ATOM     52  C   UNL A   1      45.447  33.675  29.042  1.00  0.00     0.074 A 
ATOM     53  C   UNL A   1      45.655  32.578  28.121  1.00  0.00     0.031 C 
ATOM     54  C   UNL A   1      40.812  31.480  32.915  1.00  0.00     0.029 A 
ATOM     55  C   UNL A   1      41.496  32.768  32.986  1.00  0.00     0.049 A 
ATOM     56  H   UNL A   1      42.930  33.513  31.670  1.00  0.00     0.167 HD
ATOM     57  C   UNL A   1      46.139  34.840  29.012  1.00  0.00     0.037 A 
ATOM     58  C   UNL A   1      41.299  33.700  33.939  1.00  0.00     0.037 A 
ATOM     59  C   UNL A   1      45.905  35.943  29.910  1.00  0.00     0.049 A 
ATOM     60  C   UNL A   1      42.070  34.992  33.874  1.00  0.00     0.074 A 
ATOM     61  C   UNL A   1      46.499  37.193  29.906  1.00  0.00     0.029 A 
ATOM     62  N   UNL A   1      45.014  35.929  30.974  1.00  0.00    -0.354 N 
ATOM     63  N   UNL A   1      42.976  35.367  33.001  1.00  0.00    -0.248 NA
ATOM     64  C   UNL A   1      41.789  35.990  34.914  1.00  0.00     0.031 C 
ATOM     65  C   UNL A   1      46.007  37.917  30.998  1.00  0.00     0.029 A 
ATOM     66  C   UNL A   1      45.065  37.137  31.649  1.00  0.00     0.049 A 
ATOM     67  H   UNL A   1      44.433  35.171  31.212  1.00  0.00     0.167 HD
ATOM     68  C   UNL A   1      43.354  36.652  33.374  1.00  0.00     0.074 A 
ATOM     69  C   UNL A   1      42.566  36.998  34.539  1.00  0.00     0.031 C 
ATOM     70  C   UNL A   1      44.270  37.473  32.805  1.00  0.00     0.037 A 
BRANCH  57  71
ATOM     71  C   UNL A   1      47.219  34.998  27.975  1.00  0.00     0.058 A 
ATOM     72  C   UNL A   1      46.953  35.539  26.708  1.00  0.00     0.135 A 
ATOM     73  C   UNL A   1      48.551  34.677  28.283  1.00  0.00     0.135 A 
ATOM     74  F   UNL A   1      45.696  35.851  26.355  1.00  0.00    -0.206 F 
ATOM     75  C   UNL A   1      47.968  35.744  25.777  1.00  0.00     0.059 A 
ATOM     76  C   UNL A   1      49.585  34.899  27.379  1.00  0.00     0.059 A 
ATOM     77  F   UNL A   1      48.861  34.155  29.481  1.00  0.00    -0.206 F 
ATOM     78  C   UNL A   1      49.281  35.425  26.124  1.00  0.00     0.060 A 
BRANCH  78  79
ATOM     79  S   UNL A   1      50.590  35.730  24.918  1.00  0.00     0.124 S 
ATOM     80  O   UNL A   1      50.857  34.381  24.430  1.00  0.00    -0.237 OA
ATOM     81  O   UNL A   1      49.937  36.628  23.971  1.00  0.00    -0.237 OA
ATOM     82  O   UNL A   1      51.656  36.331  25.714  1.00  0.00    -0.744 OA
ENDBRANCH  78  79
ENDBRANCH  57  71
BRANCH  58  83
ATOM     83  C   UNL A   1      40.332  33.449  35.042  1.00  0.00     0.058 A 
ATOM     84  C   UNL A   1      39.023  33.952  34.991  1.00  0.00     0.135 A 
ATOM     85  C   UNL A   1      40.702  32.708  36.175  1.00  0.00     0.135 A 
ATOM     86  F   UNL A   1      38.623  34.672  33.932  1.00  0.00    -0.206 F 
ATOM     87  C   UNL A   1      38.124  33.753  36.035  1.00  0.00     0.059 A 
ATOM     88  C   UNL A   1      39.812  32.471  37.217  1.00  0.00     0.059 A 
ATOM     89  F   UNL A   1      41.937  32.190  36.266  1.00  0.00    -0.206 F 
ATOM     90  C   UNL A   1      38.529  33.011  37.146  1.00  0.00     0.060 A 
BRANCH  90  91
ATOM     91  S   UNL A   1      37.348  32.737  38.484  1.00  0.00     0.124 S 
ATOM     92  O   UNL A   1      37.849  33.647  39.506  1.00  0.00    -0.237 OA
ATOM     93  O   UNL A   1      36.083  33.109  37.859  1.00  0.00    -0.237 OA
ATOM     94  O   UNL A   1      37.500  31.314  38.777  1.00  0.00    -0.744 OA
ENDBRANCH  90  91
ENDBRANCH  58  83
BRANCH  70  95
ATOM     95  C   UNL A   1      44.453  38.837  33.410  1.00  0.00     0.058 A 
ATOM     96  C   UNL A   1      43.739  39.954  32.946  1.00  0.00     0.135 A 
ATOM     97  C   UNL A   1      45.321  39.022  34.499  1.00  0.00     0.135 A 
ATOM     98  F   UNL A   1      42.901  39.834  31.904  1.00  0.00    -0.206 F 
ATOM     99  C   UNL A   1      43.899  41.209  33.523  1.00  0.00     0.059 A 
ATOM    100  C   UNL A   1      45.473  40.263  35.111  1.00  0.00     0.059 A 
ATOM    101  F   UNL A   1      46.020  37.986  34.991  1.00  0.00    -0.206 F 
ATOM    102  C   UNL A   1      44.768  41.354  34.606  1.00  0.00     0.060 A 
BRANCH 102 103
ATOM    103  S   UNL A   1      44.945  42.984  35.363  1.00  0.00     0.124 S 
ATOM    104  O   UNL A   1      46.315  43.329  34.998  1.00  0.00    -0.237 OA
ATOM    105  O   UNL A   1      43.898  43.753  34.696  1.00  0.00    -0.237 OA
ATOM    106  O   UNL A   1      44.717  42.726  36.781  1.00  0.00    -0.744 OA
ENDBRANCH 102 103
ENDBRANCH  70  95
ENDBRANCH  44  45
ENDBRANCH  36  39
ENDBRANCH  34  35
ENDBRANCH  33  34
ENDBRANCH  32  33
ENDBRANCH  31  32
ENDBRANCH   1  31
TORSDOF 22
ENDMDL
MODEL 2
REMARK VINA RESULT:      -9.4      6.809     15.095
REMARK SMILES O=C(COc1ccc(Br)cc1)NC(=S)Nc1ccc(Cl)cc1C(=O)NCCCCCCNC(=O)c1ccc(-c2c3nc(c(-c4c(F)cc(S(=O)(=O)[O-])cc4F)c4ccc([nH]4)c(-c4c(F)cc(S(=O)(=O)[O-])cc4F)c4nc(c(-c5c(F)cc(S(=O)(=O)[O-])cc5F)c5ccc2[nH]5)C=C4)C=C3)cc1
REMARK SMILES IDX 27 1 26 2 25 3 23 4 24 5 22 7 16 8 17 9 18 10 21 11 19 12
REMARK SMILES IDX 20 13 15 14 13 16 14 17 12 18 1 19 2 20 3 22 4 23 5 24 6 25
REMARK SMILES IDX 11 26 7 27 10 28 8 29 9 30 28 31 29 32 30 33 31 34 32 35
REMARK SMILES IDX 33 36 34 38 35 39 36 40 100 41 37 42 99 43 38 44 39 45 40 46
REMARK SMILES IDX 93 47 41 48 98 49 92 50 94 51 42 52 97 53 91 54 90 55 43 57
REMARK SMILES IDX 77 58 56 59 76 60 57 61 60 62 75 63 95 64 58 65 59 66 74 68
REMARK SMILES IDX 96 69 61 70 44 71 45 72 54 73 46 74 47 75 53 76 55 77 48 78
REMARK SMILES IDX 49 79 50 80 51 81 52 82 78 83 79 84 88 85 80 86 81 87 87 88
REMARK SMILES IDX 89 89 82 90 83 91 84 92 85 93 86 94 62 95 63 96 72 97 64 98
REMARK SMILES IDX 65 99 71 100 73 101 66 102 67 103 68 104 69 105 70 106
REMARK H PARENT 25 6 15 15 12 21 32 37 94 56 60 67
REMARK Flexibility Score: inf
ROOT
ATOM      1  C   UNL A   1      44.450  41.444  31.955  1.00  0.00     0.021 C 
ENDROOT
BRANCH   1   2
ATOM      2  C   UNL A   1      43.910  42.107  30.689  1.00  0.00     0.116 C 
BRANCH   2   3
ATOM      3  N   UNL A   1      42.530  41.835  30.379  1.00  0.00    -0.352 N 
ATOM      4  C   UNL A   1      41.949  40.965  29.486  1.00  0.00     0.253 C 
ATOM      5  O   UNL A   1      40.714  40.942  29.480  1.00  0.00    -0.269 OA
ATOM      6  H   UNL A   1      41.887  42.367  30.898  1.00  0.00     0.163 HD
BRANCH   4   7
ATOM      7  C   UNL A   1      42.657  40.088  28.497  1.00  0.00     0.064 A 
ATOM      8  C   UNL A   1      43.238  40.424  27.258  1.00  0.00     0.053 A 
ATOM      9  C   UNL A   1      43.946  39.452  26.517  1.00  0.00     0.028 A 
ATOM     10  C   UNL A   1      44.004  38.128  26.938  1.00  0.00     0.023 A 
ATOM     11  C   UNL A   1      42.724  38.732  28.896  1.00  0.00     0.036 A 
ATOM     12  C   UNL A   1      43.365  37.769  28.115  1.00  0.00     0.041 A 
ATOM     13  Cl  UNL A   1      43.367  36.120  28.608  1.00  0.00    -0.084 Cl
BRANCH   8  14
ATOM     14  N   UNL A   1      43.152  41.696  26.678  1.00  0.00    -0.332 N 
ATOM     15  H   UNL A   1      42.262  42.119  26.687  1.00  0.00     0.169 HD
BRANCH  14  16
ATOM     16  C   UNL A   1      44.154  42.416  26.102  1.00  0.00     0.177 C 
ATOM     17  S   UNL A   1      45.229  43.240  27.081  1.00  0.00    -0.040 S 
BRANCH  16  18
ATOM     18  N   UNL A   1      44.266  42.593  24.738  1.00  0.00    -0.300 N 
ATOM     19  O   UNL A   1      42.140  42.398  23.770  1.00  0.00    -0.271 OA
ATOM     20  C   UNL A   1      43.354  42.557  23.673  1.00  0.00     0.264 C 
ATOM     21  H   UNL A   1      45.188  42.787  24.450  1.00  0.00     0.172 HD
BRANCH  20  22
ATOM     22  C   UNL A   1      43.969  42.849  22.300  1.00  0.00     0.329 C 
BRANCH  22  23
ATOM     23  O   UNL A   1      43.246  42.263  21.214  1.00  0.00    -0.484 OA
BRANCH  23  24
ATOM     24  C   UNL A   1      42.940  43.187  20.249  1.00  0.00     0.120 A 
ATOM     25  C   UNL A   1      43.959  43.934  19.656  1.00  0.00     0.047 A 
ATOM     26  C   UNL A   1      41.624  43.325  19.812  1.00  0.00     0.047 A 
ATOM     27  C   UNL A   1      43.655  44.888  18.685  1.00  0.00     0.019 A 
ATOM     28  C   UNL A   1      41.321  44.260  18.816  1.00  0.00     0.019 A 
ATOM     29  C   UNL A   1      42.336  45.047  18.269  1.00  0.00     0.018 A 
ATOM     30  Br  UNL A   1      41.925  46.329  16.942  1.00  0.00    -0.051 Br
ENDBRANCH  23  24
ENDBRANCH  22  23
ENDBRANCH  20  22
ENDBRANCH  16  18
ENDBRANCH  14  16
ENDBRANCH   8  14
ENDBRANCH   4   7
ENDBRANCH   2   3
ENDBRANCH   1   2
BRANCH   1  31
ATOM     31  C   UNL A   1      45.701  40.573  31.813  1.00  0.00     0.002 C 
BRANCH  31  32
ATOM     32  C   UNL A   1      45.598  39.097  32.209  1.00  0.00     0.002 C 
BRANCH  32  33
ATOM     33  C   UNL A   1      46.549  38.110  31.526  1.00  0.00     0.021 C 
BRANCH  33  34
ATOM     34  C   UNL A   1      46.467  38.015  30.006  1.00  0.00     0.116 C 
BRANCH  34  35
ATOM     35  N   UNL A   1      47.768  37.993  29.363  1.00  0.00    -0.352 N 
ATOM     36  C   UNL A   1      48.454  36.948  28.795  1.00  0.00     0.251 C 
ATOM     37  H   UNL A   1      48.229  38.862  29.327  1.00  0.00     0.163 HD
ATOM     38  O   UNL A   1      49.611  37.127  28.408  1.00  0.00    -0.269 OA
BRANCH  36  39
ATOM     39  C   UNL A   1      47.840  35.605  28.670  1.00  0.00     0.039 A 
ATOM     40  C   UNL A   1      47.206  35.269  27.468  1.00  0.00     0.014 A 
ATOM     41  C   UNL A   1      47.852  34.686  29.723  1.00  0.00     0.014 A 
ATOM     42  C   UNL A   1      46.644  34.001  27.303  1.00  0.00     0.010 A 
ATOM     43  C   UNL A   1      47.349  33.397  29.534  1.00  0.00     0.010 A 
ATOM     44  C   UNL A   1      46.741  33.038  28.321  1.00  0.00    -0.014 A 
BRANCH  44  45
ATOM     45  C   UNL A   1      46.228  31.655  28.120  1.00  0.00     0.031 A 
ATOM     46  C   UNL A   1      44.811  31.301  28.488  1.00  0.00     0.074 A 
ATOM     47  C   UNL A   1      47.060  30.699  27.658  1.00  0.00     0.049 A 
ATOM     48  N   UNL A   1      44.210  30.140  28.433  1.00  0.00    -0.248 NA
ATOM     49  C   UNL A   1      43.964  32.387  29.008  1.00  0.00     0.031 C 
ATOM     50  C   UNL A   1      48.471  30.900  27.317  1.00  0.00     0.029 A 
ATOM     51  N   UNL A   1      46.848  29.365  27.407  1.00  0.00    -0.354 N 
ATOM     52  C   UNL A   1      42.926  30.350  28.923  1.00  0.00     0.074 A 
ATOM     53  C   UNL A   1      42.846  31.741  29.310  1.00  0.00     0.031 C 
ATOM     54  C   UNL A   1      48.993  29.738  26.893  1.00  0.00     0.029 A 
ATOM     55  C   UNL A   1      47.969  28.700  26.965  1.00  0.00     0.049 A 
ATOM     56  H   UNL A   1      45.977  28.925  27.533  1.00  0.00     0.167 HD
ATOM     57  C   UNL A   1      41.902  29.468  29.025  1.00  0.00     0.037 A 
ATOM     58  C   UNL A   1      48.159  27.400  26.665  1.00  0.00     0.037 A 
ATOM     59  C   UNL A   1      41.976  28.090  28.607  1.00  0.00     0.049 A 
ATOM     60  C   UNL A   1      47.001  26.444  26.774  1.00  0.00     0.074 A 
ATOM     61  C   UNL A   1      40.968  27.142  28.595  1.00  0.00     0.029 A 
ATOM     62  N   UNL A   1      43.119  27.462  28.134  1.00  0.00    -0.354 N 
ATOM     63  N   UNL A   1      45.770  26.682  27.161  1.00  0.00    -0.248 NA
ATOM     64  C   UNL A   1      47.252  25.046  26.397  1.00  0.00     0.031 C 
ATOM     65  C   UNL A   1      41.513  25.927  28.166  1.00  0.00     0.029 A 
ATOM     66  C   UNL A   1      42.848  26.132  27.856  1.00  0.00     0.049 A 
ATOM     67  H   UNL A   1      43.994  27.898  28.013  1.00  0.00     0.167 HD
ATOM     68  C   UNL A   1      45.096  25.471  27.051  1.00  0.00     0.074 A 
ATOM     69  C   UNL A   1      46.049  24.506  26.544  1.00  0.00     0.031 C 
ATOM     70  C   UNL A   1      43.804  25.182  27.345  1.00  0.00     0.037 A 
BRANCH  57  71
ATOM     71  C   UNL A   1      40.603  29.953  29.610  1.00  0.00     0.058 A 
ATOM     72  C   UNL A   1      39.436  30.050  28.837  1.00  0.00     0.135 A 
ATOM     73  C   UNL A   1      40.506  30.248  30.980  1.00  0.00     0.135 A 
ATOM     74  F   UNL A   1      39.473  29.793  27.520  1.00  0.00    -0.206 F 
ATOM     75  C   UNL A   1      38.222  30.436  29.397  1.00  0.00     0.059 A 
ATOM     76  C   UNL A   1      39.297  30.610  31.567  1.00  0.00     0.059 A 
ATOM     77  F   UNL A   1      41.592  30.172  31.765  1.00  0.00    -0.206 F 
ATOM     78  C   UNL A   1      38.162  30.709  30.765  1.00  0.00     0.060 A 
BRANCH  78  79
ATOM     79  S   UNL A   1      36.571  31.175  31.483  1.00  0.00     0.124 S 
ATOM     80  O   UNL A   1      35.982  29.868  31.755  1.00  0.00    -0.237 OA
ATOM     81  O   UNL A   1      36.973  31.945  32.655  1.00  0.00    -0.237 OA
ATOM     82  O   UNL A   1      35.929  31.942  30.420  1.00  0.00    -0.744 OA
ENDBRANCH  78  79
ENDBRANCH  57  71
BRANCH  58  83
ATOM     83  C   UNL A   1      49.501  26.920  26.236  1.00  0.00     0.058 A 
ATOM     84  C   UNL A   1      50.415  26.392  27.160  1.00  0.00     0.135 A 
ATOM     85  C   UNL A   1      49.900  26.990  24.891  1.00  0.00     0.135 A 
ATOM     86  F   UNL A   1      50.085  26.310  28.457  1.00  0.00    -0.206 F 
ATOM     87  C   UNL A   1      51.686  25.975  26.773  1.00  0.00     0.059 A 
ATOM     88  C   UNL A   1      51.153  26.552  24.476  1.00  0.00     0.059 A 
ATOM     89  F   UNL A   1      49.057  27.471  23.964  1.00  0.00    -0.206 F 
ATOM     90  C   UNL A   1      52.046  26.061  25.426  1.00  0.00     0.060 A 
BRANCH  90  91
ATOM     91  S   UNL A   1      53.687  25.494  24.929  1.00  0.00     0.124 S 
ATOM     92  O   UNL A   1      53.809  26.083  23.601  1.00  0.00    -0.237 OA
ATOM     93  O   UNL A   1      54.538  26.071  25.965  1.00  0.00    -0.237 OA
ATOM     94  O   UNL A   1      53.564  24.040  24.967  1.00  0.00    -0.744 OA
ENDBRANCH  90  91
ENDBRANCH  58  83
BRANCH  70  95
ATOM     95  C   UNL A   1      43.333  23.776  27.097  1.00  0.00     0.058 A 
ATOM     96  C   UNL A   1      43.103  22.876  28.150  1.00  0.00     0.135 A 
ATOM     97  C   UNL A   1      43.064  23.336  25.790  1.00  0.00     0.135 A 
ATOM     98  F   UNL A   1      43.350  23.243  29.418  1.00  0.00    -0.206 F 
ATOM     99  C   UNL A   1      42.648  21.582  27.914  1.00  0.00     0.059 A 
ATOM    100  C   UNL A   1      42.579  22.056  25.534  1.00  0.00     0.059 A 
ATOM    101  F   UNL A   1      43.255  24.158  24.746  1.00  0.00    -0.206 F 
ATOM    102  C   UNL A   1      42.388  21.181  26.603  1.00  0.00     0.060 A 
BRANCH 102 103
ATOM    103  S   UNL A   1      41.772  19.509  26.314  1.00  0.00     0.124 S 
ATOM    104  O   UNL A   1      42.415  19.174  25.048  1.00  0.00    -0.237 OA
ATOM    105  O   UNL A   1      42.264  18.789  27.485  1.00  0.00    -0.237 OA
ATOM    106  O   UNL A   1      40.325  19.686  26.257  1.00  0.00    -0.744 OA
ENDBRANCH 102 103
ENDBRANCH  70  95
ENDBRANCH  44  45
ENDBRANCH  36  39
ENDBRANCH  34  35
ENDBRANCH  33  34
ENDBRANCH  32  33
ENDBRANCH  31  32
ENDBRANCH   1  31
TORSDOF 22
ENDMDL
MODEL 3
REMARK VINA RESULT:      -8.9      5.266     10.179
REMARK SMILES O=C(COc1ccc(Br)cc1)NC(=S)Nc1ccc(Cl)cc1C(=O)NCCCCCCNC(=O)c1ccc(-c2c3nc(c(-c4c(F)cc(S(=O)(=O)[O-])cc4F)c4ccc([nH]4)c(-c4c(F)cc(S(=O)(=O)[O-])cc4F)c4nc(c(-c5c(F)cc(S(=O)(=O)[O-])cc5F)c5ccc2[nH]5)C=C4)C=C3)cc1
REMARK SMILES IDX 27 1 26 2 25 3 23 4 24 5 22 7 16 8 17 9 18 10 21 11 19 12
REMARK SMILES IDX 20 13 15 14 13 16 14 17 12 18 1 19 2 20 3 22 4 23 5 24 6 25
REMARK SMILES IDX 11 26 7 27 10 28 8 29 9 30 28 31 29 32 30 33 31 34 32 35
REMARK SMILES IDX 33 36 34 38 35 39 36 40 100 41 37 42 99 43 38 44 39 45 40 46
REMARK SMILES IDX 93 47 41 48 98 49 92 50 94 51 42 52 97 53 91 54 90 55 43 57
REMARK SMILES IDX 77 58 56 59 76 60 57 61 60 62 75 63 95 64 58 65 59 66 74 68
REMARK SMILES IDX 96 69 61 70 44 71 45 72 54 73 46 74 47 75 53 76 55 77 48 78
REMARK SMILES IDX 49 79 50 80 51 81 52 82 78 83 79 84 88 85 80 86 81 87 87 88
REMARK SMILES IDX 89 89 82 90 83 91 84 92 85 93 86 94 62 95 63 96 72 97 64 98
REMARK SMILES IDX 65 99 71 100 73 101 66 102 67 103 68 104 69 105 70 106
REMARK H PARENT 25 6 15 15 12 21 32 37 94 56 60 67
REMARK Flexibility Score: inf
ROOT
ATOM      1  C   UNL A   1      38.561  34.314  29.338  1.00  0.00     0.021 C 
ENDROOT
BRANCH   1   2
ATOM      2  C   UNL A   1      39.680  34.359  30.375  1.00  0.00     0.116 C 
BRANCH   2   3
ATOM      3  N   UNL A   1      40.701  33.352  30.241  1.00  0.00    -0.352 N 
ATOM      4  C   UNL A   1      42.056  33.448  30.027  1.00  0.00     0.253 C 
ATOM      5  O   UNL A   1      42.675  32.379  29.993  1.00  0.00    -0.269 OA
ATOM      6  H   UNL A   1      40.370  32.429  30.316  1.00  0.00     0.163 HD
BRANCH   4   7
ATOM      7  C   UNL A   1      42.840  34.703  29.785  1.00  0.00     0.064 A 
ATOM      8  C   UNL A   1      43.247  35.283  28.567  1.00  0.00     0.053 A 
ATOM      9  C   UNL A   1      43.905  36.533  28.559  1.00  0.00     0.028 A 
ATOM     10  C   UNL A   1      44.253  37.171  29.745  1.00  0.00     0.023 A 
ATOM     11  C   UNL A   1      43.215  35.370  30.976  1.00  0.00     0.036 A 
ATOM     12  C   UNL A   1      43.929  36.569  30.951  1.00  0.00     0.041 A 
ATOM     13  Cl  UNL A   1      44.419  37.312  32.425  1.00  0.00    -0.084 Cl
BRANCH   8  14
ATOM     14  N   UNL A   1      43.052  34.684  27.317  1.00  0.00    -0.332 N 
ATOM     15  H   UNL A   1      42.198  34.882  26.867  1.00  0.00     0.169 HD
BRANCH  14  16
ATOM     16  C   UNL A   1      43.905  33.858  26.650  1.00  0.00     0.177 C 
ATOM     17  S   UNL A   1      44.220  34.148  25.034  1.00  0.00    -0.040 S 
BRANCH  16  18
ATOM     18  N   UNL A   1      44.444  32.719  27.211  1.00  0.00    -0.300 N 
ATOM     19  O   UNL A   1      43.545  30.842  26.131  1.00  0.00    -0.271 OA
ATOM     20  C   UNL A   1      44.259  31.344  26.994  1.00  0.00     0.264 C 
ATOM     21  H   UNL A   1      45.101  32.912  27.920  1.00  0.00     0.172 HD
BRANCH  20  22
ATOM     22  C   UNL A   1      45.128  30.441  27.876  1.00  0.00     0.329 C 
BRANCH  22  23
ATOM     23  O   UNL A   1      45.372  29.152  27.306  1.00  0.00    -0.484 OA
BRANCH  23  24
ATOM     24  C   UNL A   1      46.605  28.666  27.658  1.00  0.00     0.120 A 
ATOM     25  C   UNL A   1      47.254  29.171  28.786  1.00  0.00     0.047 A 
ATOM     26  C   UNL A   1      47.173  27.621  26.932  1.00  0.00     0.047 A 
ATOM     27  C   UNL A   1      48.515  28.694  29.142  1.00  0.00     0.019 A 
ATOM     28  C   UNL A   1      48.425  27.120  27.304  1.00  0.00     0.019 A 
ATOM     29  C   UNL A   1      49.095  27.669  28.399  1.00  0.00     0.018 A 
ATOM     30  Br  UNL A   1      50.799  27.012  28.890  1.00  0.00    -0.051 Br
ENDBRANCH  23  24
ENDBRANCH  22  23
ENDBRANCH  20  22
ENDBRANCH  16  18
ENDBRANCH  14  16
ENDBRANCH   8  14
ENDBRANCH   4   7
ENDBRANCH   2   3
ENDBRANCH   1   2
BRANCH   1  31
ATOM     31  C   UNL A   1      37.549  33.170  29.443  1.00  0.00     0.002 C 
BRANCH  31  32
ATOM     32  C   UNL A   1      36.243  33.431  30.199  1.00  0.00     0.002 C 
BRANCH  32  33
ATOM     33  C   UNL A   1      34.958  32.831  29.623  1.00  0.00     0.021 C 
BRANCH  33  34
ATOM     34  C   UNL A   1      34.857  32.744  28.104  1.00  0.00     0.116 C 
BRANCH  34  35
ATOM     35  N   UNL A   1      34.197  31.537  27.641  1.00  0.00    -0.352 N 
ATOM     36  C   UNL A   1      34.657  30.244  27.594  1.00  0.00     0.251 C 
ATOM     37  H   UNL A   1      33.279  31.665  27.309  1.00  0.00     0.163 HD
ATOM     38  O   UNL A   1      33.968  29.381  27.044  1.00  0.00    -0.269 OA
BRANCH  36  39
ATOM     39  C   UNL A   1      35.973  29.876  28.165  1.00  0.00     0.039 A 
ATOM     40  C   UNL A   1      37.118  30.060  27.380  1.00  0.00     0.014 A 
ATOM     41  C   UNL A   1      36.096  29.327  29.444  1.00  0.00     0.014 A 
ATOM     42  C   UNL A   1      38.379  29.754  27.898  1.00  0.00     0.010 A 
ATOM     43  C   UNL A   1      37.361  29.083  29.984  1.00  0.00     0.010 A 
ATOM     44  C   UNL A   1      38.518  29.296  29.218  1.00  0.00    -0.014 A 
BRANCH  44  45
ATOM     45  C   UNL A   1      39.863  29.055  29.808  1.00  0.00     0.031 A 
ATOM     46  C   UNL A   1      40.786  28.021  29.220  1.00  0.00     0.074 A 
ATOM     47  C   UNL A   1      40.232  29.731  30.917  1.00  0.00     0.049 A 
ATOM     48  N   UNL A   1      41.968  27.639  29.632  1.00  0.00    -0.248 NA
ATOM     49  C   UNL A   1      40.310  27.304  28.025  1.00  0.00     0.031 C 
ATOM     50  C   UNL A   1      39.407  30.719  31.616  1.00  0.00     0.029 A 
ATOM     51  N   UNL A   1      41.388  29.682  31.658  1.00  0.00    -0.354 N 
ATOM     52  C   UNL A   1      42.370  26.632  28.762  1.00  0.00     0.074 A 
ATOM     53  C   UNL A   1      41.289  26.431  27.822  1.00  0.00     0.031 C 
ATOM     54  C   UNL A   1      40.086  31.189  32.676  1.00  0.00     0.029 A 
ATOM     55  C   UNL A   1      41.377  30.513  32.755  1.00  0.00     0.049 A 
ATOM     56  H   UNL A   1      42.151  29.105  31.427  1.00  0.00     0.167 HD
ATOM     57  C   UNL A   1      43.540  25.949  28.739  1.00  0.00     0.037 A 
ATOM     58  C   UNL A   1      42.294  30.701  33.724  1.00  0.00     0.037 A 
ATOM     59  C   UNL A   1      44.628  26.175  29.657  1.00  0.00     0.049 A 
ATOM     60  C   UNL A   1      43.591  29.939  33.666  1.00  0.00     0.074 A 
ATOM     61  C   UNL A   1      45.882  25.590  29.661  1.00  0.00     0.029 A 
ATOM     62  N   UNL A   1      44.592  27.049  30.734  1.00  0.00    -0.354 N 
ATOM     63  N   UNL A   1      43.986  29.050  32.785  1.00  0.00    -0.248 NA
ATOM     64  C   UNL A   1      44.573  30.210  34.726  1.00  0.00     0.031 C 
ATOM     65  C   UNL A   1      46.586  26.069  30.772  1.00  0.00     0.029 A 
ATOM     66  C   UNL A   1      45.790  26.996  31.427  1.00  0.00     0.049 A 
ATOM     67  H   UNL A   1      43.827  27.621  30.971  1.00  0.00     0.167 HD
ATOM     68  C   UNL A   1      45.268  28.675  33.171  1.00  0.00     0.074 A 
ATOM     69  C   UNL A   1      45.591  29.447  34.353  1.00  0.00     0.031 C 
ATOM     70  C   UNL A   1      46.103  27.773  32.600  1.00  0.00     0.037 A 
BRANCH  57  71
ATOM     71  C   UNL A   1      43.721  24.886  27.687  1.00  0.00     0.058 A 
ATOM     72  C   UNL A   1      44.253  25.181  26.423  1.00  0.00     0.135 A 
ATOM     73  C   UNL A   1      43.431  23.543  27.978  1.00  0.00     0.135 A 
ATOM     74  F   UNL A   1      44.536  26.449  26.086  1.00  0.00    -0.206 F 
ATOM     75  C   UNL A   1      44.479  24.184  25.478  1.00  0.00     0.059 A 
ATOM     76  C   UNL A   1      43.675  22.526  27.059  1.00  0.00     0.059 A 
ATOM     77  F   UNL A   1      42.919  23.205  29.172  1.00  0.00    -0.206 F 
ATOM     78  C   UNL A   1      44.192  22.859  25.808  1.00  0.00     0.060 A 
BRANCH  78  79
ATOM     79  S   UNL A   1      44.524  21.574  24.584  1.00  0.00     0.124 S 
ATOM     80  O   UNL A   1      45.954  21.350  24.778  1.00  0.00    -0.237 OA
ATOM     81  O   UNL A   1      43.649  20.492  25.023  1.00  0.00    -0.237 OA
ATOM     82  O   UNL A   1      44.154  22.203  23.320  1.00  0.00    -0.744 OA
ENDBRANCH  78  79
ENDBRANCH  57  71
BRANCH  58  83
ATOM     83  C   UNL A   1      42.020  31.648  34.839  1.00  0.00     0.058 A 
ATOM     84  C   UNL A   1      42.273  33.022  34.706  1.00  0.00     0.135 A 
ATOM     85  C   UNL A   1      41.506  31.196  36.065  1.00  0.00     0.135 A 
ATOM     86  F   UNL A   1      42.770  33.503  33.556  1.00  0.00    -0.206 F 
ATOM     87  C   UNL A   1      42.055  33.909  35.756  1.00  0.00     0.059 A 
ATOM     88  C   UNL A   1      41.252  32.068  37.118  1.00  0.00     0.059 A 
ATOM     89  F   UNL A   1      41.230  29.894  36.239  1.00  0.00    -0.206 F 
ATOM     90  C   UNL A   1      41.544  33.422  36.960  1.00  0.00     0.060 A 
BRANCH  90  91
ATOM     91  S   UNL A   1      41.240  34.584  38.308  1.00  0.00     0.124 S 
ATOM     92  O   UNL A   1      42.597  34.978  38.665  1.00  0.00    -0.237 OA
ATOM     93  O   UNL A   1      40.427  35.605  37.656  1.00  0.00    -0.237 OA
ATOM     94  O   UNL A   1      40.537  33.771  39.297  1.00  0.00    -0.744 OA
ENDBRANCH  90  91
ENDBRANCH  58  83
BRANCH  70  95
ATOM     95  C   UNL A   1      47.460  27.590  33.222  1.00  0.00     0.058 A 
ATOM     96  C   UNL A   1      47.755  26.490  34.043  1.00  0.00     0.135 A 
ATOM     97  C   UNL A   1      48.493  28.504  32.957  1.00  0.00     0.135 A 
ATOM     98  F   UNL A   1      46.802  25.591  34.335  1.00  0.00    -0.206 F 
ATOM     99  C   UNL A   1      49.018  26.317  34.600  1.00  0.00     0.059 A 
ATOM    100  C   UNL A   1      49.772  28.334  33.478  1.00  0.00     0.059 A 
ATOM    101  F   UNL A   1      48.270  29.568  32.168  1.00  0.00    -0.206 F 
ATOM    102  C   UNL A   1      50.021  27.244  34.311  1.00  0.00     0.060 A 
BRANCH 102 103
ATOM    103  S   UNL A   1      51.663  26.992  35.018  1.00  0.00     0.124 S 
ATOM    104  O   UNL A   1      51.349  26.235  36.226  1.00  0.00    -0.237 OA
ATOM    105  O   UNL A   1      52.346  26.248  33.964  1.00  0.00    -0.237 OA
ATOM    106  O   UNL A   1      52.151  28.349  35.236  1.00  0.00    -0.744 OA
ENDBRANCH 102 103
ENDBRANCH  70  95
ENDBRANCH  44  45
ENDBRANCH  36  39
ENDBRANCH  34  35
ENDBRANCH  33  34
ENDBRANCH  32  33
ENDBRANCH  31  32
ENDBRANCH   1  31
TORSDOF 22
ENDMDL
