MODEL 1
REMARK VINA RESULT:      -8.1      0.000      0.000
REMARK SMILES CC(C)(O)C#Cc1ccc(C(=O)N[C@@H](CCC(N)=O)C(=O)NCCCCCCNC(=O)c2ccc(-c3c4nc(c(-c5c(F)cc(S(=O)(=O)[O-])cc5F)c5ccc([nH]5)c(-c5c(F)cc(S(=O)(=O)[O-])cc5F)c5nc(c(-c6c(F)cc(S(=O)(=O)[O-])cc6F)c6ccc3[nH]6)C=C5)C=C4)cc2)s1
REMARK SMILES IDX 24 1 23 2 22 3 20 4 21 5 14 7 13 8 11 9 12 10 10 12 7 13
REMARK SMILES IDX 8 14 98 15 9 16 6 17 5 18 2 19 1 20 3 21 4 22 15 24 16 25
REMARK SMILES IDX 17 26 18 27 19 28 25 31 26 32 27 33 28 34 29 35 30 36 31 38
REMARK SMILES IDX 32 39 33 40 97 41 34 42 96 43 35 44 36 45 37 46 90 47 38 48
REMARK SMILES IDX 95 49 89 50 91 51 39 52 94 53 88 54 87 55 40 57 74 58 53 59
REMARK SMILES IDX 73 60 54 61 57 62 72 63 92 64 55 65 56 66 71 68 93 69 58 70
REMARK SMILES IDX 41 71 42 72 51 73 43 74 44 75 50 76 52 77 45 78 46 79 47 80
REMARK SMILES IDX 48 81 49 82 75 83 76 84 85 85 77 86 78 87 84 88 86 89 79 90
REMARK SMILES IDX 80 91 81 92 82 93 83 94 59 95 60 96 69 97 61 98 62 99 68 100
REMARK SMILES IDX 70 101 63 102 64 103 65 104 66 105 67 106
REMARK H PARENT 22 6 13 11 4 23 18 29 18 30 29 37 91 56 57 67
REMARK Flexibility Score: inf
ROOT
ATOM      1  C   UNL A   1      46.346  25.795  27.030  1.00  0.00     0.021 C 
ENDROOT
BRANCH   1   2
ATOM      2  C   UNL A   1      47.610  26.507  26.575  1.00  0.00     0.116 C 
BRANCH   2   3
ATOM      3  N   UNL A   1      48.780  25.663  26.539  1.00  0.00    -0.354 N 
ATOM      4  C   UNL A   1      49.943  25.728  27.253  1.00  0.00     0.242 C 
ATOM      5  O   UNL A   1      50.707  24.761  27.171  1.00  0.00    -0.273 OA
ATOM      6  H   UNL A   1      48.732  24.919  25.896  1.00  0.00     0.163 HD
BRANCH   4   7
ATOM      7  C   UNL A   1      50.292  26.941  28.150  1.00  0.00     0.172 C 
BRANCH   7   8
ATOM      8  N   UNL A   1      51.073  26.510  29.318  1.00  0.00    -0.340 N 
ATOM      9  C   UNL A   1      50.686  25.992  30.540  1.00  0.00     0.262 C 
ATOM     10  O   UNL A   1      51.601  25.561  31.244  1.00  0.00    -0.268 OA
ATOM     11  H   UNL A   1      52.047  26.607  29.211  1.00  0.00     0.164 HD
BRANCH   9  12
ATOM     12  C   UNL A   1      49.333  26.130  31.037  1.00  0.00     0.093 A 
ATOM     13  C   UNL A   1      47.420  25.585  32.386  1.00  0.00     0.078 A 
ATOM     14  C   UNL A   1      47.036  25.801  31.081  1.00  0.00     0.030 A 
ATOM     15  S   UNL A   1      48.907  26.357  32.678  1.00  0.00    -0.121 S 
ATOM     16  C   UNL A   1      48.167  26.170  30.284  1.00  0.00     0.027 A 
BRANCH  13  17
ATOM     17  C   UNL A   1      46.685  24.916  33.393  1.00  0.00    -0.053 C 
ATOM     18  C   UNL A   1      45.880  24.294  34.209  1.00  0.00    -0.063 C 
BRANCH  18  19
ATOM     19  C   UNL A   1      44.942  23.569  35.161  1.00  0.00     0.120 C 
ATOM     20  C   UNL A   1      45.051  24.179  36.556  1.00  0.00     0.056 C 
ATOM     21  C   UNL A   1      45.279  22.080  35.180  1.00  0.00     0.056 C 
BRANCH  19  22
ATOM     22  O   UNL A   1      43.609  23.735  34.686  1.00  0.00    -0.378 OA
ATOM     23  H   UNL A   1      43.552  24.551  34.165  1.00  0.00     0.212 HD
ENDBRANCH  19  22
ENDBRANCH  18  19
ENDBRANCH  13  17
ENDBRANCH   9  12
ENDBRANCH   7   8
BRANCH   7  24
ATOM     24  C   UNL A   1      50.790  28.244  27.501  1.00  0.00     0.045 C 
BRANCH  24  25
ATOM     25  C   UNL A   1      52.276  28.558  27.430  1.00  0.00     0.102 C 
BRANCH  25  26
ATOM     26  C   UNL A   1      53.114  27.428  26.867  1.00  0.00     0.217 C 
ATOM     27  N   UNL A   1      53.049  27.293  25.512  1.00  0.00    -0.370 N 
ATOM     28  O   UNL A   1      53.791  26.660  27.534  1.00  0.00    -0.275 OA
ATOM     29  H   UNL A   1      52.500  27.915  24.981  1.00  0.00     0.159 HD
ATOM     30  H   UNL A   1      53.548  26.572  25.064  1.00  0.00     0.159 HD
ENDBRANCH  25  26
ENDBRANCH  24  25
ENDBRANCH   7  24
ENDBRANCH   4   7
ENDBRANCH   2   3
ENDBRANCH   1   2
BRANCH   1  31
ATOM     31  C   UNL A   1      46.419  24.267  26.979  1.00  0.00     0.002 C 
BRANCH  31  32
ATOM     32  C   UNL A   1      46.444  23.622  25.586  1.00  0.00     0.002 C 
BRANCH  32  33
ATOM     33  C   UNL A   1      45.638  22.329  25.393  1.00  0.00     0.021 C 
BRANCH  33  34
ATOM     34  C   UNL A   1      44.478  22.440  24.416  1.00  0.00     0.116 C 
BRANCH  34  35
ATOM     35  N   UNL A   1      43.289  21.737  24.878  1.00  0.00    -0.352 N 
ATOM     36  C   UNL A   1      42.518  22.014  25.989  1.00  0.00     0.251 C 
ATOM     37  H   UNL A   1      43.001  20.970  24.331  1.00  0.00     0.163 HD
ATOM     38  O   UNL A   1      41.788  21.161  26.465  1.00  0.00    -0.269 OA
BRANCH  36  39
ATOM     39  C   UNL A   1      42.603  23.359  26.592  1.00  0.00     0.039 A 
ATOM     40  C   UNL A   1      42.170  24.482  25.881  1.00  0.00     0.014 A 
ATOM     41  C   UNL A   1      43.100  23.484  27.888  1.00  0.00     0.014 A 
ATOM     42  C   UNL A   1      42.165  25.721  26.517  1.00  0.00     0.010 A 
ATOM     43  C   UNL A   1      42.984  24.682  28.553  1.00  0.00     0.010 A 
ATOM     44  C   UNL A   1      42.550  25.812  27.865  1.00  0.00    -0.014 A 
BRANCH  44  45
ATOM     45  C   UNL A   1      42.367  27.065  28.597  1.00  0.00     0.031 A 
ATOM     46  C   UNL A   1      43.487  28.042  28.445  1.00  0.00     0.074 A 
ATOM     47  C   UNL A   1      41.193  27.423  29.163  1.00  0.00     0.049 A 
ATOM     48  N   UNL A   1      44.291  28.486  29.355  1.00  0.00    -0.248 NA
ATOM     49  C   UNL A   1      43.843  28.476  27.083  1.00  0.00     0.031 C 
ATOM     50  C   UNL A   1      39.908  26.716  29.107  1.00  0.00     0.029 A 
ATOM     51  N   UNL A   1      40.869  28.571  29.820  1.00  0.00    -0.354 N 
ATOM     52  C   UNL A   1      45.106  29.427  28.725  1.00  0.00     0.074 A 
ATOM     53  C   UNL A   1      44.917  29.236  27.313  1.00  0.00     0.031 C 
ATOM     54  C   UNL A   1      38.915  27.552  29.481  1.00  0.00     0.029 A 
ATOM     55  C   UNL A   1      39.502  28.788  29.964  1.00  0.00     0.049 A 
ATOM     56  H   UNL A   1      41.547  29.198  30.163  1.00  0.00     0.167 HD
ATOM     57  C   UNL A   1      45.688  30.445  29.423  1.00  0.00     0.037 A 
ATOM     58  C   UNL A   1      38.896  29.914  30.417  1.00  0.00     0.037 A 
ATOM     59  C   UNL A   1      45.668  30.173  30.839  1.00  0.00     0.049 A 
ATOM     60  C   UNL A   1      39.917  30.680  31.175  1.00  0.00     0.074 A 
ATOM     61  C   UNL A   1      46.171  29.170  31.646  1.00  0.00     0.029 A 
ATOM     62  N   UNL A   1      44.726  30.823  31.598  1.00  0.00    -0.354 N 
ATOM     63  N   UNL A   1      40.455  30.271  32.292  1.00  0.00    -0.248 NA
ATOM     64  C   UNL A   1      40.673  31.695  30.457  1.00  0.00     0.031 C 
ATOM     65  C   UNL A   1      45.169  28.960  32.638  1.00  0.00     0.029 A 
ATOM     66  C   UNL A   1      44.152  29.894  32.426  1.00  0.00     0.049 A 
ATOM     67  H   UNL A   1      44.502  31.781  31.555  1.00  0.00     0.167 HD
ATOM     68  C   UNL A   1      41.790  30.638  32.199  1.00  0.00     0.074 A 
ATOM     69  C   UNL A   1      41.841  31.592  31.094  1.00  0.00     0.031 C 
ATOM     70  C   UNL A   1      42.764  29.924  32.836  1.00  0.00     0.037 A 
BRANCH  57  71
ATOM     71  C   UNL A   1      45.933  31.840  28.883  1.00  0.00     0.058 A 
ATOM     72  C   UNL A   1      44.846  32.574  28.355  1.00  0.00     0.135 A 
ATOM     73  C   UNL A   1      47.210  32.370  28.596  1.00  0.00     0.135 A 
ATOM     74  F   UNL A   1      43.582  32.175  28.567  1.00  0.00    -0.206 F 
ATOM     75  C   UNL A   1      45.020  33.684  27.527  1.00  0.00     0.059 A 
ATOM     76  C   UNL A   1      47.404  33.507  27.817  1.00  0.00     0.059 A 
ATOM     77  F   UNL A   1      48.342  31.765  28.972  1.00  0.00    -0.206 F 
ATOM     78  C   UNL A   1      46.307  34.130  27.247  1.00  0.00     0.060 A 
BRANCH  78  79
ATOM     79  S   UNL A   1      46.543  35.490  26.091  1.00  0.00     0.124 S 
ATOM     80  O   UNL A   1      46.344  34.821  24.812  1.00  0.00    -0.237 OA
ATOM     81  O   UNL A   1      45.494  36.420  26.499  1.00  0.00    -0.237 OA
ATOM     82  O   UNL A   1      47.907  35.932  26.369  1.00  0.00    -0.744 OA
ENDBRANCH  78  79
ENDBRANCH  57  71
BRANCH  58  83
ATOM     83  C   UNL A   1      37.608  30.516  29.975  1.00  0.00     0.058 A 
ATOM     84  C   UNL A   1      36.696  31.050  30.902  1.00  0.00     0.135 A 
ATOM     85  C   UNL A   1      37.376  30.840  28.622  1.00  0.00     0.135 A 
ATOM     86  F   UNL A   1      36.850  30.810  32.213  1.00  0.00    -0.206 F 
ATOM     87  C   UNL A   1      35.650  31.899  30.520  1.00  0.00     0.059 A 
ATOM     88  C   UNL A   1      36.336  31.677  28.216  1.00  0.00     0.059 A 
ATOM     89  F   UNL A   1      38.215  30.429  27.659  1.00  0.00    -0.206 F 
ATOM     90  C   UNL A   1      35.491  32.225  29.175  1.00  0.00     0.060 A 
BRANCH  90  91
ATOM     91  S   UNL A   1      34.261  33.464  28.699  1.00  0.00     0.124 S 
ATOM     92  O   UNL A   1      33.724  33.868  29.993  1.00  0.00    -0.237 OA
ATOM     93  O   UNL A   1      35.076  34.458  28.007  1.00  0.00    -0.237 OA
ATOM     94  O   UNL A   1      33.340  32.717  27.846  1.00  0.00    -0.744 OA
ENDBRANCH  90  91
ENDBRANCH  58  83
BRANCH  70  95
ATOM     95  C   UNL A   1      42.354  28.930  33.895  1.00  0.00     0.058 A 
ATOM     96  C   UNL A   1      41.976  27.599  33.644  1.00  0.00     0.135 A 
ATOM     97  C   UNL A   1      42.507  29.307  35.237  1.00  0.00     0.135 A 
ATOM     98  F   UNL A   1      41.904  27.125  32.392  1.00  0.00    -0.206 F 
ATOM     99  C   UNL A   1      41.726  26.697  34.681  1.00  0.00     0.059 A 
ATOM    100  C   UNL A   1      42.295  28.417  36.286  1.00  0.00     0.059 A 
ATOM    101  F   UNL A   1      42.924  30.547  35.544  1.00  0.00    -0.206 F 
ATOM    102  C   UNL A   1      41.892  27.115  36.000  1.00  0.00     0.060 A 
BRANCH 102 103
ATOM    103  S   UNL A   1      41.647  25.929  37.339  1.00  0.00     0.124 S 
ATOM    104  O   UNL A   1      42.710  26.292  38.270  1.00  0.00    -0.237 OA
ATOM    105  O   UNL A   1      40.289  26.225  37.783  1.00  0.00    -0.237 OA
ATOM    106  O   UNL A   1      41.808  24.633  36.683  1.00  0.00    -0.744 OA
ENDBRANCH 102 103
ENDBRANCH  70  95
ENDBRANCH  44  45
ENDBRANCH  36  39
ENDBRANCH  34  35
ENDBRANCH  33  34
ENDBRANCH  32  33
ENDBRANCH  31  32
ENDBRANCH   1  31
TORSDOF 24
ENDMDL
MODEL 2
REMARK VINA RESULT:      -8.0      3.802      7.288
REMARK SMILES CC(C)(O)C#Cc1ccc(C(=O)N[C@@H](CCC(N)=O)C(=O)NCCCCCCNC(=O)c2ccc(-c3c4nc(c(-c5c(F)cc(S(=O)(=O)[O-])cc5F)c5ccc([nH]5)c(-c5c(F)cc(S(=O)(=O)[O-])cc5F)c5nc(c(-c6c(F)cc(S(=O)(=O)[O-])cc6F)c6ccc3[nH]6)C=C5)C=C4)cc2)s1
REMARK SMILES IDX 24 1 23 2 22 3 20 4 21 5 14 7 13 8 11 9 12 10 10 12 7 13
REMARK SMILES IDX 8 14 98 15 9 16 6 17 5 18 2 19 1 20 3 21 4 22 15 24 16 25
REMARK SMILES IDX 17 26 18 27 19 28 25 31 26 32 27 33 28 34 29 35 30 36 31 38
REMARK SMILES IDX 32 39 33 40 97 41 34 42 96 43 35 44 36 45 37 46 90 47 38 48
REMARK SMILES IDX 95 49 89 50 91 51 39 52 94 53 88 54 87 55 40 57 74 58 53 59
REMARK SMILES IDX 73 60 54 61 57 62 72 63 92 64 55 65 56 66 71 68 93 69 58 70
REMARK SMILES IDX 41 71 42 72 51 73 43 74 44 75 50 76 52 77 45 78 46 79 47 80
REMARK SMILES IDX 48 81 49 82 75 83 76 84 85 85 77 86 78 87 84 88 86 89 79 90
REMARK SMILES IDX 80 91 81 92 82 93 83 94 59 95 60 96 69 97 61 98 62 99 68 100
REMARK SMILES IDX 70 101 63 102 64 103 65 104 66 105 67 106
REMARK H PARENT 22 6 13 11 4 23 18 29 18 30 29 37 91 56 57 67
REMARK Flexibility Score: inf
ROOT
ATOM      1  C   UNL A   1      45.816  26.921  30.137  1.00  0.00     0.021 C 
ENDROOT
BRANCH   1   2
ATOM      2  C   UNL A   1      44.941  26.650  28.925  1.00  0.00     0.116 C 
BRANCH   2   3
ATOM      3  N   UNL A   1      45.559  25.808  27.929  1.00  0.00    -0.354 N 
ATOM      4  C   UNL A   1      45.034  25.226  26.810  1.00  0.00     0.242 C 
ATOM      5  O   UNL A   1      45.831  24.715  26.017  1.00  0.00    -0.273 OA
ATOM      6  H   UNL A   1      46.515  25.625  28.079  1.00  0.00     0.163 HD
BRANCH   4   7
ATOM      7  C   UNL A   1      43.513  25.220  26.521  1.00  0.00     0.172 C 
BRANCH   7   8
ATOM      8  N   UNL A   1      43.185  26.190  25.467  1.00  0.00    -0.340 N 
ATOM      9  C   UNL A   1      42.622  27.451  25.523  1.00  0.00     0.262 C 
ATOM     10  O   UNL A   1      42.643  28.086  24.467  1.00  0.00    -0.268 OA
ATOM     11  H   UNL A   1      43.408  25.888  24.556  1.00  0.00     0.164 HD
BRANCH   9  12
ATOM     12  C   UNL A   1      41.886  27.912  26.682  1.00  0.00     0.093 A 
ATOM     13  C   UNL A   1      40.028  28.868  27.870  1.00  0.00     0.078 A 
ATOM     14  C   UNL A   1      41.212  29.414  28.318  1.00  0.00     0.030 A 
ATOM     15  S   UNL A   1      40.334  27.362  27.143  1.00  0.00    -0.121 S 
ATOM     16  C   UNL A   1      42.323  28.813  27.644  1.00  0.00     0.027 A 
BRANCH  13  17
ATOM     17  C   UNL A   1      38.726  29.392  28.045  1.00  0.00    -0.053 C 
ATOM     18  C   UNL A   1      37.469  29.722  28.158  1.00  0.00    -0.063 C 
BRANCH  18  19
ATOM     19  C   UNL A   1      36.004  30.106  28.292  1.00  0.00     0.120 C 
ATOM     20  C   UNL A   1      35.141  29.127  27.500  1.00  0.00     0.056 C 
ATOM     21  C   UNL A   1      35.802  31.539  27.809  1.00  0.00     0.056 C 
BRANCH  19  22
ATOM     22  O   UNL A   1      35.646  30.027  29.670  1.00  0.00    -0.378 OA
ATOM     23  H   UNL A   1      36.330  29.537  30.153  1.00  0.00     0.212 HD
ENDBRANCH  19  22
ENDBRANCH  18  19
ENDBRANCH  13  17
ENDBRANCH   9  12
ENDBRANCH   7   8
BRANCH   7  24
ATOM     24  C   UNL A   1      42.770  23.878  26.400  1.00  0.00     0.045 C 
BRANCH  24  25
ATOM     25  C   UNL A   1      42.298  23.138  27.642  1.00  0.00     0.102 C 
BRANCH  25  26
ATOM     26  C   UNL A   1      42.074  21.656  27.422  1.00  0.00     0.217 C 
ATOM     27  N   UNL A   1      40.982  21.145  28.058  1.00  0.00    -0.370 N 
ATOM     28  O   UNL A   1      42.799  20.931  26.757  1.00  0.00    -0.275 OA
ATOM     29  H   UNL A   1      40.403  21.736  28.593  1.00  0.00     0.159 HD
ATOM     30  H   UNL A   1      40.772  20.186  27.984  1.00  0.00     0.159 HD
ENDBRANCH  25  26
ENDBRANCH  24  25
ENDBRANCH   7  24
ENDBRANCH   4   7
ENDBRANCH   2   3
ENDBRANCH   1   2
BRANCH   1  31
ATOM     31  C   UNL A   1      45.803  25.815  31.195  1.00  0.00     0.002 C 
BRANCH  31  32
ATOM     32  C   UNL A   1      44.615  25.803  32.170  1.00  0.00     0.002 C 
BRANCH  32  33
ATOM     33  C   UNL A   1      44.289  24.475  32.868  1.00  0.00     0.021 C 
BRANCH  33  34
ATOM     34  C   UNL A   1      44.587  24.449  34.359  1.00  0.00     0.116 C 
BRANCH  34  35
ATOM     35  N   UNL A   1      43.485  23.904  35.140  1.00  0.00    -0.352 N 
ATOM     36  C   UNL A   1      42.504  24.596  35.821  1.00  0.00     0.251 C 
ATOM     37  H   UNL A   1      43.434  22.921  35.188  1.00  0.00     0.163 HD
ATOM     38  O   UNL A   1      41.872  24.058  36.714  1.00  0.00    -0.269 OA
BRANCH  36  39
ATOM     39  C   UNL A   1      42.244  26.002  35.451  1.00  0.00     0.039 A 
ATOM     40  C   UNL A   1      43.041  27.028  35.967  1.00  0.00     0.014 A 
ATOM     41  C   UNL A   1      41.207  26.283  34.564  1.00  0.00     0.014 A 
ATOM     42  C   UNL A   1      42.837  28.330  35.516  1.00  0.00     0.010 A 
ATOM     43  C   UNL A   1      41.085  27.545  34.031  1.00  0.00     0.010 A 
ATOM     44  C   UNL A   1      41.872  28.581  34.528  1.00  0.00    -0.014 A 
BRANCH  44  45
ATOM     45  C   UNL A   1      41.781  29.903  33.909  1.00  0.00     0.031 A 
ATOM     46  C   UNL A   1      42.828  30.181  32.880  1.00  0.00     0.074 A 
ATOM     47  C   UNL A   1      40.714  30.717  34.064  1.00  0.00     0.049 A 
ATOM     48  N   UNL A   1      43.764  31.072  32.910  1.00  0.00    -0.248 NA
ATOM     49  C   UNL A   1      42.929  29.260  31.735  1.00  0.00     0.031 C 
ATOM     50  C   UNL A   1      39.460  30.441  34.776  1.00  0.00     0.029 A 
ATOM     51  N   UNL A   1      40.473  31.937  33.508  1.00  0.00    -0.354 N 
ATOM     52  C   UNL A   1      44.429  30.976  31.687  1.00  0.00     0.074 A 
ATOM     53  C   UNL A   1      44.003  29.735  31.099  1.00  0.00     0.031 C 
ATOM     54  C   UNL A   1      38.522  31.340  34.406  1.00  0.00     0.029 A 
ATOM     55  C   UNL A   1      39.146  32.350  33.573  1.00  0.00     0.049 A 
ATOM     56  H   UNL A   1      41.181  32.482  33.093  1.00  0.00     0.167 HD
ATOM     57  C   UNL A   1      45.092  32.042  31.153  1.00  0.00     0.037 A 
ATOM     58  C   UNL A   1      38.594  33.427  32.959  1.00  0.00     0.037 A 
ATOM     59  C   UNL A   1      45.326  33.055  32.152  1.00  0.00     0.049 A 
ATOM     60  C   UNL A   1      39.707  34.346  32.613  1.00  0.00     0.074 A 
ATOM     61  C   UNL A   1      45.991  33.093  33.363  1.00  0.00     0.029 A 
ATOM     62  N   UNL A   1      44.510  34.159  32.141  1.00  0.00    -0.354 N 
ATOM     63  N   UNL A   1      40.444  34.965  33.496  1.00  0.00    -0.248 NA
ATOM     64  C   UNL A   1      40.296  34.226  31.288  1.00  0.00     0.031 C 
ATOM     65  C   UNL A   1      45.183  33.918  34.199  1.00  0.00     0.029 A 
ATOM     66  C   UNL A   1      44.117  34.394  33.433  1.00  0.00     0.049 A 
ATOM     67  H   UNL A   1      44.254  34.687  31.350  1.00  0.00     0.167 HD
ATOM     68  C   UNL A   1      41.730  34.923  32.979  1.00  0.00     0.074 A 
ATOM     69  C   UNL A   1      41.561  34.543  31.578  1.00  0.00     0.031 C 
ATOM     70  C   UNL A   1      42.821  34.924  33.800  1.00  0.00     0.037 A 
BRANCH  57  71
ATOM     71  C   UNL A   1      45.197  32.346  29.671  1.00  0.00     0.058 A 
ATOM     72  C   UNL A   1      46.461  32.655  29.119  1.00  0.00     0.135 A 
ATOM     73  C   UNL A   1      44.093  32.630  28.837  1.00  0.00     0.135 A 
ATOM     74  F   UNL A   1      47.587  32.421  29.813  1.00  0.00    -0.206 F 
ATOM     75  C   UNL A   1      46.609  33.285  27.883  1.00  0.00     0.059 A 
ATOM     76  C   UNL A   1      44.221  33.210  27.578  1.00  0.00     0.059 A 
ATOM     77  F   UNL A   1      42.828  32.451  29.231  1.00  0.00    -0.206 F 
ATOM     78  C   UNL A   1      45.478  33.578  27.128  1.00  0.00     0.060 A 
BRANCH  78  79
ATOM     79  S   UNL A   1      45.651  34.493  25.588  1.00  0.00     0.124 S 
ATOM     80  O   UNL A   1      44.726  33.776  24.719  1.00  0.00    -0.237 OA
ATOM     81  O   UNL A   1      45.246  35.837  25.987  1.00  0.00    -0.237 OA
ATOM     82  O   UNL A   1      47.068  34.341  25.266  1.00  0.00    -0.744 OA
ENDBRANCH  78  79
ENDBRANCH  57  71
BRANCH  58  83
ATOM     83  C   UNL A   1      37.232  33.564  32.375  1.00  0.00     0.058 A 
ATOM     84  C   UNL A   1      36.244  34.344  33.002  1.00  0.00     0.135 A 
ATOM     85  C   UNL A   1      36.959  33.171  31.048  1.00  0.00     0.135 A 
ATOM     86  F   UNL A   1      36.427  34.780  34.258  1.00  0.00    -0.206 F 
ATOM     87  C   UNL A   1      35.083  34.758  32.339  1.00  0.00     0.059 A 
ATOM     88  C   UNL A   1      35.805  33.562  30.369  1.00  0.00     0.059 A 
ATOM     89  F   UNL A   1      37.856  32.471  30.338  1.00  0.00    -0.206 F 
ATOM     90  C   UNL A   1      34.883  34.380  31.012  1.00  0.00     0.060 A 
BRANCH  90  91
ATOM     91  S   UNL A   1      33.480  35.062  30.095  1.00  0.00     0.124 S 
ATOM     92  O   UNL A   1      32.574  35.446  31.171  1.00  0.00    -0.237 OA
ATOM     93  O   UNL A   1      34.098  36.160  29.358  1.00  0.00    -0.237 OA
ATOM     94  O   UNL A   1      33.033  33.940  29.273  1.00  0.00    -0.744 OA
ENDBRANCH  90  91
ENDBRANCH  58  83
BRANCH  70  95
ATOM     95  C   UNL A   1      42.631  35.291  35.250  1.00  0.00     0.058 A 
ATOM     96  C   UNL A   1      42.594  36.606  35.748  1.00  0.00     0.135 A 
ATOM     97  C   UNL A   1      42.315  34.260  36.149  1.00  0.00     0.135 A 
ATOM     98  F   UNL A   1      42.783  37.657  34.939  1.00  0.00    -0.206 F 
ATOM     99  C   UNL A   1      42.293  36.878  37.085  1.00  0.00     0.059 A 
ATOM    100  C   UNL A   1      41.980  34.510  37.476  1.00  0.00     0.059 A 
ATOM    101  F   UNL A   1      42.274  32.986  35.723  1.00  0.00    -0.206 F 
ATOM    102  C   UNL A   1      41.983  35.823  37.941  1.00  0.00     0.060 A 
BRANCH 102 103
ATOM    103  S   UNL A   1      41.515  36.179  39.648  1.00  0.00     0.124 S 
ATOM    104  O   UNL A   1      42.620  35.594  40.399  1.00  0.00    -0.237 OA
ATOM    105  O   UNL A   1      41.442  37.637  39.661  1.00  0.00    -0.237 OA
ATOM    106  O   UNL A   1      40.230  35.500  39.800  1.00  0.00    -0.744 OA
ENDBRANCH 102 103
ENDBRANCH  70  95
ENDBRANCH  44  45
ENDBRANCH  36  39
ENDBRANCH  34  35
ENDBRANCH  33  34
ENDBRANCH  32  33
ENDBRANCH  31  32
ENDBRANCH   1  31
TORSDOF 24
ENDMDL
MODEL 3
REMARK VINA RESULT:      -7.8      3.202     12.157
REMARK SMILES CC(C)(O)C#Cc1ccc(C(=O)N[C@@H](CCC(N)=O)C(=O)NCCCCCCNC(=O)c2ccc(-c3c4nc(c(-c5c(F)cc(S(=O)(=O)[O-])cc5F)c5ccc([nH]5)c(-c5c(F)cc(S(=O)(=O)[O-])cc5F)c5nc(c(-c6c(F)cc(S(=O)(=O)[O-])cc6F)c6ccc3[nH]6)C=C5)C=C4)cc2)s1
REMARK SMILES IDX 24 1 23 2 22 3 20 4 21 5 14 7 13 8 11 9 12 10 10 12 7 13
REMARK SMILES IDX 8 14 98 15 9 16 6 17 5 18 2 19 1 20 3 21 4 22 15 24 16 25
REMARK SMILES IDX 17 26 18 27 19 28 25 31 26 32 27 33 28 34 29 35 30 36 31 38
REMARK SMILES IDX 32 39 33 40 97 41 34 42 96 43 35 44 36 45 37 46 90 47 38 48
REMARK SMILES IDX 95 49 89 50 91 51 39 52 94 53 88 54 87 55 40 57 74 58 53 59
REMARK SMILES IDX 73 60 54 61 57 62 72 63 92 64 55 65 56 66 71 68 93 69 58 70
REMARK SMILES IDX 41 71 42 72 51 73 43 74 44 75 50 76 52 77 45 78 46 79 47 80
REMARK SMILES IDX 48 81 49 82 75 83 76 84 85 85 77 86 78 87 84 88 86 89 79 90
REMARK SMILES IDX 80 91 81 92 82 93 83 94 59 95 60 96 69 97 61 98 62 99 68 100
REMARK SMILES IDX 70 101 63 102 64 103 65 104 66 105 67 106
REMARK H PARENT 22 6 13 11 4 23 18 29 18 30 29 37 91 56 57 67
REMARK Flexibility Score: inf
ROOT
ATOM      1  C   UNL A   1      35.589  34.549  34.519  1.00  0.00     0.021 C 
ENDROOT
BRANCH   1   2
ATOM      2  C   UNL A   1      34.650  34.920  33.383  1.00  0.00     0.116 C 
BRANCH   2   3
ATOM      3  N   UNL A   1      34.245  33.802  32.565  1.00  0.00    -0.354 N 
ATOM      4  C   UNL A   1      34.714  33.370  31.357  1.00  0.00     0.242 C 
ATOM      5  O   UNL A   1      34.324  32.265  30.967  1.00  0.00    -0.273 OA
ATOM      6  H   UNL A   1      33.511  33.262  32.939  1.00  0.00     0.163 HD
BRANCH   4   7
ATOM      7  C   UNL A   1      35.710  34.204  30.514  1.00  0.00     0.172 C 
BRANCH   7   8
ATOM      8  N   UNL A   1      37.069  34.091  31.062  1.00  0.00    -0.340 N 
ATOM      9  C   UNL A   1      38.022  33.096  30.955  1.00  0.00     0.262 C 
ATOM     10  O   UNL A   1      39.138  33.385  31.388  1.00  0.00    -0.268 OA
ATOM     11  H   UNL A   1      37.352  34.864  31.603  1.00  0.00     0.164 HD
BRANCH   9  12
ATOM     12  C   UNL A   1      37.682  31.749  30.547  1.00  0.00     0.093 A 
ATOM     13  C   UNL A   1      36.468  30.053  29.351  1.00  0.00     0.078 A 
ATOM     14  C   UNL A   1      36.615  29.691  30.672  1.00  0.00     0.030 A 
ATOM     15  S   UNL A   1      37.668  31.183  28.933  1.00  0.00    -0.121 S 
ATOM     16  C   UNL A   1      37.376  30.678  31.377  1.00  0.00     0.027 A 
BRANCH  13  17
ATOM     17  C   UNL A   1      35.542  29.528  28.418  1.00  0.00    -0.053 C 
ATOM     18  C   UNL A   1      34.642  29.205  27.532  1.00  0.00    -0.063 C 
BRANCH  18  19
ATOM     19  C   UNL A   1      33.594  28.828  26.498  1.00  0.00     0.120 C 
ATOM     20  C   UNL A   1      32.219  28.760  27.159  1.00  0.00     0.056 C 
ATOM     21  C   UNL A   1      33.964  27.497  25.851  1.00  0.00     0.056 C 
BRANCH  19  22
ATOM     22  O   UNL A   1      33.573  29.840  25.494  1.00  0.00    -0.378 OA
ATOM     23  H   UNL A   1      33.442  29.430  24.625  1.00  0.00     0.212 HD
ENDBRANCH  19  22
ENDBRANCH  18  19
ENDBRANCH  13  17
ENDBRANCH   9  12
ENDBRANCH   7   8
BRANCH   7  24
ATOM     24  C   UNL A   1      35.638  34.143  28.979  1.00  0.00     0.045 C 
BRANCH  24  25
ATOM     25  C   UNL A   1      34.715  35.072  28.207  1.00  0.00     0.102 C 
BRANCH  25  26
ATOM     26  C   UNL A   1      33.243  34.820  28.460  1.00  0.00     0.217 C 
ATOM     27  N   UNL A   1      32.672  33.904  27.628  1.00  0.00    -0.370 N 
ATOM     28  O   UNL A   1      32.574  35.384  29.313  1.00  0.00    -0.275 OA
ATOM     29  H   UNL A   1      33.217  33.455  26.942  1.00  0.00     0.159 HD
ATOM     30  H   UNL A   1      31.713  33.693  27.710  1.00  0.00     0.159 HD
ENDBRANCH  25  26
ENDBRANCH  24  25
ENDBRANCH   7  24
ENDBRANCH   4   7
ENDBRANCH   2   3
ENDBRANCH   1   2
BRANCH   1  31
ATOM     31  C   UNL A   1      36.229  33.163  34.393  1.00  0.00     0.002 C 
BRANCH  31  32
ATOM     32  C   UNL A   1      37.389  32.848  35.350  1.00  0.00     0.002 C 
BRANCH  32  33
ATOM     33  C   UNL A   1      38.108  31.503  35.166  1.00  0.00     0.021 C 
BRANCH  33  34
ATOM     34  C   UNL A   1      39.595  31.527  35.483  1.00  0.00     0.116 C 
BRANCH  34  35
ATOM     35  N   UNL A   1      40.001  30.423  36.341  1.00  0.00    -0.352 N 
ATOM     36  C   UNL A   1      40.740  29.308  35.997  1.00  0.00     0.251 C 
ATOM     37  H   UNL A   1      39.714  30.478  37.281  1.00  0.00     0.163 HD
ATOM     38  O   UNL A   1      40.704  28.303  36.687  1.00  0.00    -0.269 OA
BRANCH  36  39
ATOM     39  C   UNL A   1      41.564  29.356  34.773  1.00  0.00     0.039 A 
ATOM     40  C   UNL A   1      42.847  29.909  34.804  1.00  0.00     0.014 A 
ATOM     41  C   UNL A   1      41.048  28.820  33.594  1.00  0.00     0.014 A 
ATOM     42  C   UNL A   1      43.638  29.842  33.659  1.00  0.00     0.010 A 
ATOM     43  C   UNL A   1      41.868  28.648  32.504  1.00  0.00     0.010 A 
ATOM     44  C   UNL A   1      43.152  29.187  32.516  1.00  0.00    -0.014 A 
BRANCH  44  45
ATOM     45  C   UNL A   1      44.038  28.942  31.379  1.00  0.00     0.031 A 
ATOM     46  C   UNL A   1      44.042  30.025  30.350  1.00  0.00     0.074 A 
ATOM     47  C   UNL A   1      44.958  27.952  31.361  1.00  0.00     0.049 A 
ATOM     48  N   UNL A   1      43.655  29.960  29.118  1.00  0.00    -0.248 NA
ATOM     49  C   UNL A   1      44.392  31.388  30.785  1.00  0.00     0.031 C 
ATOM     50  C   UNL A   1      45.301  27.016  32.438  1.00  0.00     0.029 A 
ATOM     51  N   UNL A   1      45.876  27.647  30.403  1.00  0.00    -0.354 N 
ATOM     52  C   UNL A   1      43.928  31.210  28.560  1.00  0.00     0.074 A 
ATOM     53  C   UNL A   1      44.192  32.089  29.667  1.00  0.00     0.031 C 
ATOM     54  C   UNL A   1      46.488  26.430  32.167  1.00  0.00     0.029 A 
ATOM     55  C   UNL A   1      46.904  26.813  30.832  1.00  0.00     0.049 A 
ATOM     56  H   UNL A   1      45.818  27.990  29.481  1.00  0.00     0.167 HD
ATOM     57  C   UNL A   1      44.146  31.360  27.222  1.00  0.00     0.037 A 
ATOM     58  C   UNL A   1      48.032  26.489  30.151  1.00  0.00     0.037 A 
ATOM     59  C   UNL A   1      43.682  30.205  26.494  1.00  0.00     0.049 A 
ATOM     60  C   UNL A   1      47.767  26.768  28.717  1.00  0.00     0.074 A 
ATOM     61  C   UNL A   1      42.463  29.572  26.347  1.00  0.00     0.029 A 
ATOM     62  N   UNL A   1      44.624  29.302  26.067  1.00  0.00    -0.354 N 
ATOM     63  N   UNL A   1      46.895  26.117  27.996  1.00  0.00    -0.248 NA
ATOM     64  C   UNL A   1      48.150  28.073  28.199  1.00  0.00     0.031 C 
ATOM     65  C   UNL A   1      42.773  28.180  26.320  1.00  0.00     0.029 A 
ATOM     66  C   UNL A   1      44.162  28.049  26.375  1.00  0.00     0.049 A 
ATOM     67  H   UNL A   1      45.476  29.515  25.621  1.00  0.00     0.167 HD
ATOM     68  C   UNL A   1      46.302  27.083  27.197  1.00  0.00     0.074 A 
ATOM     69  C   UNL A   1      47.180  28.246  27.298  1.00  0.00     0.031 C 
ATOM     70  C   UNL A   1      45.016  26.945  26.758  1.00  0.00     0.037 A 
BRANCH  57  71
ATOM     71  C   UNL A   1      45.106  32.358  26.605  1.00  0.00     0.058 A 
ATOM     72  C   UNL A   1      46.483  32.270  26.913  1.00  0.00     0.135 A 
ATOM     73  C   UNL A   1      44.710  33.556  25.970  1.00  0.00     0.135 A 
ATOM     74  F   UNL A   1      46.982  31.176  27.510  1.00  0.00    -0.206 F 
ATOM     75  C   UNL A   1      47.372  33.324  26.697  1.00  0.00     0.059 A 
ATOM     76  C   UNL A   1      45.590  34.598  25.697  1.00  0.00     0.059 A 
ATOM     77  F   UNL A   1      43.435  33.822  25.665  1.00  0.00    -0.206 F 
ATOM     78  C   UNL A   1      46.909  34.494  26.106  1.00  0.00     0.060 A 
BRANCH  78  79
ATOM     79  S   UNL A   1      48.021  35.899  25.928  1.00  0.00     0.124 S 
ATOM     80  O   UNL A   1      47.087  36.970  25.605  1.00  0.00    -0.237 OA
ATOM     81  O   UNL A   1      48.640  35.963  27.248  1.00  0.00    -0.237 OA
ATOM     82  O   UNL A   1      48.910  35.486  24.845  1.00  0.00    -0.744 OA
ENDBRANCH  78  79
ENDBRANCH  57  71
BRANCH  58  83
ATOM     83  C   UNL A   1      49.404  26.263  30.682  1.00  0.00     0.058 A 
ATOM     84  C   UNL A   1      50.317  25.426  30.015  1.00  0.00     0.135 A 
ATOM     85  C   UNL A   1      49.944  27.086  31.693  1.00  0.00     0.135 A 
ATOM     86  F   UNL A   1      49.896  24.624  29.026  1.00  0.00    -0.206 F 
ATOM     87  C   UNL A   1      51.689  25.443  30.293  1.00  0.00     0.059 A 
ATOM     88  C   UNL A   1      51.306  27.113  31.995  1.00  0.00     0.059 A 
ATOM     89  F   UNL A   1      49.173  27.961  32.356  1.00  0.00    -0.206 F 
ATOM     90  C   UNL A   1      52.178  26.307  31.271  1.00  0.00     0.060 A 
BRANCH  90  91
ATOM     91  S   UNL A   1      53.965  26.467  31.504  1.00  0.00     0.124 S 
ATOM     92  O   UNL A   1      54.485  25.621  30.436  1.00  0.00    -0.237 OA
ATOM     93  O   UNL A   1      54.171  27.902  31.338  1.00  0.00    -0.237 OA
ATOM     94  O   UNL A   1      54.177  25.963  32.859  1.00  0.00    -0.744 OA
ENDBRANCH  90  91
ENDBRANCH  58  83
BRANCH  70  95
ATOM     95  C   UNL A   1      44.355  25.595  26.880  1.00  0.00     0.058 A 
ATOM     96  C   UNL A   1      43.541  25.193  27.955  1.00  0.00     0.135 A 
ATOM     97  C   UNL A   1      44.425  24.731  25.777  1.00  0.00     0.135 A 
ATOM     98  F   UNL A   1      43.335  25.999  29.005  1.00  0.00    -0.206 F 
ATOM     99  C   UNL A   1      42.860  23.973  27.946  1.00  0.00     0.059 A 
ATOM    100  C   UNL A   1      43.730  23.526  25.733  1.00  0.00     0.059 A 
ATOM    101  F   UNL A   1      45.137  25.082  24.693  1.00  0.00    -0.206 F 
ATOM    102  C   UNL A   1      42.958  23.147  26.827  1.00  0.00     0.060 A 
BRANCH 102 103
ATOM    103  S   UNL A   1      42.015  21.608  26.781  1.00  0.00     0.124 S 
ATOM    104  O   UNL A   1      42.440  21.025  25.513  1.00  0.00    -0.237 OA
ATOM    105  O   UNL A   1      42.475  20.917  27.981  1.00  0.00    -0.237 OA
ATOM    106  O   UNL A   1      40.625  22.056  26.827  1.00  0.00    -0.744 OA
ENDBRANCH 102 103
ENDBRANCH  70  95
ENDBRANCH  44  45
ENDBRANCH  36  39
ENDBRANCH  34  35
ENDBRANCH  33  34
ENDBRANCH  32  33
ENDBRANCH  31  32
ENDBRANCH   1  31
TORSDOF 24
ENDMDL
