MODEL 1
REMARK VINA RESULT:     -11.0      0.000      0.000
REMARK SMILES Cc1cnc(NC(=O)NC[C@H]2CC[C@H](C(=O)NCCCCCCNC(=O)c3ccc(-c4c5nc(c(-c6c(F)cc(S(=O)(=O)[O-])cc6F)c6ccc([nH]6)c(-c6c(F)cc(S(=O)(=O)[O-])cc6F)c6nc(c(-c7c(F)cc(S(=O)(=O)[O-])cc7F)c7ccc4[nH]7)C=C6)C=C5)cc3)O2)s1
REMARK SMILES IDX 20 1 19 2 18 3 17 4 15 5 16 6 14 8 11 9 12 10 93 11 13 12
REMARK SMILES IDX 10 13 9 14 6 15 7 16 8 18 5 20 1 21 2 22 3 23 94 24 4 25
REMARK SMILES IDX 21 26 22 27 23 28 24 29 25 30 26 32 27 33 28 34 92 35 29 36
REMARK SMILES IDX 91 37 30 38 31 39 32 40 85 41 33 42 90 43 84 44 86 45 34 46
REMARK SMILES IDX 89 47 83 48 82 49 35 51 69 52 48 53 68 54 49 55 52 56 67 57
REMARK SMILES IDX 87 58 50 59 51 60 66 62 88 63 53 64 36 65 37 66 46 67 38 68
REMARK SMILES IDX 39 69 45 70 47 71 40 72 41 73 42 74 43 75 44 76 70 77 71 78
REMARK SMILES IDX 80 79 72 80 73 81 79 82 81 83 74 84 75 85 76 86 77 87 78 88
REMARK SMILES IDX 54 89 55 90 64 91 56 92 57 93 63 94 65 95 58 96 59 97 60 98
REMARK SMILES IDX 61 99 62 100
REMARK H PARENT 17 7 6 17 9 19 24 31 86 50 52 61
REMARK Flexibility Score: inf
ROOT
ATOM      1  C   UNL A   1      31.838  29.147  23.851  1.00  0.00     0.002 C 
ENDROOT
BRANCH   1   2
ATOM      2  C   UNL A   1      30.627  28.714  23.020  1.00  0.00     0.021 C 
BRANCH   2   3
ATOM      3  C   UNL A   1      30.638  27.228  22.663  1.00  0.00     0.116 C 
BRANCH   3   4
ATOM      4  N   UNL A   1      31.609  26.922  21.639  1.00  0.00    -0.354 N 
ATOM      5  C   UNL A   1      32.561  25.948  21.589  1.00  0.00     0.249 C 
ATOM      6  O   UNL A   1      33.253  25.894  20.566  1.00  0.00    -0.272 OA
ATOM      7  H   UNL A   1      31.578  27.512  20.851  1.00  0.00     0.163 HD
BRANCH   5   8
ATOM      8  C   UNL A   1      32.840  24.993  22.777  1.00  0.00     0.207 C 
ATOM      9  C   UNL A   1      34.057  22.991  22.893  1.00  0.00     0.138 C 
ATOM     10  C   UNL A   1      32.618  22.617  22.615  1.00  0.00     0.037 C 
ATOM     11  O   UNL A   1      34.147  24.425  22.873  1.00  0.00    -0.363 OA
ATOM     12  C   UNL A   1      31.822  23.870  22.852  1.00  0.00     0.045 C 
BRANCH   9  13
ATOM     13  C   UNL A   1      34.753  22.388  24.122  1.00  0.00     0.149 C 
BRANCH  13  14
ATOM     14  N   UNL A   1      34.315  21.080  24.583  1.00  0.00    -0.335 N 
ATOM     15  N   UNL A   1      32.519  21.129  26.165  1.00  0.00    -0.284 N 
ATOM     16  C   UNL A   1      33.386  20.523  25.356  1.00  0.00     0.321 C 
ATOM     17  H   UNL A   1      32.085  20.495  26.781  1.00  0.00     0.174 HD
ATOM     18  O   UNL A   1      33.420  19.286  25.410  1.00  0.00    -0.248 OA
ATOM     19  H   UNL A   1      34.892  20.382  24.198  1.00  0.00     0.165 HD
BRANCH  15  20
ATOM     20  C   UNL A   1      32.082  22.400  26.354  1.00  0.00     0.190 A 
ATOM     21  C   UNL A   1      29.905  25.514  25.901  1.00  0.00     0.058 C 
ATOM     22  C   UNL A   1      30.886  24.470  26.289  1.00  0.00     0.023 A 
ATOM     23  C   UNL A   1      32.241  24.580  26.526  1.00  0.00     0.128 A 
ATOM     24  S   UNL A   1      30.439  22.820  26.445  1.00  0.00    -0.102 S 
ATOM     25  N   UNL A   1      32.917  23.378  26.619  1.00  0.00    -0.228 NA
ENDBRANCH  15  20
ENDBRANCH  13  14
ENDBRANCH   9  13
ENDBRANCH   5   8
ENDBRANCH   3   4
ENDBRANCH   2   3
ENDBRANCH   1   2
BRANCH   1  26
ATOM     26  C   UNL A   1      31.955  28.463  25.219  1.00  0.00     0.002 C 
BRANCH  26  27
ATOM     27  C   UNL A   1      33.229  27.638  25.434  1.00  0.00     0.021 C 
BRANCH  27  28
ATOM     28  C   UNL A   1      34.046  28.039  26.660  1.00  0.00     0.116 C 
BRANCH  28  29
ATOM     29  N   UNL A   1      33.771  29.408  27.060  1.00  0.00    -0.352 N 
ATOM     30  C   UNL A   1      34.506  30.256  27.846  1.00  0.00     0.251 C 
ATOM     31  H   UNL A   1      32.928  29.783  26.716  1.00  0.00     0.163 HD
ATOM     32  O   UNL A   1      33.985  31.276  28.286  1.00  0.00    -0.269 OA
BRANCH  30  33
ATOM     33  C   UNL A   1      35.920  29.951  28.158  1.00  0.00     0.039 A 
ATOM     34  C   UNL A   1      36.877  30.096  27.151  1.00  0.00     0.014 A 
ATOM     35  C   UNL A   1      36.291  29.463  29.415  1.00  0.00     0.014 A 
ATOM     36  C   UNL A   1      38.211  29.772  27.411  1.00  0.00     0.010 A 
ATOM     37  C   UNL A   1      37.631  29.206  29.694  1.00  0.00     0.010 A 
ATOM     38  C   UNL A   1      38.600  29.336  28.689  1.00  0.00    -0.014 A 
BRANCH  38  39
ATOM     39  C   UNL A   1      40.011  28.965  28.969  1.00  0.00     0.031 A 
ATOM     40  C   UNL A   1      40.946  29.973  29.584  1.00  0.00     0.074 A 
ATOM     41  C   UNL A   1      40.454  27.736  28.644  1.00  0.00     0.049 A 
ATOM     42  N   UNL A   1      42.217  29.856  29.866  1.00  0.00    -0.248 NA
ATOM     43  C   UNL A   1      40.383  31.297  29.899  1.00  0.00     0.031 C 
ATOM     44  C   UNL A   1      39.657  26.691  27.997  1.00  0.00     0.029 A 
ATOM     45  N   UNL A   1      41.687  27.158  28.807  1.00  0.00    -0.354 N 
ATOM     46  C   UNL A   1      42.606  31.085  30.387  1.00  0.00     0.074 A 
ATOM     47  C   UNL A   1      41.452  31.955  30.320  1.00  0.00     0.031 C 
ATOM     48  C   UNL A   1      40.417  25.596  27.833  1.00  0.00     0.029 A 
ATOM     49  C   UNL A   1      41.758  25.866  28.341  1.00  0.00     0.049 A 
ATOM     50  H   UNL A   1      42.450  27.623  29.220  1.00  0.00     0.167 HD
ATOM     51  C   UNL A   1      43.804  31.447  30.907  1.00  0.00     0.037 A 
ATOM     52  C   UNL A   1      42.788  25.000  28.324  1.00  0.00     0.037 A 
ATOM     53  C   UNL A   1      44.943  30.570  30.991  1.00  0.00     0.049 A 
ATOM     54  C   UNL A   1      44.102  25.417  28.929  1.00  0.00     0.074 A 
ATOM     55  C   UNL A   1      46.198  30.832  31.510  1.00  0.00     0.029 A 
ATOM     56  N   UNL A   1      44.958  29.253  30.555  1.00  0.00    -0.354 N 
ATOM     57  N   UNL A   1      44.440  26.573  29.451  1.00  0.00    -0.248 NA
ATOM     58  C   UNL A   1      45.167  24.406  28.967  1.00  0.00     0.031 C 
ATOM     59  C   UNL A   1      46.981  29.681  31.367  1.00  0.00     0.029 A 
ATOM     60  C   UNL A   1      46.199  28.688  30.797  1.00  0.00     0.049 A 
ATOM     61  H   UNL A   1      44.198  28.788  30.135  1.00  0.00     0.167 HD
ATOM     62  C   UNL A   1      45.746  26.418  29.904  1.00  0.00     0.074 A 
ATOM     63  C   UNL A   1      46.129  25.053  29.610  1.00  0.00     0.031 C 
ATOM     64  C   UNL A   1      46.556  27.321  30.509  1.00  0.00     0.037 A 
BRANCH  51  65
ATOM     65  C   UNL A   1      43.932  32.846  31.445  1.00  0.00     0.058 A 
ATOM     66  C   UNL A   1      43.637  33.143  32.786  1.00  0.00     0.135 A 
ATOM     67  C   UNL A   1      44.379  33.895  30.627  1.00  0.00     0.135 A 
ATOM     68  F   UNL A   1      43.187  32.182  33.608  1.00  0.00    -0.206 F 
ATOM     69  C   UNL A   1      43.752  34.434  33.288  1.00  0.00     0.059 A 
ATOM     70  C   UNL A   1      44.530  35.191  31.117  1.00  0.00     0.059 A 
ATOM     71  F   UNL A   1      44.675  33.670  29.337  1.00  0.00    -0.206 F 
ATOM     72  C   UNL A   1      44.199  35.453  32.446  1.00  0.00     0.060 A 
BRANCH  72  73
ATOM     73  S   UNL A   1      44.348  37.122  33.115  1.00  0.00     0.124 S 
ATOM     74  O   UNL A   1      44.319  37.927  31.898  1.00  0.00    -0.237 OA
ATOM     75  O   UNL A   1      43.168  37.223  33.969  1.00  0.00    -0.237 OA
ATOM     76  O   UNL A   1      45.626  37.093  33.819  1.00  0.00    -0.744 OA
ENDBRANCH  72  73
ENDBRANCH  51  65
BRANCH  52  77
ATOM     77  C   UNL A   1      42.615  23.643  27.740  1.00  0.00     0.058 A 
ATOM     78  C   UNL A   1      42.369  22.528  28.553  1.00  0.00     0.135 A 
ATOM     79  C   UNL A   1      42.697  23.437  26.354  1.00  0.00     0.135 A 
ATOM     80  F   UNL A   1      42.282  22.675  29.884  1.00  0.00    -0.206 F 
ATOM     81  C   UNL A   1      42.244  21.249  28.019  1.00  0.00     0.059 A 
ATOM     82  C   UNL A   1      42.549  22.173  25.794  1.00  0.00     0.059 A 
ATOM     83  F   UNL A   1      42.907  24.475  25.530  1.00  0.00    -0.206 F 
ATOM     84  C   UNL A   1      42.339  21.081  26.637  1.00  0.00     0.060 A 
BRANCH  84  85
ATOM     85  S   UNL A   1      42.150  19.423  25.947  1.00  0.00     0.124 S 
ATOM     86  O   UNL A   1      40.710  19.364  25.719  1.00  0.00    -0.237 OA
ATOM     87  O   UNL A   1      42.984  19.490  24.752  1.00  0.00    -0.237 OA
ATOM     88  O   UNL A   1      42.658  18.561  27.010  1.00  0.00    -0.744 OA
ENDBRANCH  84  85
ENDBRANCH  52  77
BRANCH  64  89
ATOM     89  C   UNL A   1      47.916  26.845  30.936  1.00  0.00     0.058 A 
ATOM     90  C   UNL A   1      49.034  26.947  30.095  1.00  0.00     0.135 A 
ATOM     91  C   UNL A   1      48.101  26.290  32.213  1.00  0.00     0.135 A 
ATOM     92  F   UNL A   1      48.909  27.468  28.864  1.00  0.00    -0.206 F 
ATOM     93  C   UNL A   1      50.283  26.477  30.489  1.00  0.00     0.059 A 
ATOM     94  C   UNL A   1      49.347  25.839  32.638  1.00  0.00     0.059 A 
ATOM     95  F   UNL A   1      47.067  26.182  33.061  1.00  0.00    -0.206 F 
ATOM     96  C   UNL A   1      50.428  25.919  31.761  1.00  0.00     0.060 A 
BRANCH  96  97
ATOM     97  S   UNL A   1      52.051  25.309  32.262  1.00  0.00     0.124 S 
ATOM     98  O   UNL A   1      51.830  23.867  32.275  1.00  0.00    -0.237 OA
ATOM     99  O   UNL A   1      52.917  25.809  31.197  1.00  0.00    -0.237 OA
ATOM    100  O   UNL A   1      52.256  25.926  33.569  1.00  0.00    -0.744 OA
ENDBRANCH  96  97
ENDBRANCH  64  89
ENDBRANCH  38  39
ENDBRANCH  30  33
ENDBRANCH  28  29
ENDBRANCH  27  28
ENDBRANCH  26  27
ENDBRANCH   1  26
TORSDOF 19
ENDMDL
MODEL 2
REMARK VINA RESULT:     -10.9      4.580     10.220
REMARK SMILES Cc1cnc(NC(=O)NC[C@H]2CC[C@H](C(=O)NCCCCCCNC(=O)c3ccc(-c4c5nc(c(-c6c(F)cc(S(=O)(=O)[O-])cc6F)c6ccc([nH]6)c(-c6c(F)cc(S(=O)(=O)[O-])cc6F)c6nc(c(-c7c(F)cc(S(=O)(=O)[O-])cc7F)c7ccc4[nH]7)C=C6)C=C5)cc3)O2)s1
REMARK SMILES IDX 20 1 19 2 18 3 17 4 15 5 16 6 14 8 11 9 12 10 93 11 13 12
REMARK SMILES IDX 10 13 9 14 6 15 7 16 8 18 5 20 1 21 2 22 3 23 94 24 4 25
REMARK SMILES IDX 21 26 22 27 23 28 24 29 25 30 26 32 27 33 28 34 92 35 29 36
REMARK SMILES IDX 91 37 30 38 31 39 32 40 85 41 33 42 90 43 84 44 86 45 34 46
REMARK SMILES IDX 89 47 83 48 82 49 35 51 69 52 48 53 68 54 49 55 52 56 67 57
REMARK SMILES IDX 87 58 50 59 51 60 66 62 88 63 53 64 36 65 37 66 46 67 38 68
REMARK SMILES IDX 39 69 45 70 47 71 40 72 41 73 42 74 43 75 44 76 70 77 71 78
REMARK SMILES IDX 80 79 72 80 73 81 79 82 81 83 74 84 75 85 76 86 77 87 78 88
REMARK SMILES IDX 54 89 55 90 64 91 56 92 57 93 63 94 65 95 58 96 59 97 60 98
REMARK SMILES IDX 61 99 62 100
REMARK H PARENT 17 7 6 17 9 19 24 31 86 50 52 61
REMARK Flexibility Score: inf
ROOT
ATOM      1  C   UNL A   1      39.689  22.049  26.485  1.00  0.00     0.002 C 
ENDROOT
BRANCH   1   2
ATOM      2  C   UNL A   1      38.954  23.392  26.501  1.00  0.00     0.021 C 
BRANCH   2   3
ATOM      3  C   UNL A   1      37.623  23.363  25.751  1.00  0.00     0.116 C 
BRANCH   3   4
ATOM      4  N   UNL A   1      37.154  22.014  25.530  1.00  0.00    -0.354 N 
ATOM      5  C   UNL A   1      35.930  21.560  25.140  1.00  0.00     0.249 C 
ATOM      6  O   UNL A   1      35.805  20.338  25.000  1.00  0.00    -0.272 OA
ATOM      7  H   UNL A   1      37.827  21.312  25.686  1.00  0.00     0.163 HD
BRANCH   5   8
ATOM      8  C   UNL A   1      34.712  22.500  24.954  1.00  0.00     0.207 C 
ATOM      9  C   UNL A   1      32.623  22.137  23.949  1.00  0.00     0.138 C 
ATOM     10  C   UNL A   1      33.533  22.706  22.883  1.00  0.00     0.037 C 
ATOM     11  O   UNL A   1      33.411  21.937  25.133  1.00  0.00    -0.363 OA
ATOM     12  C   UNL A   1      34.745  23.212  23.613  1.00  0.00     0.045 C 
BRANCH   9  13
ATOM     13  C   UNL A   1      31.301  22.856  24.252  1.00  0.00     0.149 C 
BRANCH  13  14
ATOM     14  N   UNL A   1      30.766  22.768  25.601  1.00  0.00    -0.335 N 
ATOM     15  N   UNL A   1      30.930  24.790  26.873  1.00  0.00    -0.284 N 
ATOM     16  C   UNL A   1      30.542  23.532  26.667  1.00  0.00     0.321 C 
ATOM     17  H   UNL A   1      30.825  25.058  27.814  1.00  0.00     0.174 HD
ATOM     18  O   UNL A   1      30.011  22.955  27.626  1.00  0.00    -0.248 OA
ATOM     19  H   UNL A   1      30.476  21.845  25.785  1.00  0.00     0.165 HD
BRANCH  15  20
ATOM     20  C   UNL A   1      31.430  25.795  26.110  1.00  0.00     0.190 A 
ATOM     21  C   UNL A   1      33.824  28.571  25.013  1.00  0.00     0.058 C 
ATOM     22  C   UNL A   1      32.754  27.557  25.180  1.00  0.00     0.023 A 
ATOM     23  C   UNL A   1      31.394  27.669  24.971  1.00  0.00     0.128 A 
ATOM     24  S   UNL A   1      33.085  25.980  25.775  1.00  0.00    -0.102 S 
ATOM     25  N   UNL A   1      30.640  26.619  25.460  1.00  0.00    -0.228 NA
ENDBRANCH  15  20
ENDBRANCH  13  14
ENDBRANCH   9  13
ENDBRANCH   5   8
ENDBRANCH   3   4
ENDBRANCH   2   3
ENDBRANCH   1   2
BRANCH   1  26
ATOM     26  C   UNL A   1      40.667  21.838  27.649  1.00  0.00     0.002 C 
BRANCH  26  27
ATOM     27  C   UNL A   1      42.152  21.879  27.274  1.00  0.00     0.021 C 
BRANCH  27  28
ATOM     28  C   UNL A   1      42.813  23.244  27.447  1.00  0.00     0.116 C 
BRANCH  28  29
ATOM     29  N   UNL A   1      42.685  24.055  26.248  1.00  0.00    -0.352 N 
ATOM     30  C   UNL A   1      42.171  25.315  26.093  1.00  0.00     0.251 C 
ATOM     31  H   UNL A   1      43.017  23.634  25.422  1.00  0.00     0.163 HD
ATOM     32  O   UNL A   1      41.907  25.726  24.967  1.00  0.00    -0.269 OA
BRANCH  30  33
ATOM     33  C   UNL A   1      41.942  26.181  27.271  1.00  0.00     0.039 A 
ATOM     34  C   UNL A   1      40.858  25.905  28.108  1.00  0.00     0.014 A 
ATOM     35  C   UNL A   1      42.748  27.297  27.513  1.00  0.00     0.014 A 
ATOM     36  C   UNL A   1      40.597  26.734  29.200  1.00  0.00     0.010 A 
ATOM     37  C   UNL A   1      42.529  28.083  28.641  1.00  0.00     0.010 A 
ATOM     38  C   UNL A   1      41.438  27.823  29.483  1.00  0.00    -0.014 A 
BRANCH  38  39
ATOM     39  C   UNL A   1      41.156  28.727  30.627  1.00  0.00     0.031 A 
ATOM     40  C   UNL A   1      41.964  28.614  31.892  1.00  0.00     0.074 A 
ATOM     41  C   UNL A   1      40.155  29.624  30.537  1.00  0.00     0.049 A 
ATOM     42  N   UNL A   1      41.845  29.280  33.012  1.00  0.00    -0.248 NA
ATOM     43  C   UNL A   1      43.032  27.600  31.911  1.00  0.00     0.031 C 
ATOM     44  C   UNL A   1      39.269  29.792  29.383  1.00  0.00     0.029 A 
ATOM     45  N   UNL A   1      39.710  30.560  31.435  1.00  0.00    -0.354 N 
ATOM     46  C   UNL A   1      42.816  28.766  33.865  1.00  0.00     0.074 A 
ATOM     47  C   UNL A   1      43.471  27.689  33.157  1.00  0.00     0.031 C 
ATOM     48  C   UNL A   1      38.398  30.783  29.638  1.00  0.00     0.029 A 
ATOM     49  C   UNL A   1      38.647  31.303  30.978  1.00  0.00     0.049 A 
ATOM     50  H   UNL A   1      40.114  30.690  32.324  1.00  0.00     0.167 HD
ATOM     51  C   UNL A   1      43.155  29.178  35.111  1.00  0.00     0.037 A 
ATOM     52  C   UNL A   1      37.953  32.291  31.573  1.00  0.00     0.037 A 
ATOM     53  C   UNL A   1      42.514  30.266  35.802  1.00  0.00     0.049 A 
ATOM     54  C   UNL A   1      38.365  32.746  32.948  1.00  0.00     0.074 A 
ATOM     55  C   UNL A   1      42.788  30.771  37.060  1.00  0.00     0.029 A 
ATOM     56  N   UNL A   1      41.475  31.027  35.284  1.00  0.00    -0.354 N 
ATOM     57  N   UNL A   1      39.310  32.272  33.726  1.00  0.00    -0.248 NA
ATOM     58  C   UNL A   1      37.633  33.886  33.517  1.00  0.00     0.031 C 
ATOM     59  C   UNL A   1      41.900  31.823  37.313  1.00  0.00     0.029 A 
ATOM     60  C   UNL A   1      41.101  32.000  36.195  1.00  0.00     0.049 A 
ATOM     61  H   UNL A   1      41.065  30.894  34.399  1.00  0.00     0.167 HD
ATOM     62  C   UNL A   1      39.305  33.074  34.862  1.00  0.00     0.074 A 
ATOM     63  C   UNL A   1      38.275  34.072  34.662  1.00  0.00     0.031 C 
ATOM     64  C   UNL A   1      40.081  32.994  35.971  1.00  0.00     0.037 A 
BRANCH  51  65
ATOM     65  C   UNL A   1      44.287  28.459  35.794  1.00  0.00     0.058 A 
ATOM     66  C   UNL A   1      44.048  27.396  36.681  1.00  0.00     0.135 A 
ATOM     67  C   UNL A   1      45.622  28.813  35.542  1.00  0.00     0.135 A 
ATOM     68  F   UNL A   1      42.791  27.029  36.973  1.00  0.00    -0.206 F 
ATOM     69  C   UNL A   1      45.091  26.731  37.316  1.00  0.00     0.059 A 
ATOM     70  C   UNL A   1      46.682  28.141  36.145  1.00  0.00     0.059 A 
ATOM     71  F   UNL A   1      45.909  29.822  34.704  1.00  0.00    -0.206 F 
ATOM     72  C   UNL A   1      46.405  27.110  37.042  1.00  0.00     0.060 A 
BRANCH  72  73
ATOM     73  S   UNL A   1      47.746  26.231  37.872  1.00  0.00     0.124 S 
ATOM     74  O   UNL A   1      48.236  25.369  36.801  1.00  0.00    -0.237 OA
ATOM     75  O   UNL A   1      48.636  27.319  38.266  1.00  0.00    -0.237 OA
ATOM     76  O   UNL A   1      47.074  25.547  38.972  1.00  0.00    -0.744 OA
ENDBRANCH  72  73
ENDBRANCH  51  65
BRANCH  52  77
ATOM     77  C   UNL A   1      36.815  32.937  30.865  1.00  0.00     0.058 A 
ATOM     78  C   UNL A   1      35.488  32.664  31.226  1.00  0.00     0.135 A 
ATOM     79  C   UNL A   1      37.036  33.834  29.810  1.00  0.00     0.135 A 
ATOM     80  F   UNL A   1      35.226  31.811  32.228  1.00  0.00    -0.206 F 
ATOM     81  C   UNL A   1      34.416  33.232  30.544  1.00  0.00     0.059 A 
ATOM     82  C   UNL A   1      35.982  34.437  29.131  1.00  0.00     0.059 A 
ATOM     83  F   UNL A   1      38.288  34.148  29.443  1.00  0.00    -0.206 F 
ATOM     84  C   UNL A   1      34.674  34.116  29.495  1.00  0.00     0.060 A 
BRANCH  84  85
ATOM     85  S   UNL A   1      33.280  34.870  28.630  1.00  0.00     0.124 S 
ATOM     86  O   UNL A   1      32.376  35.167  29.737  1.00  0.00    -0.237 OA
ATOM     87  O   UNL A   1      33.903  36.022  27.988  1.00  0.00    -0.237 OA
ATOM     88  O   UNL A   1      32.842  33.816  27.721  1.00  0.00    -0.744 OA
ENDBRANCH  84  85
ENDBRANCH  52  77
BRANCH  64  89
ATOM     89  C   UNL A   1      39.878  34.043  37.027  1.00  0.00     0.058 A 
ATOM     90  C   UNL A   1      40.485  35.305  36.944  1.00  0.00     0.135 A 
ATOM     91  C   UNL A   1      39.050  33.782  38.132  1.00  0.00     0.135 A 
ATOM     92  F   UNL A   1      41.286  35.603  35.909  1.00  0.00    -0.206 F 
ATOM     93  C   UNL A   1      40.312  36.260  37.942  1.00  0.00     0.059 A 
ATOM     94  C   UNL A   1      38.842  34.732  39.127  1.00  0.00     0.059 A 
ATOM     95  F   UNL A   1      38.435  32.596  38.252  1.00  0.00    -0.206 F 
ATOM     96  C   UNL A   1      39.493  35.961  39.032  1.00  0.00     0.060 A 
BRANCH  96  97
ATOM     97  S   UNL A   1      39.278  37.205  40.323  1.00  0.00     0.124 S 
ATOM     98  O   UNL A   1      40.663  37.525  40.654  1.00  0.00    -0.237 OA
ATOM     99  O   UNL A   1      38.534  38.252  39.629  1.00  0.00    -0.237 OA
ATOM    100  O   UNL A   1      38.532  36.494  41.356  1.00  0.00    -0.744 OA
ENDBRANCH  96  97
ENDBRANCH  64  89
ENDBRANCH  38  39
ENDBRANCH  30  33
ENDBRANCH  28  29
ENDBRANCH  27  28
ENDBRANCH  26  27
ENDBRANCH   1  26
TORSDOF 19
ENDMDL
MODEL 3
REMARK VINA RESULT:     -10.8      4.684     10.358
REMARK SMILES Cc1cnc(NC(=O)NC[C@H]2CC[C@H](C(=O)NCCCCCCNC(=O)c3ccc(-c4c5nc(c(-c6c(F)cc(S(=O)(=O)[O-])cc6F)c6ccc([nH]6)c(-c6c(F)cc(S(=O)(=O)[O-])cc6F)c6nc(c(-c7c(F)cc(S(=O)(=O)[O-])cc7F)c7ccc4[nH]7)C=C6)C=C5)cc3)O2)s1
REMARK SMILES IDX 20 1 19 2 18 3 17 4 15 5 16 6 14 8 11 9 12 10 93 11 13 12
REMARK SMILES IDX 10 13 9 14 6 15 7 16 8 18 5 20 1 21 2 22 3 23 94 24 4 25
REMARK SMILES IDX 21 26 22 27 23 28 24 29 25 30 26 32 27 33 28 34 92 35 29 36
REMARK SMILES IDX 91 37 30 38 31 39 32 40 85 41 33 42 90 43 84 44 86 45 34 46
REMARK SMILES IDX 89 47 83 48 82 49 35 51 69 52 48 53 68 54 49 55 52 56 67 57
REMARK SMILES IDX 87 58 50 59 51 60 66 62 88 63 53 64 36 65 37 66 46 67 38 68
REMARK SMILES IDX 39 69 45 70 47 71 40 72 41 73 42 74 43 75 44 76 70 77 71 78
REMARK SMILES IDX 80 79 72 80 73 81 79 82 81 83 74 84 75 85 76 86 77 87 78 88
REMARK SMILES IDX 54 89 55 90 64 91 56 92 57 93 63 94 65 95 58 96 59 97 60 98
REMARK SMILES IDX 61 99 62 100
REMARK H PARENT 17 7 6 17 9 19 24 31 86 50 52 61
REMARK Flexibility Score: inf
ROOT
ATOM      1  C   UNL A   1      36.484  22.202  24.227  1.00  0.00     0.002 C 
ENDROOT
BRANCH   1   2
ATOM      2  C   UNL A   1      36.245  20.910  25.013  1.00  0.00     0.021 C 
BRANCH   2   3
ATOM      3  C   UNL A   1      35.050  20.991  25.962  1.00  0.00     0.116 C 
BRANCH   3   4
ATOM      4  N   UNL A   1      34.028  20.025  25.631  1.00  0.00    -0.354 N 
ATOM      5  C   UNL A   1      32.808  20.197  25.048  1.00  0.00     0.249 C 
ATOM      6  O   UNL A   1      32.132  19.180  24.853  1.00  0.00    -0.272 OA
ATOM      7  H   UNL A   1      34.248  19.094  25.865  1.00  0.00     0.163 HD
BRANCH   5   8
ATOM      8  C   UNL A   1      32.235  21.596  24.709  1.00  0.00     0.207 C 
ATOM      9  C   UNL A   1      33.216  23.725  24.796  1.00  0.00     0.138 C 
ATOM     10  C   UNL A   1      32.533  23.499  26.127  1.00  0.00     0.037 C 
ATOM     11  O   UNL A   1      33.096  22.514  24.033  1.00  0.00    -0.363 OA
ATOM     12  C   UNL A   1      31.666  22.287  25.935  1.00  0.00     0.045 C 
BRANCH   9  13
ATOM     13  C   UNL A   1      32.839  24.965  23.973  1.00  0.00     0.149 C 
BRANCH  13  14
ATOM     14  N   UNL A   1      32.985  24.899  22.528  1.00  0.00    -0.335 N 
ATOM     15  N   UNL A   1      32.129  26.799  21.350  1.00  0.00    -0.284 N 
ATOM     16  C   UNL A   1      32.769  25.635  21.441  1.00  0.00     0.321 C 
ATOM     17  H   UNL A   1      31.921  27.033  20.417  1.00  0.00     0.174 HD
ATOM     18  O   UNL A   1      33.106  25.105  20.372  1.00  0.00    -0.248 OA
ATOM     19  H   UNL A   1      33.368  24.029  22.272  1.00  0.00     0.165 HD
BRANCH  15  20
ATOM     20  C   UNL A   1      31.693  27.745  22.220  1.00  0.00     0.190 A 
ATOM     21  C   UNL A   1      31.469  29.751  25.471  1.00  0.00     0.058 C 
ATOM     22  C   UNL A   1      31.354  29.172  24.110  1.00  0.00     0.023 A 
ATOM     23  C   UNL A   1      30.227  28.917  23.354  1.00  0.00     0.128 A 
ATOM     24  S   UNL A   1      32.729  28.629  23.236  1.00  0.00    -0.102 S 
ATOM     25  N   UNL A   1      30.441  28.139  22.231  1.00  0.00    -0.228 NA
ENDBRANCH  15  20
ENDBRANCH  13  14
ENDBRANCH   9  13
ENDBRANCH   5   8
ENDBRANCH   3   4
ENDBRANCH   2   3
ENDBRANCH   1   2
BRANCH   1  26
ATOM     26  C   UNL A   1      37.226  23.298  25.004  1.00  0.00     0.002 C 
BRANCH  26  27
ATOM     27  C   UNL A   1      38.280  22.798  25.998  1.00  0.00     0.021 C 
BRANCH  27  28
ATOM     28  C   UNL A   1      39.063  23.904  26.702  1.00  0.00     0.116 C 
BRANCH  28  29
ATOM     29  N   UNL A   1      40.384  24.075  26.122  1.00  0.00    -0.352 N 
ATOM     30  C   UNL A   1      41.306  25.070  26.319  1.00  0.00     0.251 C 
ATOM     31  H   UNL A   1      40.658  23.370  25.491  1.00  0.00     0.163 HD
ATOM     32  O   UNL A   1      42.250  25.181  25.543  1.00  0.00    -0.269 OA
BRANCH  30  33
ATOM     33  C   UNL A   1      41.171  26.000  27.461  1.00  0.00     0.039 A 
ATOM     34  C   UNL A   1      40.198  25.740  28.429  1.00  0.00     0.014 A 
ATOM     35  C   UNL A   1      41.952  27.157  27.543  1.00  0.00     0.014 A 
ATOM     36  C   UNL A   1      40.024  26.628  29.493  1.00  0.00     0.010 A 
ATOM     37  C   UNL A   1      41.825  28.006  28.640  1.00  0.00     0.010 A 
ATOM     38  C   UNL A   1      40.845  27.763  29.613  1.00  0.00    -0.014 A 
BRANCH  38  39
ATOM     39  C   UNL A   1      40.652  28.727  30.726  1.00  0.00     0.031 A 
ATOM     40  C   UNL A   1      41.489  28.615  31.973  1.00  0.00     0.074 A 
ATOM     41  C   UNL A   1      39.706  29.681  30.625  1.00  0.00     0.049 A 
ATOM     42  N   UNL A   1      41.444  29.331  33.066  1.00  0.00    -0.248 NA
ATOM     43  C   UNL A   1      42.492  27.537  32.005  1.00  0.00     0.031 C 
ATOM     44  C   UNL A   1      38.799  29.858  29.490  1.00  0.00     0.029 A 
ATOM     45  N   UNL A   1      39.347  30.678  31.495  1.00  0.00    -0.354 N 
ATOM     46  C   UNL A   1      42.406  28.792  33.913  1.00  0.00     0.074 A 
ATOM     47  C   UNL A   1      42.973  27.648  33.234  1.00  0.00     0.031 C 
ATOM     48  C   UNL A   1      37.998  30.910  29.726  1.00  0.00     0.029 A 
ATOM     49  C   UNL A   1      38.318  31.468  31.035  1.00  0.00     0.049 A 
ATOM     50  H   UNL A   1      39.783  30.818  32.366  1.00  0.00     0.167 HD
ATOM     51  C   UNL A   1      42.806  29.231  35.131  1.00  0.00     0.037 A 
ATOM     52  C   UNL A   1      37.704  32.520  31.608  1.00  0.00     0.037 A 
ATOM     53  C   UNL A   1      42.254  30.384  35.794  1.00  0.00     0.049 A 
ATOM     54  C   UNL A   1      38.183  33.003  32.951  1.00  0.00     0.074 A 
ATOM     55  C   UNL A   1      42.596  30.921  37.022  1.00  0.00     0.029 A 
ATOM     56  N   UNL A   1      41.249  31.187  35.272  1.00  0.00    -0.354 N 
ATOM     57  N   UNL A   1      39.120  32.502  33.722  1.00  0.00    -0.248 NA
ATOM     58  C   UNL A   1      37.540  34.208  33.491  1.00  0.00     0.031 C 
ATOM     59  C   UNL A   1      41.782  32.036  37.255  1.00  0.00     0.029 A 
ATOM     60  C   UNL A   1      40.962  32.218  36.151  1.00  0.00     0.049 A 
ATOM     61  H   UNL A   1      40.806  31.045  34.404  1.00  0.00     0.167 HD
ATOM     62  C   UNL A   1      39.197  33.348  34.823  1.00  0.00     0.074 A 
ATOM     63  C   UNL A   1      38.225  34.399  34.610  1.00  0.00     0.031 C 
ATOM     64  C   UNL A   1      39.999  33.263  35.913  1.00  0.00     0.037 A 
BRANCH  51  65
ATOM     65  C   UNL A   1      43.911  28.471  35.813  1.00  0.00     0.058 A 
ATOM     66  C   UNL A   1      45.256  28.855  35.675  1.00  0.00     0.135 A 
ATOM     67  C   UNL A   1      43.628  27.368  36.634  1.00  0.00     0.135 A 
ATOM     68  F   UNL A   1      45.585  29.890  34.887  1.00  0.00    -0.206 F 
ATOM     69  C   UNL A   1      46.281  28.155  36.302  1.00  0.00     0.059 A 
ATOM     70  C   UNL A   1      44.636  26.670  37.295  1.00  0.00     0.059 A 
ATOM     71  F   UNL A   1      42.361  26.956  36.802  1.00  0.00    -0.206 F 
ATOM     72  C   UNL A   1      45.962  27.063  37.110  1.00  0.00     0.060 A 
BRANCH  72  73
ATOM     73  S   UNL A   1      47.304  26.169  37.920  1.00  0.00     0.124 S 
ATOM     74  O   UNL A   1      47.447  25.007  37.048  1.00  0.00    -0.237 OA
ATOM     75  O   UNL A   1      48.397  27.135  37.871  1.00  0.00    -0.237 OA
ATOM     76  O   UNL A   1      46.774  25.893  39.251  1.00  0.00    -0.744 OA
ENDBRANCH  72  73
ENDBRANCH  51  65
BRANCH  52  77
ATOM     77  C   UNL A   1      36.588  33.206  30.904  1.00  0.00     0.058 A 
ATOM     78  C   UNL A   1      36.831  34.070  29.827  1.00  0.00     0.135 A 
ATOM     79  C   UNL A   1      35.256  33.014  31.301  1.00  0.00     0.135 A 
ATOM     80  F   UNL A   1      38.088  34.287  29.411  1.00  0.00    -0.206 F 
ATOM     81  C   UNL A   1      35.797  34.747  29.188  1.00  0.00     0.059 A 
ATOM     82  C   UNL A   1      34.202  33.658  30.661  1.00  0.00     0.059 A 
ATOM     83  F   UNL A   1      34.968  32.178  32.312  1.00  0.00    -0.206 F 
ATOM     84  C   UNL A   1      34.485  34.537  29.615  1.00  0.00     0.060 A 
BRANCH  84  85
ATOM     85  S   UNL A   1      33.144  35.398  28.765  1.00  0.00     0.124 S 
ATOM     86  O   UNL A   1      33.884  36.346  27.939  1.00  0.00    -0.237 OA
ATOM     87  O   UNL A   1      32.483  34.310  28.052  1.00  0.00    -0.237 OA
ATOM     88  O   UNL A   1      32.375  35.979  29.861  1.00  0.00    -0.744 OA
ENDBRANCH  84  85
ENDBRANCH  52  77
BRANCH  64  89
ATOM     89  C   UNL A   1      39.892  34.365  36.930  1.00  0.00     0.058 A 
ATOM     90  C   UNL A   1      40.656  35.538  36.835  1.00  0.00     0.135 A 
ATOM     91  C   UNL A   1      38.998  34.247  38.008  1.00  0.00     0.135 A 
ATOM     92  F   UNL A   1      41.526  35.698  35.825  1.00  0.00    -0.206 F 
ATOM     93  C   UNL A   1      40.569  36.539  37.797  1.00  0.00     0.059 A 
ATOM     94  C   UNL A   1      38.875  35.248  38.966  1.00  0.00     0.059 A 
ATOM     95  F   UNL A   1      38.234  33.151  38.137  1.00  0.00    -0.206 F 
ATOM     96  C   UNL A   1      39.680  36.382  38.862  1.00  0.00     0.060 A 
BRANCH  96  97
ATOM     97  S   UNL A   1      39.577  37.686  40.107  1.00  0.00     0.124 S 
ATOM     98  O   UNL A   1      40.910  38.274  40.025  1.00  0.00    -0.237 OA
ATOM     99  O   UNL A   1      38.486  38.515  39.603  1.00  0.00    -0.237 OA
ATOM    100  O   UNL A   1      39.285  36.956  41.337  1.00  0.00    -0.744 OA
ENDBRANCH  96  97
ENDBRANCH  64  89
ENDBRANCH  38  39
ENDBRANCH  30  33
ENDBRANCH  28  29
ENDBRANCH  27  28
ENDBRANCH  26  27
ENDBRANCH   1  26
TORSDOF 19
ENDMDL
