MODEL 1
REMARK VINA RESULT:     -13.3      0.000      0.000
REMARK SMILES CCc1cccc(C)c1Nc1ccccc1CC(=O)NCCCCCCNC(=O)c1ccc(-c2c3nc(c(-c4c(F)cc(S(=O)(=O)[O-])cc4F)c4ccc([nH]4)c(-c4c(F)cc(S(=O)(=O)[O-])cc4F)c4nc(c(-c5c(F)cc(S(=O)(=O)[O-])cc5F)c5ccc2[nH]5)C=C4)C=C3)cc1
REMARK SMILES IDX 23 1 22 2 21 3 20 4 18 5 19 6 17 8 16 9 11 10 12 11 13 12
REMARK SMILES IDX 15 13 14 14 10 15 9 17 3 18 4 19 5 20 7 21 6 22 8 23 2 24
REMARK SMILES IDX 1 25 24 26 25 27 26 28 27 29 28 30 29 32 30 33 31 34 95 35
REMARK SMILES IDX 32 36 94 37 33 38 34 39 35 40 88 41 36 42 93 43 87 44 89 45
REMARK SMILES IDX 37 46 92 47 86 48 85 49 38 51 72 52 51 53 71 54 52 55 55 56
REMARK SMILES IDX 70 57 90 58 53 59 54 60 69 62 91 63 56 64 39 65 40 66 49 67
REMARK SMILES IDX 41 68 42 69 48 70 50 71 43 72 44 73 45 74 46 75 47 76 73 77
REMARK SMILES IDX 74 78 83 79 75 80 76 81 82 82 84 83 77 84 78 85 79 86 80 87
REMARK SMILES IDX 81 88 57 89 58 90 67 91 59 92 60 93 66 94 68 95 61 96 62 97
REMARK SMILES IDX 63 98 64 99 65 100
REMARK H PARENT 20 7 10 16 27 31 89 50 55 61
REMARK Flexibility Score: inf
ROOT
ATOM      1  C   UNL A   1      33.261  27.643  26.101  1.00  0.00     0.002 C 
ENDROOT
BRANCH   1   2
ATOM      2  C   UNL A   1      33.052  26.417  25.198  1.00  0.00     0.021 C 
BRANCH   2   3
ATOM      3  C   UNL A   1      33.670  25.107  25.689  1.00  0.00     0.116 C 
BRANCH   3   4
ATOM      4  N   UNL A   1      32.702  24.145  26.176  1.00  0.00    -0.356 N 
ATOM      5  C   UNL A   1      32.835  23.060  26.989  1.00  0.00     0.224 C 
ATOM      6  O   UNL A   1      31.806  22.649  27.537  1.00  0.00    -0.275 OA
ATOM      7  H   UNL A   1      31.782  24.302  25.862  1.00  0.00     0.163 HD
BRANCH   5   8
ATOM      8  C   UNL A   1      34.183  22.484  27.365  1.00  0.00     0.137 C 
BRANCH   8   9
ATOM      9  C   UNL A   1      35.212  22.234  26.279  1.00  0.00    -0.015 A 
ATOM     10  C   UNL A   1      35.299  21.041  25.530  1.00  0.00     0.042 A 
ATOM     11  C   UNL A   1      36.392  20.867  24.652  1.00  0.00     0.026 A 
ATOM     12  C   UNL A   1      37.380  21.839  24.509  1.00  0.00     0.002 A 
ATOM     13  C   UNL A   1      36.238  23.195  26.131  1.00  0.00     0.006 A 
ATOM     14  C   UNL A   1      37.303  23.006  25.251  1.00  0.00     0.000 A 
BRANCH  10  15
ATOM     15  N   UNL A   1      34.342  20.001  25.555  1.00  0.00    -0.355 N 
ATOM     16  H   UNL A   1      34.069  19.718  26.458  1.00  0.00     0.167 HD
BRANCH  15  17
ATOM     17  C   UNL A   1      33.706  19.299  24.503  1.00  0.00     0.045 A 
ATOM     18  C   UNL A   1      32.702  19.940  23.734  1.00  0.00    -0.024 A 
ATOM     19  C   UNL A   1      32.181  19.267  22.604  1.00  0.00     0.006 A 
ATOM     20  C   UNL A   1      32.572  17.974  22.279  1.00  0.00     0.001 A 
ATOM     21  C   UNL A   1      33.992  17.932  24.243  1.00  0.00    -0.027 A 
ATOM     22  C   UNL A   1      33.451  17.300  23.111  1.00  0.00     0.005 A 
ATOM     23  C   UNL A   1      34.812  17.082  25.175  1.00  0.00     0.046 C 
BRANCH  18  24
ATOM     24  C   UNL A   1      32.158  21.344  23.945  1.00  0.00     0.034 C 
ATOM     25  C   UNL A   1      32.727  22.501  23.134  1.00  0.00     0.009 C 
ENDBRANCH  18  24
ENDBRANCH  15  17
ENDBRANCH  10  15
ENDBRANCH   8   9
ENDBRANCH   5   8
ENDBRANCH   3   4
ENDBRANCH   2   3
ENDBRANCH   1   2
BRANCH   1  26
ATOM     26  C   UNL A   1      32.580  28.956  25.681  1.00  0.00     0.002 C 
BRANCH  26  27
ATOM     27  C   UNL A   1      32.881  30.195  26.529  1.00  0.00     0.021 C 
BRANCH  27  28
ATOM     28  C   UNL A   1      34.002  30.033  27.543  1.00  0.00     0.116 C 
BRANCH  28  29
ATOM     29  N   UNL A   1      35.108  30.971  27.445  1.00  0.00    -0.352 N 
ATOM     30  C   UNL A   1      35.924  31.089  28.588  1.00  0.00     0.251 C 
ATOM     31  H   UNL A   1      35.277  31.493  26.628  1.00  0.00     0.163 HD
ATOM     32  O   UNL A   1      35.712  31.769  29.516  1.00  0.00    -0.269 OA
BRANCH  30  33
ATOM     33  C   UNL A   1      36.880  29.932  28.670  1.00  0.00     0.039 A 
ATOM     34  C   UNL A   1      37.109  29.245  29.855  1.00  0.00     0.014 A 
ATOM     35  C   UNL A   1      37.705  29.757  27.555  1.00  0.00     0.014 A 
ATOM     36  C   UNL A   1      38.255  28.448  29.959  1.00  0.00     0.010 A 
ATOM     37  C   UNL A   1      38.870  29.024  27.689  1.00  0.00     0.010 A 
ATOM     38  C   UNL A   1      39.172  28.396  28.904  1.00  0.00    -0.014 A 
BRANCH  38  39
ATOM     39  C   UNL A   1      40.516  27.823  29.015  1.00  0.00     0.031 A 
ATOM     40  C   UNL A   1      40.794  26.412  28.627  1.00  0.00     0.074 A 
ATOM     41  C   UNL A   1      41.550  28.562  29.476  1.00  0.00     0.049 A 
ATOM     42  N   UNL A   1      41.848  25.753  28.990  1.00  0.00    -0.248 NA
ATOM     43  C   UNL A   1      39.846  25.587  27.885  1.00  0.00     0.031 C 
ATOM     44  C   UNL A   1      42.973  28.268  29.323  1.00  0.00     0.029 A 
ATOM     45  N   UNL A   1      41.528  29.617  30.373  1.00  0.00    -0.354 N 
ATOM     46  C   UNL A   1      41.864  24.555  28.316  1.00  0.00     0.074 A 
ATOM     47  C   UNL A   1      40.534  24.445  27.769  1.00  0.00     0.031 C 
ATOM     48  C   UNL A   1      43.662  28.937  30.259  1.00  0.00     0.029 A 
ATOM     49  C   UNL A   1      42.703  29.587  31.132  1.00  0.00     0.049 A 
ATOM     50  H   UNL A   1      40.805  30.279  30.461  1.00  0.00     0.167 HD
ATOM     51  C   UNL A   1      43.040  23.871  28.194  1.00  0.00     0.037 A 
ATOM     52  C   UNL A   1      42.702  29.493  32.494  1.00  0.00     0.037 A 
ATOM     53  C   UNL A   1      44.054  24.393  29.117  1.00  0.00     0.049 A 
ATOM     54  C   UNL A   1      43.431  28.287  33.048  1.00  0.00     0.074 A 
ATOM     55  C   UNL A   1      45.207  25.143  28.953  1.00  0.00     0.029 A 
ATOM     56  N   UNL A   1      43.840  24.301  30.490  1.00  0.00    -0.354 N 
ATOM     57  N   UNL A   1      43.855  27.290  32.322  1.00  0.00    -0.248 NA
ATOM     58  C   UNL A   1      43.696  28.084  34.471  1.00  0.00     0.031 C 
ATOM     59  C   UNL A   1      45.657  25.545  30.238  1.00  0.00     0.029 A 
ATOM     60  C   UNL A   1      44.792  25.021  31.184  1.00  0.00     0.049 A 
ATOM     61  H   UNL A   1      43.109  23.792  30.908  1.00  0.00     0.167 HD
ATOM     62  C   UNL A   1      44.355  26.306  33.137  1.00  0.00     0.074 A 
ATOM     63  C   UNL A   1      44.286  26.876  34.469  1.00  0.00     0.031 C 
ATOM     64  C   UNL A   1      44.747  25.095  32.639  1.00  0.00     0.037 A 
BRANCH  51  65
ATOM     65  C   UNL A   1      43.382  22.860  27.095  1.00  0.00     0.058 A 
ATOM     66  C   UNL A   1      42.806  21.563  27.110  1.00  0.00     0.135 A 
ATOM     67  C   UNL A   1      44.357  23.033  26.087  1.00  0.00     0.135 A 
ATOM     68  F   UNL A   1      41.837  21.240  27.979  1.00  0.00    -0.206 F 
ATOM     69  C   UNL A   1      43.214  20.525  26.261  1.00  0.00     0.059 A 
ATOM     70  C   UNL A   1      44.756  22.023  25.208  1.00  0.00     0.059 A 
ATOM     71  F   UNL A   1      45.022  24.175  25.911  1.00  0.00    -0.206 F 
ATOM     72  C   UNL A   1      44.207  20.759  25.322  1.00  0.00     0.060 A 
BRANCH  72  73
ATOM     73  S   UNL A   1      44.799  19.415  24.278  1.00  0.00     0.124 S 
ATOM     74  O   UNL A   1      44.006  18.289  24.762  1.00  0.00    -0.237 OA
ATOM     75  O   UNL A   1      44.478  19.893  22.938  1.00  0.00    -0.237 OA
ATOM     76  O   UNL A   1      46.225  19.348  24.587  1.00  0.00    -0.744 OA
ENDBRANCH  72  73
ENDBRANCH  51  65
BRANCH  52  77
ATOM     77  C   UNL A   1      41.533  30.152  33.133  1.00  0.00     0.058 A 
ATOM     78  C   UNL A   1      41.542  31.557  33.202  1.00  0.00     0.135 A 
ATOM     79  C   UNL A   1      40.297  29.499  33.236  1.00  0.00     0.135 A 
ATOM     80  F   UNL A   1      42.706  32.224  33.134  1.00  0.00    -0.206 F 
ATOM     81  C   UNL A   1      40.364  32.292  33.178  1.00  0.00     0.059 A 
ATOM     82  C   UNL A   1      39.101  30.218  33.226  1.00  0.00     0.059 A 
ATOM     83  F   UNL A   1      40.232  28.161  33.186  1.00  0.00    -0.206 F 
ATOM     84  C   UNL A   1      39.151  31.609  33.107  1.00  0.00     0.060 A 
BRANCH  84  85
ATOM     85  S   UNL A   1      37.676  32.556  32.663  1.00  0.00     0.124 S 
ATOM     86  O   UNL A   1      37.589  33.520  33.753  1.00  0.00    -0.237 OA
ATOM     87  O   UNL A   1      38.056  33.100  31.357  1.00  0.00    -0.237 OA
ATOM     88  O   UNL A   1      36.627  31.543  32.628  1.00  0.00    -0.744 OA
ENDBRANCH  84  85
ENDBRANCH  52  77
BRANCH  64  89
ATOM     89  C   UNL A   1      45.166  23.886  33.451  1.00  0.00     0.058 A 
ATOM     90  C   UNL A   1      46.442  23.710  34.017  1.00  0.00     0.135 A 
ATOM     91  C   UNL A   1      44.210  22.898  33.796  1.00  0.00     0.135 A 
ATOM     92  F   UNL A   1      47.406  24.629  33.861  1.00  0.00    -0.206 F 
ATOM     93  C   UNL A   1      46.767  22.607  34.814  1.00  0.00     0.059 A 
ATOM     94  C   UNL A   1      44.497  21.818  34.632  1.00  0.00     0.059 A 
ATOM     95  F   UNL A   1      42.950  22.955  33.335  1.00  0.00    -0.206 F 
ATOM     96  C   UNL A   1      45.788  21.667  35.120  1.00  0.00     0.060 A 
BRANCH  96  97
ATOM     97  S   UNL A   1      46.160  20.277  36.209  1.00  0.00     0.124 S 
ATOM     98  O   UNL A   1      45.786  20.816  37.513  1.00  0.00    -0.237 OA
ATOM     99  O   UNL A   1      45.296  19.215  35.699  1.00  0.00    -0.237 OA
ATOM    100  O   UNL A   1      47.588  20.068  35.992  1.00  0.00    -0.744 OA
ENDBRANCH  96  97
ENDBRANCH  64  89
ENDBRANCH  38  39
ENDBRANCH  30  33
ENDBRANCH  28  29
ENDBRANCH  27  28
ENDBRANCH  26  27
ENDBRANCH   1  26
TORSDOF 20
ENDMDL
MODEL 2
REMARK VINA RESULT:     -13.2      1.551      2.734
REMARK SMILES CCc1cccc(C)c1Nc1ccccc1CC(=O)NCCCCCCNC(=O)c1ccc(-c2c3nc(c(-c4c(F)cc(S(=O)(=O)[O-])cc4F)c4ccc([nH]4)c(-c4c(F)cc(S(=O)(=O)[O-])cc4F)c4nc(c(-c5c(F)cc(S(=O)(=O)[O-])cc5F)c5ccc2[nH]5)C=C4)C=C3)cc1
REMARK SMILES IDX 23 1 22 2 21 3 20 4 18 5 19 6 17 8 16 9 11 10 12 11 13 12
REMARK SMILES IDX 15 13 14 14 10 15 9 17 3 18 4 19 5 20 7 21 6 22 8 23 2 24
REMARK SMILES IDX 1 25 24 26 25 27 26 28 27 29 28 30 29 32 30 33 31 34 95 35
REMARK SMILES IDX 32 36 94 37 33 38 34 39 35 40 88 41 36 42 93 43 87 44 89 45
REMARK SMILES IDX 37 46 92 47 86 48 85 49 38 51 72 52 51 53 71 54 52 55 55 56
REMARK SMILES IDX 70 57 90 58 53 59 54 60 69 62 91 63 56 64 39 65 40 66 49 67
REMARK SMILES IDX 41 68 42 69 48 70 50 71 43 72 44 73 45 74 46 75 47 76 73 77
REMARK SMILES IDX 74 78 83 79 75 80 76 81 82 82 84 83 77 84 78 85 79 86 80 87
REMARK SMILES IDX 81 88 57 89 58 90 67 91 59 92 60 93 66 94 68 95 61 96 62 97
REMARK SMILES IDX 63 98 64 99 65 100
REMARK H PARENT 20 7 10 16 27 31 89 50 55 61
REMARK Flexibility Score: inf
ROOT
ATOM      1  C   UNL A   1      32.978  29.243  24.733  1.00  0.00     0.002 C 
ENDROOT
BRANCH   1   2
ATOM      2  C   UNL A   1      32.517  28.755  23.351  1.00  0.00     0.021 C 
BRANCH   2   3
ATOM      3  C   UNL A   1      33.624  28.450  22.341  1.00  0.00     0.116 C 
BRANCH   3   4
ATOM      4  N   UNL A   1      33.550  27.121  21.767  1.00  0.00    -0.356 N 
ATOM      5  C   UNL A   1      33.523  25.887  22.344  1.00  0.00     0.224 C 
ATOM      6  O   UNL A   1      33.083  24.962  21.651  1.00  0.00    -0.275 OA
ATOM      7  H   UNL A   1      33.513  27.107  20.783  1.00  0.00     0.163 HD
BRANCH   5   8
ATOM      8  C   UNL A   1      33.834  25.664  23.807  1.00  0.00     0.137 C 
BRANCH   8   9
ATOM      9  C   UNL A   1      32.789  25.021  24.698  1.00  0.00    -0.015 A 
ATOM     10  C   UNL A   1      32.397  23.668  24.610  1.00  0.00     0.042 A 
ATOM     11  C   UNL A   1      31.307  23.223  25.391  1.00  0.00     0.026 A 
ATOM     12  C   UNL A   1      30.612  24.083  26.239  1.00  0.00     0.002 A 
ATOM     13  C   UNL A   1      32.054  25.878  25.550  1.00  0.00     0.006 A 
ATOM     14  C   UNL A   1      30.987  25.414  26.318  1.00  0.00     0.000 A 
BRANCH  10  15
ATOM     15  N   UNL A   1      33.046  22.690  23.822  1.00  0.00    -0.355 N 
ATOM     16  H   UNL A   1      33.568  23.053  23.069  1.00  0.00     0.167 HD
BRANCH  15  17
ATOM     17  C   UNL A   1      33.075  21.279  23.931  1.00  0.00     0.045 A 
ATOM     18  C   UNL A   1      33.877  20.666  24.926  1.00  0.00    -0.024 A 
ATOM     19  C   UNL A   1      33.784  19.266  25.104  1.00  0.00     0.006 A 
ATOM     20  C   UNL A   1      32.988  18.476  24.283  1.00  0.00     0.001 A 
ATOM     21  C   UNL A   1      32.378  20.448  23.013  1.00  0.00    -0.027 A 
ATOM     22  C   UNL A   1      32.312  19.061  23.225  1.00  0.00     0.005 A 
ATOM     23  C   UNL A   1      31.745  20.980  21.755  1.00  0.00     0.046 C 
BRANCH  18  24
ATOM     24  C   UNL A   1      34.799  21.372  25.907  1.00  0.00     0.034 C 
ATOM     25  C   UNL A   1      34.250  21.847  27.247  1.00  0.00     0.009 C 
ENDBRANCH  18  24
ENDBRANCH  15  17
ENDBRANCH  10  15
ENDBRANCH   8   9
ENDBRANCH   5   8
ENDBRANCH   3   4
ENDBRANCH   2   3
ENDBRANCH   1   2
BRANCH   1  26
ATOM     26  C   UNL A   1      31.937  29.948  25.618  1.00  0.00     0.002 C 
BRANCH  26  27
ATOM     27  C   UNL A   1      32.447  30.583  26.915  1.00  0.00     0.021 C 
BRANCH  27  28
ATOM     28  C   UNL A   1      33.825  30.126  27.367  1.00  0.00     0.116 C 
BRANCH  28  29
ATOM     29  N   UNL A   1      34.920  31.056  27.155  1.00  0.00    -0.352 N 
ATOM     30  C   UNL A   1      35.812  31.221  28.234  1.00  0.00     0.251 C 
ATOM     31  H   UNL A   1      35.034  31.543  26.307  1.00  0.00     0.163 HD
ATOM     32  O   UNL A   1      35.662  31.940  29.144  1.00  0.00    -0.269 OA
BRANCH  30  33
ATOM     33  C   UNL A   1      36.772  30.066  28.301  1.00  0.00     0.039 A 
ATOM     34  C   UNL A   1      36.893  29.270  29.432  1.00  0.00     0.014 A 
ATOM     35  C   UNL A   1      37.704  30.002  27.262  1.00  0.00     0.014 A 
ATOM     36  C   UNL A   1      38.035  28.473  29.573  1.00  0.00     0.010 A 
ATOM     37  C   UNL A   1      38.861  29.266  27.440  1.00  0.00     0.010 A 
ATOM     38  C   UNL A   1      39.052  28.527  28.614  1.00  0.00    -0.014 A 
BRANCH  38  39
ATOM     39  C   UNL A   1      40.387  27.952  28.803  1.00  0.00     0.031 A 
ATOM     40  C   UNL A   1      40.674  26.528  28.473  1.00  0.00     0.074 A 
ATOM     41  C   UNL A   1      41.403  28.702  29.284  1.00  0.00     0.049 A 
ATOM     42  N   UNL A   1      41.708  25.877  28.905  1.00  0.00    -0.248 NA
ATOM     43  C   UNL A   1      39.755  25.683  27.719  1.00  0.00     0.031 C 
ATOM     44  C   UNL A   1      42.830  28.398  29.204  1.00  0.00     0.029 A 
ATOM     45  N   UNL A   1      41.347  29.786  30.144  1.00  0.00    -0.354 N 
ATOM     46  C   UNL A   1      41.746  24.658  28.271  1.00  0.00     0.074 A 
ATOM     47  C   UNL A   1      40.441  24.535  27.670  1.00  0.00     0.031 C 
ATOM     48  C   UNL A   1      43.480  29.095  30.147  1.00  0.00     0.029 A 
ATOM     49  C   UNL A   1      42.487  29.777  30.955  1.00  0.00     0.049 A 
ATOM     50  H   UNL A   1      40.625  30.454  30.179  1.00  0.00     0.167 HD
ATOM     51  C   UNL A   1      42.923  23.966  28.223  1.00  0.00     0.037 A 
ATOM     52  C   UNL A   1      42.426  29.727  32.318  1.00  0.00     0.037 A 
ATOM     53  C   UNL A   1      43.899  24.514  29.173  1.00  0.00     0.049 A 
ATOM     54  C   UNL A   1      43.124  28.538  32.943  1.00  0.00     0.074 A 
ATOM     55  C   UNL A   1      45.061  25.253  29.035  1.00  0.00     0.029 A 
ATOM     56  N   UNL A   1      43.624  24.468  30.537  1.00  0.00    -0.354 N 
ATOM     57  N   UNL A   1      43.574  27.516  32.270  1.00  0.00    -0.248 NA
ATOM     58  C   UNL A   1      43.325  28.381  34.382  1.00  0.00     0.031 C 
ATOM     59  C   UNL A   1      45.457  25.696  30.325  1.00  0.00     0.029 A 
ATOM     60  C   UNL A   1      44.548  25.207  31.248  1.00  0.00     0.049 A 
ATOM     61  H   UNL A   1      42.872  23.976  30.939  1.00  0.00     0.167 HD
ATOM     62  C   UNL A   1      44.033  26.557  33.137  1.00  0.00     0.074 A 
ATOM     63  C   UNL A   1      43.908  27.171  34.446  1.00  0.00     0.031 C 
ATOM     64  C   UNL A   1      44.440  25.329  32.697  1.00  0.00     0.037 A 
BRANCH  51  65
ATOM     65  C   UNL A   1      43.308  22.918  27.175  1.00  0.00     0.058 A 
ATOM     66  C   UNL A   1      42.652  21.660  27.145  1.00  0.00     0.135 A 
ATOM     67  C   UNL A   1      44.387  23.014  26.267  1.00  0.00     0.135 A 
ATOM     68  F   UNL A   1      41.584  21.410  27.916  1.00  0.00    -0.206 F 
ATOM     69  C   UNL A   1      43.076  20.584  26.351  1.00  0.00     0.059 A 
ATOM     70  C   UNL A   1      44.806  21.967  25.443  1.00  0.00     0.059 A 
ATOM     71  F   UNL A   1      45.137  24.109  26.147  1.00  0.00    -0.206 F 
ATOM     72  C   UNL A   1      44.170  20.741  25.514  1.00  0.00     0.060 A 
BRANCH  72  73
ATOM     73  S   UNL A   1      44.776  19.346  24.548  1.00  0.00     0.124 S 
ATOM     74  O   UNL A   1      44.043  18.232  25.140  1.00  0.00    -0.237 OA
ATOM     75  O   UNL A   1      44.391  19.714  23.189  1.00  0.00    -0.237 OA
ATOM     76  O   UNL A   1      46.214  19.352  24.808  1.00  0.00    -0.744 OA
ENDBRANCH  72  73
ENDBRANCH  51  65
BRANCH  52  77
ATOM     77  C   UNL A   1      41.234  30.411  32.883  1.00  0.00     0.058 A 
ATOM     78  C   UNL A   1      40.124  29.611  33.208  1.00  0.00     0.135 A 
ATOM     79  C   UNL A   1      41.340  31.666  33.498  1.00  0.00     0.135 A 
ATOM     80  F   UNL A   1      39.968  28.412  32.622  1.00  0.00    -0.206 F 
ATOM     81  C   UNL A   1      39.261  29.953  34.240  1.00  0.00     0.059 A 
ATOM     82  C   UNL A   1      40.475  32.036  34.530  1.00  0.00     0.059 A 
ATOM     83  F   UNL A   1      42.372  32.474  33.217  1.00  0.00    -0.206 F 
ATOM     84  C   UNL A   1      39.497  31.130  34.948  1.00  0.00     0.060 A 
BRANCH  84  85
ATOM     85  S   UNL A   1      38.640  31.353  36.525  1.00  0.00     0.124 S 
ATOM     86  O   UNL A   1      38.260  29.987  36.865  1.00  0.00    -0.237 OA
ATOM     87  O   UNL A   1      39.693  31.947  37.351  1.00  0.00    -0.237 OA
ATOM     88  O   UNL A   1      37.542  32.250  36.184  1.00  0.00    -0.744 OA
ENDBRANCH  84  85
ENDBRANCH  52  77
BRANCH  64  89
ATOM     89  C   UNL A   1      44.816  24.145  33.566  1.00  0.00     0.058 A 
ATOM     90  C   UNL A   1      43.901  23.201  34.063  1.00  0.00     0.135 A 
ATOM     91  C   UNL A   1      46.181  23.857  33.818  1.00  0.00     0.135 A 
ATOM     92  F   UNL A   1      42.589  23.295  33.800  1.00  0.00    -0.206 F 
ATOM     93  C   UNL A   1      44.299  22.086  34.809  1.00  0.00     0.059 A 
ATOM     94  C   UNL A   1      46.604  22.723  34.513  1.00  0.00     0.059 A 
ATOM     95  F   UNL A   1      47.158  24.670  33.385  1.00  0.00    -0.206 F 
ATOM     96  C   UNL A   1      45.653  21.852  35.027  1.00  0.00     0.060 A 
BRANCH  96  97
ATOM     97  S   UNL A   1      46.198  20.381  35.918  1.00  0.00     0.124 S 
ATOM     98  O   UNL A   1      45.732  20.666  37.272  1.00  0.00    -0.237 OA
ATOM     99  O   UNL A   1      45.499  19.298  35.230  1.00  0.00    -0.237 OA
ATOM    100  O   UNL A   1      47.645  20.402  35.726  1.00  0.00    -0.744 OA
ENDBRANCH  96  97
ENDBRANCH  64  89
ENDBRANCH  38  39
ENDBRANCH  30  33
ENDBRANCH  28  29
ENDBRANCH  27  28
ENDBRANCH  26  27
ENDBRANCH   1  26
TORSDOF 20
ENDMDL
MODEL 3
REMARK VINA RESULT:     -12.9      4.419     11.214
REMARK SMILES CCc1cccc(C)c1Nc1ccccc1CC(=O)NCCCCCCNC(=O)c1ccc(-c2c3nc(c(-c4c(F)cc(S(=O)(=O)[O-])cc4F)c4ccc([nH]4)c(-c4c(F)cc(S(=O)(=O)[O-])cc4F)c4nc(c(-c5c(F)cc(S(=O)(=O)[O-])cc5F)c5ccc2[nH]5)C=C4)C=C3)cc1
REMARK SMILES IDX 23 1 22 2 21 3 20 4 18 5 19 6 17 8 16 9 11 10 12 11 13 12
REMARK SMILES IDX 15 13 14 14 10 15 9 17 3 18 4 19 5 20 7 21 6 22 8 23 2 24
REMARK SMILES IDX 1 25 24 26 25 27 26 28 27 29 28 30 29 32 30 33 31 34 95 35
REMARK SMILES IDX 32 36 94 37 33 38 34 39 35 40 88 41 36 42 93 43 87 44 89 45
REMARK SMILES IDX 37 46 92 47 86 48 85 49 38 51 72 52 51 53 71 54 52 55 55 56
REMARK SMILES IDX 70 57 90 58 53 59 54 60 69 62 91 63 56 64 39 65 40 66 49 67
REMARK SMILES IDX 41 68 42 69 48 70 50 71 43 72 44 73 45 74 46 75 47 76 73 77
REMARK SMILES IDX 74 78 83 79 75 80 76 81 82 82 84 83 77 84 78 85 79 86 80 87
REMARK SMILES IDX 81 88 57 89 58 90 67 91 59 92 60 93 66 94 68 95 61 96 62 97
REMARK SMILES IDX 63 98 64 99 65 100
REMARK H PARENT 20 7 10 16 27 31 89 50 55 61
REMARK Flexibility Score: inf
ROOT
ATOM      1  C   UNL A   1      35.368  22.087  26.389  1.00  0.00     0.002 C 
ENDROOT
BRANCH   1   2
ATOM      2  C   UNL A   1      34.361  22.020  27.548  1.00  0.00     0.021 C 
BRANCH   2   3
ATOM      3  C   UNL A   1      32.972  21.481  27.203  1.00  0.00     0.116 C 
BRANCH   3   4
ATOM      4  N   UNL A   1      31.887  22.374  27.556  1.00  0.00    -0.356 N 
ATOM      5  C   UNL A   1      30.864  22.889  26.819  1.00  0.00     0.224 C 
ATOM      6  O   UNL A   1      29.886  23.310  27.448  1.00  0.00    -0.275 OA
ATOM      7  H   UNL A   1      31.890  22.661  28.498  1.00  0.00     0.163 HD
BRANCH   5   8
ATOM      8  C   UNL A   1      30.819  22.797  25.309  1.00  0.00     0.137 C 
BRANCH   8   9
ATOM      9  C   UNL A   1      31.963  23.374  24.497  1.00  0.00    -0.015 A 
ATOM     10  C   UNL A   1      32.275  24.750  24.436  1.00  0.00     0.042 A 
ATOM     11  C   UNL A   1      33.266  25.182  23.528  1.00  0.00     0.026 A 
ATOM     12  C   UNL A   1      33.939  24.290  22.696  1.00  0.00     0.002 A 
ATOM     13  C   UNL A   1      32.644  22.492  23.627  1.00  0.00     0.006 A 
ATOM     14  C   UNL A   1      33.626  22.941  22.745  1.00  0.00     0.000 A 
BRANCH  10  15
ATOM     15  N   UNL A   1      31.696  25.745  25.255  1.00  0.00    -0.355 N 
ATOM     16  H   UNL A   1      31.452  25.440  26.159  1.00  0.00     0.167 HD
BRANCH  15  17
ATOM     17  C   UNL A   1      31.409  27.108  24.998  1.00  0.00     0.045 A 
ATOM     18  C   UNL A   1      32.210  28.120  25.585  1.00  0.00    -0.024 A 
ATOM     19  C   UNL A   1      31.989  29.464  25.204  1.00  0.00     0.006 A 
ATOM     20  C   UNL A   1      30.965  29.819  24.335  1.00  0.00     0.001 A 
ATOM     21  C   UNL A   1      30.281  27.496  24.225  1.00  0.00    -0.027 A 
ATOM     22  C   UNL A   1      30.099  28.843  23.871  1.00  0.00     0.005 A 
ATOM     23  C   UNL A   1      29.209  26.527  23.807  1.00  0.00     0.046 C 
BRANCH  18  24
ATOM     24  C   UNL A   1      33.367  27.913  26.549  1.00  0.00     0.034 C 
ATOM     25  C   UNL A   1      34.308  29.071  26.854  1.00  0.00     0.009 C 
ENDBRANCH  18  24
ENDBRANCH  15  17
ENDBRANCH  10  15
ENDBRANCH   8   9
ENDBRANCH   5   8
ENDBRANCH   3   4
ENDBRANCH   2   3
ENDBRANCH   1   2
BRANCH   1  26
ATOM     26  C   UNL A   1      35.611  23.459  25.741  1.00  0.00     0.002 C 
BRANCH  26  27
ATOM     27  C   UNL A   1      37.030  24.028  25.837  1.00  0.00     0.021 C 
BRANCH  27  28
ATOM     28  C   UNL A   1      38.149  23.000  25.793  1.00  0.00     0.116 C 
BRANCH  28  29
ATOM     29  N   UNL A   1      38.996  22.911  26.970  1.00  0.00    -0.352 N 
ATOM     30  C   UNL A   1      40.169  23.693  26.951  1.00  0.00     0.251 C 
ATOM     31  H   UNL A   1      38.765  22.338  27.737  1.00  0.00     0.163 HD
ATOM     32  O   UNL A   1      41.186  23.392  26.461  1.00  0.00    -0.269 OA
BRANCH  30  33
ATOM     33  C   UNL A   1      39.845  25.128  27.261  1.00  0.00     0.039 A 
ATOM     34  C   UNL A   1      40.415  26.182  26.559  1.00  0.00     0.014 A 
ATOM     35  C   UNL A   1      39.143  25.340  28.450  1.00  0.00     0.014 A 
ATOM     36  C   UNL A   1      40.374  27.464  27.121  1.00  0.00     0.010 A 
ATOM     37  C   UNL A   1      39.166  26.595  29.031  1.00  0.00     0.010 A 
ATOM     38  C   UNL A   1      39.815  27.656  28.389  1.00  0.00    -0.014 A 
BRANCH  38  39
ATOM     39  C   UNL A   1      39.967  28.886  29.171  1.00  0.00     0.031 A 
ATOM     40  C   UNL A   1      38.951  29.974  29.117  1.00  0.00     0.074 A 
ATOM     41  C   UNL A   1      41.041  29.070  29.972  1.00  0.00     0.049 A 
ATOM     42  N   UNL A   1      39.165  31.189  29.511  1.00  0.00    -0.248 NA
ATOM     43  C   UNL A   1      37.637  29.807  28.504  1.00  0.00     0.031 C 
ATOM     44  C   UNL A   1      41.170  30.045  31.053  1.00  0.00     0.029 A 
ATOM     45  N   UNL A   1      42.323  28.567  29.830  1.00  0.00    -0.354 N 
ATOM     46  C   UNL A   1      37.972  31.871  29.480  1.00  0.00     0.074 A 
ATOM     47  C   UNL A   1      37.102  31.017  28.710  1.00  0.00     0.031 C 
ATOM     48  C   UNL A   1      42.471  30.248  31.307  1.00  0.00     0.029 A 
ATOM     49  C   UNL A   1      43.233  29.511  30.318  1.00  0.00     0.049 A 
ATOM     50  H   UNL A   1      42.556  27.690  29.449  1.00  0.00     0.167 HD
ATOM     51  C   UNL A   1      37.833  33.010  30.221  1.00  0.00     0.037 A 
ATOM     52  C   UNL A   1      44.232  30.041  29.552  1.00  0.00     0.037 A 
ATOM     53  C   UNL A   1      39.136  33.503  30.684  1.00  0.00     0.049 A 
ATOM     54  C   UNL A   1      44.191  31.547  29.408  1.00  0.00     0.074 A 
ATOM     55  C   UNL A   1      39.767  33.536  31.916  1.00  0.00     0.029 A 
ATOM     56  N   UNL A   1      40.081  33.914  29.749  1.00  0.00    -0.354 N 
ATOM     57  N   UNL A   1      43.190  32.292  29.788  1.00  0.00    -0.248 NA
ATOM     58  C   UNL A   1      45.252  32.330  28.777  1.00  0.00     0.031 C 
ATOM     59  C   UNL A   1      41.117  33.922  31.708  1.00  0.00     0.029 A 
ATOM     60  C   UNL A   1      41.301  34.145  30.354  1.00  0.00     0.049 A 
ATOM     61  H   UNL A   1      39.905  34.024  28.786  1.00  0.00     0.167 HD
ATOM     62  C   UNL A   1      43.408  33.590  29.402  1.00  0.00     0.074 A 
ATOM     63  C   UNL A   1      44.739  33.572  28.824  1.00  0.00     0.031 C 
ATOM     64  C   UNL A   1      42.454  34.555  29.561  1.00  0.00     0.037 A 
BRANCH  51  65
ATOM     65  C   UNL A   1      36.513  33.593  30.734  1.00  0.00     0.058 A 
ATOM     66  C   UNL A   1      35.562  34.122  29.822  1.00  0.00     0.135 A 
ATOM     67  C   UNL A   1      36.169  33.794  32.089  1.00  0.00     0.135 A 
ATOM     68  F   UNL A   1      35.713  33.986  28.497  1.00  0.00    -0.206 F 
ATOM     69  C   UNL A   1      34.428  34.844  30.220  1.00  0.00     0.059 A 
ATOM     70  C   UNL A   1      35.027  34.482  32.508  1.00  0.00     0.059 A 
ATOM     71  F   UNL A   1      36.934  33.381  33.100  1.00  0.00    -0.206 F 
ATOM     72  C   UNL A   1      34.178  35.037  31.570  1.00  0.00     0.060 A 
BRANCH  72  73
ATOM     73  S   UNL A   1      32.769  36.031  32.095  1.00  0.00     0.124 S 
ATOM     74  O   UNL A   1      31.799  35.004  32.461  1.00  0.00    -0.237 OA
ATOM     75  O   UNL A   1      33.325  36.807  33.198  1.00  0.00    -0.237 OA
ATOM     76  O   UNL A   1      32.435  36.803  30.901  1.00  0.00    -0.744 OA
ENDBRANCH  72  73
ENDBRANCH  51  65
BRANCH  52  77
ATOM     77  C   UNL A   1      44.758  29.100  28.531  1.00  0.00     0.058 A 
ATOM     78  C   UNL A   1      45.657  28.109  28.967  1.00  0.00     0.135 A 
ATOM     79  C   UNL A   1      44.078  28.881  27.325  1.00  0.00     0.135 A 
ATOM     80  F   UNL A   1      46.351  28.288  30.103  1.00  0.00    -0.206 F 
ATOM     81  C   UNL A   1      45.735  26.873  28.340  1.00  0.00     0.059 A 
ATOM     82  C   UNL A   1      44.151  27.650  26.671  1.00  0.00     0.059 A 
ATOM     83  F   UNL A   1      43.217  29.796  26.857  1.00  0.00    -0.206 F 
ATOM     84  C   UNL A   1      44.914  26.628  27.240  1.00  0.00     0.060 A 
BRANCH  84  85
ATOM     85  S   UNL A   1      44.719  24.913  26.699  1.00  0.00     0.124 S 
ATOM     86  O   UNL A   1      44.060  24.301  27.846  1.00  0.00    -0.237 OA
ATOM     87  O   UNL A   1      43.894  25.075  25.499  1.00  0.00    -0.237 OA
ATOM     88  O   UNL A   1      46.090  24.483  26.452  1.00  0.00    -0.744 OA
ENDBRANCH  84  85
ENDBRANCH  52  77
BRANCH  64  89
ATOM     89  C   UNL A   1      42.519  35.976  29.037  1.00  0.00     0.058 A 
ATOM     90  C   UNL A   1      43.358  36.978  29.557  1.00  0.00     0.135 A 
ATOM     91  C   UNL A   1      41.799  36.335  27.870  1.00  0.00     0.135 A 
ATOM     92  F   UNL A   1      44.177  36.735  30.592  1.00  0.00    -0.206 F 
ATOM     93  C   UNL A   1      43.434  38.260  29.002  1.00  0.00     0.059 A 
ATOM     94  C   UNL A   1      41.900  37.590  27.269  1.00  0.00     0.059 A 
ATOM     95  F   UNL A   1      40.972  35.466  27.265  1.00  0.00    -0.206 F 
ATOM     96  C   UNL A   1      42.704  38.557  27.856  1.00  0.00     0.060 A 
BRANCH  96  97
ATOM     97  S   UNL A   1      42.843  40.178  27.075  1.00  0.00     0.124 S 
ATOM     98  O   UNL A   1      41.778  40.118  26.079  1.00  0.00    -0.237 OA
ATOM     99  O   UNL A   1      42.614  41.101  28.184  1.00  0.00    -0.237 OA
ATOM    100  O   UNL A   1      44.205  40.170  26.550  1.00  0.00    -0.744 OA
ENDBRANCH  96  97
ENDBRANCH  64  89
ENDBRANCH  38  39
ENDBRANCH  30  33
ENDBRANCH  28  29
ENDBRANCH  27  28
ENDBRANCH  26  27
ENDBRANCH   1  26
TORSDOF 20
ENDMDL
