MODEL 1
REMARK VINA RESULT:     -12.9      0.000      0.000
REMARK SMILES C[C@@H]1C(C(=O)NCCCCCCNC(=O)c2ccc(-c3c4nc(c(-c5c(F)cc(S(=O)(=O)[O-])cc5F)c5ccc([nH]5)c(-c5c(F)cc(S(=O)(=O)[O-])cc5F)c5nc(c(-c6c(F)cc(S(=O)(=O)[O-])cc6F)c6ccc3[nH]6)C=C5)C=C4)cc2)=NC2=C1C(=O)C[C@H](c1ccccc1)C2
REMARK SMILES IDX 10 1 9 2 8 3 7 4 6 5 4 6 5 7 3 9 1 10 2 11 84 12 82 13 83 14
REMARK SMILES IDX 85 15 95 16 86 17 87 18 88 19 89 20 90 21 94 22 91 23 93 24
REMARK SMILES IDX 92 25 11 26 12 27 13 28 14 29 15 31 16 32 17 33 81 34 18 35
REMARK SMILES IDX 80 36 19 37 20 38 21 39 74 40 22 41 79 42 73 43 75 44 23 45
REMARK SMILES IDX 78 46 72 47 71 48 24 50 58 51 37 52 57 53 38 54 41 55 56 56
REMARK SMILES IDX 76 57 39 58 40 59 55 61 77 62 42 63 25 64 26 65 35 66 27 67
REMARK SMILES IDX 28 68 34 69 36 70 29 71 30 72 31 73 32 74 33 75 59 76 60 77
REMARK SMILES IDX 69 78 61 79 62 80 68 81 70 82 63 83 64 84 65 85 66 86 67 87
REMARK SMILES IDX 43 88 44 89 53 90 45 91 46 92 52 93 54 94 47 95 48 96 49 97
REMARK SMILES IDX 50 98 51 99
REMARK H PARENT 6 8 13 30 75 49 41 60
REMARK Flexibility Score: inf
ROOT
ATOM      1  C   UNL A   1      38.137  23.626  26.111  1.00  0.00     0.002 C 
ENDROOT
BRANCH   1   2
ATOM      2  C   UNL A   1      36.942  23.770  25.162  1.00  0.00     0.002 C 
BRANCH   2   3
ATOM      3  C   UNL A   1      35.533  23.555  25.707  1.00  0.00     0.021 C 
BRANCH   3   4
ATOM      4  C   UNL A   1      34.386  24.452  25.245  1.00  0.00     0.116 C 
BRANCH   4   5
ATOM      5  N   UNL A   1      33.467  24.972  26.236  1.00  0.00    -0.351 N 
ATOM      6  C   UNL A   1      32.110  25.252  26.100  1.00  0.00     0.266 C 
ATOM      7  O   UNL A   1      31.403  25.312  27.102  1.00  0.00    -0.268 OA
ATOM      8  H   UNL A   1      33.852  25.150  27.125  1.00  0.00     0.163 HD
BRANCH   6   9
ATOM      9  C   UNL A   1      31.504  25.638  24.747  1.00  0.00     0.113 C 
ATOM     10  C   UNL A   1      30.484  24.023  23.137  1.00  0.00     0.020 C 
ATOM     11  C   UNL A   1      31.717  24.855  23.478  1.00  0.00     0.076 C 
ATOM     12  C   UNL A   1      31.777  26.110  22.672  1.00  0.00     0.026 C 
ATOM     13  N   UNL A   1      30.833  26.754  24.584  1.00  0.00    -0.251 NA
ATOM     14  C   UNL A   1      31.048  27.067  23.255  1.00  0.00     0.049 C 
ATOM     15  C   UNL A   1      33.015  26.567  22.005  1.00  0.00     0.161 C 
ATOM     16  C   UNL A   1      31.167  28.495  22.805  1.00  0.00     0.065 C 
ATOM     17  O   UNL A   1      33.656  25.753  21.343  1.00  0.00    -0.294 OA
ATOM     18  C   UNL A   1      33.544  27.993  22.279  1.00  0.00     0.089 C 
ATOM     19  C   UNL A   1      32.611  28.952  23.093  1.00  0.00     0.033 C 
BRANCH  19  20
ATOM     20  C   UNL A   1      32.894  29.095  24.605  1.00  0.00    -0.044 A 
ATOM     21  C   UNL A   1      32.059  29.887  25.426  1.00  0.00     0.004 A 
ATOM     22  C   UNL A   1      33.967  28.455  25.236  1.00  0.00     0.004 A 
ATOM     23  C   UNL A   1      32.164  29.878  26.818  1.00  0.00     0.000 A 
ATOM     24  C   UNL A   1      34.096  28.474  26.632  1.00  0.00     0.000 A 
ATOM     25  C   UNL A   1      33.173  29.150  27.424  1.00  0.00     0.000 A 
ENDBRANCH  19  20
ENDBRANCH   6   9
ENDBRANCH   4   5
ENDBRANCH   3   4
ENDBRANCH   2   3
ENDBRANCH   1   2
BRANCH   1  26
ATOM     26  C   UNL A   1      38.909  22.301  26.123  1.00  0.00     0.021 C 
BRANCH  26  27
ATOM     27  C   UNL A   1      40.178  22.288  26.962  1.00  0.00     0.116 C 
BRANCH  27  28
ATOM     28  N   UNL A   1      41.406  22.098  26.183  1.00  0.00    -0.352 N 
ATOM     29  C   UNL A   1      42.210  23.078  25.627  1.00  0.00     0.251 C 
ATOM     30  H   UNL A   1      41.692  21.168  26.040  1.00  0.00     0.163 HD
ATOM     31  O   UNL A   1      42.977  22.810  24.695  1.00  0.00    -0.269 OA
BRANCH  29  32
ATOM     32  C   UNL A   1      42.152  24.445  26.174  1.00  0.00     0.039 A 
ATOM     33  C   UNL A   1      41.341  25.449  25.632  1.00  0.00     0.014 A 
ATOM     34  C   UNL A   1      42.935  24.701  27.294  1.00  0.00     0.014 A 
ATOM     35  C   UNL A   1      41.280  26.684  26.278  1.00  0.00     0.010 A 
ATOM     36  C   UNL A   1      42.714  25.825  28.037  1.00  0.00     0.010 A 
ATOM     37  C   UNL A   1      41.965  26.856  27.492  1.00  0.00    -0.014 A 
BRANCH  37  38
ATOM     38  C   UNL A   1      41.827  28.060  28.304  1.00  0.00     0.031 A 
ATOM     39  C   UNL A   1      42.943  29.019  28.097  1.00  0.00     0.074 A 
ATOM     40  C   UNL A   1      40.658  28.378  28.913  1.00  0.00     0.049 A 
ATOM     41  N   UNL A   1      43.916  29.293  28.901  1.00  0.00    -0.248 NA
ATOM     42  C   UNL A   1      43.129  29.586  26.745  1.00  0.00     0.031 C 
ATOM     43  C   UNL A   1      39.385  27.643  28.828  1.00  0.00     0.029 A 
ATOM     44  N   UNL A   1      40.303  29.485  29.629  1.00  0.00    -0.354 N 
ATOM     45  C   UNL A   1      44.627  30.315  28.272  1.00  0.00     0.074 A 
ATOM     46  C   UNL A   1      44.292  30.227  26.879  1.00  0.00     0.031 C 
ATOM     47  C   UNL A   1      38.367  28.432  29.234  1.00  0.00     0.029 A 
ATOM     48  C   UNL A   1      38.923  29.650  29.790  1.00  0.00     0.049 A 
ATOM     49  H   UNL A   1      40.962  30.114  30.001  1.00  0.00     0.167 HD
ATOM     50  C   UNL A   1      45.094  31.372  28.997  1.00  0.00     0.037 A 
ATOM     51  C   UNL A   1      38.284  30.714  30.339  1.00  0.00     0.037 A 
ATOM     52  C   UNL A   1      44.989  31.082  30.405  1.00  0.00     0.049 A 
ATOM     53  C   UNL A   1      39.281  31.428  31.170  1.00  0.00     0.074 A 
ATOM     54  C   UNL A   1      45.644  30.293  31.323  1.00  0.00     0.029 A 
ATOM     55  N   UNL A   1      43.760  31.390  30.927  1.00  0.00    -0.354 N 
ATOM     56  N   UNL A   1      39.846  30.900  32.224  1.00  0.00    -0.248 NA
ATOM     57  C   UNL A   1      39.962  32.591  30.613  1.00  0.00     0.031 C 
ATOM     58  C   UNL A   1      44.703  30.025  32.360  1.00  0.00     0.029 A 
ATOM     59  C   UNL A   1      43.520  30.707  32.086  1.00  0.00     0.049 A 
ATOM     60  H   UNL A   1      43.127  32.025  30.518  1.00  0.00     0.167 HD
ATOM     61  C   UNL A   1      41.138  31.387  32.201  1.00  0.00     0.074 A 
ATOM     62  C   UNL A   1      41.106  32.532  31.301  1.00  0.00     0.031 C 
ATOM     63  C   UNL A   1      42.181  30.620  32.629  1.00  0.00     0.037 A 
BRANCH  50  64
ATOM     64  C   UNL A   1      45.141  32.820  28.528  1.00  0.00     0.058 A 
ATOM     65  C   UNL A   1      46.391  33.483  28.502  1.00  0.00     0.135 A 
ATOM     66  C   UNL A   1      44.017  33.665  28.393  1.00  0.00     0.135 A 
ATOM     67  F   UNL A   1      47.535  32.790  28.622  1.00  0.00    -0.206 F 
ATOM     68  C   UNL A   1      46.507  34.873  28.422  1.00  0.00     0.059 A 
ATOM     69  C   UNL A   1      44.113  35.046  28.263  1.00  0.00     0.059 A 
ATOM     70  F   UNL A   1      42.761  33.216  28.470  1.00  0.00    -0.206 F 
ATOM     71  C   UNL A   1      45.357  35.648  28.314  1.00  0.00     0.060 A 
BRANCH  71  72
ATOM     72  S   UNL A   1      45.490  37.444  28.273  1.00  0.00     0.124 S 
ATOM     73  O   UNL A   1      45.213  37.789  29.663  1.00  0.00    -0.237 OA
ATOM     74  O   UNL A   1      46.867  37.632  27.826  1.00  0.00    -0.237 OA
ATOM     75  O   UNL A   1      44.467  37.833  27.308  1.00  0.00    -0.744 OA
ENDBRANCH  71  72
ENDBRANCH  50  64
BRANCH  51  76
ATOM     76  C   UNL A   1      36.966  31.310  29.989  1.00  0.00     0.058 A 
ATOM     77  C   UNL A   1      36.172  31.971  30.944  1.00  0.00     0.135 A 
ATOM     78  C   UNL A   1      36.599  31.499  28.642  1.00  0.00     0.135 A 
ATOM     79  F   UNL A   1      36.459  31.860  32.250  1.00  0.00    -0.206 F 
ATOM     80  C   UNL A   1      35.107  32.810  30.584  1.00  0.00     0.059 A 
ATOM     81  C   UNL A   1      35.543  32.329  28.259  1.00  0.00     0.059 A 
ATOM     82  F   UNL A   1      37.319  30.949  27.652  1.00  0.00    -0.206 F 
ATOM     83  C   UNL A   1      34.814  33.000  29.234  1.00  0.00     0.060 A 
BRANCH  83  84
ATOM     84  S   UNL A   1      33.546  34.203  28.757  1.00  0.00     0.124 S 
ATOM     85  O   UNL A   1      34.343  35.246  28.120  1.00  0.00    -0.237 OA
ATOM     86  O   UNL A   1      32.694  33.420  27.869  1.00  0.00    -0.237 OA
ATOM     87  O   UNL A   1      32.938  34.578  30.031  1.00  0.00    -0.744 OA
ENDBRANCH  83  84
ENDBRANCH  51  76
BRANCH  63  88
ATOM     88  C   UNL A   1      41.911  29.553  33.643  1.00  0.00     0.058 A 
ATOM     89  C   UNL A   1      41.541  28.229  33.360  1.00  0.00     0.135 A 
ATOM     90  C   UNL A   1      42.170  29.883  34.982  1.00  0.00     0.135 A 
ATOM     91  F   UNL A   1      41.340  27.823  32.098  1.00  0.00    -0.206 F 
ATOM     92  C   UNL A   1      41.425  27.274  34.375  1.00  0.00     0.059 A 
ATOM     93  C   UNL A   1      42.091  28.946  36.001  1.00  0.00     0.059 A 
ATOM     94  F   UNL A   1      42.566  31.126  35.302  1.00  0.00    -0.206 F 
ATOM     95  C   UNL A   1      41.711  27.643  35.693  1.00  0.00     0.060 A 
BRANCH  95  96
ATOM     96  S   UNL A   1      41.649  26.399  37.001  1.00  0.00     0.124 S 
ATOM     97  O   UNL A   1      41.647  25.155  36.239  1.00  0.00    -0.237 OA
ATOM     98  O   UNL A   1      42.865  26.678  37.759  1.00  0.00    -0.237 OA
ATOM     99  O   UNL A   1      40.404  26.702  37.702  1.00  0.00    -0.744 OA
ENDBRANCH  95  96
ENDBRANCH  63  88
ENDBRANCH  37  38
ENDBRANCH  29  32
ENDBRANCH  27  28
ENDBRANCH  26  27
ENDBRANCH   1  26
TORSDOF 17
ENDMDL
MODEL 2
REMARK VINA RESULT:     -12.7      2.574      3.896
REMARK SMILES C[C@@H]1C(C(=O)NCCCCCCNC(=O)c2ccc(-c3c4nc(c(-c5c(F)cc(S(=O)(=O)[O-])cc5F)c5ccc([nH]5)c(-c5c(F)cc(S(=O)(=O)[O-])cc5F)c5nc(c(-c6c(F)cc(S(=O)(=O)[O-])cc6F)c6ccc3[nH]6)C=C5)C=C4)cc2)=NC2=C1C(=O)C[C@H](c1ccccc1)C2
REMARK SMILES IDX 10 1 9 2 8 3 7 4 6 5 4 6 5 7 3 9 1 10 2 11 84 12 82 13 83 14
REMARK SMILES IDX 85 15 95 16 86 17 87 18 88 19 89 20 90 21 94 22 91 23 93 24
REMARK SMILES IDX 92 25 11 26 12 27 13 28 14 29 15 31 16 32 17 33 81 34 18 35
REMARK SMILES IDX 80 36 19 37 20 38 21 39 74 40 22 41 79 42 73 43 75 44 23 45
REMARK SMILES IDX 78 46 72 47 71 48 24 50 58 51 37 52 57 53 38 54 41 55 56 56
REMARK SMILES IDX 76 57 39 58 40 59 55 61 77 62 42 63 25 64 26 65 35 66 27 67
REMARK SMILES IDX 28 68 34 69 36 70 29 71 30 72 31 73 32 74 33 75 59 76 60 77
REMARK SMILES IDX 69 78 61 79 62 80 68 81 70 82 63 83 64 84 65 85 66 86 67 87
REMARK SMILES IDX 43 88 44 89 53 90 45 91 46 92 52 93 54 94 47 95 48 96 49 97
REMARK SMILES IDX 50 98 51 99
REMARK H PARENT 6 8 13 30 75 49 41 60
REMARK Flexibility Score: inf
ROOT
ATOM      1  C   UNL A   1      40.442  21.254  26.853  1.00  0.00     0.002 C 
ENDROOT
BRANCH   1   2
ATOM      2  C   UNL A   1      39.286  21.944  26.120  1.00  0.00     0.002 C 
BRANCH   2   3
ATOM      3  C   UNL A   1      38.706  23.232  26.698  1.00  0.00     0.021 C 
BRANCH   3   4
ATOM      4  C   UNL A   1      37.653  24.018  25.917  1.00  0.00     0.116 C 
BRANCH   4   5
ATOM      5  N   UNL A   1      37.407  23.665  24.534  1.00  0.00    -0.351 N 
ATOM      6  C   UNL A   1      36.255  23.126  23.967  1.00  0.00     0.266 C 
ATOM      7  O   UNL A   1      36.065  23.246  22.760  1.00  0.00    -0.268 OA
ATOM      8  H   UNL A   1      38.152  23.829  23.912  1.00  0.00     0.163 HD
BRANCH   6   9
ATOM      9  C   UNL A   1      35.293  22.257  24.782  1.00  0.00     0.113 C 
ATOM     10  C   UNL A   1      35.530  19.791  25.100  1.00  0.00     0.020 C 
ATOM     11  C   UNL A   1      34.807  20.901  24.342  1.00  0.00     0.076 C 
ATOM     12  C   UNL A   1      33.452  21.164  24.907  1.00  0.00     0.026 C 
ATOM     13  N   UNL A   1      34.739  22.693  25.890  1.00  0.00    -0.251 NA
ATOM     14  C   UNL A   1      33.538  22.011  25.938  1.00  0.00     0.049 C 
ATOM     15  C   UNL A   1      32.251  21.315  24.056  1.00  0.00     0.161 C 
ATOM     16  C   UNL A   1      32.303  22.654  26.501  1.00  0.00     0.065 C 
ATOM     17  O   UNL A   1      32.054  20.482  23.173  1.00  0.00    -0.294 OA
ATOM     18  C   UNL A   1      31.375  22.579  24.196  1.00  0.00     0.089 C 
ATOM     19  C   UNL A   1      31.696  23.538  25.393  1.00  0.00     0.033 C 
BRANCH  19  20
ATOM     20  C   UNL A   1      32.563  24.780  25.087  1.00  0.00    -0.044 A 
ATOM     21  C   UNL A   1      33.011  25.044  23.773  1.00  0.00     0.004 A 
ATOM     22  C   UNL A   1      32.939  25.699  26.074  1.00  0.00     0.004 A 
ATOM     23  C   UNL A   1      33.621  26.251  23.426  1.00  0.00     0.000 A 
ATOM     24  C   UNL A   1      33.583  26.897  25.733  1.00  0.00     0.000 A 
ATOM     25  C   UNL A   1      33.886  27.191  24.406  1.00  0.00     0.000 A 
ENDBRANCH  19  20
ENDBRANCH   6   9
ENDBRANCH   4   5
ENDBRANCH   3   4
ENDBRANCH   2   3
ENDBRANCH   1   2
BRANCH   1  26
ATOM     26  C   UNL A   1      41.124  20.055  26.183  1.00  0.00     0.021 C 
BRANCH  26  27
ATOM     27  C   UNL A   1      42.467  19.651  26.773  1.00  0.00     0.116 C 
BRANCH  27  28
ATOM     28  N   UNL A   1      43.532  19.492  25.778  1.00  0.00    -0.352 N 
ATOM     29  C   UNL A   1      44.112  20.479  25.001  1.00  0.00     0.251 C 
ATOM     30  H   UNL A   1      43.873  18.578  25.647  1.00  0.00     0.163 HD
ATOM     31  O   UNL A   1      44.705  20.191  23.955  1.00  0.00    -0.269 OA
BRANCH  29  32
ATOM     32  C   UNL A   1      44.030  21.881  25.449  1.00  0.00     0.039 A 
ATOM     33  C   UNL A   1      43.130  22.803  24.902  1.00  0.00     0.014 A 
ATOM     34  C   UNL A   1      44.884  22.257  26.479  1.00  0.00     0.014 A 
ATOM     35  C   UNL A   1      43.059  24.081  25.458  1.00  0.00     0.010 A 
ATOM     36  C   UNL A   1      44.667  23.424  27.152  1.00  0.00     0.010 A 
ATOM     37  C   UNL A   1      43.827  24.376  26.596  1.00  0.00    -0.014 A 
BRANCH  37  38
ATOM     38  C   UNL A   1      43.693  25.632  27.326  1.00  0.00     0.031 A 
ATOM     39  C   UNL A   1      44.751  26.614  26.970  1.00  0.00     0.074 A 
ATOM     40  C   UNL A   1      42.556  25.952  27.991  1.00  0.00     0.049 A 
ATOM     41  N   UNL A   1      45.764  26.984  27.682  1.00  0.00    -0.248 NA
ATOM     42  C   UNL A   1      44.820  27.083  25.571  1.00  0.00     0.031 C 
ATOM     43  C   UNL A   1      41.312  25.166  28.050  1.00  0.00     0.029 A 
ATOM     44  N   UNL A   1      42.204  27.096  28.647  1.00  0.00    -0.354 N 
ATOM     45  C   UNL A   1      46.386  27.981  26.930  1.00  0.00     0.074 A 
ATOM     46  C   UNL A   1      45.962  27.776  25.575  1.00  0.00     0.031 C 
ATOM     47  C   UNL A   1      40.292  25.944  28.468  1.00  0.00     0.029 A 
ATOM     48  C   UNL A   1      40.832  27.221  28.893  1.00  0.00     0.049 A 
ATOM     49  H   UNL A   1      42.859  27.775  28.925  1.00  0.00     0.167 HD
ATOM     50  C   UNL A   1      46.856  29.107  27.541  1.00  0.00     0.037 A 
ATOM     51  C   UNL A   1      40.187  28.299  29.407  1.00  0.00     0.037 A 
ATOM     52  C   UNL A   1      46.859  28.921  28.971  1.00  0.00     0.049 A 
ATOM     53  C   UNL A   1      41.207  29.111  30.111  1.00  0.00     0.074 A 
ATOM     54  C   UNL A   1      47.608  28.229  29.895  1.00  0.00     0.029 A 
ATOM     55  N   UNL A   1      45.656  29.222  29.555  1.00  0.00    -0.354 N 
ATOM     56  N   UNL A   1      41.863  28.686  31.158  1.00  0.00    -0.248 NA
ATOM     57  C   UNL A   1      41.798  30.253  29.424  1.00  0.00     0.031 C 
ATOM     58  C   UNL A   1      46.752  28.005  31.013  1.00  0.00     0.029 A 
ATOM     59  C   UNL A   1      45.524  28.620  30.775  1.00  0.00     0.049 A 
ATOM     60  H   UNL A   1      44.971  29.800  29.147  1.00  0.00     0.167 HD
ATOM     61  C   UNL A   1      43.129  29.218  31.007  1.00  0.00     0.074 A 
ATOM     62  C   UNL A   1      42.988  30.289  30.031  1.00  0.00     0.031 C 
ATOM     63  C   UNL A   1      44.231  28.525  31.416  1.00  0.00     0.037 A 
BRANCH  50  64
ATOM     64  C   UNL A   1      46.810  30.516  26.966  1.00  0.00     0.058 A 
ATOM     65  C   UNL A   1      47.985  31.304  27.009  1.00  0.00     0.135 A 
ATOM     66  C   UNL A   1      45.629  31.226  26.656  1.00  0.00     0.135 A 
ATOM     67  F   UNL A   1      49.172  30.744  27.294  1.00  0.00    -0.206 F 
ATOM     68  C   UNL A   1      47.972  32.689  26.830  1.00  0.00     0.059 A 
ATOM     69  C   UNL A   1      45.602  32.597  26.426  1.00  0.00     0.059 A 
ATOM     70  F   UNL A   1      44.422  30.653  26.647  1.00  0.00    -0.206 F 
ATOM     71  C   UNL A   1      46.769  33.329  26.549  1.00  0.00     0.060 A 
BRANCH  71  72
ATOM     72  S   UNL A   1      46.729  35.122  26.380  1.00  0.00     0.124 S 
ATOM     73  O   UNL A   1      48.072  35.399  25.883  1.00  0.00    -0.237 OA
ATOM     74  O   UNL A   1      45.640  35.308  25.425  1.00  0.00    -0.237 OA
ATOM     75  O   UNL A   1      46.448  35.580  27.736  1.00  0.00    -0.744 OA
ENDBRANCH  71  72
ENDBRANCH  50  64
BRANCH  51  76
ATOM     76  C   UNL A   1      38.824  28.817  29.108  1.00  0.00     0.058 A 
ATOM     77  C   UNL A   1      37.859  28.994  30.116  1.00  0.00     0.135 A 
ATOM     78  C   UNL A   1      38.544  29.429  27.870  1.00  0.00     0.135 A 
ATOM     79  F   UNL A   1      38.050  28.460  31.332  1.00  0.00    -0.206 F 
ATOM     80  C   UNL A   1      36.707  29.771  29.925  1.00  0.00     0.059 A 
ATOM     81  C   UNL A   1      37.405  30.207  27.655  1.00  0.00     0.059 A 
ATOM     82  F   UNL A   1      39.422  29.358  26.858  1.00  0.00    -0.206 F 
ATOM     83  C   UNL A   1      36.500  30.393  28.694  1.00  0.00     0.060 A 
BRANCH  83  84
ATOM     84  S   UNL A   1      35.100  31.525  28.490  1.00  0.00     0.124 S 
ATOM     85  O   UNL A   1      35.646  32.520  27.574  1.00  0.00    -0.237 OA
ATOM     86  O   UNL A   1      34.070  30.650  27.940  1.00  0.00    -0.237 OA
ATOM     87  O   UNL A   1      34.850  32.003  29.847  1.00  0.00    -0.744 OA
ENDBRANCH  83  84
ENDBRANCH  51  76
BRANCH  63  88
ATOM     88  C   UNL A   1      44.075  27.528  32.522  1.00  0.00     0.058 A 
ATOM     89  C   UNL A   1      43.815  27.832  33.868  1.00  0.00     0.135 A 
ATOM     90  C   UNL A   1      44.069  26.176  32.149  1.00  0.00     0.135 A 
ATOM     91  F   UNL A   1      43.739  29.105  34.286  1.00  0.00    -0.206 F 
ATOM     92  C   UNL A   1      43.568  26.825  34.805  1.00  0.00     0.059 A 
ATOM     93  C   UNL A   1      43.798  25.162  33.055  1.00  0.00     0.059 A 
ATOM     94  F   UNL A   1      44.273  25.834  30.866  1.00  0.00    -0.206 F 
ATOM     95  C   UNL A   1      43.555  25.492  34.386  1.00  0.00     0.060 A 
BRANCH  95  96
ATOM     96  S   UNL A   1      43.153  24.188  35.569  1.00  0.00     0.124 S 
ATOM     97  O   UNL A   1      43.791  23.022  34.967  1.00  0.00    -0.237 OA
ATOM     98  O   UNL A   1      43.763  24.681  36.800  1.00  0.00    -0.237 OA
ATOM     99  O   UNL A   1      41.692  24.167  35.571  1.00  0.00    -0.744 OA
ENDBRANCH  95  96
ENDBRANCH  63  88
ENDBRANCH  37  38
ENDBRANCH  29  32
ENDBRANCH  27  28
ENDBRANCH  26  27
ENDBRANCH   1  26
TORSDOF 17
ENDMDL
MODEL 3
REMARK VINA RESULT:     -12.5      0.880      2.233
REMARK SMILES C[C@@H]1C(C(=O)NCCCCCCNC(=O)c2ccc(-c3c4nc(c(-c5c(F)cc(S(=O)(=O)[O-])cc5F)c5ccc([nH]5)c(-c5c(F)cc(S(=O)(=O)[O-])cc5F)c5nc(c(-c6c(F)cc(S(=O)(=O)[O-])cc6F)c6ccc3[nH]6)C=C5)C=C4)cc2)=NC2=C1C(=O)C[C@H](c1ccccc1)C2
REMARK SMILES IDX 10 1 9 2 8 3 7 4 6 5 4 6 5 7 3 9 1 10 2 11 84 12 82 13 83 14
REMARK SMILES IDX 85 15 95 16 86 17 87 18 88 19 89 20 90 21 94 22 91 23 93 24
REMARK SMILES IDX 92 25 11 26 12 27 13 28 14 29 15 31 16 32 17 33 81 34 18 35
REMARK SMILES IDX 80 36 19 37 20 38 21 39 74 40 22 41 79 42 73 43 75 44 23 45
REMARK SMILES IDX 78 46 72 47 71 48 24 50 58 51 37 52 57 53 38 54 41 55 56 56
REMARK SMILES IDX 76 57 39 58 40 59 55 61 77 62 42 63 25 64 26 65 35 66 27 67
REMARK SMILES IDX 28 68 34 69 36 70 29 71 30 72 31 73 32 74 33 75 59 76 60 77
REMARK SMILES IDX 69 78 61 79 62 80 68 81 70 82 63 83 64 84 65 85 66 86 67 87
REMARK SMILES IDX 43 88 44 89 53 90 45 91 46 92 52 93 54 94 47 95 48 96 49 97
REMARK SMILES IDX 50 98 51 99
REMARK H PARENT 6 8 13 30 75 49 41 60
REMARK Flexibility Score: inf
ROOT
ATOM      1  C   UNL A   1      38.249  23.599  26.160  1.00  0.00     0.002 C 
ENDROOT
BRANCH   1   2
ATOM      2  C   UNL A   1      36.875  23.644  25.483  1.00  0.00     0.002 C 
BRANCH   2   3
ATOM      3  C   UNL A   1      35.647  23.198  26.271  1.00  0.00     0.021 C 
BRANCH   3   4
ATOM      4  C   UNL A   1      34.248  23.404  25.692  1.00  0.00     0.116 C 
BRANCH   4   5
ATOM      5  N   UNL A   1      33.205  23.915  26.558  1.00  0.00    -0.351 N 
ATOM      6  C   UNL A   1      32.472  25.092  26.433  1.00  0.00     0.266 C 
ATOM      7  O   UNL A   1      31.391  25.192  27.005  1.00  0.00    -0.268 OA
ATOM      8  H   UNL A   1      32.985  23.357  27.338  1.00  0.00     0.163 HD
BRANCH   6   9
ATOM      9  C   UNL A   1      33.048  26.322  25.724  1.00  0.00     0.113 C 
ATOM     10  C   UNL A   1      33.771  28.416  26.877  1.00  0.00     0.020 C 
ATOM     11  C   UNL A   1      32.672  27.741  26.063  1.00  0.00     0.076 C 
ATOM     12  C   UNL A   1      32.725  28.136  24.626  1.00  0.00     0.026 C 
ATOM     13  N   UNL A   1      33.843  26.211  24.686  1.00  0.00    -0.251 NA
ATOM     14  C   UNL A   1      33.598  27.366  23.968  1.00  0.00     0.049 C 
ATOM     15  C   UNL A   1      31.520  28.530  23.864  1.00  0.00     0.161 C 
ATOM     16  C   UNL A   1      33.635  27.368  22.466  1.00  0.00     0.065 C 
ATOM     17  O   UNL A   1      30.748  29.341  24.372  1.00  0.00    -0.294 OA
ATOM     18  C   UNL A   1      31.189  27.807  22.540  1.00  0.00     0.089 C 
ATOM     19  C   UNL A   1      32.276  26.834  21.970  1.00  0.00     0.033 C 
BRANCH  19  20
ATOM     20  C   UNL A   1      32.094  25.327  22.258  1.00  0.00    -0.044 A 
ATOM     21  C   UNL A   1      33.035  24.382  21.791  1.00  0.00     0.004 A 
ATOM     22  C   UNL A   1      31.013  24.824  22.993  1.00  0.00     0.004 A 
ATOM     23  C   UNL A   1      33.011  23.047  22.199  1.00  0.00     0.000 A 
ATOM     24  C   UNL A   1      30.968  23.475  23.375  1.00  0.00     0.000 A 
ATOM     25  C   UNL A   1      31.986  22.598  23.013  1.00  0.00     0.000 A 
ENDBRANCH  19  20
ENDBRANCH   6   9
ENDBRANCH   4   5
ENDBRANCH   3   4
ENDBRANCH   2   3
ENDBRANCH   1   2
BRANCH   1  26
ATOM     26  C   UNL A   1      39.020  22.273  26.170  1.00  0.00     0.021 C 
BRANCH  26  27
ATOM     27  C   UNL A   1      40.304  22.266  26.986  1.00  0.00     0.116 C 
BRANCH  27  28
ATOM     28  N   UNL A   1      41.519  22.080  26.185  1.00  0.00    -0.352 N 
ATOM     29  C   UNL A   1      42.317  23.063  25.627  1.00  0.00     0.251 C 
ATOM     30  H   UNL A   1      41.798  21.150  26.026  1.00  0.00     0.163 HD
ATOM     31  O   UNL A   1      43.067  22.803  24.680  1.00  0.00    -0.269 OA
BRANCH  29  32
ATOM     32  C   UNL A   1      42.274  24.424  26.191  1.00  0.00     0.039 A 
ATOM     33  C   UNL A   1      41.475  25.443  25.661  1.00  0.00     0.014 A 
ATOM     34  C   UNL A   1      43.058  24.657  27.315  1.00  0.00     0.014 A 
ATOM     35  C   UNL A   1      41.427  26.671  26.322  1.00  0.00     0.010 A 
ATOM     36  C   UNL A   1      42.849  25.774  28.071  1.00  0.00     0.010 A 
ATOM     37  C   UNL A   1      42.112  26.820  27.538  1.00  0.00    -0.014 A 
BRANCH  37  38
ATOM     38  C   UNL A   1      41.986  28.016  28.365  1.00  0.00     0.031 A 
ATOM     39  C   UNL A   1      43.118  28.961  28.178  1.00  0.00     0.074 A 
ATOM     40  C   UNL A   1      40.819  28.344  28.971  1.00  0.00     0.049 A 
ATOM     41  N   UNL A   1      44.090  29.210  28.992  1.00  0.00    -0.248 NA
ATOM     42  C   UNL A   1      43.321  29.542  26.835  1.00  0.00     0.031 C 
ATOM     43  C   UNL A   1      39.535  27.628  28.868  1.00  0.00     0.029 A 
ATOM     44  N   UNL A   1      40.475  29.446  29.699  1.00  0.00    -0.354 N 
ATOM     45  C   UNL A   1      44.819  30.229  28.380  1.00  0.00     0.074 A 
ATOM     46  C   UNL A   1      44.493  30.164  26.984  1.00  0.00     0.031 C 
ATOM     47  C   UNL A   1      38.526  28.427  29.277  1.00  0.00     0.029 A 
ATOM     48  C   UNL A   1      39.097  29.629  29.852  1.00  0.00     0.049 A 
ATOM     49  H   UNL A   1      41.140  30.060  30.083  1.00  0.00     0.167 HD
ATOM     50  C   UNL A   1      45.297  31.269  29.122  1.00  0.00     0.037 A 
ATOM     51  C   UNL A   1      38.469  30.695  30.412  1.00  0.00     0.037 A 
ATOM     52  C   UNL A   1      45.179  30.963  30.526  1.00  0.00     0.049 A 
ATOM     53  C   UNL A   1      39.472  31.384  31.259  1.00  0.00     0.074 A 
ATOM     54  C   UNL A   1      45.816  30.152  31.438  1.00  0.00     0.029 A 
ATOM     55  N   UNL A   1      43.951  31.283  31.044  1.00  0.00    -0.354 N 
ATOM     56  N   UNL A   1      40.021  30.834  32.309  1.00  0.00    -0.248 NA
ATOM     57  C   UNL A   1      40.173  32.544  30.721  1.00  0.00     0.031 C 
ATOM     58  C   UNL A   1      44.864  29.885  32.465  1.00  0.00     0.029 A 
ATOM     59  C   UNL A   1      43.693  30.588  32.192  1.00  0.00     0.049 A 
ATOM     60  H   UNL A   1      43.331  31.932  30.639  1.00  0.00     0.167 HD
ATOM     61  C   UNL A   1      41.321  31.302  32.300  1.00  0.00     0.074 A 
ATOM     62  C   UNL A   1      41.312  32.459  31.415  1.00  0.00     0.031 C 
ATOM     63  C   UNL A   1      42.350  30.514  32.725  1.00  0.00     0.037 A 
BRANCH  50  64
ATOM     64  C   UNL A   1      45.370  32.722  28.673  1.00  0.00     0.058 A 
ATOM     65  C   UNL A   1      46.625  33.374  28.686  1.00  0.00     0.135 A 
ATOM     66  C   UNL A   1      44.257  33.579  28.521  1.00  0.00     0.135 A 
ATOM     67  F   UNL A   1      47.759  32.668  28.825  1.00  0.00    -0.206 F 
ATOM     68  C   UNL A   1      46.756  34.764  28.625  1.00  0.00     0.059 A 
ATOM     69  C   UNL A   1      44.368  34.961  28.410  1.00  0.00     0.059 A 
ATOM     70  F   UNL A   1      42.995  33.141  28.562  1.00  0.00    -0.206 F 
ATOM     71  C   UNL A   1      45.616  35.551  28.498  1.00  0.00     0.060 A 
BRANCH  71  72
ATOM     72  S   UNL A   1      45.766  37.345  28.484  1.00  0.00     0.124 S 
ATOM     73  O   UNL A   1      47.139  37.528  28.940  1.00  0.00    -0.237 OA
ATOM     74  O   UNL A   1      45.509  37.656  27.081  1.00  0.00    -0.237 OA
ATOM     75  O   UNL A   1      44.728  37.776  29.414  1.00  0.00    -0.744 OA
ENDBRANCH  71  72
ENDBRANCH  50  64
BRANCH  51  76
ATOM     76  C   UNL A   1      37.163  31.316  30.061  1.00  0.00     0.058 A 
ATOM     77  C   UNL A   1      36.348  31.931  31.029  1.00  0.00     0.135 A 
ATOM     78  C   UNL A   1      36.830  31.576  28.717  1.00  0.00     0.135 A 
ATOM     79  F   UNL A   1      36.602  31.752  32.334  1.00  0.00    -0.206 F 
ATOM     80  C   UNL A   1      35.296  32.793  30.687  1.00  0.00     0.059 A 
ATOM     81  C   UNL A   1      35.787  32.430  28.351  1.00  0.00     0.059 A 
ATOM     82  F   UNL A   1      37.572  31.074  27.718  1.00  0.00    -0.206 F 
ATOM     83  C   UNL A   1      35.037  33.054  29.342  1.00  0.00     0.060 A 
BRANCH  83  84
ATOM     84  S   UNL A   1      33.786  34.286  28.896  1.00  0.00     0.124 S 
ATOM     85  O   UNL A   1      33.167  34.570  30.187  1.00  0.00    -0.237 OA
ATOM     86  O   UNL A   1      34.594  35.359  28.328  1.00  0.00    -0.237 OA
ATOM     87  O   UNL A   1      32.935  33.577  27.944  1.00  0.00    -0.744 OA
ENDBRANCH  83  84
ENDBRANCH  51  76
BRANCH  63  88
ATOM     88  C   UNL A   1      42.056  29.438  33.724  1.00  0.00     0.058 A 
ATOM     89  C   UNL A   1      41.764  28.099  33.423  1.00  0.00     0.135 A 
ATOM     90  C   UNL A   1      42.210  29.781  35.076  1.00  0.00     0.135 A 
ATOM     91  F   UNL A   1      41.668  27.682  32.151  1.00  0.00    -0.206 F 
ATOM     92  C   UNL A   1      41.621  27.142  34.432  1.00  0.00     0.059 A 
ATOM     93  C   UNL A   1      42.102  28.843  36.091  1.00  0.00     0.059 A 
ATOM     94  F   UNL A   1      42.530  31.041  35.416  1.00  0.00    -0.206 F 
ATOM     95  C   UNL A   1      41.799  27.525  35.764  1.00  0.00     0.060 A 
BRANCH  95  96
ATOM     96  S   UNL A   1      41.702  26.281  37.070  1.00  0.00     0.124 S 
ATOM     97  O   UNL A   1      42.868  26.602  37.885  1.00  0.00    -0.237 OA
ATOM     98  O   UNL A   1      40.405  26.565  37.678  1.00  0.00    -0.237 OA
ATOM     99  O   UNL A   1      41.777  25.016  36.344  1.00  0.00    -0.744 OA
ENDBRANCH  95  96
ENDBRANCH  63  88
ENDBRANCH  37  38
ENDBRANCH  29  32
ENDBRANCH  27  28
ENDBRANCH  26  27
ENDBRANCH   1  26
TORSDOF 17
ENDMDL
