MODEL 1
REMARK VINA RESULT:     -10.8      0.000      0.000
REMARK SMILES O=C(NCCCCCCNC(=O)c1cn2ccccc2n1)c1ccc(-c2c3nc(c(-c4c(F)cc(S(=O)(=O)[O-])cc4F)c4ccc([nH]4)c(-c4c(F)cc(S(=O)(=O)[O-])cc4F)c4nc(c(-c5c(F)cc(S(=O)(=O)[O-])cc5F)c5ccc2[nH]5)C=C4)C=C3)cc1
REMARK SMILES IDX 5 1 4 2 3 3 1 4 2 5 22 7 23 8 87 9 24 10 86 11 25 12 26 13
REMARK SMILES IDX 27 14 80 15 28 16 85 17 79 18 81 19 29 20 84 21 78 22 77 23
REMARK SMILES IDX 30 25 64 26 43 27 63 28 44 29 47 30 62 31 82 32 45 33 46 34
REMARK SMILES IDX 61 36 83 37 48 38 31 39 32 40 41 41 33 42 34 43 40 44 42 45
REMARK SMILES IDX 35 46 36 47 37 48 38 49 39 50 65 51 66 52 75 53 67 54 68 55
REMARK SMILES IDX 74 56 76 57 69 58 70 59 71 60 72 61 73 62 49 63 50 64 59 65
REMARK SMILES IDX 51 66 52 67 58 68 60 69 53 70 54 71 55 72 56 73 57 74 6 75
REMARK SMILES IDX 7 76 8 77 9 78 10 79 11 80 12 82 13 83 14 84 21 85 15 86
REMARK SMILES IDX 20 87 16 88 19 89 17 90 18 91
REMARK H PARENT 3 6 81 24 47 35 10 81
REMARK Flexibility Score: inf
ROOT
ATOM      1  C   UNL A   1      36.798  34.270  32.150  1.00  0.00     0.021 C 
ENDROOT
BRANCH   1   2
ATOM      2  C   UNL A   1      37.530  32.939  32.031  1.00  0.00     0.116 C 
BRANCH   2   3
ATOM      3  N   UNL A   1      36.624  31.803  32.019  1.00  0.00    -0.352 N 
ATOM      4  O   UNL A   1      35.855  29.777  31.401  1.00  0.00    -0.269 OA
ATOM      5  C   UNL A   1      36.795  30.564  31.450  1.00  0.00     0.251 C 
ATOM      6  H   UNL A   1      35.767  31.941  32.483  1.00  0.00     0.163 HD
BRANCH   5   7
ATOM      7  C   UNL A   1      38.108  30.190  30.876  1.00  0.00     0.039 A 
ATOM      8  C   UNL A   1      39.128  29.686  31.686  1.00  0.00     0.014 A 
ATOM      9  C   UNL A   1      38.313  30.330  29.500  1.00  0.00     0.014 A 
ATOM     10  C   UNL A   1      40.388  29.443  31.147  1.00  0.00     0.010 A 
ATOM     11  C   UNL A   1      39.556  30.012  28.946  1.00  0.00     0.010 A 
ATOM     12  C   UNL A   1      40.611  29.590  29.769  1.00  0.00    -0.014 A 
BRANCH  12  13
ATOM     13  C   UNL A   1      41.935  29.223  29.201  1.00  0.00     0.031 A 
ATOM     14  C   UNL A   1      43.052  30.225  29.115  1.00  0.00     0.074 A 
ATOM     15  C   UNL A   1      42.122  27.961  28.769  1.00  0.00     0.049 A 
ATOM     16  N   UNL A   1      44.267  30.064  28.656  1.00  0.00    -0.248 NA
ATOM     17  C   UNL A   1      42.770  31.585  29.597  1.00  0.00     0.031 C 
ATOM     18  C   UNL A   1      41.100  26.910  28.779  1.00  0.00     0.029 A 
ATOM     19  N   UNL A   1      43.227  27.344  28.245  1.00  0.00    -0.354 N 
ATOM     20  C   UNL A   1      44.890  31.299  28.774  1.00  0.00     0.074 A 
ATOM     21  C   UNL A   1      43.910  32.210  29.331  1.00  0.00     0.031 C 
ATOM     22  C   UNL A   1      41.635  25.772  28.314  1.00  0.00     0.029 A 
ATOM     23  C   UNL A   1      43.018  26.024  27.923  1.00  0.00     0.049 A 
ATOM     24  H   UNL A   1      44.089  27.801  28.111  1.00  0.00     0.167 HD
ATOM     25  C   UNL A   1      46.163  31.641  28.455  1.00  0.00     0.037 A 
ATOM     26  C   UNL A   1      43.838  25.118  27.358  1.00  0.00     0.037 A 
ATOM     27  C   UNL A   1      47.134  30.723  27.912  1.00  0.00     0.049 A 
ATOM     28  C   UNL A   1      45.241  25.521  27.011  1.00  0.00     0.074 A 
ATOM     29  C   UNL A   1      48.462  30.961  27.599  1.00  0.00     0.029 A 
ATOM     30  N   UNL A   1      46.882  29.396  27.593  1.00  0.00    -0.354 N 
ATOM     31  N   UNL A   1      45.826  26.683  27.175  1.00  0.00    -0.248 NA
ATOM     32  C   UNL A   1      46.094  24.494  26.401  1.00  0.00     0.031 C 
ATOM     33  C   UNL A   1      49.000  29.790  27.054  1.00  0.00     0.029 A 
ATOM     34  C   UNL A   1      48.021  28.809  27.067  1.00  0.00     0.049 A 
ATOM     35  H   UNL A   1      46.020  28.939  27.722  1.00  0.00     0.167 HD
ATOM     36  C   UNL A   1      47.121  26.526  26.697  1.00  0.00     0.074 A 
ATOM     37  C   UNL A   1      47.239  25.150  26.256  1.00  0.00     0.031 C 
ATOM     38  C   UNL A   1      48.120  27.439  26.627  1.00  0.00     0.037 A 
BRANCH  25  39
ATOM     39  C   UNL A   1      46.577  33.071  28.667  1.00  0.00     0.058 A 
ATOM     40  C   UNL A   1      47.145  33.504  29.875  1.00  0.00     0.135 A 
ATOM     41  C   UNL A   1      46.438  34.014  27.635  1.00  0.00     0.135 A 
ATOM     42  F   UNL A   1      47.291  32.649  30.900  1.00  0.00    -0.206 F 
ATOM     43  C   UNL A   1      47.534  34.828  30.063  1.00  0.00     0.059 A 
ATOM     44  C   UNL A   1      46.839  35.338  27.793  1.00  0.00     0.059 A 
ATOM     45  F   UNL A   1      45.903  33.653  26.458  1.00  0.00    -0.206 F 
ATOM     46  C   UNL A   1      47.372  35.738  29.017  1.00  0.00     0.060 A 
BRANCH  46  47
ATOM     47  S   UNL A   1      47.870  37.453  29.280  1.00  0.00     0.124 S 
ATOM     48  O   UNL A   1      48.951  37.593  28.308  1.00  0.00    -0.237 OA
ATOM     49  O   UNL A   1      46.646  38.188  28.973  1.00  0.00    -0.237 OA
ATOM     50  O   UNL A   1      48.278  37.480  30.681  1.00  0.00    -0.744 OA
ENDBRANCH  46  47
ENDBRANCH  25  39
BRANCH  26  51
ATOM     51  C   UNL A   1      43.335  23.748  27.087  1.00  0.00     0.058 A 
ATOM     52  C   UNL A   1      42.964  23.354  25.794  1.00  0.00     0.135 A 
ATOM     53  C   UNL A   1      43.265  22.789  28.111  1.00  0.00     0.135 A 
ATOM     54  F   UNL A   1      43.010  24.237  24.785  1.00  0.00    -0.206 F 
ATOM     55  C   UNL A   1      42.539  22.058  25.523  1.00  0.00     0.059 A 
ATOM     56  C   UNL A   1      42.868  21.481  27.860  1.00  0.00     0.059 A 
ATOM     57  F   UNL A   1      43.629  23.114  29.361  1.00  0.00    -0.206 F 
ATOM     58  C   UNL A   1      42.500  21.126  26.563  1.00  0.00     0.060 A 
BRANCH  58  59
ATOM     59  S   UNL A   1      42.017  19.426  26.190  1.00  0.00     0.124 S 
ATOM     60  O   UNL A   1      40.576  19.562  26.021  1.00  0.00    -0.237 OA
ATOM     61  O   UNL A   1      42.779  19.149  24.976  1.00  0.00    -0.237 OA
ATOM     62  O   UNL A   1      42.449  18.689  27.373  1.00  0.00    -0.744 OA
ENDBRANCH  58  59
ENDBRANCH  26  51
BRANCH  38  63
ATOM     63  C   UNL A   1      49.433  26.974  26.065  1.00  0.00     0.058 A 
ATOM     64  C   UNL A   1      49.757  27.154  24.712  1.00  0.00     0.135 A 
ATOM     65  C   UNL A   1      50.392  26.375  26.898  1.00  0.00     0.135 A 
ATOM     66  F   UNL A   1      48.870  27.712  23.873  1.00  0.00    -0.206 F 
ATOM     67  C   UNL A   1      50.981  26.736  24.197  1.00  0.00     0.059 A 
ATOM     68  C   UNL A   1      51.630  25.971  26.409  1.00  0.00     0.059 A 
ATOM     69  F   UNL A   1      50.133  26.187  28.201  1.00  0.00    -0.206 F 
ATOM     70  C   UNL A   1      51.910  26.146  25.054  1.00  0.00     0.060 A 
BRANCH  70  71
ATOM     71  S   UNL A   1      53.506  25.634  24.383  1.00  0.00     0.124 S 
ATOM     72  O   UNL A   1      54.409  26.598  25.004  1.00  0.00    -0.237 OA
ATOM     73  O   UNL A   1      53.622  24.259  24.862  1.00  0.00    -0.237 OA
ATOM     74  O   UNL A   1      53.329  25.776  22.941  1.00  0.00    -0.744 OA
ENDBRANCH  70  71
ENDBRANCH  38  63
ENDBRANCH  12  13
ENDBRANCH   5   7
ENDBRANCH   2   3
ENDBRANCH   1   2
BRANCH   1  75
ATOM     75  C   UNL A   1      36.269  34.602  33.545  1.00  0.00     0.002 C 
BRANCH  75  76
ATOM     76  C   UNL A   1      34.797  35.022  33.613  1.00  0.00     0.002 C 
BRANCH  76  77
ATOM     77  C   UNL A   1      34.379  36.145  32.660  1.00  0.00     0.021 C 
BRANCH  77  78
ATOM     78  C   UNL A   1      33.100  35.886  31.865  1.00  0.00     0.116 C 
BRANCH  78  79
ATOM     79  N   UNL A   1      32.977  36.776  30.724  1.00  0.00    -0.351 N 
ATOM     80  C   UNL A   1      33.307  36.551  29.410  1.00  0.00     0.271 C 
ATOM     81  H   UNL A   1      32.605  37.667  30.920  1.00  0.00     0.163 HD
ATOM     82  O   UNL A   1      33.301  37.511  28.630  1.00  0.00    -0.267 OA
BRANCH  80  83
ATOM     83  C   UNL A   1      33.638  35.194  28.984  1.00  0.00     0.147 A 
ATOM     84  C   UNL A   1      34.872  34.570  29.083  1.00  0.00     0.127 A 
ATOM     85  N   UNL A   1      32.711  34.323  28.434  1.00  0.00    -0.223 NA
ATOM     86  N   UNL A   1      34.713  33.333  28.520  1.00  0.00    -0.306 N 
ATOM     87  C   UNL A   1      33.378  33.226  28.150  1.00  0.00     0.137 A 
ATOM     88  C   UNL A   1      35.655  32.329  28.309  1.00  0.00     0.093 A 
ATOM     89  C   UNL A   1      32.971  32.008  27.537  1.00  0.00     0.048 A 
ATOM     90  C   UNL A   1      35.270  31.185  27.718  1.00  0.00     0.018 A 
ATOM     91  C   UNL A   1      33.876  31.030  27.327  1.00  0.00     0.005 A 
ENDBRANCH  80  83
ENDBRANCH  78  79
ENDBRANCH  77  78
ENDBRANCH  76  77
ENDBRANCH  75  76
ENDBRANCH   1  75
TORSDOF 16
ENDMDL
MODEL 2
REMARK VINA RESULT:     -10.7      6.130     14.055
REMARK SMILES O=C(NCCCCCCNC(=O)c1cn2ccccc2n1)c1ccc(-c2c3nc(c(-c4c(F)cc(S(=O)(=O)[O-])cc4F)c4ccc([nH]4)c(-c4c(F)cc(S(=O)(=O)[O-])cc4F)c4nc(c(-c5c(F)cc(S(=O)(=O)[O-])cc5F)c5ccc2[nH]5)C=C4)C=C3)cc1
REMARK SMILES IDX 5 1 4 2 3 3 1 4 2 5 22 7 23 8 87 9 24 10 86 11 25 12 26 13
REMARK SMILES IDX 27 14 80 15 28 16 85 17 79 18 81 19 29 20 84 21 78 22 77 23
REMARK SMILES IDX 30 25 64 26 43 27 63 28 44 29 47 30 62 31 82 32 45 33 46 34
REMARK SMILES IDX 61 36 83 37 48 38 31 39 32 40 41 41 33 42 34 43 40 44 42 45
REMARK SMILES IDX 35 46 36 47 37 48 38 49 39 50 65 51 66 52 75 53 67 54 68 55
REMARK SMILES IDX 74 56 76 57 69 58 70 59 71 60 72 61 73 62 49 63 50 64 59 65
REMARK SMILES IDX 51 66 52 67 58 68 60 69 53 70 54 71 55 72 56 73 57 74 6 75
REMARK SMILES IDX 7 76 8 77 9 78 10 79 11 80 12 82 13 83 14 84 21 85 15 86
REMARK SMILES IDX 20 87 16 88 19 89 17 90 18 91
REMARK H PARENT 3 6 81 24 47 35 10 81
REMARK Flexibility Score: inf
ROOT
ATOM      1  C   UNL A   1      42.453  22.371  28.547  1.00  0.00     0.021 C 
ENDROOT
BRANCH   1   2
ATOM      2  C   UNL A   1      41.159  22.826  27.884  1.00  0.00     0.116 C 
BRANCH   2   3
ATOM      3  N   UNL A   1      41.390  23.542  26.641  1.00  0.00    -0.352 N 
ATOM      4  O   UNL A   1      41.422  25.314  25.249  1.00  0.00    -0.269 OA
ATOM      5  C   UNL A   1      41.360  24.894  26.400  1.00  0.00     0.251 C 
ATOM      6  H   UNL A   1      41.598  22.978  25.861  1.00  0.00     0.163 HD
BRANCH   5   7
ATOM      7  C   UNL A   1      41.226  25.842  27.531  1.00  0.00     0.039 A 
ATOM      8  C   UNL A   1      40.096  25.823  28.352  1.00  0.00     0.014 A 
ATOM      9  C   UNL A   1      42.257  26.752  27.780  1.00  0.00     0.014 A 
ATOM     10  C   UNL A   1      39.940  26.791  29.340  1.00  0.00     0.010 A 
ATOM     11  C   UNL A   1      42.133  27.675  28.823  1.00  0.00     0.010 A 
ATOM     12  C   UNL A   1      40.963  27.718  29.595  1.00  0.00    -0.014 A 
BRANCH  12  13
ATOM     13  C   UNL A   1      40.816  28.674  30.724  1.00  0.00     0.031 A 
ATOM     14  C   UNL A   1      41.722  28.613  31.921  1.00  0.00     0.074 A 
ATOM     15  C   UNL A   1      39.854  29.614  30.649  1.00  0.00     0.049 A 
ATOM     16  N   UNL A   1      41.732  29.377  32.985  1.00  0.00    -0.248 NA
ATOM     17  C   UNL A   1      42.742  27.554  31.936  1.00  0.00     0.031 C 
ATOM     18  C   UNL A   1      38.899  29.753  29.545  1.00  0.00     0.029 A 
ATOM     19  N   UNL A   1      39.520  30.630  31.506  1.00  0.00    -0.354 N 
ATOM     20  C   UNL A   1      42.741  28.885  33.802  1.00  0.00     0.074 A 
ATOM     21  C   UNL A   1      43.310  27.739  33.121  1.00  0.00     0.031 C 
ATOM     22  C   UNL A   1      38.109  30.810  29.778  1.00  0.00     0.029 A 
ATOM     23  C   UNL A   1      38.463  31.392  31.069  1.00  0.00     0.049 A 
ATOM     24  H   UNL A   1      39.991  30.798  32.354  1.00  0.00     0.167 HD
ATOM     25  C   UNL A   1      43.159  29.349  35.005  1.00  0.00     0.037 A 
ATOM     26  C   UNL A   1      37.833  32.431  31.646  1.00  0.00     0.037 A 
ATOM     27  C   UNL A   1      42.593  30.498  35.669  1.00  0.00     0.049 A 
ATOM     28  C   UNL A   1      38.311  32.925  32.979  1.00  0.00     0.074 A 
ATOM     29  C   UNL A   1      42.977  31.075  36.868  1.00  0.00     0.029 A 
ATOM     30  N   UNL A   1      41.519  31.239  35.198  1.00  0.00    -0.354 N 
ATOM     31  N   UNL A   1      39.299  32.475  33.716  1.00  0.00    -0.248 NA
ATOM     32  C   UNL A   1      37.591  34.064  33.563  1.00  0.00     0.031 C 
ATOM     33  C   UNL A   1      42.110  32.139  37.140  1.00  0.00     0.029 A 
ATOM     34  C   UNL A   1      41.212  32.253  36.090  1.00  0.00     0.049 A 
ATOM     35  H   UNL A   1      41.044  31.069  34.352  1.00  0.00     0.167 HD
ATOM     36  C   UNL A   1      39.326  33.281  34.846  1.00  0.00     0.074 A 
ATOM     37  C   UNL A   1      38.269  34.260  34.687  1.00  0.00     0.031 C 
ATOM     38  C   UNL A   1      40.151  33.215  35.920  1.00  0.00     0.037 A 
BRANCH  25  39
ATOM     39  C   UNL A   1      44.270  28.607  35.694  1.00  0.00     0.058 A 
ATOM     40  C   UNL A   1      44.014  27.546  36.577  1.00  0.00     0.135 A 
ATOM     41  C   UNL A   1      45.612  28.936  35.442  1.00  0.00     0.135 A 
ATOM     42  F   UNL A   1      42.750  27.196  36.865  1.00  0.00    -0.206 F 
ATOM     43  C   UNL A   1      45.047  26.856  37.207  1.00  0.00     0.059 A 
ATOM     44  C   UNL A   1      46.662  28.247  36.043  1.00  0.00     0.059 A 
ATOM     45  F   UNL A   1      45.915  29.941  34.604  1.00  0.00    -0.206 F 
ATOM     46  C   UNL A   1      46.368  27.219  36.937  1.00  0.00     0.060 A 
BRANCH  46  47
ATOM     47  S   UNL A   1      47.696  26.324  37.770  1.00  0.00     0.124 S 
ATOM     48  O   UNL A   1      48.626  26.096  36.668  1.00  0.00    -0.237 OA
ATOM     49  O   UNL A   1      48.137  27.282  38.780  1.00  0.00    -0.237 OA
ATOM     50  O   UNL A   1      47.032  25.132  38.289  1.00  0.00    -0.744 OA
ENDBRANCH  46  47
ENDBRANCH  25  39
BRANCH  26  51
ATOM     51  C   UNL A   1      36.678  33.059  30.955  1.00  0.00     0.058 A 
ATOM     52  C   UNL A   1      35.368  32.873  31.417  1.00  0.00     0.135 A 
ATOM     53  C   UNL A   1      36.871  33.902  29.848  1.00  0.00     0.135 A 
ATOM     54  F   UNL A   1      35.135  32.074  32.469  1.00  0.00    -0.206 F 
ATOM     55  C   UNL A   1      34.286  33.498  30.806  1.00  0.00     0.059 A 
ATOM     56  C   UNL A   1      35.808  34.557  29.236  1.00  0.00     0.059 A 
ATOM     57  F   UNL A   1      38.109  34.126  29.382  1.00  0.00    -0.206 F 
ATOM     58  C   UNL A   1      34.518  34.343  29.718  1.00  0.00     0.060 A 
BRANCH  58  59
ATOM     59  S   UNL A   1      33.118  35.208  28.975  1.00  0.00     0.124 S 
ATOM     60  O   UNL A   1      32.273  35.450  30.137  1.00  0.00    -0.237 OA
ATOM     61  O   UNL A   1      33.756  36.386  28.394  1.00  0.00    -0.237 OA
ATOM     62  O   UNL A   1      32.604  34.243  28.008  1.00  0.00    -0.744 OA
ENDBRANCH  58  59
ENDBRANCH  26  51
BRANCH  38  63
ATOM     63  C   UNL A   1      39.950  34.239  37.000  1.00  0.00     0.058 A 
ATOM     64  C   UNL A   1      40.499  35.527  36.902  1.00  0.00     0.135 A 
ATOM     65  C   UNL A   1      39.170  33.941  38.128  1.00  0.00     0.135 A 
ATOM     66  F   UNL A   1      41.261  35.858  35.847  1.00  0.00    -0.206 F 
ATOM     67  C   UNL A   1      40.299  36.479  37.897  1.00  0.00     0.059 A 
ATOM     68  C   UNL A   1      38.938  34.885  39.123  1.00  0.00     0.059 A 
ATOM     69  F   UNL A   1      38.617  32.725  38.266  1.00  0.00    -0.206 F 
ATOM     70  C   UNL A   1      39.516  36.148  39.004  1.00  0.00     0.060 A 
BRANCH  70  71
ATOM     71  S   UNL A   1      39.238  37.399  40.275  1.00  0.00     0.124 S 
ATOM     72  O   UNL A   1      40.592  37.889  40.507  1.00  0.00    -0.237 OA
ATOM     73  O   UNL A   1      38.333  38.330  39.607  1.00  0.00    -0.237 OA
ATOM     74  O   UNL A   1      38.647  36.640  41.373  1.00  0.00    -0.744 OA
ENDBRANCH  70  71
ENDBRANCH  38  63
ENDBRANCH  12  13
ENDBRANCH   5   7
ENDBRANCH   2   3
ENDBRANCH   1   2
BRANCH   1  75
ATOM     75  C   UNL A   1      43.260  23.475  29.230  1.00  0.00     0.002 C 
BRANCH  75  76
ATOM     76  C   UNL A   1      44.776  23.418  29.013  1.00  0.00     0.002 C 
BRANCH  76  77
ATOM     77  C   UNL A   1      45.375  24.559  28.184  1.00  0.00     0.021 C 
BRANCH  77  78
ATOM     78  C   UNL A   1      46.750  24.278  27.582  1.00  0.00     0.116 C 
BRANCH  78  79
ATOM     79  N   UNL A   1      46.851  24.741  26.210  1.00  0.00    -0.351 N 
ATOM     80  C   UNL A   1      46.564  24.071  25.046  1.00  0.00     0.271 C 
ATOM     81  H   UNL A   1      47.171  25.666  26.098  1.00  0.00     0.163 HD
ATOM     82  O   UNL A   1      46.902  24.586  23.973  1.00  0.00    -0.267 OA
BRANCH  80  83
ATOM     83  C   UNL A   1      45.865  22.791  25.118  1.00  0.00     0.147 A 
ATOM     84  C   UNL A   1      44.503  22.597  25.287  1.00  0.00     0.127 A 
ATOM     85  N   UNL A   1      46.504  21.568  24.988  1.00  0.00    -0.223 NA
ATOM     86  N   UNL A   1      44.321  21.241  25.336  1.00  0.00    -0.306 N 
ATOM     87  C   UNL A   1      45.567  20.659  25.139  1.00  0.00     0.137 A 
ATOM     88  C   UNL A   1      43.154  20.513  25.552  1.00  0.00     0.093 A 
ATOM     89  C   UNL A   1      45.626  19.236  25.147  1.00  0.00     0.048 A 
ATOM     90  C   UNL A   1      43.215  19.170  25.571  1.00  0.00     0.018 A 
ATOM     91  C   UNL A   1      44.502  18.522  25.356  1.00  0.00     0.005 A 
ENDBRANCH  80  83
ENDBRANCH  78  79
ENDBRANCH  77  78
ENDBRANCH  76  77
ENDBRANCH  75  76
ENDBRANCH   1  75
TORSDOF 16
ENDMDL
MODEL 3
REMARK VINA RESULT:     -10.7      3.708      5.459
REMARK SMILES O=C(NCCCCCCNC(=O)c1cn2ccccc2n1)c1ccc(-c2c3nc(c(-c4c(F)cc(S(=O)(=O)[O-])cc4F)c4ccc([nH]4)c(-c4c(F)cc(S(=O)(=O)[O-])cc4F)c4nc(c(-c5c(F)cc(S(=O)(=O)[O-])cc5F)c5ccc2[nH]5)C=C4)C=C3)cc1
REMARK SMILES IDX 5 1 4 2 3 3 1 4 2 5 22 7 23 8 87 9 24 10 86 11 25 12 26 13
REMARK SMILES IDX 27 14 80 15 28 16 85 17 79 18 81 19 29 20 84 21 78 22 77 23
REMARK SMILES IDX 30 25 64 26 43 27 63 28 44 29 47 30 62 31 82 32 45 33 46 34
REMARK SMILES IDX 61 36 83 37 48 38 31 39 32 40 41 41 33 42 34 43 40 44 42 45
REMARK SMILES IDX 35 46 36 47 37 48 38 49 39 50 65 51 66 52 75 53 67 54 68 55
REMARK SMILES IDX 74 56 76 57 69 58 70 59 71 60 72 61 73 62 49 63 50 64 59 65
REMARK SMILES IDX 51 66 52 67 58 68 60 69 53 70 54 71 55 72 56 73 57 74 6 75
REMARK SMILES IDX 7 76 8 77 9 78 10 79 11 80 12 82 13 83 14 84 21 85 15 86
REMARK SMILES IDX 20 87 16 88 19 89 17 90 18 91
REMARK H PARENT 3 6 81 24 47 35 10 81
REMARK Flexibility Score: inf
ROOT
ATOM      1  C   UNL A   1      33.922  29.258  26.789  1.00  0.00     0.021 C 
ENDROOT
BRANCH   1   2
ATOM      2  C   UNL A   1      35.284  29.299  27.472  1.00  0.00     0.116 C 
BRANCH   2   3
ATOM      3  N   UNL A   1      35.240  29.959  28.765  1.00  0.00    -0.352 N 
ATOM      4  O   UNL A   1      35.986  30.574  30.801  1.00  0.00    -0.269 OA
ATOM      5  C   UNL A   1      36.245  30.129  29.687  1.00  0.00     0.251 C 
ATOM      6  H   UNL A   1      34.366  30.339  29.017  1.00  0.00     0.163 HD
BRANCH   5   7
ATOM      7  C   UNL A   1      37.634  29.750  29.342  1.00  0.00     0.039 A 
ATOM      8  C   UNL A   1      38.520  29.305  30.326  1.00  0.00     0.014 A 
ATOM      9  C   UNL A   1      38.049  29.827  28.010  1.00  0.00     0.014 A 
ATOM     10  C   UNL A   1      39.851  29.057  30.001  1.00  0.00     0.010 A 
ATOM     11  C   UNL A   1      39.366  29.504  27.672  1.00  0.00     0.010 A 
ATOM     12  C   UNL A   1      40.285  29.140  28.668  1.00  0.00    -0.014 A 
BRANCH  12  13
ATOM     13  C   UNL A   1      41.684  28.770  28.332  1.00  0.00     0.031 A 
ATOM     14  C   UNL A   1      42.787  29.790  28.346  1.00  0.00     0.074 A 
ATOM     15  C   UNL A   1      41.952  27.487  28.020  1.00  0.00     0.049 A 
ATOM     16  N   UNL A   1      44.060  29.629  28.086  1.00  0.00    -0.248 NA
ATOM     17  C   UNL A   1      42.417  31.172  28.686  1.00  0.00     0.031 C 
ATOM     18  C   UNL A   1      40.955  26.414  27.949  1.00  0.00     0.029 A 
ATOM     19  N   UNL A   1      43.132  26.863  27.711  1.00  0.00    -0.354 N 
ATOM     20  C   UNL A   1      44.640  30.885  28.211  1.00  0.00     0.074 A 
ATOM     21  C   UNL A   1      43.575  31.806  28.551  1.00  0.00     0.031 C 
ATOM     22  C   UNL A   1      41.571  25.262  27.648  1.00  0.00     0.029 A 
ATOM     23  C   UNL A   1      42.993  25.521  27.452  1.00  0.00     0.049 A 
ATOM     24  H   UNL A   1      43.998  27.332  27.677  1.00  0.00     0.167 HD
ATOM     25  C   UNL A   1      45.941  31.235  28.064  1.00  0.00     0.037 A 
ATOM     26  C   UNL A   1      43.901  24.600  27.080  1.00  0.00     0.037 A 
ATOM     27  C   UNL A   1      46.997  30.308  27.737  1.00  0.00     0.049 A 
ATOM     28  C   UNL A   1      45.335  25.013  26.920  1.00  0.00     0.074 A 
ATOM     29  C   UNL A   1      48.353  30.557  27.611  1.00  0.00     0.029 A 
ATOM     30  N   UNL A   1      46.814  28.957  27.475  1.00  0.00    -0.354 N 
ATOM     31  N   UNL A   1      45.872  26.198  27.090  1.00  0.00    -0.248 NA
ATOM     32  C   UNL A   1      46.285  23.969  26.517  1.00  0.00     0.031 C 
ATOM     33  C   UNL A   1      48.984  29.366  27.234  1.00  0.00     0.029 A 
ATOM     34  C   UNL A   1      48.028  28.364  27.167  1.00  0.00     0.049 A 
ATOM     35  H   UNL A   1      45.949  28.488  27.505  1.00  0.00     0.167 HD
ATOM     36  C   UNL A   1      47.226  26.041  26.823  1.00  0.00     0.074 A 
ATOM     37  C   UNL A   1      47.429  24.642  26.500  1.00  0.00     0.031 C 
ATOM     38  C   UNL A   1      48.211  26.971  26.841  1.00  0.00     0.037 A 
BRANCH  25  39
ATOM     39  C   UNL A   1      46.299  32.685  28.237  1.00  0.00     0.058 A 
ATOM     40  C   UNL A   1      46.724  33.200  29.472  1.00  0.00     0.135 A 
ATOM     41  C   UNL A   1      46.251  33.567  27.144  1.00  0.00     0.135 A 
ATOM     42  F   UNL A   1      46.777  32.405  30.553  1.00  0.00    -0.206 F 
ATOM     43  C   UNL A   1      47.061  34.542  29.625  1.00  0.00     0.059 A 
ATOM     44  C   UNL A   1      46.604  34.908  27.269  1.00  0.00     0.059 A 
ATOM     45  F   UNL A   1      45.854  33.128  25.939  1.00  0.00    -0.206 F 
ATOM     46  C   UNL A   1      46.992  35.389  28.518  1.00  0.00     0.060 A 
BRANCH  46  47
ATOM     47  S   UNL A   1      47.421  37.129  28.734  1.00  0.00     0.124 S 
ATOM     48  O   UNL A   1      47.335  37.270  30.185  1.00  0.00    -0.237 OA
ATOM     49  O   UNL A   1      48.767  37.195  28.173  1.00  0.00    -0.237 OA
ATOM     50  O   UNL A   1      46.393  37.832  27.973  1.00  0.00    -0.744 OA
ENDBRANCH  46  47
ENDBRANCH  25  39
BRANCH  26  51
ATOM     51  C   UNL A   1      43.464  23.203  26.831  1.00  0.00     0.058 A 
ATOM     52  C   UNL A   1      43.414  22.680  25.532  1.00  0.00     0.135 A 
ATOM     53  C   UNL A   1      43.139  22.348  27.897  1.00  0.00     0.135 A 
ATOM     54  F   UNL A   1      43.712  23.461  24.483  1.00  0.00    -0.206 F 
ATOM     55  C   UNL A   1      43.053  21.357  25.295  1.00  0.00     0.059 A 
ATOM     56  C   UNL A   1      42.800  21.016  27.687  1.00  0.00     0.059 A 
ATOM     57  F   UNL A   1      43.192  22.799  29.160  1.00  0.00    -0.206 F 
ATOM     58  C   UNL A   1      42.753  20.532  26.381  1.00  0.00     0.060 A 
BRANCH  58  59
ATOM     59  S   UNL A   1      42.357  18.797  26.071  1.00  0.00     0.124 S 
ATOM     60  O   UNL A   1      42.594  18.204  27.381  1.00  0.00    -0.237 OA
ATOM     61  O   UNL A   1      40.962  18.871  25.647  1.00  0.00    -0.237 OA
ATOM     62  O   UNL A   1      43.302  18.421  25.024  1.00  0.00    -0.744 OA
ENDBRANCH  58  59
ENDBRANCH  26  51
BRANCH  38  63
ATOM     63  C   UNL A   1      49.601  26.502  26.516  1.00  0.00     0.058 A 
ATOM     64  C   UNL A   1      50.432  25.934  27.494  1.00  0.00     0.135 A 
ATOM     65  C   UNL A   1      50.093  26.589  25.204  1.00  0.00     0.135 A 
ATOM     66  F   UNL A   1      50.011  25.838  28.765  1.00  0.00    -0.206 F 
ATOM     67  C   UNL A   1      51.713  25.486  27.187  1.00  0.00     0.059 A 
ATOM     68  C   UNL A   1      51.362  26.126  24.871  1.00  0.00     0.059 A 
ATOM     69  F   UNL A   1      49.335  27.118  24.231  1.00  0.00    -0.206 F 
ATOM     70  C   UNL A   1      52.168  25.587  25.872  1.00  0.00     0.060 A 
BRANCH  70  71
ATOM     71  S   UNL A   1      53.821  24.976  25.477  1.00  0.00     0.124 S 
ATOM     72  O   UNL A   1      54.103  25.678  24.230  1.00  0.00    -0.237 OA
ATOM     73  O   UNL A   1      54.600  25.404  26.636  1.00  0.00    -0.237 OA
ATOM     74  O   UNL A   1      53.629  23.534  25.357  1.00  0.00    -0.744 OA
ENDBRANCH  70  71
ENDBRANCH  38  63
ENDBRANCH  12  13
ENDBRANCH   5   7
ENDBRANCH   2   3
ENDBRANCH   1   2
BRANCH   1  75
ATOM     75  C   UNL A   1      32.940  28.232  27.354  1.00  0.00     0.002 C 
BRANCH  75  76
ATOM     76  C   UNL A   1      32.623  27.044  26.440  1.00  0.00     0.002 C 
BRANCH  76  77
ATOM     77  C   UNL A   1      31.166  26.923  25.983  1.00  0.00     0.021 C 
BRANCH  77  78
ATOM     78  C   UNL A   1      30.760  25.551  25.447  1.00  0.00     0.116 C 
BRANCH  78  79
ATOM     79  N   UNL A   1      30.020  24.779  26.429  1.00  0.00    -0.351 N 
ATOM     80  C   UNL A   1      30.246  23.500  26.875  1.00  0.00     0.271 C 
ATOM     81  H   UNL A   1      29.245  25.237  26.831  1.00  0.00     0.163 HD
ATOM     82  O   UNL A   1      29.380  22.961  27.575  1.00  0.00    -0.267 OA
BRANCH  80  83
ATOM     83  C   UNL A   1      31.495  22.834  26.518  1.00  0.00     0.147 A 
ATOM     84  C   UNL A   1      32.749  23.078  27.055  1.00  0.00     0.127 A 
ATOM     85  N   UNL A   1      31.573  21.815  25.582  1.00  0.00    -0.223 NA
ATOM     86  N   UNL A   1      33.611  22.251  26.388  1.00  0.00    -0.306 N 
ATOM     87  C   UNL A   1      32.846  21.495  25.509  1.00  0.00     0.137 A 
ATOM     88  C   UNL A   1      34.995  22.140  26.498  1.00  0.00     0.093 A 
ATOM     89  C   UNL A   1      33.535  20.551  24.696  1.00  0.00     0.048 A 
ATOM     90  C   UNL A   1      35.644  21.256  25.720  1.00  0.00     0.018 A 
ATOM     91  C   UNL A   1      34.875  20.436  24.795  1.00  0.00     0.005 A 
ENDBRANCH  80  83
ENDBRANCH  78  79
ENDBRANCH  77  78
ENDBRANCH  76  77
ENDBRANCH  75  76
ENDBRANCH   1  75
TORSDOF 16
ENDMDL
