MODEL 1
REMARK VINA RESULT:     -11.3      0.000      0.000
REMARK SMILES O=C(NCCCCCCNC(=O)c1cccc(-c2c(F)cc(F)cc2F)c1)c1ccc(-c2c3nc(c(-c4c(F)cc(S(=O)(=O)[O-])cc4F)c4ccc([nH]4)c(-c4c(F)cc(S(=O)(=O)[O-])cc4F)c4nc(c(-c5c(F)cc(S(=O)(=O)[O-])cc5F)c5ccc2[nH]5)C=C4)C=C3)cc1
REMARK SMILES IDX 5 1 4 2 3 3 1 4 2 5 28 7 29 8 93 9 30 10 92 11 31 12 32 13
REMARK SMILES IDX 33 14 86 15 34 16 91 17 85 18 87 19 35 20 90 21 84 22 83 23
REMARK SMILES IDX 36 25 70 26 49 27 69 28 50 29 53 30 68 31 88 32 51 33 52 34
REMARK SMILES IDX 67 36 89 37 54 38 37 39 38 40 47 41 39 42 40 43 46 44 48 45
REMARK SMILES IDX 41 46 42 47 43 48 44 49 45 50 71 51 72 52 81 53 73 54 74 55
REMARK SMILES IDX 80 56 82 57 75 58 76 59 77 60 78 61 79 62 55 63 56 64 65 65
REMARK SMILES IDX 57 66 58 67 64 68 66 69 59 70 60 71 61 72 62 73 63 74 6 75
REMARK SMILES IDX 7 76 8 77 9 78 10 79 11 80 12 82 13 83 14 84 27 85 15 86
REMARK SMILES IDX 17 87 16 88 18 89 19 90 25 91 20 92 21 93 24 94 26 95 22 96
REMARK SMILES IDX 23 97
REMARK H PARENT 3 6 87 24 53 35 10 81
REMARK Flexibility Score: inf
ROOT
ATOM      1  C   UNL A   1      33.692  28.043  24.977  1.00  0.00     0.021 C 
ENDROOT
BRANCH   1   2
ATOM      2  C   UNL A   1      34.054  28.175  26.454  1.00  0.00     0.116 C 
BRANCH   2   3
ATOM      3  N   UNL A   1      33.749  29.493  26.980  1.00  0.00    -0.352 N 
ATOM      4  O   UNL A   1      33.997  31.306  28.292  1.00  0.00    -0.269 OA
ATOM      5  C   UNL A   1      34.501  30.300  27.796  1.00  0.00     0.251 C 
ATOM      6  H   UNL A   1      32.876  29.861  26.713  1.00  0.00     0.163 HD
BRANCH   5   7
ATOM      7  C   UNL A   1      35.906  29.952  28.092  1.00  0.00     0.039 A 
ATOM      8  C   UNL A   1      36.905  30.103  27.124  1.00  0.00     0.014 A 
ATOM      9  C   UNL A   1      36.231  29.498  29.372  1.00  0.00     0.014 A 
ATOM     10  C   UNL A   1      38.209  29.701  27.402  1.00  0.00     0.010 A 
ATOM     11  C   UNL A   1      37.552  29.155  29.669  1.00  0.00     0.010 A 
ATOM     12  C   UNL A   1      38.546  29.234  28.682  1.00  0.00    -0.014 A 
BRANCH  12  13
ATOM     13  C   UNL A   1      39.950  28.882  29.009  1.00  0.00     0.031 A 
ATOM     14  C   UNL A   1      40.883  29.909  29.583  1.00  0.00     0.074 A 
ATOM     15  C   UNL A   1      40.393  27.640  28.737  1.00  0.00     0.049 A 
ATOM     16  N   UNL A   1      42.165  29.814  29.830  1.00  0.00    -0.248 NA
ATOM     17  C   UNL A   1      40.303  31.220  29.911  1.00  0.00     0.031 C 
ATOM     18  C   UNL A   1      39.579  26.562  28.174  1.00  0.00     0.029 A 
ATOM     19  N   UNL A   1      41.639  27.081  28.876  1.00  0.00    -0.354 N 
ATOM     20  C   UNL A   1      42.551  31.057  30.317  1.00  0.00     0.074 A 
ATOM     21  C   UNL A   1      41.371  31.895  30.312  1.00  0.00     0.031 C 
ATOM     22  C   UNL A   1      40.345  25.475  28.009  1.00  0.00     0.029 A 
ATOM     23  C   UNL A   1      41.714  25.795  28.399  1.00  0.00     0.049 A 
ATOM     24  H   UNL A   1      42.403  27.555  29.276  1.00  0.00     0.167 HD
ATOM     25  C   UNL A   1      43.779  31.458  30.729  1.00  0.00     0.037 A 
ATOM     26  C   UNL A   1      42.772  24.974  28.253  1.00  0.00     0.037 A 
ATOM     27  C   UNL A   1      44.945  30.610  30.727  1.00  0.00     0.049 A 
ATOM     28  C   UNL A   1      44.130  25.443  28.688  1.00  0.00     0.074 A 
ATOM     29  C   UNL A   1      46.224  30.907  31.162  1.00  0.00     0.029 A 
ATOM     30  N   UNL A   1      44.977  29.306  30.253  1.00  0.00    -0.354 N 
ATOM     31  N   UNL A   1      44.473  26.606  29.187  1.00  0.00    -0.248 NA
ATOM     32  C   UNL A   1      45.243  24.496  28.545  1.00  0.00     0.031 C 
ATOM     33  C   UNL A   1      47.041  29.800  30.906  1.00  0.00     0.029 A 
ATOM     34  C   UNL A   1      46.259  28.793  30.362  1.00  0.00     0.049 A 
ATOM     35  H   UNL A   1      44.202  28.818  29.892  1.00  0.00     0.167 HD
ATOM     36  C   UNL A   1      45.836  26.524  29.441  1.00  0.00     0.074 A 
ATOM     37  C   UNL A   1      46.256  25.196  29.039  1.00  0.00     0.031 C 
ATOM     38  C   UNL A   1      46.661  27.463  29.968  1.00  0.00     0.037 A 
BRANCH  25  39
ATOM     39  C   UNL A   1      43.927  32.886  31.177  1.00  0.00     0.058 A 
ATOM     40  C   UNL A   1      44.272  33.914  30.284  1.00  0.00     0.135 A 
ATOM     41  C   UNL A   1      43.723  33.233  32.523  1.00  0.00     0.135 A 
ATOM     42  F   UNL A   1      44.488  33.640  28.987  1.00  0.00    -0.206 F 
ATOM     43  C   UNL A   1      44.461  35.223  30.718  1.00  0.00     0.059 A 
ATOM     44  C   UNL A   1      43.879  34.541  32.974  1.00  0.00     0.059 A 
ATOM     45  F   UNL A   1      43.384  32.294  33.419  1.00  0.00    -0.206 F 
ATOM     46  C   UNL A   1      44.273  35.524  32.068  1.00  0.00     0.060 A 
BRANCH  46  47
ATOM     47  S   UNL A   1      44.575  37.213  32.627  1.00  0.00     0.124 S 
ATOM     48  O   UNL A   1      45.995  37.157  32.961  1.00  0.00    -0.237 OA
ATOM     49  O   UNL A   1      44.235  38.002  31.447  1.00  0.00    -0.237 OA
ATOM     50  O   UNL A   1      43.669  37.364  33.760  1.00  0.00    -0.744 OA
ENDBRANCH  46  47
ENDBRANCH  25  39
BRANCH  26  51
ATOM     51  C   UNL A   1      42.560  23.630  27.657  1.00  0.00     0.058 A 
ATOM     52  C   UNL A   1      42.686  23.423  26.277  1.00  0.00     0.135 A 
ATOM     53  C   UNL A   1      42.327  22.509  28.471  1.00  0.00     0.135 A 
ATOM     54  F   UNL A   1      42.906  24.463  25.460  1.00  0.00    -0.206 F 
ATOM     55  C   UNL A   1      42.604  22.150  25.724  1.00  0.00     0.059 A 
ATOM     56  C   UNL A   1      42.263  21.224  27.945  1.00  0.00     0.059 A 
ATOM     57  F   UNL A   1      42.217  22.656  29.801  1.00  0.00    -0.206 F 
ATOM     58  C   UNL A   1      42.405  21.054  26.568  1.00  0.00     0.060 A 
BRANCH  58  59
ATOM     59  S   UNL A   1      42.409  19.397  25.850  1.00  0.00     0.124 S 
ATOM     60  O   UNL A   1      40.998  19.212  25.529  1.00  0.00    -0.237 OA
ATOM     61  O   UNL A   1      43.307  19.559  24.712  1.00  0.00    -0.237 OA
ATOM     62  O   UNL A   1      42.926  18.564  26.932  1.00  0.00    -0.744 OA
ENDBRANCH  58  59
ENDBRANCH  26  51
BRANCH  38  63
ATOM     63  C   UNL A   1      48.100  27.088  30.186  1.00  0.00     0.058 A 
ATOM     64  C   UNL A   1      49.101  27.433  29.267  1.00  0.00     0.135 A 
ATOM     65  C   UNL A   1      48.490  26.467  31.384  1.00  0.00     0.135 A 
ATOM     66  F   UNL A   1      48.779  28.017  28.103  1.00  0.00    -0.206 F 
ATOM     67  C   UNL A   1      50.445  27.179  29.531  1.00  0.00     0.059 A 
ATOM     68  C   UNL A   1      49.827  26.225  31.678  1.00  0.00     0.059 A 
ATOM     69  F   UNL A   1      47.568  26.122  32.297  1.00  0.00    -0.206 F 
ATOM     70  C   UNL A   1      50.798  26.585  30.745  1.00  0.00     0.060 A 
BRANCH  70  71
ATOM     71  S   UNL A   1      52.549  26.342  31.113  1.00  0.00     0.124 S 
ATOM     72  O   UNL A   1      52.516  25.115  31.902  1.00  0.00    -0.237 OA
ATOM     73  O   UNL A   1      53.136  26.223  29.782  1.00  0.00    -0.237 OA
ATOM     74  O   UNL A   1      52.914  27.550  31.847  1.00  0.00    -0.744 OA
ENDBRANCH  70  71
ENDBRANCH  38  63
ENDBRANCH  12  13
ENDBRANCH   5   7
ENDBRANCH   2   3
ENDBRANCH   1   2
BRANCH   1  75
ATOM     75  C   UNL A   1      32.974  26.746  24.600  1.00  0.00     0.002 C 
BRANCH  75  76
ATOM     76  C   UNL A   1      31.516  26.904  24.160  1.00  0.00     0.002 C 
BRANCH  76  77
ATOM     77  C   UNL A   1      30.476  26.246  25.074  1.00  0.00     0.021 C 
BRANCH  77  78
ATOM     78  C   UNL A   1      31.036  25.629  26.353  1.00  0.00     0.116 C 
BRANCH  78  79
ATOM     79  N   UNL A   1      30.458  24.322  26.626  1.00  0.00    -0.352 N 
ATOM     80  C   UNL A   1      30.696  23.125  26.003  1.00  0.00     0.251 C 
ATOM     81  H   UNL A   1      29.803  24.294  27.361  1.00  0.00     0.163 HD
ATOM     82  O   UNL A   1      29.981  22.150  26.230  1.00  0.00    -0.269 OA
BRANCH  80  83
ATOM     83  C   UNL A   1      31.808  23.007  25.039  1.00  0.00     0.040 A 
ATOM     84  C   UNL A   1      31.525  23.037  23.674  1.00  0.00     0.014 A 
ATOM     85  C   UNL A   1      33.126  22.848  25.488  1.00  0.00     0.022 A 
ATOM     86  C   UNL A   1      32.571  22.964  22.757  1.00  0.00     0.001 A 
ATOM     87  C   UNL A   1      34.194  22.797  24.580  1.00  0.00    -0.012 A 
ATOM     88  C   UNL A   1      33.891  22.856  23.207  1.00  0.00     0.009 A 
BRANCH  87  89
ATOM     89  C   UNL A   1      35.585  22.711  25.059  1.00  0.00     0.053 A 
ATOM     90  C   UNL A   1      36.302  21.504  25.023  1.00  0.00     0.136 A 
ATOM     91  C   UNL A   1      36.269  23.838  25.545  1.00  0.00     0.136 A 
ATOM     92  F   UNL A   1      35.720  20.390  24.553  1.00  0.00    -0.206 F 
ATOM     93  C   UNL A   1      37.625  21.418  25.448  1.00  0.00     0.079 A 
ATOM     94  C   UNL A   1      37.591  23.770  25.977  1.00  0.00     0.079 A 
ATOM     95  F   UNL A   1      35.648  25.026  25.611  1.00  0.00    -0.206 F 
ATOM     96  C   UNL A   1      38.257  22.556  25.924  1.00  0.00     0.129 A 
ATOM     97  F   UNL A   1      39.526  22.481  26.342  1.00  0.00    -0.207 F 
ENDBRANCH  87  89
ENDBRANCH  80  83
ENDBRANCH  78  79
ENDBRANCH  77  78
ENDBRANCH  76  77
ENDBRANCH  75  76
ENDBRANCH   1  75
TORSDOF 17
ENDMDL
MODEL 2
REMARK VINA RESULT:     -11.1      1.147      1.967
REMARK SMILES O=C(NCCCCCCNC(=O)c1cccc(-c2c(F)cc(F)cc2F)c1)c1ccc(-c2c3nc(c(-c4c(F)cc(S(=O)(=O)[O-])cc4F)c4ccc([nH]4)c(-c4c(F)cc(S(=O)(=O)[O-])cc4F)c4nc(c(-c5c(F)cc(S(=O)(=O)[O-])cc5F)c5ccc2[nH]5)C=C4)C=C3)cc1
REMARK SMILES IDX 5 1 4 2 3 3 1 4 2 5 28 7 29 8 93 9 30 10 92 11 31 12 32 13
REMARK SMILES IDX 33 14 86 15 34 16 91 17 85 18 87 19 35 20 90 21 84 22 83 23
REMARK SMILES IDX 36 25 70 26 49 27 69 28 50 29 53 30 68 31 88 32 51 33 52 34
REMARK SMILES IDX 67 36 89 37 54 38 37 39 38 40 47 41 39 42 40 43 46 44 48 45
REMARK SMILES IDX 41 46 42 47 43 48 44 49 45 50 71 51 72 52 81 53 73 54 74 55
REMARK SMILES IDX 80 56 82 57 75 58 76 59 77 60 78 61 79 62 55 63 56 64 65 65
REMARK SMILES IDX 57 66 58 67 64 68 66 69 59 70 60 71 61 72 62 73 63 74 6 75
REMARK SMILES IDX 7 76 8 77 9 78 10 79 11 80 12 82 13 83 14 84 27 85 15 86
REMARK SMILES IDX 17 87 16 88 18 89 19 90 25 91 20 92 21 93 24 94 26 95 22 96
REMARK SMILES IDX 23 97
REMARK H PARENT 3 6 87 24 53 35 10 81
REMARK Flexibility Score: inf
ROOT
ATOM      1  C   UNL A   1      33.176  27.329  26.632  1.00  0.00     0.021 C 
ENDROOT
BRANCH   1   2
ATOM      2  C   UNL A   1      34.107  28.462  26.213  1.00  0.00     0.116 C 
BRANCH   2   3
ATOM      3  N   UNL A   1      33.773  29.717  26.862  1.00  0.00    -0.352 N 
ATOM      4  O   UNL A   1      33.961  31.385  28.363  1.00  0.00    -0.269 OA
ATOM      5  C   UNL A   1      34.490  30.439  27.782  1.00  0.00     0.251 C 
ATOM      6  H   UNL A   1      32.906  30.107  26.605  1.00  0.00     0.163 HD
BRANCH   5   7
ATOM      7  C   UNL A   1      35.887  30.069  28.089  1.00  0.00     0.039 A 
ATOM      8  C   UNL A   1      36.884  30.145  27.110  1.00  0.00     0.014 A 
ATOM      9  C   UNL A   1      36.208  29.671  29.389  1.00  0.00     0.014 A 
ATOM     10  C   UNL A   1      38.178  29.723  27.402  1.00  0.00     0.010 A 
ATOM     11  C   UNL A   1      37.521  29.309  29.696  1.00  0.00     0.010 A 
ATOM     12  C   UNL A   1      38.511  29.312  28.701  1.00  0.00    -0.014 A 
BRANCH  12  13
ATOM     13  C   UNL A   1      39.908  28.939  29.039  1.00  0.00     0.031 A 
ATOM     14  C   UNL A   1      40.854  29.957  29.609  1.00  0.00     0.074 A 
ATOM     15  C   UNL A   1      40.332  27.689  28.780  1.00  0.00     0.049 A 
ATOM     16  N   UNL A   1      42.133  29.842  29.864  1.00  0.00    -0.248 NA
ATOM     17  C   UNL A   1      40.294  31.279  29.923  1.00  0.00     0.031 C 
ATOM     18  C   UNL A   1      39.503  26.620  28.221  1.00  0.00     0.029 A 
ATOM     19  N   UNL A   1      41.567  27.111  28.929  1.00  0.00    -0.354 N 
ATOM     20  C   UNL A   1      42.537  31.083  30.342  1.00  0.00     0.074 A 
ATOM     21  C   UNL A   1      41.370  31.940  30.324  1.00  0.00     0.031 C 
ATOM     22  C   UNL A   1      40.252  25.518  28.069  1.00  0.00     0.029 A 
ATOM     23  C   UNL A   1      41.624  25.819  28.464  1.00  0.00     0.049 A 
ATOM     24  H   UNL A   1      42.336  27.575  29.330  1.00  0.00     0.167 HD
ATOM     25  C   UNL A   1      43.769  31.467  30.757  1.00  0.00     0.037 A 
ATOM     26  C   UNL A   1      42.669  24.980  28.330  1.00  0.00     0.037 A 
ATOM     27  C   UNL A   1      44.921  30.601  30.769  1.00  0.00     0.049 A 
ATOM     28  C   UNL A   1      44.032  25.430  28.768  1.00  0.00     0.074 A 
ATOM     29  C   UNL A   1      46.203  30.880  31.208  1.00  0.00     0.029 A 
ATOM     30  N   UNL A   1      44.934  29.292  30.306  1.00  0.00    -0.354 N 
ATOM     31  N   UNL A   1      44.392  26.592  29.260  1.00  0.00    -0.248 NA
ATOM     32  C   UNL A   1      45.130  24.464  28.639  1.00  0.00     0.031 C 
ATOM     33  C   UNL A   1      47.002  29.758  30.965  1.00  0.00     0.029 A 
ATOM     34  C   UNL A   1      46.207  28.759  30.425  1.00  0.00     0.049 A 
ATOM     35  H   UNL A   1      44.153  28.814  29.945  1.00  0.00     0.167 HD
ATOM     36  C   UNL A   1      45.752  26.490  29.522  1.00  0.00     0.074 A 
ATOM     37  C   UNL A   1      46.152  25.152  29.133  1.00  0.00     0.031 C 
ATOM     38  C   UNL A   1      46.589  27.419  30.045  1.00  0.00     0.037 A 
BRANCH  25  39
ATOM     39  C   UNL A   1      43.938  32.897  31.194  1.00  0.00     0.058 A 
ATOM     40  C   UNL A   1      43.785  33.288  32.534  1.00  0.00     0.135 A 
ATOM     41  C   UNL A   1      44.255  33.893  30.256  1.00  0.00     0.135 A 
ATOM     42  F   UNL A   1      43.473  32.380  33.473  1.00  0.00    -0.206 F 
ATOM     43  C   UNL A   1      43.888  34.622  32.919  1.00  0.00     0.059 A 
ATOM     44  C   UNL A   1      44.391  35.230  30.623  1.00  0.00     0.059 A 
ATOM     45  F   UNL A   1      44.421  33.576  28.962  1.00  0.00    -0.206 F 
ATOM     46  C   UNL A   1      44.179  35.586  31.954  1.00  0.00     0.060 A 
BRANCH  46  47
ATOM     47  S   UNL A   1      44.255  37.318  32.458  1.00  0.00     0.124 S 
ATOM     48  O   UNL A   1      45.634  37.422  32.925  1.00  0.00    -0.237 OA
ATOM     49  O   UNL A   1      43.954  38.022  31.216  1.00  0.00    -0.237 OA
ATOM     50  O   UNL A   1      43.232  37.416  33.494  1.00  0.00    -0.744 OA
ENDBRANCH  46  47
ENDBRANCH  25  39
BRANCH  26  51
ATOM     51  C   UNL A   1      42.438  23.634  27.744  1.00  0.00     0.058 A 
ATOM     52  C   UNL A   1      42.442  23.440  26.357  1.00  0.00     0.135 A 
ATOM     53  C   UNL A   1      42.310  22.502  28.567  1.00  0.00     0.135 A 
ATOM     54  F   UNL A   1      42.559  24.491  25.532  1.00  0.00    -0.206 F 
ATOM     55  C   UNL A   1      42.342  22.169  25.803  1.00  0.00     0.059 A 
ATOM     56  C   UNL A   1      42.231  21.219  28.037  1.00  0.00     0.059 A 
ATOM     57  F   UNL A   1      42.319  22.638  29.902  1.00  0.00    -0.206 F 
ATOM     58  C   UNL A   1      42.251  21.062  26.652  1.00  0.00     0.060 A 
BRANCH  58  59
ATOM     59  S   UNL A   1      42.232  19.411  25.922  1.00  0.00     0.124 S 
ATOM     60  O   UNL A   1      42.735  18.597  27.023  1.00  0.00    -0.237 OA
ATOM     61  O   UNL A   1      40.821  19.239  25.592  1.00  0.00    -0.237 OA
ATOM     62  O   UNL A   1      43.124  19.542  24.773  1.00  0.00    -0.744 OA
ENDBRANCH  58  59
ENDBRANCH  26  51
BRANCH  38  63
ATOM     63  C   UNL A   1      48.020  27.023  30.274  1.00  0.00     0.058 A 
ATOM     64  C   UNL A   1      49.025  27.305  29.337  1.00  0.00     0.135 A 
ATOM     65  C   UNL A   1      48.403  26.446  31.496  1.00  0.00     0.135 A 
ATOM     66  F   UNL A   1      48.710  27.845  28.150  1.00  0.00    -0.206 F 
ATOM     67  C   UNL A   1      50.364  27.034  29.607  1.00  0.00     0.059 A 
ATOM     68  C   UNL A   1      49.736  26.187  31.795  1.00  0.00     0.059 A 
ATOM     69  F   UNL A   1      47.478  26.161  32.427  1.00  0.00    -0.206 F 
ATOM     70  C   UNL A   1      50.710  26.486  30.844  1.00  0.00     0.060 A 
BRANCH  70  71
ATOM     71  S   UNL A   1      52.457  26.220  31.217  1.00  0.00     0.124 S 
ATOM     72  O   UNL A   1      53.046  26.223  29.882  1.00  0.00    -0.237 OA
ATOM     73  O   UNL A   1      52.777  27.373  32.053  1.00  0.00    -0.237 OA
ATOM     74  O   UNL A   1      52.467  24.933  31.904  1.00  0.00    -0.744 OA
ENDBRANCH  70  71
ENDBRANCH  38  63
ENDBRANCH  12  13
ENDBRANCH   5   7
ENDBRANCH   2   3
ENDBRANCH   1   2
BRANCH   1  75
ATOM     75  C   UNL A   1      32.490  26.594  25.478  1.00  0.00     0.002 C 
BRANCH  75  76
ATOM     76  C   UNL A   1      31.250  27.282  24.902  1.00  0.00     0.002 C 
BRANCH  76  77
ATOM     77  C   UNL A   1      31.398  27.825  23.477  1.00  0.00     0.021 C 
BRANCH  77  78
ATOM     78  C   UNL A   1      32.787  27.664  22.865  1.00  0.00     0.116 C 
BRANCH  78  79
ATOM     79  N   UNL A   1      32.745  26.950  21.598  1.00  0.00    -0.352 N 
ATOM     80  C   UNL A   1      32.890  25.609  21.357  1.00  0.00     0.251 C 
ATOM     81  H   UNL A   1      32.591  27.509  20.802  1.00  0.00     0.163 HD
ATOM     82  O   UNL A   1      33.019  25.192  20.208  1.00  0.00    -0.269 OA
BRANCH  80  83
ATOM     83  C   UNL A   1      32.910  24.658  22.486  1.00  0.00     0.040 A 
ATOM     84  C   UNL A   1      31.707  24.106  22.926  1.00  0.00     0.014 A 
ATOM     85  C   UNL A   1      34.116  24.328  23.118  1.00  0.00     0.022 A 
ATOM     86  C   UNL A   1      31.720  23.180  23.966  1.00  0.00     0.001 A 
ATOM     87  C   UNL A   1      34.151  23.379  24.151  1.00  0.00    -0.012 A 
ATOM     88  C   UNL A   1      32.930  22.813  24.563  1.00  0.00     0.009 A 
BRANCH  87  89
ATOM     89  C   UNL A   1      35.431  22.975  24.757  1.00  0.00     0.053 A 
ATOM     90  C   UNL A   1      36.247  23.896  25.435  1.00  0.00     0.136 A 
ATOM     91  C   UNL A   1      35.883  21.645  24.713  1.00  0.00     0.136 A 
ATOM     92  F   UNL A   1      35.872  25.181  25.534  1.00  0.00    -0.206 F 
ATOM     93  C   UNL A   1      37.446  23.520  26.035  1.00  0.00     0.079 A 
ATOM     94  C   UNL A   1      37.080  21.251  25.305  1.00  0.00     0.079 A 
ATOM     95  F   UNL A   1      35.157  20.709  24.082  1.00  0.00    -0.206 F 
ATOM     96  C   UNL A   1      37.852  22.197  25.962  1.00  0.00     0.129 A 
ATOM     97  F   UNL A   1      39.007  21.828  26.529  1.00  0.00    -0.207 F 
ENDBRANCH  87  89
ENDBRANCH  80  83
ENDBRANCH  78  79
ENDBRANCH  77  78
ENDBRANCH  76  77
ENDBRANCH  75  76
ENDBRANCH   1  75
TORSDOF 17
ENDMDL
MODEL 3
REMARK VINA RESULT:     -11.0      2.271      3.050
REMARK SMILES O=C(NCCCCCCNC(=O)c1cccc(-c2c(F)cc(F)cc2F)c1)c1ccc(-c2c3nc(c(-c4c(F)cc(S(=O)(=O)[O-])cc4F)c4ccc([nH]4)c(-c4c(F)cc(S(=O)(=O)[O-])cc4F)c4nc(c(-c5c(F)cc(S(=O)(=O)[O-])cc5F)c5ccc2[nH]5)C=C4)C=C3)cc1
REMARK SMILES IDX 5 1 4 2 3 3 1 4 2 5 28 7 29 8 93 9 30 10 92 11 31 12 32 13
REMARK SMILES IDX 33 14 86 15 34 16 91 17 85 18 87 19 35 20 90 21 84 22 83 23
REMARK SMILES IDX 36 25 70 26 49 27 69 28 50 29 53 30 68 31 88 32 51 33 52 34
REMARK SMILES IDX 67 36 89 37 54 38 37 39 38 40 47 41 39 42 40 43 46 44 48 45
REMARK SMILES IDX 41 46 42 47 43 48 44 49 45 50 71 51 72 52 81 53 73 54 74 55
REMARK SMILES IDX 80 56 82 57 75 58 76 59 77 60 78 61 79 62 55 63 56 64 65 65
REMARK SMILES IDX 57 66 58 67 64 68 66 69 59 70 60 71 61 72 62 73 63 74 6 75
REMARK SMILES IDX 7 76 8 77 9 78 10 79 11 80 12 82 13 83 14 84 27 85 15 86
REMARK SMILES IDX 17 87 16 88 18 89 19 90 25 91 20 92 21 93 24 94 26 95 22 96
REMARK SMILES IDX 23 97
REMARK H PARENT 3 6 87 24 53 35 10 81
REMARK Flexibility Score: inf
ROOT
ATOM      1  C   UNL A   1      33.409  27.276  25.329  1.00  0.00     0.021 C 
ENDROOT
BRANCH   1   2
ATOM      2  C   UNL A   1      34.102  27.898  26.537  1.00  0.00     0.116 C 
BRANCH   2   3
ATOM      3  N   UNL A   1      33.816  29.316  26.666  1.00  0.00    -0.352 N 
ATOM      4  O   UNL A   1      33.982  31.390  27.524  1.00  0.00    -0.269 OA
ATOM      5  C   UNL A   1      34.483  30.276  27.384  1.00  0.00     0.251 C 
ATOM      6  H   UNL A   1      33.031  29.634  26.166  1.00  0.00     0.163 HD
BRANCH   5   7
ATOM      7  C   UNL A   1      35.788  29.967  28.003  1.00  0.00     0.039 A 
ATOM      8  C   UNL A   1      36.981  30.130  27.290  1.00  0.00     0.014 A 
ATOM      9  C   UNL A   1      35.818  29.537  29.332  1.00  0.00     0.014 A 
ATOM     10  C   UNL A   1      38.193  29.764  27.868  1.00  0.00     0.010 A 
ATOM     11  C   UNL A   1      37.041  29.231  29.932  1.00  0.00     0.010 A 
ATOM     12  C   UNL A   1      38.235  29.322  29.199  1.00  0.00    -0.014 A 
BRANCH  12  13
ATOM     13  C   UNL A   1      39.533  29.009  29.849  1.00  0.00     0.031 A 
ATOM     14  C   UNL A   1      40.047  29.855  30.978  1.00  0.00     0.074 A 
ATOM     15  C   UNL A   1      40.269  27.985  29.378  1.00  0.00     0.049 A 
ATOM     16  N   UNL A   1      41.201  29.798  31.592  1.00  0.00    -0.248 NA
ATOM     17  C   UNL A   1      39.152  30.910  31.474  1.00  0.00     0.031 C 
ATOM     18  C   UNL A   1      39.873  27.100  28.282  1.00  0.00     0.029 A 
ATOM     19  N   UNL A   1      41.511  27.530  29.743  1.00  0.00    -0.354 N 
ATOM     20  C   UNL A   1      41.184  30.824  32.529  1.00  0.00     0.074 A 
ATOM     21  C   UNL A   1      39.911  31.500  32.388  1.00  0.00     0.031 C 
ATOM     22  C   UNL A   1      40.853  26.213  28.059  1.00  0.00     0.029 A 
ATOM     23  C   UNL A   1      41.968  26.502  28.955  1.00  0.00     0.049 A 
ATOM     24  H   UNL A   1      42.024  27.904  30.495  1.00  0.00     0.167 HD
ATOM     25  C   UNL A   1      42.144  31.169  33.421  1.00  0.00     0.037 A 
ATOM     26  C   UNL A   1      43.164  25.884  28.925  1.00  0.00     0.037 A 
ATOM     27  C   UNL A   1      43.407  30.486  33.549  1.00  0.00     0.049 A 
ATOM     28  C   UNL A   1      44.227  26.296  29.902  1.00  0.00     0.074 A 
ATOM     29  C   UNL A   1      44.429  30.729  34.449  1.00  0.00     0.029 A 
ATOM     30  N   UNL A   1      43.826  29.436  32.743  1.00  0.00    -0.354 N 
ATOM     31  N   UNL A   1      44.181  27.240  30.812  1.00  0.00    -0.248 NA
ATOM     32  C   UNL A   1      45.499  25.564  29.855  1.00  0.00     0.031 C 
ATOM     33  C   UNL A   1      45.486  29.861  34.155  1.00  0.00     0.029 A 
ATOM     34  C   UNL A   1      45.102  29.038  33.108  1.00  0.00     0.049 A 
ATOM     35  H   UNL A   1      43.295  29.035  32.018  1.00  0.00     0.167 HD
ATOM     36  C   UNL A   1      45.407  27.201  31.463  1.00  0.00     0.074 A 
ATOM     37  C   UNL A   1      46.175  26.140  30.842  1.00  0.00     0.031 C 
ATOM     38  C   UNL A   1      45.851  27.970  32.488  1.00  0.00     0.037 A 
BRANCH  25  39
ATOM     39  C   UNL A   1      41.877  32.360  34.300  1.00  0.00     0.058 A 
ATOM     40  C   UNL A   1      41.113  32.261  35.474  1.00  0.00     0.135 A 
ATOM     41  C   UNL A   1      42.391  33.623  33.961  1.00  0.00     0.135 A 
ATOM     42  F   UNL A   1      40.588  31.082  35.844  1.00  0.00    -0.206 F 
ATOM     43  C   UNL A   1      40.824  33.380  36.251  1.00  0.00     0.059 A 
ATOM     44  C   UNL A   1      42.138  34.750  34.739  1.00  0.00     0.059 A 
ATOM     45  F   UNL A   1      43.134  33.775  32.854  1.00  0.00    -0.206 F 
ATOM     46  C   UNL A   1      41.332  34.622  35.868  1.00  0.00     0.060 A 
BRANCH  46  47
ATOM     47  S   UNL A   1      40.904  36.073  36.853  1.00  0.00     0.124 S 
ATOM     48  O   UNL A   1      39.748  36.586  36.124  1.00  0.00    -0.237 OA
ATOM     49  O   UNL A   1      40.618  35.493  38.161  1.00  0.00    -0.237 OA
ATOM     50  O   UNL A   1      42.106  36.897  36.785  1.00  0.00    -0.744 OA
ENDBRANCH  46  47
ENDBRANCH  25  39
BRANCH  26  51
ATOM     51  C   UNL A   1      43.396  24.817  27.918  1.00  0.00     0.058 A 
ATOM     52  C   UNL A   1      43.833  25.127  26.624  1.00  0.00     0.135 A 
ATOM     53  C   UNL A   1      43.280  23.460  28.265  1.00  0.00     0.135 A 
ATOM     54  F   UNL A   1      43.956  26.408  26.246  1.00  0.00    -0.206 F 
ATOM     55  C   UNL A   1      44.163  24.131  25.712  1.00  0.00     0.059 A 
ATOM     56  C   UNL A   1      43.625  22.447  27.378  1.00  0.00     0.059 A 
ATOM     57  F   UNL A   1      42.882  23.115  29.500  1.00  0.00    -0.206 F 
ATOM     58  C   UNL A   1      44.068  22.793  26.103  1.00  0.00     0.060 A 
BRANCH  58  59
ATOM     59  S   UNL A   1      44.603  21.514  24.946  1.00  0.00     0.124 S 
ATOM     60  O   UNL A   1      44.492  22.208  23.668  1.00  0.00    -0.237 OA
ATOM     61  O   UNL A   1      45.960  21.234  25.405  1.00  0.00    -0.237 OA
ATOM     62  O   UNL A   1      43.641  20.438  25.167  1.00  0.00    -0.744 OA
ENDBRANCH  58  59
ENDBRANCH  26  51
BRANCH  38  63
ATOM     63  C   UNL A   1      47.216  27.677  33.044  1.00  0.00     0.058 A 
ATOM     64  C   UNL A   1      47.420  26.690  34.019  1.00  0.00     0.135 A 
ATOM     65  C   UNL A   1      48.344  28.325  32.515  1.00  0.00     0.135 A 
ATOM     66  F   UNL A   1      46.374  26.051  34.565  1.00  0.00    -0.206 F 
ATOM     67  C   UNL A   1      48.701  26.350  34.447  1.00  0.00     0.059 A 
ATOM     68  C   UNL A   1      49.633  27.985  32.911  1.00  0.00     0.059 A 
ATOM     69  F   UNL A   1      48.199  29.274  31.576  1.00  0.00    -0.206 F 
ATOM     70  C   UNL A   1      49.801  26.995  33.878  1.00  0.00     0.060 A 
BRANCH  70  71
ATOM     71  S   UNL A   1      51.460  26.484  34.377  1.00  0.00     0.124 S 
ATOM     72  O   UNL A   1      52.295  27.332  33.533  1.00  0.00    -0.237 OA
ATOM     73  O   UNL A   1      51.470  26.802  35.802  1.00  0.00    -0.237 OA
ATOM     74  O   UNL A   1      51.487  25.060  34.059  1.00  0.00    -0.744 OA
ENDBRANCH  70  71
ENDBRANCH  38  63
ENDBRANCH  12  13
ENDBRANCH   5   7
ENDBRANCH   2   3
ENDBRANCH   1   2
BRANCH   1  75
ATOM     75  C   UNL A   1      32.378  26.194  25.659  1.00  0.00     0.002 C 
BRANCH  75  76
ATOM     76  C   UNL A   1      32.943  24.907  26.264  1.00  0.00     0.002 C 
BRANCH  76  77
ATOM     77  C   UNL A   1      31.914  23.973  26.909  1.00  0.00     0.021 C 
BRANCH  77  78
ATOM     78  C   UNL A   1      30.917  23.341  25.941  1.00  0.00     0.116 C 
BRANCH  78  79
ATOM     79  N   UNL A   1      31.067  21.895  25.872  1.00  0.00    -0.352 N 
ATOM     80  C   UNL A   1      31.978  21.154  25.166  1.00  0.00     0.251 C 
ATOM     81  H   UNL A   1      30.423  21.377  26.408  1.00  0.00     0.163 HD
ATOM     82  O   UNL A   1      31.847  19.936  25.066  1.00  0.00    -0.269 OA
BRANCH  80  83
ATOM     83  C   UNL A   1      33.116  21.824  24.506  1.00  0.00     0.040 A 
ATOM     84  C   UNL A   1      32.922  22.408  23.255  1.00  0.00     0.014 A 
ATOM     85  C   UNL A   1      34.376  21.856  25.118  1.00  0.00     0.022 A 
ATOM     86  C   UNL A   1      33.981  23.074  22.640  1.00  0.00     0.001 A 
ATOM     87  C   UNL A   1      35.446  22.543  24.526  1.00  0.00    -0.012 A 
ATOM     88  C   UNL A   1      35.225  23.150  23.276  1.00  0.00     0.009 A 
BRANCH  87  89
ATOM     89  C   UNL A   1      36.747  22.643  25.211  1.00  0.00     0.053 A 
ATOM     90  C   UNL A   1      37.680  21.594  25.175  1.00  0.00     0.136 A 
ATOM     91  C   UNL A   1      37.127  23.803  25.907  1.00  0.00     0.136 A 
ATOM     92  F   UNL A   1      37.394  20.462  24.513  1.00  0.00    -0.206 F 
ATOM     93  C   UNL A   1      38.922  21.688  25.796  1.00  0.00     0.079 A 
ATOM     94  C   UNL A   1      38.364  23.914  26.536  1.00  0.00     0.079 A 
ATOM     95  F   UNL A   1      36.287  24.847  25.986  1.00  0.00    -0.206 F 
ATOM     96  C   UNL A   1      39.252  22.851  26.474  1.00  0.00     0.129 A 
ATOM     97  F   UNL A   1      40.440  22.948  27.081  1.00  0.00    -0.207 F 
ENDBRANCH  87  89
ENDBRANCH  80  83
ENDBRANCH  78  79
ENDBRANCH  77  78
ENDBRANCH  76  77
ENDBRANCH  75  76
ENDBRANCH   1  75
TORSDOF 17
ENDMDL
