MODEL 1
REMARK VINA RESULT:     -11.6      0.000      0.000
REMARK SMILES N#Cc1cnc2cc(C(=O)NCCCCCCNC(=O)c3ccc(-c4c5nc(c(-c6c(F)cc(S(=O)(=O)[O-])cc6F)c6ccc([nH]6)c(-c6c(F)cc(S(=O)(=O)[O-])cc6F)c6nc(c(-c7c(F)cc(S(=O)(=O)[O-])cc7F)c7ccc4[nH]7)C=C6)C=C5)cc3)[nH]c2c1
REMARK SMILES IDX 15 1 14 2 13 3 12 4 11 5 9 6 10 7 8 9 3 10 4 11 89 12 5 13
REMARK SMILES IDX 88 14 6 15 87 16 7 17 2 19 1 20 16 21 17 22 18 23 19 24
REMARK SMILES IDX 20 26 21 27 22 28 86 29 23 30 85 31 24 32 25 33 26 34 79 35
REMARK SMILES IDX 27 36 84 37 78 38 80 39 28 40 83 41 77 42 76 43 29 45 63 46
REMARK SMILES IDX 42 47 62 48 43 49 46 50 61 51 81 52 44 53 45 54 60 56 82 57
REMARK SMILES IDX 47 58 30 59 31 60 40 61 32 62 33 63 39 64 41 65 34 66 35 67
REMARK SMILES IDX 36 68 37 69 38 70 64 71 65 72 74 73 66 74 67 75 73 76 75 77
REMARK SMILES IDX 68 78 69 79 70 80 71 81 72 82 48 83 49 84 58 85 50 86 51 87
REMARK SMILES IDX 57 88 59 89 52 90 53 91 54 92 55 93 56 94
REMARK H PARENT 11 8 87 18 18 25 80 44 46 55
REMARK Flexibility Score: inf
ROOT
ATOM      1  C   UNL A   1      40.975  21.475  27.383  1.00  0.00     0.002 C 
ENDROOT
BRANCH   1   2
ATOM      2  C   UNL A   1      39.983  21.710  26.230  1.00  0.00     0.002 C 
BRANCH   2   3
ATOM      3  C   UNL A   1      39.004  22.866  26.426  1.00  0.00     0.021 C 
BRANCH   3   4
ATOM      4  C   UNL A   1      37.594  22.591  25.920  1.00  0.00     0.116 C 
BRANCH   4   5
ATOM      5  N   UNL A   1      37.479  22.647  24.478  1.00  0.00    -0.351 N 
ATOM      6  C   UNL A   1      36.453  23.031  23.655  1.00  0.00     0.267 C 
ATOM      7  O   UNL A   1      36.654  22.955  22.441  1.00  0.00    -0.268 OA
ATOM      8  H   UNL A   1      38.288  22.354  24.000  1.00  0.00     0.163 HD
BRANCH   6   9
ATOM      9  C   UNL A   1      35.165  23.447  24.166  1.00  0.00     0.107 A 
ATOM     10  C   UNL A   1      31.205  23.402  26.441  1.00  0.00     0.072 A 
ATOM     11  C   UNL A   1      31.548  24.749  26.473  1.00  0.00     0.131 A 
ATOM     12  C   UNL A   1      32.015  22.502  25.740  1.00  0.00     0.049 A 
ATOM     13  N   UNL A   1      32.598  25.301  25.827  1.00  0.00    -0.253 NA
ATOM     14  C   UNL A   1      33.148  23.051  25.141  1.00  0.00     0.066 A 
ATOM     15  C   UNL A   1      33.390  24.417  25.183  1.00  0.00     0.089 A 
ATOM     16  N   UNL A   1      34.197  22.494  24.453  1.00  0.00    -0.349 N 
ATOM     17  C   UNL A   1      34.572  24.665  24.460  1.00  0.00     0.062 A 
ATOM     18  H   UNL A   1      34.254  21.545  24.198  1.00  0.00     0.167 HD
BRANCH  10  19
ATOM     19  C   UNL A   1      30.018  22.952  27.108  1.00  0.00     0.101 C 
ATOM     20  N   UNL A   1      29.045  22.619  27.626  1.00  0.00    -0.192 NA
ENDBRANCH  10  19
ENDBRANCH   6   9
ENDBRANCH   4   5
ENDBRANCH   3   4
ENDBRANCH   2   3
ENDBRANCH   1   2
BRANCH   1  21
ATOM     21  C   UNL A   1      41.904  20.258  27.252  1.00  0.00     0.021 C 
BRANCH  21  22
ATOM     22  C   UNL A   1      42.172  19.861  25.814  1.00  0.00     0.116 C 
BRANCH  22  23
ATOM     23  N   UNL A   1      43.600  19.685  25.532  1.00  0.00    -0.352 N 
ATOM     24  C   UNL A   1      44.525  20.661  25.200  1.00  0.00     0.251 C 
ATOM     25  H   UNL A   1      43.942  18.763  25.585  1.00  0.00     0.163 HD
ATOM     26  O   UNL A   1      45.577  20.371  24.643  1.00  0.00    -0.269 OA
BRANCH  24  27
ATOM     27  C   UNL A   1      44.222  22.054  25.578  1.00  0.00     0.039 A 
ATOM     28  C   UNL A   1      43.348  22.881  24.868  1.00  0.00     0.014 A 
ATOM     29  C   UNL A   1      44.824  22.506  26.746  1.00  0.00     0.014 A 
ATOM     30  C   UNL A   1      43.115  24.166  25.359  1.00  0.00     0.010 A 
ATOM     31  C   UNL A   1      44.329  23.604  27.376  1.00  0.00     0.010 A 
ATOM     32  C   UNL A   1      43.634  24.520  26.618  1.00  0.00    -0.014 A 
BRANCH  32  33
ATOM     33  C   UNL A   1      43.365  25.784  27.285  1.00  0.00     0.031 A 
ATOM     34  C   UNL A   1      44.371  26.813  26.929  1.00  0.00     0.074 A 
ATOM     35  C   UNL A   1      42.211  26.034  27.957  1.00  0.00     0.049 A 
ATOM     36  N   UNL A   1      45.335  27.233  27.674  1.00  0.00    -0.248 NA
ATOM     37  C   UNL A   1      44.487  27.241  25.522  1.00  0.00     0.031 C 
ATOM     38  C   UNL A   1      41.033  25.172  28.145  1.00  0.00     0.029 A 
ATOM     39  N   UNL A   1      41.824  27.179  28.594  1.00  0.00    -0.354 N 
ATOM     40  C   UNL A   1      45.995  28.200  26.926  1.00  0.00     0.074 A 
ATOM     41  C   UNL A   1      45.592  27.990  25.563  1.00  0.00     0.031 C 
ATOM     42  C   UNL A   1      39.997  25.894  28.642  1.00  0.00     0.029 A 
ATOM     43  C   UNL A   1      40.467  27.227  28.965  1.00  0.00     0.049 A 
ATOM     44  H   UNL A   1      42.447  27.918  28.779  1.00  0.00     0.167 HD
ATOM     45  C   UNL A   1      46.594  29.253  27.547  1.00  0.00     0.037 A 
ATOM     46  C   UNL A   1      39.817  28.289  29.527  1.00  0.00     0.037 A 
ATOM     47  C   UNL A   1      46.712  29.000  28.963  1.00  0.00     0.049 A 
ATOM     48  C   UNL A   1      40.881  29.140  30.134  1.00  0.00     0.074 A 
ATOM     49  C   UNL A   1      47.379  28.061  29.726  1.00  0.00     0.029 A 
ATOM     50  N   UNL A   1      45.717  29.506  29.767  1.00  0.00    -0.354 N 
ATOM     51  N   UNL A   1      41.629  28.738  31.128  1.00  0.00    -0.248 NA
ATOM     52  C   UNL A   1      41.464  30.161  29.275  1.00  0.00     0.031 C 
ATOM     53  C   UNL A   1      46.463  27.711  30.762  1.00  0.00     0.029 A 
ATOM     54  C   UNL A   1      45.336  28.526  30.650  1.00  0.00     0.049 A 
ATOM     55  H   UNL A   1      45.344  30.415  29.718  1.00  0.00     0.167 HD
ATOM     56  C   UNL A   1      42.918  29.118  30.775  1.00  0.00     0.074 A 
ATOM     57  C   UNL A   1      42.746  30.006  29.622  1.00  0.00     0.031 C 
ATOM     58  C   UNL A   1      44.012  28.439  31.232  1.00  0.00     0.037 A 
BRANCH  45  59
ATOM     59  C   UNL A   1      46.702  30.644  26.973  1.00  0.00     0.058 A 
ATOM     60  C   UNL A   1      47.956  31.289  26.984  1.00  0.00     0.135 A 
ATOM     61  C   UNL A   1      45.596  31.470  26.673  1.00  0.00     0.135 A 
ATOM     62  F   UNL A   1      49.075  30.601  27.261  1.00  0.00    -0.206 F 
ATOM     63  C   UNL A   1      48.093  32.660  26.780  1.00  0.00     0.059 A 
ATOM     64  C   UNL A   1      45.716  32.833  26.420  1.00  0.00     0.059 A 
ATOM     65  F   UNL A   1      44.336  31.021  26.699  1.00  0.00    -0.206 F 
ATOM     66  C   UNL A   1      46.964  33.426  26.507  1.00  0.00     0.060 A 
BRANCH  66  67
ATOM     67  S   UNL A   1      47.140  35.207  26.309  1.00  0.00     0.124 S 
ATOM     68  O   UNL A   1      45.820  35.581  25.817  1.00  0.00    -0.237 OA
ATOM     69  O   UNL A   1      47.460  35.626  27.669  1.00  0.00    -0.237 OA
ATOM     70  O   UNL A   1      48.231  35.332  25.347  1.00  0.00    -0.744 OA
ENDBRANCH  66  67
ENDBRANCH  45  59
BRANCH  46  71
ATOM     71  C   UNL A   1      38.472  28.856  29.175  1.00  0.00     0.058 A 
ATOM     72  C   UNL A   1      37.483  29.101  30.155  1.00  0.00     0.135 A 
ATOM     73  C   UNL A   1      38.247  29.462  27.926  1.00  0.00     0.135 A 
ATOM     74  F   UNL A   1      37.612  28.580  31.386  1.00  0.00    -0.206 F 
ATOM     75  C   UNL A   1      36.379  29.942  29.926  1.00  0.00     0.059 A 
ATOM     76  C   UNL A   1      37.158  30.302  27.673  1.00  0.00     0.059 A 
ATOM     77  F   UNL A   1      39.137  29.329  26.930  1.00  0.00    -0.206 F 
ATOM     78  C   UNL A   1      36.240  30.562  28.685  1.00  0.00     0.060 A 
BRANCH  78  79
ATOM     79  S   UNL A   1      34.928  31.789  28.425  1.00  0.00     0.124 S 
ATOM     80  O   UNL A   1      33.916  31.009  27.721  1.00  0.00    -0.237 OA
ATOM     81  O   UNL A   1      34.595  32.181  29.790  1.00  0.00    -0.237 OA
ATOM     82  O   UNL A   1      35.585  32.820  27.625  1.00  0.00    -0.744 OA
ENDBRANCH  78  79
ENDBRANCH  46  71
BRANCH  58  83
ATOM     83  C   UNL A   1      43.821  27.403  32.318  1.00  0.00     0.058 A 
ATOM     84  C   UNL A   1      43.811  26.009  32.118  1.00  0.00     0.135 A 
ATOM     85  C   UNL A   1      43.827  27.851  33.645  1.00  0.00     0.135 A 
ATOM     86  F   UNL A   1      43.894  25.489  30.886  1.00  0.00    -0.206 F 
ATOM     87  C   UNL A   1      43.778  25.106  33.189  1.00  0.00     0.059 A 
ATOM     88  C   UNL A   1      43.824  26.975  34.726  1.00  0.00     0.059 A 
ATOM     89  F   UNL A   1      43.897  29.166  33.906  1.00  0.00    -0.206 F 
ATOM     90  C   UNL A   1      43.787  25.603  34.492  1.00  0.00     0.060 A 
BRANCH  90  91
ATOM     91  S   UNL A   1      43.786  24.450  35.885  1.00  0.00     0.124 S 
ATOM     92  O   UNL A   1      44.850  23.523  35.518  1.00  0.00    -0.237 OA
ATOM     93  O   UNL A   1      44.069  25.325  37.020  1.00  0.00    -0.237 OA
ATOM     94  O   UNL A   1      42.437  23.889  35.863  1.00  0.00    -0.744 OA
ENDBRANCH  90  91
ENDBRANCH  58  83
ENDBRANCH  32  33
ENDBRANCH  24  27
ENDBRANCH  22  23
ENDBRANCH  21  22
ENDBRANCH   1  21
TORSDOF 17
ENDMDL
MODEL 2
REMARK VINA RESULT:     -11.3      2.786      3.678
REMARK SMILES N#Cc1cnc2cc(C(=O)NCCCCCCNC(=O)c3ccc(-c4c5nc(c(-c6c(F)cc(S(=O)(=O)[O-])cc6F)c6ccc([nH]6)c(-c6c(F)cc(S(=O)(=O)[O-])cc6F)c6nc(c(-c7c(F)cc(S(=O)(=O)[O-])cc7F)c7ccc4[nH]7)C=C6)C=C5)cc3)[nH]c2c1
REMARK SMILES IDX 15 1 14 2 13 3 12 4 11 5 9 6 10 7 8 9 3 10 4 11 89 12 5 13
REMARK SMILES IDX 88 14 6 15 87 16 7 17 2 19 1 20 16 21 17 22 18 23 19 24
REMARK SMILES IDX 20 26 21 27 22 28 86 29 23 30 85 31 24 32 25 33 26 34 79 35
REMARK SMILES IDX 27 36 84 37 78 38 80 39 28 40 83 41 77 42 76 43 29 45 63 46
REMARK SMILES IDX 42 47 62 48 43 49 46 50 61 51 81 52 44 53 45 54 60 56 82 57
REMARK SMILES IDX 47 58 30 59 31 60 40 61 32 62 33 63 39 64 41 65 34 66 35 67
REMARK SMILES IDX 36 68 37 69 38 70 64 71 65 72 74 73 66 74 67 75 73 76 75 77
REMARK SMILES IDX 68 78 69 79 70 80 71 81 72 82 48 83 49 84 58 85 50 86 51 87
REMARK SMILES IDX 57 88 59 89 52 90 53 91 54 92 55 93 56 94
REMARK H PARENT 11 8 87 18 18 25 80 44 46 55
REMARK Flexibility Score: inf
ROOT
ATOM      1  C   UNL A   1      38.003  22.720  25.774  1.00  0.00     0.002 C 
ENDROOT
BRANCH   1   2
ATOM      2  C   UNL A   1      36.575  22.448  25.268  1.00  0.00     0.002 C 
BRANCH   2   3
ATOM      3  C   UNL A   1      35.457  23.144  26.042  1.00  0.00     0.021 C 
BRANCH   3   4
ATOM      4  C   UNL A   1      34.413  23.825  25.166  1.00  0.00     0.116 C 
BRANCH   4   5
ATOM      5  N   UNL A   1      33.066  23.721  25.689  1.00  0.00    -0.351 N 
ATOM      6  C   UNL A   1      32.187  22.673  25.754  1.00  0.00     0.267 C 
ATOM      7  O   UNL A   1      31.085  22.900  26.256  1.00  0.00    -0.268 OA
ATOM      8  H   UNL A   1      32.718  24.561  26.069  1.00  0.00     0.163 HD
BRANCH   6   9
ATOM      9  C   UNL A   1      32.494  21.370  25.205  1.00  0.00     0.107 A 
ATOM     10  C   UNL A   1      32.929  16.839  24.826  1.00  0.00     0.072 A 
ATOM     11  C   UNL A   1      32.637  17.217  23.520  1.00  0.00     0.131 A 
ATOM     12  C   UNL A   1      33.077  17.822  25.811  1.00  0.00     0.049 A 
ATOM     13  N   UNL A   1      32.530  18.491  23.084  1.00  0.00    -0.253 NA
ATOM     14  C   UNL A   1      32.883  19.135  25.385  1.00  0.00     0.066 A 
ATOM     15  C   UNL A   1      32.641  19.428  24.050  1.00  0.00     0.089 A 
ATOM     16  N   UNL A   1      32.866  20.335  26.052  1.00  0.00    -0.349 N 
ATOM     17  C   UNL A   1      32.536  20.826  23.930  1.00  0.00     0.062 A 
ATOM     18  H   UNL A   1      33.088  20.446  27.005  1.00  0.00     0.167 HD
BRANCH  10  19
ATOM     19  C   UNL A   1      33.093  15.452  25.147  1.00  0.00     0.101 C 
ATOM     20  N   UNL A   1      33.202  14.328  25.376  1.00  0.00    -0.192 NA
ENDBRANCH  10  19
ENDBRANCH   6   9
ENDBRANCH   4   5
ENDBRANCH   3   4
ENDBRANCH   2   3
ENDBRANCH   1   2
BRANCH   1  21
ATOM     21  C   UNL A   1      38.978  21.533  25.749  1.00  0.00     0.021 C 
BRANCH  21  22
ATOM     22  C   UNL A   1      40.206  21.747  26.610  1.00  0.00     0.116 C 
BRANCH  22  23
ATOM     23  N   UNL A   1      41.443  21.813  25.825  1.00  0.00    -0.352 N 
ATOM     24  C   UNL A   1      42.225  22.927  25.567  1.00  0.00     0.251 C 
ATOM     25  H   UNL A   1      41.755  20.965  25.436  1.00  0.00     0.163 HD
ATOM     26  O   UNL A   1      43.011  22.943  24.627  1.00  0.00    -0.269 OA
BRANCH  24  27
ATOM     27  C   UNL A   1      42.112  24.075  26.486  1.00  0.00     0.039 A 
ATOM     28  C   UNL A   1      42.963  24.291  27.572  1.00  0.00     0.014 A 
ATOM     29  C   UNL A   1      41.117  24.996  26.179  1.00  0.00     0.014 A 
ATOM     30  C   UNL A   1      42.773  25.443  28.336  1.00  0.00     0.010 A 
ATOM     31  C   UNL A   1      41.170  26.245  26.710  1.00  0.00     0.010 A 
ATOM     32  C   UNL A   1      41.850  26.410  27.897  1.00  0.00    -0.014 A 
BRANCH  32  33
ATOM     33  C   UNL A   1      41.646  27.697  28.542  1.00  0.00     0.031 A 
ATOM     34  C   UNL A   1      42.734  28.649  28.213  1.00  0.00     0.074 A 
ATOM     35  C   UNL A   1      40.489  28.035  29.169  1.00  0.00     0.049 A 
ATOM     36  N   UNL A   1      43.698  29.010  28.988  1.00  0.00    -0.248 NA
ATOM     37  C   UNL A   1      42.929  29.051  26.806  1.00  0.00     0.031 C 
ATOM     38  C   UNL A   1      39.248  27.260  29.323  1.00  0.00     0.029 A 
ATOM     39  N   UNL A   1      40.161  29.212  29.780  1.00  0.00    -0.354 N 
ATOM     40  C   UNL A   1      44.450  29.919  28.255  1.00  0.00     0.074 A 
ATOM     41  C   UNL A   1      44.082  29.721  26.880  1.00  0.00     0.031 C 
ATOM     42  C   UNL A   1      38.248  28.058  29.775  1.00  0.00     0.029 A 
ATOM     43  C   UNL A   1      38.799  29.359  30.101  1.00  0.00     0.049 A 
ATOM     44  H   UNL A   1      40.828  29.908  29.981  1.00  0.00     0.167 HD
ATOM     45  C   UNL A   1      45.099  30.935  28.887  1.00  0.00     0.037 A 
ATOM     46  C   UNL A   1      38.205  30.471  30.629  1.00  0.00     0.037 A 
ATOM     47  C   UNL A   1      45.149  30.692  30.309  1.00  0.00     0.049 A 
ATOM     48  C   UNL A   1      39.304  31.253  31.266  1.00  0.00     0.074 A 
ATOM     49  C   UNL A   1      45.721  29.719  31.105  1.00  0.00     0.029 A 
ATOM     50  N   UNL A   1      44.164  31.277  31.071  1.00  0.00    -0.354 N 
ATOM     51  N   UNL A   1      39.986  30.812  32.291  1.00  0.00    -0.248 NA
ATOM     52  C   UNL A   1      39.987  32.221  30.419  1.00  0.00     0.031 C 
ATOM     53  C   UNL A   1      44.746  29.446  32.110  1.00  0.00     0.029 A 
ATOM     54  C   UNL A   1      43.683  30.336  31.950  1.00  0.00     0.049 A 
ATOM     55  H   UNL A   1      43.857  32.209  30.999  1.00  0.00     0.167 HD
ATOM     56  C   UNL A   1      41.310  31.097  31.980  1.00  0.00     0.074 A 
ATOM     57  C   UNL A   1      41.242  31.981  30.814  1.00  0.00     0.031 C 
ATOM     58  C   UNL A   1      42.337  30.349  32.483  1.00  0.00     0.037 A 
BRANCH  45  59
ATOM     59  C   UNL A   1      45.324  32.309  28.304  1.00  0.00     0.058 A 
ATOM     60  C   UNL A   1      46.647  32.764  28.127  1.00  0.00     0.135 A 
ATOM     61  C   UNL A   1      44.319  33.293  28.172  1.00  0.00     0.135 A 
ATOM     62  F   UNL A   1      47.682  31.915  28.234  1.00  0.00    -0.206 F 
ATOM     63  C   UNL A   1      46.953  34.105  27.906  1.00  0.00     0.059 A 
ATOM     64  C   UNL A   1      44.600  34.629  27.904  1.00  0.00     0.059 A 
ATOM     65  F   UNL A   1      43.025  33.031  28.385  1.00  0.00    -0.206 F 
ATOM     66  C   UNL A   1      45.921  35.032  27.804  1.00  0.00     0.060 A 
BRANCH  66  67
ATOM     67  S   UNL A   1      46.325  36.773  27.582  1.00  0.00     0.124 S 
ATOM     68  O   UNL A   1      46.427  36.870  26.131  1.00  0.00    -0.237 OA
ATOM     69  O   UNL A   1      45.169  37.425  28.189  1.00  0.00    -0.237 OA
ATOM     70  O   UNL A   1      47.579  36.923  28.314  1.00  0.00    -0.744 OA
ENDBRANCH  66  67
ENDBRANCH  45  59
BRANCH  46  71
ATOM     71  C   UNL A   1      36.916  31.126  30.223  1.00  0.00     0.058 A 
ATOM     72  C   UNL A   1      36.058  31.737  31.165  1.00  0.00     0.135 A 
ATOM     73  C   UNL A   1      36.659  31.443  28.877  1.00  0.00     0.135 A 
ATOM     74  F   UNL A   1      36.229  31.510  32.478  1.00  0.00    -0.206 F 
ATOM     75  C   UNL A   1      35.052  32.649  30.796  1.00  0.00     0.059 A 
ATOM     76  C   UNL A   1      35.667  32.347  28.485  1.00  0.00     0.059 A 
ATOM     77  F   UNL A   1      37.433  30.950  27.898  1.00  0.00    -0.206 F 
ATOM     78  C   UNL A   1      34.882  32.969  29.451  1.00  0.00     0.060 A 
BRANCH  78  79
ATOM     79  S   UNL A   1      33.718  34.275  28.968  1.00  0.00     0.124 S 
ATOM     80  O   UNL A   1      32.870  33.587  28.000  1.00  0.00    -0.237 OA
ATOM     81  O   UNL A   1      33.088  34.614  30.239  1.00  0.00    -0.237 OA
ATOM     82  O   UNL A   1      34.585  35.310  28.408  1.00  0.00    -0.744 OA
ENDBRANCH  78  79
ENDBRANCH  46  71
BRANCH  58  83
ATOM     83  C   UNL A   1      42.035  29.342  33.572  1.00  0.00     0.058 A 
ATOM     84  C   UNL A   1      41.658  28.002  33.357  1.00  0.00     0.135 A 
ATOM     85  C   UNL A   1      42.318  29.716  34.892  1.00  0.00     0.135 A 
ATOM     86  F   UNL A   1      41.457  27.533  32.118  1.00  0.00    -0.206 F 
ATOM     87  C   UNL A   1      41.540  27.088  34.412  1.00  0.00     0.059 A 
ATOM     88  C   UNL A   1      42.235  28.819  35.953  1.00  0.00     0.059 A 
ATOM     89  F   UNL A   1      42.740  30.962  35.159  1.00  0.00    -0.206 F 
ATOM     90  C   UNL A   1      41.834  27.509  35.709  1.00  0.00     0.060 A 
BRANCH  90  91
ATOM     91  S   UNL A   1      41.725  26.329  37.074  1.00  0.00     0.124 S 
ATOM     92  O   UNL A   1      40.462  26.701  37.703  1.00  0.00    -0.237 OA
ATOM     93  O   UNL A   1      41.734  25.042  36.383  1.00  0.00    -0.237 OA
ATOM     94  O   UNL A   1      42.920  26.611  37.866  1.00  0.00    -0.744 OA
ENDBRANCH  90  91
ENDBRANCH  58  83
ENDBRANCH  32  33
ENDBRANCH  24  27
ENDBRANCH  22  23
ENDBRANCH  21  22
ENDBRANCH   1  21
TORSDOF 17
ENDMDL
MODEL 3
REMARK VINA RESULT:     -11.3      1.610      2.067
REMARK SMILES N#Cc1cnc2cc(C(=O)NCCCCCCNC(=O)c3ccc(-c4c5nc(c(-c6c(F)cc(S(=O)(=O)[O-])cc6F)c6ccc([nH]6)c(-c6c(F)cc(S(=O)(=O)[O-])cc6F)c6nc(c(-c7c(F)cc(S(=O)(=O)[O-])cc7F)c7ccc4[nH]7)C=C6)C=C5)cc3)[nH]c2c1
REMARK SMILES IDX 15 1 14 2 13 3 12 4 11 5 9 6 10 7 8 9 3 10 4 11 89 12 5 13
REMARK SMILES IDX 88 14 6 15 87 16 7 17 2 19 1 20 16 21 17 22 18 23 19 24
REMARK SMILES IDX 20 26 21 27 22 28 86 29 23 30 85 31 24 32 25 33 26 34 79 35
REMARK SMILES IDX 27 36 84 37 78 38 80 39 28 40 83 41 77 42 76 43 29 45 63 46
REMARK SMILES IDX 42 47 62 48 43 49 46 50 61 51 81 52 44 53 45 54 60 56 82 57
REMARK SMILES IDX 47 58 30 59 31 60 40 61 32 62 33 63 39 64 41 65 34 66 35 67
REMARK SMILES IDX 36 68 37 69 38 70 64 71 65 72 74 73 66 74 67 75 73 76 75 77
REMARK SMILES IDX 68 78 69 79 70 80 71 81 72 82 48 83 49 84 58 85 50 86 51 87
REMARK SMILES IDX 57 88 59 89 52 90 53 91 54 92 55 93 56 94
REMARK H PARENT 11 8 87 18 18 25 80 44 46 55
REMARK Flexibility Score: inf
ROOT
ATOM      1  C   UNL A   1      41.100  21.239  27.488  1.00  0.00     0.002 C 
ENDROOT
BRANCH   1   2
ATOM      2  C   UNL A   1      40.393  21.799  26.240  1.00  0.00     0.002 C 
BRANCH   2   3
ATOM      3  C   UNL A   1      39.217  22.736  26.512  1.00  0.00     0.021 C 
BRANCH   3   4
ATOM      4  C   UNL A   1      37.925  22.347  25.804  1.00  0.00     0.116 C 
BRANCH   4   5
ATOM      5  N   UNL A   1      36.859  23.311  25.983  1.00  0.00    -0.351 N 
ATOM      6  C   UNL A   1      35.516  23.250  25.721  1.00  0.00     0.267 C 
ATOM      7  O   UNL A   1      34.852  24.257  25.974  1.00  0.00    -0.268 OA
ATOM      8  H   UNL A   1      37.155  24.170  26.362  1.00  0.00     0.163 HD
BRANCH   6   9
ATOM      9  C   UNL A   1      34.897  22.091  25.116  1.00  0.00     0.107 A 
ATOM     10  C   UNL A   1      33.364  17.828  24.530  1.00  0.00     0.072 A 
ATOM     11  C   UNL A   1      32.422  18.578  23.834  1.00  0.00     0.131 A 
ATOM     12  C   UNL A   1      34.465  18.470  25.109  1.00  0.00     0.049 A 
ATOM     13  N   UNL A   1      32.496  19.908  23.611  1.00  0.00    -0.253 NA
ATOM     14  C   UNL A   1      34.503  19.856  24.956  1.00  0.00     0.066 A 
ATOM     15  C   UNL A   1      33.544  20.521  24.204  1.00  0.00     0.089 A 
ATOM     16  N   UNL A   1      35.355  20.819  25.434  1.00  0.00    -0.349 N 
ATOM     17  C   UNL A   1      33.876  21.888  24.200  1.00  0.00     0.062 A 
ATOM     18  H   UNL A   1      36.181  20.633  25.936  1.00  0.00     0.167 HD
BRANCH  10  19
ATOM     19  C   UNL A   1      33.210  16.407  24.631  1.00  0.00     0.101 C 
ATOM     20  N   UNL A   1      33.077  15.263  24.675  1.00  0.00    -0.192 NA
ENDBRANCH  10  19
ENDBRANCH   6   9
ENDBRANCH   4   5
ENDBRANCH   3   4
ENDBRANCH   2   3
ENDBRANCH   1   2
BRANCH   1  21
ATOM     21  C   UNL A   1      42.117  20.112  27.252  1.00  0.00     0.021 C 
BRANCH  21  22
ATOM     22  C   UNL A   1      42.371  19.831  25.784  1.00  0.00     0.116 C 
BRANCH  22  23
ATOM     23  N   UNL A   1      43.795  19.665  25.478  1.00  0.00    -0.352 N 
ATOM     24  C   UNL A   1      44.709  20.647  25.135  1.00  0.00     0.251 C 
ATOM     25  H   UNL A   1      44.143  18.745  25.521  1.00  0.00     0.163 HD
ATOM     26  O   UNL A   1      45.753  20.366  24.559  1.00  0.00    -0.269 OA
BRANCH  24  27
ATOM     27  C   UNL A   1      44.404  22.037  25.523  1.00  0.00     0.039 A 
ATOM     28  C   UNL A   1      43.556  22.879  24.800  1.00  0.00     0.014 A 
ATOM     29  C   UNL A   1      44.976  22.469  26.714  1.00  0.00     0.014 A 
ATOM     30  C   UNL A   1      43.317  24.159  25.303  1.00  0.00     0.010 A 
ATOM     31  C   UNL A   1      44.470  23.562  27.345  1.00  0.00     0.010 A 
ATOM     32  C   UNL A   1      43.803  24.493  26.580  1.00  0.00    -0.014 A 
BRANCH  32  33
ATOM     33  C   UNL A   1      43.524  25.750  27.257  1.00  0.00     0.031 A 
ATOM     34  C   UNL A   1      44.521  26.789  26.910  1.00  0.00     0.074 A 
ATOM     35  C   UNL A   1      42.366  25.985  27.930  1.00  0.00     0.049 A 
ATOM     36  N   UNL A   1      45.481  27.211  27.659  1.00  0.00    -0.248 NA
ATOM     37  C   UNL A   1      44.635  27.229  25.506  1.00  0.00     0.031 C 
ATOM     38  C   UNL A   1      41.195  25.112  28.110  1.00  0.00     0.029 A 
ATOM     39  N   UNL A   1      41.970  27.122  28.575  1.00  0.00    -0.354 N 
ATOM     40  C   UNL A   1      46.134  28.189  26.919  1.00  0.00     0.074 A 
ATOM     41  C   UNL A   1      45.734  27.986  25.554  1.00  0.00     0.031 C 
ATOM     42  C   UNL A   1      40.153  25.821  28.612  1.00  0.00     0.029 A 
ATOM     43  C   UNL A   1      40.612  27.155  28.946  1.00  0.00     0.049 A 
ATOM     44  H   UNL A   1      42.587  27.864  28.767  1.00  0.00     0.167 HD
ATOM     45  C   UNL A   1      46.724  29.242  27.548  1.00  0.00     0.037 A 
ATOM     46  C   UNL A   1      39.953  28.208  29.515  1.00  0.00     0.037 A 
ATOM     47  C   UNL A   1      46.843  28.979  28.963  1.00  0.00     0.049 A 
ATOM     48  C   UNL A   1      41.010  29.063  30.130  1.00  0.00     0.074 A 
ATOM     49  C   UNL A   1      47.517  28.040  29.719  1.00  0.00     0.029 A 
ATOM     50  N   UNL A   1      45.843  29.471  29.770  1.00  0.00    -0.354 N 
ATOM     51  N   UNL A   1      41.760  28.659  31.122  1.00  0.00    -0.248 NA
ATOM     52  C   UNL A   1      41.585  30.095  29.280  1.00  0.00     0.031 C 
ATOM     53  C   UNL A   1      46.603  27.674  30.752  1.00  0.00     0.029 A 
ATOM     54  C   UNL A   1      45.469  28.481  30.645  1.00  0.00     0.049 A 
ATOM     55  H   UNL A   1      45.463  30.377  29.728  1.00  0.00     0.167 HD
ATOM     56  C   UNL A   1      43.046  29.052  30.772  1.00  0.00     0.074 A 
ATOM     57  C   UNL A   1      42.868  29.948  29.627  1.00  0.00     0.031 C 
ATOM     58  C   UNL A   1      44.146  28.378  31.225  1.00  0.00     0.037 A 
BRANCH  45  59
ATOM     59  C   UNL A   1      46.820  30.639  26.986  1.00  0.00     0.058 A 
ATOM     60  C   UNL A   1      48.068  31.296  27.010  1.00  0.00     0.135 A 
ATOM     61  C   UNL A   1      45.708  31.455  26.684  1.00  0.00     0.135 A 
ATOM     62  F   UNL A   1      49.192  30.617  27.289  1.00  0.00    -0.206 F 
ATOM     63  C   UNL A   1      48.192  32.670  26.817  1.00  0.00     0.059 A 
ATOM     64  C   UNL A   1      45.815  32.821  26.442  1.00  0.00     0.059 A 
ATOM     65  F   UNL A   1      44.453  30.993  26.699  1.00  0.00    -0.206 F 
ATOM     66  C   UNL A   1      47.057  33.426  26.542  1.00  0.00     0.060 A 
BRANCH  66  67
ATOM     67  S   UNL A   1      47.215  35.210  26.358  1.00  0.00     0.124 S 
ATOM     68  O   UNL A   1      46.023  35.535  25.584  1.00  0.00    -0.237 OA
ATOM     69  O   UNL A   1      47.217  35.652  27.749  1.00  0.00    -0.237 OA
ATOM     70  O   UNL A   1      48.486  35.365  25.655  1.00  0.00    -0.744 OA
ENDBRANCH  66  67
ENDBRANCH  45  59
BRANCH  46  71
ATOM     71  C   UNL A   1      38.604  28.767  29.167  1.00  0.00     0.058 A 
ATOM     72  C   UNL A   1      37.605  28.977  30.145  1.00  0.00     0.135 A 
ATOM     73  C   UNL A   1      38.381  29.399  27.930  1.00  0.00     0.135 A 
ATOM     74  F   UNL A   1      37.731  28.428  31.364  1.00  0.00    -0.206 F 
ATOM     75  C   UNL A   1      36.492  29.809  29.927  1.00  0.00     0.059 A 
ATOM     76  C   UNL A   1      37.283  30.232  27.690  1.00  0.00     0.059 A 
ATOM     77  F   UNL A   1      39.279  29.300  26.939  1.00  0.00    -0.206 F 
ATOM     78  C   UNL A   1      36.354  30.456  28.700  1.00  0.00     0.060 A 
BRANCH  78  79
ATOM     79  S   UNL A   1      35.030  31.673  28.459  1.00  0.00     0.124 S 
ATOM     80  O   UNL A   1      34.755  32.101  29.826  1.00  0.00    -0.237 OA
ATOM     81  O   UNL A   1      35.671  32.662  27.599  1.00  0.00    -0.237 OA
ATOM     82  O   UNL A   1      33.968  30.895  27.826  1.00  0.00    -0.744 OA
ENDBRANCH  78  79
ENDBRANCH  46  71
BRANCH  58  83
ATOM     83  C   UNL A   1      43.962  27.332  32.303  1.00  0.00     0.058 A 
ATOM     84  C   UNL A   1      43.965  25.940  32.092  1.00  0.00     0.135 A 
ATOM     85  C   UNL A   1      43.962  27.771  33.634  1.00  0.00     0.135 A 
ATOM     86  F   UNL A   1      44.055  25.430  30.856  1.00  0.00    -0.206 F 
ATOM     87  C   UNL A   1      43.939  25.029  33.156  1.00  0.00     0.059 A 
ATOM     88  C   UNL A   1      43.965  26.886  34.708  1.00  0.00     0.059 A 
ATOM     89  F   UNL A   1      44.020  29.084  33.905  1.00  0.00    -0.206 F 
ATOM     90  C   UNL A   1      43.941  25.516  34.463  1.00  0.00     0.060 A 
BRANCH  90  91
ATOM     91  S   UNL A   1      43.948  24.352  35.847  1.00  0.00     0.124 S 
ATOM     92  O   UNL A   1      43.366  23.157  35.247  1.00  0.00    -0.237 OA
ATOM     93  O   UNL A   1      45.367  24.268  36.183  1.00  0.00    -0.237 OA
ATOM     94  O   UNL A   1      43.117  25.011  36.852  1.00  0.00    -0.744 OA
ENDBRANCH  90  91
ENDBRANCH  58  83
ENDBRANCH  32  33
ENDBRANCH  24  27
ENDBRANCH  22  23
ENDBRANCH  21  22
ENDBRANCH   1  21
TORSDOF 17
ENDMDL
