MODEL 1
REMARK VINA RESULT:     -11.8      0.000      0.000
REMARK SMILES O=C(CCc1cccnc1)Nc1cccc(F)c1C(=O)NCCCCCCNC(=O)c1ccc(-c2c3nc(c(-c4c(F)cc(S(=O)(=O)[O-])cc4F)c4ccc([nH]4)c(-c4c(F)cc(S(=O)(=O)[O-])cc4F)c4nc(c(-c5c(F)cc(S(=O)(=O)[O-])cc5F)c5ccc2[nH]5)C=C4)C=C3)cc1
REMARK SMILES IDX 24 1 23 2 22 3 21 4 19 5 20 6 18 8 12 9 13 10 14 11 16 12
REMARK SMILES IDX 15 13 17 14 11 15 1 16 2 17 3 19 4 20 5 21 6 22 10 23 7 24
REMARK SMILES IDX 9 25 8 26 25 27 26 28 27 29 28 30 29 31 30 33 31 34 32 35
REMARK SMILES IDX 96 36 33 37 95 38 34 39 35 40 36 41 89 42 37 43 94 44 88 45
REMARK SMILES IDX 90 46 38 47 93 48 87 49 86 50 39 52 73 53 52 54 72 55 53 56
REMARK SMILES IDX 56 57 71 58 91 59 54 60 55 61 70 63 92 64 57 65 40 66 41 67
REMARK SMILES IDX 50 68 42 69 43 70 49 71 51 72 44 73 45 74 46 75 47 76 48 77
REMARK SMILES IDX 74 78 75 79 84 80 76 81 77 82 83 83 85 84 78 85 79 86 80 87
REMARK SMILES IDX 81 88 82 89 58 90 59 91 68 92 60 93 61 94 67 95 69 96 62 97
REMARK SMILES IDX 63 98 64 99 65 100 66 101
REMARK H PARENT 21 7 11 18 28 32 90 51 56 62
REMARK Flexibility Score: inf
ROOT
ATOM      1  C   UNL A   1      37.250  23.350  25.137  1.00  0.00     0.002 C 
ENDROOT
BRANCH   1   2
ATOM      2  C   UNL A   1      37.314  21.972  24.469  1.00  0.00     0.021 C 
BRANCH   2   3
ATOM      3  C   UNL A   1      36.427  20.849  25.018  1.00  0.00     0.116 C 
BRANCH   3   4
ATOM      4  N   UNL A   1      35.467  21.241  26.038  1.00  0.00    -0.352 N 
ATOM      5  C   UNL A   1      34.080  21.185  26.055  1.00  0.00     0.256 C 
ATOM      6  O   UNL A   1      33.539  21.350  27.146  1.00  0.00    -0.269 OA
ATOM      7  H   UNL A   1      35.870  21.609  26.857  1.00  0.00     0.163 HD
BRANCH   5   8
ATOM      8  C   UNL A   1      33.242  21.028  24.826  1.00  0.00     0.099 A 
ATOM      9  C   UNL A   1      32.915  22.127  23.990  1.00  0.00     0.056 A 
ATOM     10  C   UNL A   1      32.320  21.915  22.734  1.00  0.00     0.027 A 
ATOM     11  C   UNL A   1      31.971  20.634  22.324  1.00  0.00     0.005 A 
ATOM     12  C   UNL A   1      32.814  19.764  24.416  1.00  0.00     0.138 A 
ATOM     13  C   UNL A   1      32.204  19.560  23.175  1.00  0.00     0.040 A 
ATOM     14  F   UNL A   1      32.968  18.689  25.202  1.00  0.00    -0.206 F 
BRANCH   9  15
ATOM     15  N   UNL A   1      33.170  23.479  24.293  1.00  0.00    -0.325 N 
ATOM     16  O   UNL A   1      34.851  23.805  22.729  1.00  0.00    -0.275 OA
ATOM     17  C   UNL A   1      34.062  24.247  23.560  1.00  0.00     0.224 C 
ATOM     18  H   UNL A   1      32.699  23.894  25.052  1.00  0.00     0.169 HD
BRANCH  17  19
ATOM     19  C   UNL A   1      34.054  25.714  23.955  1.00  0.00     0.105 C 
BRANCH  19  20
ATOM     20  C   UNL A   1      32.628  26.228  24.166  1.00  0.00     0.047 C 
BRANCH  20  21
ATOM     21  C   UNL A   1      32.402  27.232  25.274  1.00  0.00    -0.029 A 
ATOM     22  C   UNL A   1      32.030  26.901  26.577  1.00  0.00     0.007 A 
ATOM     23  C   UNL A   1      32.458  28.594  24.986  1.00  0.00     0.114 A 
ATOM     24  C   UNL A   1      31.722  27.889  27.507  1.00  0.00     0.020 A 
ATOM     25  N   UNL A   1      32.196  29.585  25.872  1.00  0.00    -0.264 NA
ATOM     26  C   UNL A   1      31.819  29.206  27.109  1.00  0.00     0.111 A 
ENDBRANCH  20  21
ENDBRANCH  19  20
ENDBRANCH  17  19
ENDBRANCH   9  15
ENDBRANCH   5   8
ENDBRANCH   3   4
ENDBRANCH   2   3
ENDBRANCH   1   2
BRANCH   1  27
ATOM     27  C   UNL A   1      38.261  23.657  26.246  1.00  0.00     0.002 C 
BRANCH  27  28
ATOM     28  C   UNL A   1      39.363  22.625  26.500  1.00  0.00     0.021 C 
BRANCH  28  29
ATOM     29  C   UNL A   1      40.718  23.161  26.959  1.00  0.00     0.116 C 
BRANCH  29  30
ATOM     30  N   UNL A   1      41.380  23.990  25.965  1.00  0.00    -0.352 N 
ATOM     31  C   UNL A   1      41.749  25.313  26.019  1.00  0.00     0.251 C 
ATOM     32  H   UNL A   1      41.599  23.532  25.121  1.00  0.00     0.163 HD
ATOM     33  O   UNL A   1      42.195  25.858  25.005  1.00  0.00    -0.269 OA
BRANCH  31  34
ATOM     34  C   UNL A   1      41.595  26.103  27.263  1.00  0.00     0.039 A 
ATOM     35  C   UNL A   1      42.611  26.995  27.625  1.00  0.00     0.014 A 
ATOM     36  C   UNL A   1      40.474  25.962  28.085  1.00  0.00     0.014 A 
ATOM     37  C   UNL A   1      42.465  27.797  28.762  1.00  0.00     0.010 A 
ATOM     38  C   UNL A   1      40.299  26.810  29.182  1.00  0.00     0.010 A 
ATOM     39  C   UNL A   1      41.288  27.744  29.526  1.00  0.00    -0.014 A 
BRANCH  39  40
ATOM     40  C   UNL A   1      41.062  28.687  30.656  1.00  0.00     0.031 A 
ATOM     41  C   UNL A   1      41.879  28.589  31.917  1.00  0.00     0.074 A 
ATOM     42  C   UNL A   1      40.071  29.597  30.568  1.00  0.00     0.049 A 
ATOM     43  N   UNL A   1      41.777  29.286  33.020  1.00  0.00    -0.248 NA
ATOM     44  C   UNL A   1      42.932  27.563  31.952  1.00  0.00     0.031 C 
ATOM     45  C   UNL A   1      39.181  29.766  29.417  1.00  0.00     0.029 A 
ATOM     46  N   UNL A   1      39.638  30.549  31.459  1.00  0.00    -0.354 N 
ATOM     47  C   UNL A   1      42.745  28.782  33.880  1.00  0.00     0.074 A 
ATOM     48  C   UNL A   1      43.392  27.686  33.190  1.00  0.00     0.031 C 
ATOM     49  C   UNL A   1      38.330  30.773  29.660  1.00  0.00     0.029 A 
ATOM     50  C   UNL A   1      38.578  31.296  31.001  1.00  0.00     0.049 A 
ATOM     51  H   UNL A   1      40.048  30.684  32.344  1.00  0.00     0.167 HD
ATOM     52  C   UNL A   1      43.080  29.209  35.122  1.00  0.00     0.037 A 
ATOM     53  C   UNL A   1      37.874  32.283  31.590  1.00  0.00     0.037 A 
ATOM     54  C   UNL A   1      42.446  30.314  35.795  1.00  0.00     0.049 A 
ATOM     55  C   UNL A   1      38.249  32.725  32.978  1.00  0.00     0.074 A 
ATOM     56  C   UNL A   1      42.757  30.859  37.028  1.00  0.00     0.029 A 
ATOM     57  N   UNL A   1      41.372  31.039  35.299  1.00  0.00    -0.354 N 
ATOM     58  N   UNL A   1      39.208  32.277  33.751  1.00  0.00    -0.248 NA
ATOM     59  C   UNL A   1      37.449  33.803  33.575  1.00  0.00     0.031 C 
ATOM     60  C   UNL A   1      41.837  31.874  37.304  1.00  0.00     0.029 A 
ATOM     61  C   UNL A   1      40.988  32.004  36.217  1.00  0.00     0.049 A 
ATOM     62  H   UNL A   1      40.946  30.891  34.424  1.00  0.00     0.167 HD
ATOM     63  C   UNL A   1      39.137  33.026  34.920  1.00  0.00     0.074 A 
ATOM     64  C   UNL A   1      38.053  33.969  34.745  1.00  0.00     0.031 C 
ATOM     65  C   UNL A   1      39.901  32.936  36.037  1.00  0.00     0.037 A 
BRANCH  52  66
ATOM     66  C   UNL A   1      44.189  28.490  35.843  1.00  0.00     0.058 A 
ATOM     67  C   UNL A   1      43.902  27.441  36.732  1.00  0.00     0.135 A 
ATOM     68  C   UNL A   1      45.530  28.888  35.715  1.00  0.00     0.135 A 
ATOM     69  F   UNL A   1      42.638  27.015  36.891  1.00  0.00    -0.206 F 
ATOM     70  C   UNL A   1      44.900  26.824  37.479  1.00  0.00     0.059 A 
ATOM     71  C   UNL A   1      46.549  28.267  36.431  1.00  0.00     0.059 A 
ATOM     72  F   UNL A   1      45.864  29.875  34.867  1.00  0.00    -0.206 F 
ATOM     73  C   UNL A   1      46.222  27.244  37.322  1.00  0.00     0.060 A 
BRANCH  73  74
ATOM     74  S   UNL A   1      47.509  26.415  38.279  1.00  0.00     0.124 S 
ATOM     75  O   UNL A   1      47.957  27.481  39.168  1.00  0.00    -0.237 OA
ATOM     76  O   UNL A   1      46.766  25.329  38.911  1.00  0.00    -0.237 OA
ATOM     77  O   UNL A   1      48.470  25.997  37.263  1.00  0.00    -0.744 OA
ENDBRANCH  73  74
ENDBRANCH  52  66
BRANCH  53  78
ATOM     78  C   UNL A   1      36.755  32.929  30.851  1.00  0.00     0.058 A 
ATOM     79  C   UNL A   1      36.991  33.946  29.913  1.00  0.00     0.135 A 
ATOM     80  C   UNL A   1      35.422  32.577  31.111  1.00  0.00     0.135 A 
ATOM     81  F   UNL A   1      38.247  34.326  29.634  1.00  0.00    -0.206 F 
ATOM     82  C   UNL A   1      35.946  34.615  29.285  1.00  0.00     0.059 A 
ATOM     83  C   UNL A   1      34.359  33.214  30.475  1.00  0.00     0.059 A 
ATOM     84  F   UNL A   1      35.146  31.601  31.988  1.00  0.00    -0.206 F 
ATOM     85  C   UNL A   1      34.633  34.246  29.578  1.00  0.00     0.060 A 
BRANCH  85  86
ATOM     86  S   UNL A   1      33.292  35.151  28.775  1.00  0.00     0.124 S 
ATOM     87  O   UNL A   1      32.672  34.101  27.973  1.00  0.00    -0.237 OA
ATOM     88  O   UNL A   1      32.515  35.621  29.918  1.00  0.00    -0.237 OA
ATOM     89  O   UNL A   1      33.988  36.190  28.022  1.00  0.00    -0.744 OA
ENDBRANCH  85  86
ENDBRANCH  53  78
BRANCH  65  90
ATOM     90  C   UNL A   1      39.604  33.881  37.169  1.00  0.00     0.058 A 
ATOM     91  C   UNL A   1      40.187  35.158  37.207  1.00  0.00     0.135 A 
ATOM     92  C   UNL A   1      38.815  33.489  38.263  1.00  0.00     0.135 A 
ATOM     93  F   UNL A   1      40.953  35.582  36.190  1.00  0.00    -0.206 F 
ATOM     94  C   UNL A   1      40.020  36.003  38.299  1.00  0.00     0.059 A 
ATOM     95  C   UNL A   1      38.611  34.329  39.354  1.00  0.00     0.059 A 
ATOM     96  F   UNL A   1      38.226  32.283  38.271  1.00  0.00    -0.206 F 
ATOM     97  C   UNL A   1      39.234  35.577  39.371  1.00  0.00     0.060 A 
BRANCH  97  98
ATOM     98  S   UNL A   1      39.031  36.686  40.781  1.00  0.00     0.124 S 
ATOM     99  O   UNL A   1      40.400  36.795  41.275  1.00  0.00    -0.237 OA
ATOM    100  O   UNL A   1      38.485  37.885  40.154  1.00  0.00    -0.237 OA
ATOM    101  O   UNL A   1      38.106  35.964  41.651  1.00  0.00    -0.744 OA
ENDBRANCH  97  98
ENDBRANCH  65  90
ENDBRANCH  39  40
ENDBRANCH  31  34
ENDBRANCH  29  30
ENDBRANCH  28  29
ENDBRANCH  27  28
ENDBRANCH   1  27
TORSDOF 20
ENDMDL
MODEL 2
REMARK VINA RESULT:     -11.6      6.361     11.599
REMARK SMILES O=C(CCc1cccnc1)Nc1cccc(F)c1C(=O)NCCCCCCNC(=O)c1ccc(-c2c3nc(c(-c4c(F)cc(S(=O)(=O)[O-])cc4F)c4ccc([nH]4)c(-c4c(F)cc(S(=O)(=O)[O-])cc4F)c4nc(c(-c5c(F)cc(S(=O)(=O)[O-])cc5F)c5ccc2[nH]5)C=C4)C=C3)cc1
REMARK SMILES IDX 24 1 23 2 22 3 21 4 19 5 20 6 18 8 12 9 13 10 14 11 16 12
REMARK SMILES IDX 15 13 17 14 11 15 1 16 2 17 3 19 4 20 5 21 6 22 10 23 7 24
REMARK SMILES IDX 9 25 8 26 25 27 26 28 27 29 28 30 29 31 30 33 31 34 32 35
REMARK SMILES IDX 96 36 33 37 95 38 34 39 35 40 36 41 89 42 37 43 94 44 88 45
REMARK SMILES IDX 90 46 38 47 93 48 87 49 86 50 39 52 73 53 52 54 72 55 53 56
REMARK SMILES IDX 56 57 71 58 91 59 54 60 55 61 70 63 92 64 57 65 40 66 41 67
REMARK SMILES IDX 50 68 42 69 43 70 49 71 51 72 44 73 45 74 46 75 47 76 48 77
REMARK SMILES IDX 74 78 75 79 84 80 76 81 77 82 83 83 85 84 78 85 79 86 80 87
REMARK SMILES IDX 81 88 82 89 58 90 59 91 68 92 60 93 61 94 67 95 69 96 62 97
REMARK SMILES IDX 63 98 64 99 65 100 66 101
REMARK H PARENT 21 7 11 18 28 32 90 51 56 62
REMARK Flexibility Score: inf
ROOT
ATOM      1  C   UNL A   1      34.300  28.685  27.078  1.00  0.00     0.002 C 
ENDROOT
BRANCH   1   2
ATOM      2  C   UNL A   1      33.974  27.495  26.169  1.00  0.00     0.021 C 
BRANCH   2   3
ATOM      3  C   UNL A   1      33.084  27.731  24.944  1.00  0.00     0.116 C 
BRANCH   3   4
ATOM      4  N   UNL A   1      33.624  27.280  23.671  1.00  0.00    -0.352 N 
ATOM      5  C   UNL A   1      33.572  26.042  23.045  1.00  0.00     0.256 C 
ATOM      6  O   UNL A   1      33.899  26.014  21.860  1.00  0.00    -0.269 OA
ATOM      7  H   UNL A   1      34.111  27.972  23.167  1.00  0.00     0.163 HD
BRANCH   5   8
ATOM      8  C   UNL A   1      33.232  24.769  23.753  1.00  0.00     0.099 A 
ATOM      9  C   UNL A   1      31.894  24.318  23.895  1.00  0.00     0.056 A 
ATOM     10  C   UNL A   1      31.626  23.020  24.363  1.00  0.00     0.027 A 
ATOM     11  C   UNL A   1      32.661  22.187  24.770  1.00  0.00     0.005 A 
ATOM     12  C   UNL A   1      34.242  23.936  24.236  1.00  0.00     0.138 A 
ATOM     13  C   UNL A   1      33.970  22.654  24.721  1.00  0.00     0.040 A 
ATOM     14  F   UNL A   1      35.522  24.335  24.258  1.00  0.00    -0.206 F 
BRANCH   9  15
ATOM     15  N   UNL A   1      30.748  25.067  23.564  1.00  0.00    -0.325 N 
ATOM     16  O   UNL A   1      30.194  25.701  25.725  1.00  0.00    -0.275 OA
ATOM     17  C   UNL A   1      30.037  25.790  24.511  1.00  0.00     0.224 C 
ATOM     18  H   UNL A   1      30.440  25.079  22.629  1.00  0.00     0.169 HD
BRANCH  17  19
ATOM     19  C   UNL A   1      28.945  26.655  23.906  1.00  0.00     0.105 C 
BRANCH  19  20
ATOM     20  C   UNL A   1      29.522  27.693  22.941  1.00  0.00     0.047 C 
BRANCH  20  21
ATOM     21  C   UNL A   1      29.041  29.120  23.078  1.00  0.00    -0.029 A 
ATOM     22  C   UNL A   1      29.754  30.138  23.712  1.00  0.00     0.007 A 
ATOM     23  C   UNL A   1      27.759  29.455  22.646  1.00  0.00     0.114 A 
ATOM     24  C   UNL A   1      29.190  31.395  23.905  1.00  0.00     0.020 A 
ATOM     25  N   UNL A   1      27.187  30.675  22.787  1.00  0.00    -0.264 NA
ATOM     26  C   UNL A   1      27.914  31.612  23.428  1.00  0.00     0.111 A 
ENDBRANCH  20  21
ENDBRANCH  19  20
ENDBRANCH  17  19
ENDBRANCH   9  15
ENDBRANCH   5   8
ENDBRANCH   3   4
ENDBRANCH   2   3
ENDBRANCH   1   2
BRANCH   1  27
ATOM     27  C   UNL A   1      33.402  29.922  26.990  1.00  0.00     0.002 C 
BRANCH  27  28
ATOM     28  C   UNL A   1      33.969  31.243  27.516  1.00  0.00     0.021 C 
BRANCH  28  29
ATOM     29  C   UNL A   1      35.347  31.189  28.174  1.00  0.00     0.116 C 
BRANCH  29  30
ATOM     30  N   UNL A   1      35.300  31.264  29.626  1.00  0.00    -0.352 N 
ATOM     31  C   UNL A   1      36.202  30.824  30.565  1.00  0.00     0.251 C 
ATOM     32  H   UNL A   1      34.495  31.697  29.993  1.00  0.00     0.163 HD
ATOM     33  O   UNL A   1      35.905  30.880  31.761  1.00  0.00    -0.269 OA
BRANCH  31  34
ATOM     34  C   UNL A   1      37.513  30.261  30.164  1.00  0.00     0.039 A 
ATOM     35  C   UNL A   1      37.890  30.325  28.818  1.00  0.00     0.014 A 
ATOM     36  C   UNL A   1      38.364  29.657  31.093  1.00  0.00     0.014 A 
ATOM     37  C   UNL A   1      39.147  29.857  28.420  1.00  0.00     0.010 A 
ATOM     38  C   UNL A   1      39.644  29.251  30.707  1.00  0.00     0.010 A 
ATOM     39  C   UNL A   1      40.053  29.356  29.369  1.00  0.00    -0.014 A 
BRANCH  39  40
ATOM     40  C   UNL A   1      41.442  28.982  28.983  1.00  0.00     0.031 A 
ATOM     41  C   UNL A   1      42.545  30.006  28.985  1.00  0.00     0.074 A 
ATOM     42  C   UNL A   1      41.696  27.724  28.569  1.00  0.00     0.049 A 
ATOM     43  N   UNL A   1      43.795  29.871  28.623  1.00  0.00    -0.248 NA
ATOM     44  C   UNL A   1      42.195  31.363  29.432  1.00  0.00     0.031 C 
ATOM     45  C   UNL A   1      40.705  26.649  28.481  1.00  0.00     0.029 A 
ATOM     46  N   UNL A   1      42.860  27.133  28.138  1.00  0.00    -0.354 N 
ATOM     47  C   UNL A   1      44.379  31.121  28.791  1.00  0.00     0.074 A 
ATOM     48  C   UNL A   1      43.334  32.015  29.242  1.00  0.00     0.031 C 
ATOM     49  C   UNL A   1      41.305  25.529  28.052  1.00  0.00     0.029 A 
ATOM     50  C   UNL A   1      42.714  25.810  27.789  1.00  0.00     0.049 A 
ATOM     51  H   UNL A   1      43.718  27.612  28.084  1.00  0.00     0.167 HD
ATOM     52  C   UNL A   1      45.672  31.484  28.610  1.00  0.00     0.037 A 
ATOM     53  C   UNL A   1      43.604  24.923  27.302  1.00  0.00     0.037 A 
ATOM     54  C   UNL A   1      46.711  30.583  28.181  1.00  0.00     0.049 A 
ATOM     55  C   UNL A   1      45.029  25.355  27.087  1.00  0.00     0.074 A 
ATOM     56  C   UNL A   1      48.062  30.844  28.028  1.00  0.00     0.029 A 
ATOM     57  N   UNL A   1      46.520  29.254  27.832  1.00  0.00    -0.354 N 
ATOM     58  N   UNL A   1      45.574  26.525  27.311  1.00  0.00    -0.248 NA
ATOM     59  C   UNL A   1      45.958  24.350  26.553  1.00  0.00     0.031 C 
ATOM     60  C   UNL A   1      48.677  29.691  27.531  1.00  0.00     0.029 A 
ATOM     61  C   UNL A   1      47.722  28.692  27.431  1.00  0.00     0.049 A 
ATOM     62  H   UNL A   1      45.658  28.780  27.863  1.00  0.00     0.167 HD
ATOM     63  C   UNL A   1      46.913  26.395  26.960  1.00  0.00     0.074 A 
ATOM     64  C   UNL A   1      47.099  25.027  26.525  1.00  0.00     0.031 C 
ATOM     65  C   UNL A   1      47.897  27.328  26.992  1.00  0.00     0.037 A 
BRANCH  52  66
ATOM     66  C   UNL A   1      46.051  32.916  28.880  1.00  0.00     0.058 A 
ATOM     67  C   UNL A   1      46.402  33.330  30.175  1.00  0.00     0.135 A 
ATOM     68  C   UNL A   1      45.992  33.895  27.875  1.00  0.00     0.135 A 
ATOM     69  F   UNL A   1      46.478  32.437  31.175  1.00  0.00    -0.206 F 
ATOM     70  C   UNL A   1      46.665  34.665  30.467  1.00  0.00     0.059 A 
ATOM     71  C   UNL A   1      46.279  35.231  28.138  1.00  0.00     0.059 A 
ATOM     72  F   UNL A   1      45.678  33.552  26.615  1.00  0.00    -0.206 F 
ATOM     73  C   UNL A   1      46.600  35.610  29.442  1.00  0.00     0.060 A 
BRANCH  73  74
ATOM     74  S   UNL A   1      46.972  37.333  29.832  1.00  0.00     0.124 S 
ATOM     75  O   UNL A   1      48.405  37.279  30.096  1.00  0.00    -0.237 OA
ATOM     76  O   UNL A   1      46.575  38.014  28.603  1.00  0.00    -0.237 OA
ATOM     77  O   UNL A   1      46.128  37.607  30.990  1.00  0.00    -0.744 OA
ENDBRANCH  73  74
ENDBRANCH  52  66
BRANCH  53  78
ATOM     78  C   UNL A   1      43.167  23.532  27.005  1.00  0.00     0.058 A 
ATOM     79  C   UNL A   1      42.960  22.598  28.032  1.00  0.00     0.135 A 
ATOM     80  C   UNL A   1      42.999  23.096  25.683  1.00  0.00     0.135 A 
ATOM     81  F   UNL A   1      43.116  22.961  29.315  1.00  0.00    -0.206 F 
ATOM     82  C   UNL A   1      42.639  21.273  27.759  1.00  0.00     0.059 A 
ATOM     83  C   UNL A   1      42.650  21.781  25.384  1.00  0.00     0.059 A 
ATOM     84  F   UNL A   1      43.170  23.955  24.667  1.00  0.00    -0.206 F 
ATOM     85  C   UNL A   1      42.493  20.872  26.430  1.00  0.00     0.060 A 
BRANCH  85  86
ATOM     86  S   UNL A   1      42.107  19.139  26.097  1.00  0.00     0.124 S 
ATOM     87  O   UNL A   1      42.447  18.516  27.372  1.00  0.00    -0.237 OA
ATOM     88  O   UNL A   1      40.686  19.200  25.777  1.00  0.00    -0.237 OA
ATOM     89  O   UNL A   1      42.987  18.806  24.981  1.00  0.00    -0.744 OA
ENDBRANCH  85  86
ENDBRANCH  53  78
BRANCH  65  90
ATOM     90  C   UNL A   1      49.273  26.914  26.550  1.00  0.00     0.058 A 
ATOM     91  C   UNL A   1      49.679  27.087  25.217  1.00  0.00     0.135 A 
ATOM     92  C   UNL A   1      50.158  26.261  27.423  1.00  0.00     0.135 A 
ATOM     93  F   UNL A   1      48.871  27.700  24.338  1.00  0.00    -0.206 F 
ATOM     94  C   UNL A   1      50.901  26.606  24.759  1.00  0.00     0.059 A 
ATOM     95  C   UNL A   1      51.398  25.797  26.994  1.00  0.00     0.059 A 
ATOM     96  F   UNL A   1      49.824  26.080  28.711  1.00  0.00    -0.206 F 
ATOM     97  C   UNL A   1      51.752  25.958  25.655  1.00  0.00     0.060 A 
BRANCH  97  98
ATOM     98  S   UNL A   1      53.334  25.337  25.042  1.00  0.00     0.124 S 
ATOM     99  O   UNL A   1      53.282  23.936  25.446  1.00  0.00    -0.237 OA
ATOM    100  O   UNL A   1      53.228  25.589  23.609  1.00  0.00    -0.237 OA
ATOM    101  O   UNL A   1      54.316  26.157  25.746  1.00  0.00    -0.744 OA
ENDBRANCH  97  98
ENDBRANCH  65  90
ENDBRANCH  39  40
ENDBRANCH  31  34
ENDBRANCH  29  30
ENDBRANCH  28  29
ENDBRANCH  27  28
ENDBRANCH   1  27
TORSDOF 20
ENDMDL
MODEL 3
REMARK VINA RESULT:     -11.6      6.560     11.517
REMARK SMILES O=C(CCc1cccnc1)Nc1cccc(F)c1C(=O)NCCCCCCNC(=O)c1ccc(-c2c3nc(c(-c4c(F)cc(S(=O)(=O)[O-])cc4F)c4ccc([nH]4)c(-c4c(F)cc(S(=O)(=O)[O-])cc4F)c4nc(c(-c5c(F)cc(S(=O)(=O)[O-])cc5F)c5ccc2[nH]5)C=C4)C=C3)cc1
REMARK SMILES IDX 24 1 23 2 22 3 21 4 19 5 20 6 18 8 12 9 13 10 14 11 16 12
REMARK SMILES IDX 15 13 17 14 11 15 1 16 2 17 3 19 4 20 5 21 6 22 10 23 7 24
REMARK SMILES IDX 9 25 8 26 25 27 26 28 27 29 28 30 29 31 30 33 31 34 32 35
REMARK SMILES IDX 96 36 33 37 95 38 34 39 35 40 36 41 89 42 37 43 94 44 88 45
REMARK SMILES IDX 90 46 38 47 93 48 87 49 86 50 39 52 73 53 52 54 72 55 53 56
REMARK SMILES IDX 56 57 71 58 91 59 54 60 55 61 70 63 92 64 57 65 40 66 41 67
REMARK SMILES IDX 50 68 42 69 43 70 49 71 51 72 44 73 45 74 46 75 47 76 48 77
REMARK SMILES IDX 74 78 75 79 84 80 76 81 77 82 83 83 85 84 78 85 79 86 80 87
REMARK SMILES IDX 81 88 82 89 58 90 59 91 68 92 60 93 61 94 67 95 69 96 62 97
REMARK SMILES IDX 63 98 64 99 65 100 66 101
REMARK H PARENT 21 7 11 18 28 32 90 51 56 62
REMARK Flexibility Score: inf
ROOT
ATOM      1  C   UNL A   1      34.567  28.692  26.971  1.00  0.00     0.002 C 
ENDROOT
BRANCH   1   2
ATOM      2  C   UNL A   1      33.755  27.516  26.418  1.00  0.00     0.021 C 
BRANCH   2   3
ATOM      3  C   UNL A   1      33.354  27.531  24.939  1.00  0.00     0.116 C 
BRANCH   3   4
ATOM      4  N   UNL A   1      34.018  26.552  24.092  1.00  0.00    -0.352 N 
ATOM      5  C   UNL A   1      34.022  25.165  24.134  1.00  0.00     0.256 C 
ATOM      6  O   UNL A   1      34.466  24.589  23.142  1.00  0.00    -0.269 OA
ATOM      7  H   UNL A   1      34.556  26.940  23.365  1.00  0.00     0.163 HD
BRANCH   5   8
ATOM      8  C   UNL A   1      33.607  24.370  25.330  1.00  0.00     0.099 A 
ATOM      9  C   UNL A   1      32.245  24.084  25.612  1.00  0.00     0.056 A 
ATOM     10  C   UNL A   1      31.904  23.156  26.610  1.00  0.00     0.027 A 
ATOM     11  C   UNL A   1      32.889  22.562  27.391  1.00  0.00     0.005 A 
ATOM     12  C   UNL A   1      34.565  23.813  26.179  1.00  0.00     0.138 A 
ATOM     13  C   UNL A   1      34.220  22.905  27.184  1.00  0.00     0.040 A 
ATOM     14  F   UNL A   1      35.863  24.129  26.064  1.00  0.00    -0.206 F 
BRANCH   9  15
ATOM     15  N   UNL A   1      31.144  24.642  24.933  1.00  0.00    -0.325 N 
ATOM     16  O   UNL A   1      30.521  26.139  26.591  1.00  0.00    -0.275 OA
ATOM     17  C   UNL A   1      30.421  25.709  25.446  1.00  0.00     0.224 C 
ATOM     18  H   UNL A   1      30.878  24.262  24.065  1.00  0.00     0.169 HD
BRANCH  17  19
ATOM     19  C   UNL A   1      29.390  26.254  24.473  1.00  0.00     0.105 C 
BRANCH  19  20
ATOM     20  C   UNL A   1      30.047  27.084  23.367  1.00  0.00     0.047 C 
BRANCH  20  21
ATOM     21  C   UNL A   1      29.320  28.323  22.896  1.00  0.00    -0.029 A 
ATOM     22  C   UNL A   1      28.003  28.643  23.230  1.00  0.00     0.007 A 
ATOM     23  C   UNL A   1      29.938  29.174  21.982  1.00  0.00     0.114 A 
ATOM     24  C   UNL A   1      27.365  29.739  22.658  1.00  0.00     0.020 A 
ATOM     25  N   UNL A   1      29.361  30.267  21.427  1.00  0.00    -0.264 NA
ATOM     26  C   UNL A   1      28.080  30.514  21.768  1.00  0.00     0.111 A 
ENDBRANCH  20  21
ENDBRANCH  19  20
ENDBRANCH  17  19
ENDBRANCH   9  15
ENDBRANCH   5   8
ENDBRANCH   3   4
ENDBRANCH   2   3
ENDBRANCH   1   2
BRANCH   1  27
ATOM     27  C   UNL A   1      34.047  30.108  26.711  1.00  0.00     0.002 C 
BRANCH  27  28
ATOM     28  C   UNL A   1      34.191  31.130  27.841  1.00  0.00     0.021 C 
BRANCH  28  29
ATOM     29  C   UNL A   1      35.550  31.203  28.536  1.00  0.00     0.116 C 
BRANCH  29  30
ATOM     30  N   UNL A   1      35.530  30.703  29.902  1.00  0.00    -0.352 N 
ATOM     31  C   UNL A   1      36.514  30.080  30.631  1.00  0.00     0.251 C 
ATOM     32  H   UNL A   1      34.678  30.832  30.379  1.00  0.00     0.163 HD
ATOM     33  O   UNL A   1      36.243  29.623  31.745  1.00  0.00    -0.269 OA
BRANCH  31  34
ATOM     34  C   UNL A   1      37.886  29.923  30.092  1.00  0.00     0.039 A 
ATOM     35  C   UNL A   1      38.957  29.853  30.990  1.00  0.00     0.014 A 
ATOM     36  C   UNL A   1      38.129  29.864  28.718  1.00  0.00     0.014 A 
ATOM     37  C   UNL A   1      40.256  29.645  30.513  1.00  0.00     0.010 A 
ATOM     38  C   UNL A   1      39.415  29.589  28.247  1.00  0.00     0.010 A 
ATOM     39  C   UNL A   1      40.491  29.466  29.140  1.00  0.00    -0.014 A 
BRANCH  39  40
ATOM     40  C   UNL A   1      41.844  29.108  28.632  1.00  0.00     0.031 A 
ATOM     41  C   UNL A   1      42.157  27.700  28.198  1.00  0.00     0.074 A 
ATOM     42  C   UNL A   1      42.814  30.045  28.619  1.00  0.00     0.049 A 
ATOM     43  N   UNL A   1      43.294  27.199  27.787  1.00  0.00    -0.248 NA
ATOM     44  C   UNL A   1      41.058  26.725  28.253  1.00  0.00     0.031 C 
ATOM     45  C   UNL A   1      42.650  31.434  29.052  1.00  0.00     0.029 A 
ATOM     46  N   UNL A   1      44.132  29.975  28.234  1.00  0.00    -0.354 N 
ATOM     47  C   UNL A   1      43.050  25.853  27.541  1.00  0.00     0.074 A 
ATOM     48  C   UNL A   1      41.669  25.604  27.896  1.00  0.00     0.031 C 
ATOM     49  C   UNL A   1      43.809  32.089  28.885  1.00  0.00     0.029 A 
ATOM     50  C   UNL A   1      44.815  31.161  28.377  1.00  0.00     0.049 A 
ATOM     51  H   UNL A   1      44.549  29.152  27.889  1.00  0.00     0.167 HD
ATOM     52  C   UNL A   1      43.893  24.916  27.042  1.00  0.00     0.037 A 
ATOM     53  C   UNL A   1      46.104  31.469  28.137  1.00  0.00     0.037 A 
ATOM     54  C   UNL A   1      45.261  25.177  26.671  1.00  0.00     0.049 A 
ATOM     55  C   UNL A   1      47.028  30.408  27.606  1.00  0.00     0.074 A 
ATOM     56  C   UNL A   1      46.175  24.307  26.100  1.00  0.00     0.029 A 
ATOM     57  N   UNL A   1      45.916  26.389  26.837  1.00  0.00    -0.354 N 
ATOM     58  N   UNL A   1      46.762  29.157  27.320  1.00  0.00    -0.248 NA
ATOM     59  C   UNL A   1      48.424  30.797  27.364  1.00  0.00     0.031 C 
ATOM     60  C   UNL A   1      47.397  24.975  25.975  1.00  0.00     0.029 A 
ATOM     61  C   UNL A   1      47.230  26.280  26.412  1.00  0.00     0.049 A 
ATOM     62  H   UNL A   1      45.507  27.206  27.204  1.00  0.00     0.167 HD
ATOM     63  C   UNL A   1      47.952  28.612  26.852  1.00  0.00     0.074 A 
ATOM     64  C   UNL A   1      48.935  29.674  26.875  1.00  0.00     0.031 C 
ATOM     65  C   UNL A   1      48.205  27.343  26.445  1.00  0.00     0.037 A 
BRANCH  52  66
ATOM     66  C   UNL A   1      43.369  23.518  26.855  1.00  0.00     0.058 A 
ATOM     67  C   UNL A   1      43.218  22.658  27.955  1.00  0.00     0.135 A 
ATOM     68  C   UNL A   1      43.087  23.001  25.579  1.00  0.00     0.135 A 
ATOM     69  F   UNL A   1      43.469  23.099  29.198  1.00  0.00    -0.206 F 
ATOM     70  C   UNL A   1      42.824  21.333  27.796  1.00  0.00     0.059 A 
ATOM     71  C   UNL A   1      42.664  21.688  25.399  1.00  0.00     0.059 A 
ATOM     72  F   UNL A   1      43.198  23.785  24.494  1.00  0.00    -0.206 F 
ATOM     73  C   UNL A   1      42.549  20.856  26.513  1.00  0.00     0.060 A 
BRANCH  73  74
ATOM     74  S   UNL A   1      42.012  19.143  26.327  1.00  0.00     0.124 S 
ATOM     75  O   UNL A   1      42.239  18.610  27.666  1.00  0.00    -0.237 OA
ATOM     76  O   UNL A   1      40.616  19.303  25.933  1.00  0.00    -0.237 OA
ATOM     77  O   UNL A   1      42.892  18.623  25.285  1.00  0.00    -0.744 OA
ENDBRANCH  73  74
ENDBRANCH  52  66
BRANCH  53  78
ATOM     78  C   UNL A   1      46.585  32.856  28.385  1.00  0.00     0.058 A 
ATOM     79  C   UNL A   1      46.502  33.845  27.392  1.00  0.00     0.135 A 
ATOM     80  C   UNL A   1      47.187  33.204  29.604  1.00  0.00     0.135 A 
ATOM     81  F   UNL A   1      45.943  33.563  26.205  1.00  0.00    -0.206 F 
ATOM     82  C   UNL A   1      47.030  35.117  27.584  1.00  0.00     0.059 A 
ATOM     83  C   UNL A   1      47.698  34.480  29.830  1.00  0.00     0.059 A 
ATOM     84  F   UNL A   1      47.276  32.298  30.589  1.00  0.00    -0.206 F 
ATOM     85  C   UNL A   1      47.632  35.423  28.805  1.00  0.00     0.060 A 
BRANCH  85  86
ATOM     86  S   UNL A   1      48.339  37.071  29.021  1.00  0.00     0.124 S 
ATOM     87  O   UNL A   1      49.466  36.790  29.906  1.00  0.00    -0.237 OA
ATOM     88  O   UNL A   1      48.682  37.437  27.651  1.00  0.00    -0.237 OA
ATOM     89  O   UNL A   1      47.246  37.832  29.617  1.00  0.00    -0.744 OA
ENDBRANCH  85  86
ENDBRANCH  53  78
BRANCH  65  90
ATOM     90  C   UNL A   1      49.600  27.019  25.982  1.00  0.00     0.058 A 
ATOM     91  C   UNL A   1      49.974  27.221  24.644  1.00  0.00     0.135 A 
ATOM     92  C   UNL A   1      50.537  26.423  26.841  1.00  0.00     0.135 A 
ATOM     93  F   UNL A   1      49.116  27.783  23.778  1.00  0.00    -0.206 F 
ATOM     94  C   UNL A   1      51.218  26.821  24.168  1.00  0.00     0.059 A 
ATOM     95  C   UNL A   1      51.798  26.041  26.393  1.00  0.00     0.059 A 
ATOM     96  F   UNL A   1      50.233  26.218  28.132  1.00  0.00    -0.206 F 
ATOM     97  C   UNL A   1      52.122  26.226  25.049  1.00  0.00     0.060 A 
BRANCH  97  98
ATOM     98  S   UNL A   1      53.731  25.711  24.413  1.00  0.00     0.124 S 
ATOM     99  O   UNL A   1      53.811  24.332  24.886  1.00  0.00    -0.237 OA
ATOM    100  O   UNL A   1      53.561  25.879  22.974  1.00  0.00    -0.237 OA
ATOM    101  O   UNL A   1      54.661  26.644  25.043  1.00  0.00    -0.744 OA
ENDBRANCH  97  98
ENDBRANCH  65  90
ENDBRANCH  39  40
ENDBRANCH  31  34
ENDBRANCH  29  30
ENDBRANCH  28  29
ENDBRANCH  27  28
ENDBRANCH   1  27
TORSDOF 20
ENDMDL
