MODEL 1
REMARK VINA RESULT:     -12.4      0.000      0.000
REMARK SMILES O=C(NCCCCCCNC(=O)c1ccc(-c2c3nc(c(-c4c(F)cc(S(=O)(=O)[O-])cc4F)c4ccc([nH]4)c(-c4c(F)cc(S(=O)(=O)[O-])cc4F)c4nc(c(-c5c(F)cc(S(=O)(=O)[O-])cc5F)c5ccc2[nH]5)C=C4)C=C3)cc1)c1ccc(NC(=O)[C@@H]2CC=CC[C@H]2C(=O)Nc2cccc([N+](=O)[O-])c2)cc1
REMARK SMILES IDX 5 1 4 2 3 3 1 4 2 5 79 7 80 8 105 9 81 10 104 11 82 12 83 13
REMARK SMILES IDX 84 14 85 16 86 17 87 18 91 19 88 20 90 21 89 22 92 23 93 24
REMARK SMILES IDX 94 25 95 27 96 28 103 29 97 30 99 31 98 32 100 33 101 34
REMARK SMILES IDX 102 35 6 36 7 37 8 38 9 39 10 40 11 41 12 43 13 44 14 45
REMARK SMILES IDX 78 46 15 47 77 48 16 49 17 50 18 51 71 52 19 53 76 54 70 55
REMARK SMILES IDX 72 56 20 57 75 58 69 59 68 60 21 62 55 63 34 64 54 65 35 66
REMARK SMILES IDX 38 67 53 68 73 69 36 70 37 71 52 73 74 74 39 75 22 76 23 77
REMARK SMILES IDX 32 78 24 79 25 80 31 81 33 82 26 83 27 84 28 85 29 86 30 87
REMARK SMILES IDX 56 88 57 89 66 90 58 91 59 92 65 93 67 94 60 95 61 96 62 97
REMARK SMILES IDX 63 98 64 99 40 100 41 101 50 102 42 103 43 104 49 105 51 106
REMARK SMILES IDX 44 107 45 108 46 109 47 110 48 111
REMARK H PARENT 3 6 83 15 94 26 10 42 72 61 38 72
REMARK Flexibility Score: inf
ROOT
ATOM      1  C   UNL A   1      36.092  30.947  28.416  1.00  0.00     0.021 C 
ENDROOT
BRANCH   1   2
ATOM      2  C   UNL A   1      35.176  29.841  27.904  1.00  0.00     0.116 C 
BRANCH   2   3
ATOM      3  N   UNL A   1      33.785  30.268  27.731  1.00  0.00    -0.352 N 
ATOM      4  O   UNL A   1      31.743  30.432  26.755  1.00  0.00    -0.269 OA
ATOM      5  C   UNL A   1      32.825  29.841  26.833  1.00  0.00     0.251 C 
ATOM      6  H   UNL A   1      33.486  30.971  28.353  1.00  0.00     0.163 HD
BRANCH   5   7
ATOM      7  C   UNL A   1      33.071  28.662  25.968  1.00  0.00     0.039 A 
ATOM      8  C   UNL A   1      33.329  28.877  24.633  1.00  0.00     0.016 A 
ATOM      9  C   UNL A   1      33.064  27.339  26.434  1.00  0.00     0.016 A 
ATOM     10  C   UNL A   1      33.357  27.798  23.772  1.00  0.00     0.027 A 
ATOM     11  C   UNL A   1      33.255  26.257  25.535  1.00  0.00     0.027 A 
ATOM     12  C   UNL A   1      33.399  26.495  24.165  1.00  0.00     0.041 A 
BRANCH  12  13
ATOM     13  N   UNL A   1      33.705  25.494  23.226  1.00  0.00    -0.326 N 
ATOM     14  C   UNL A   1      34.066  24.163  23.303  1.00  0.00     0.228 C 
ATOM     15  H   UNL A   1      33.650  25.817  22.298  1.00  0.00     0.169 HD
ATOM     16  O   UNL A   1      33.892  23.548  22.238  1.00  0.00    -0.274 OA
BRANCH  14  17
ATOM     17  C   UNL A   1      34.785  23.428  24.509  1.00  0.00     0.095 C 
ATOM     18  C   UNL A   1      36.303  23.752  24.329  1.00  0.00     0.041 C 
ATOM     19  C   UNL A   1      34.573  21.891  24.769  1.00  0.00     0.095 C 
ATOM     20  C   UNL A   1      37.213  23.087  25.307  1.00  0.00    -0.030 C 
ATOM     21  C   UNL A   1      35.798  21.072  25.274  1.00  0.00     0.041 C 
ATOM     22  C   UNL A   1      36.980  21.846  25.734  1.00  0.00    -0.030 C 
BRANCH  19  23
ATOM     23  C   UNL A   1      33.448  21.292  25.658  1.00  0.00     0.228 C 
ATOM     24  O   UNL A   1      32.997  22.013  26.565  1.00  0.00    -0.274 OA
ATOM     25  N   UNL A   1      32.786  20.105  25.515  1.00  0.00    -0.326 N 
ATOM     26  H   UNL A   1      31.961  20.097  26.054  1.00  0.00     0.169 HD
BRANCH  25  27
ATOM     27  C   UNL A   1      32.942  18.891  24.820  1.00  0.00     0.048 A 
ATOM     28  C   UNL A   1      32.584  18.881  23.466  1.00  0.00     0.026 A 
ATOM     29  C   UNL A   1      33.325  17.682  25.375  1.00  0.00     0.111 A 
ATOM     30  C   UNL A   1      32.757  17.737  22.672  1.00  0.00     0.009 A 
ATOM     31  C   UNL A   1      33.587  16.556  24.577  1.00  0.00     0.271 A 
ATOM     32  C   UNL A   1      33.306  16.580  23.215  1.00  0.00     0.086 A 
BRANCH  31  33
ATOM     33  N   UNL A   1      34.170  15.359  25.200  1.00  0.00     0.062 N 
ATOM     34  O   UNL A   1      33.412  14.418  25.463  1.00  0.00    -0.258 OA
ATOM     35  O   UNL A   1      35.391  15.363  25.419  1.00  0.00    -0.258 OA
ENDBRANCH  31  33
ENDBRANCH  25  27
ENDBRANCH  19  23
ENDBRANCH  14  17
ENDBRANCH  12  13
ENDBRANCH   5   7
ENDBRANCH   2   3
ENDBRANCH   1   2
BRANCH   1  36
ATOM     36  C   UNL A   1      35.725  32.360  27.968  1.00  0.00     0.002 C 
BRANCH  36  37
ATOM     37  C   UNL A   1      35.248  33.314  29.070  1.00  0.00     0.002 C 
BRANCH  37  38
ATOM     38  C   UNL A   1      33.819  33.853  28.939  1.00  0.00     0.021 C 
BRANCH  38  39
ATOM     39  C   UNL A   1      33.611  35.324  29.298  1.00  0.00     0.116 C 
BRANCH  39  40
ATOM     40  N   UNL A   1      32.699  35.508  30.413  1.00  0.00    -0.352 N 
ATOM     41  C   UNL A   1      32.836  35.158  31.734  1.00  0.00     0.251 C 
ATOM     42  H   UNL A   1      31.850  35.952  30.187  1.00  0.00     0.163 HD
ATOM     43  O   UNL A   1      31.869  35.281  32.490  1.00  0.00    -0.269 OA
BRANCH  41  44
ATOM     44  C   UNL A   1      34.110  34.611  32.257  1.00  0.00     0.039 A 
ATOM     45  C   UNL A   1      34.160  33.262  32.626  1.00  0.00     0.014 A 
ATOM     46  C   UNL A   1      35.239  35.416  32.429  1.00  0.00     0.014 A 
ATOM     47  C   UNL A   1      35.352  32.709  33.104  1.00  0.00     0.010 A 
ATOM     48  C   UNL A   1      36.445  34.848  32.850  1.00  0.00     0.010 A 
ATOM     49  C   UNL A   1      36.516  33.488  33.190  1.00  0.00    -0.014 A 
BRANCH  49  50
ATOM     50  C   UNL A   1      37.812  32.894  33.619  1.00  0.00     0.031 A 
ATOM     51  C   UNL A   1      38.345  33.137  35.006  1.00  0.00     0.074 A 
ATOM     52  C   UNL A   1      38.542  32.182  32.737  1.00  0.00     0.049 A 
ATOM     53  N   UNL A   1      39.478  32.751  35.534  1.00  0.00    -0.248 NA
ATOM     54  C   UNL A   1      37.504  33.936  35.910  1.00  0.00     0.031 C 
ATOM     55  C   UNL A   1      38.157  31.900  31.352  1.00  0.00     0.029 A 
ATOM     56  N   UNL A   1      39.765  31.571  32.869  1.00  0.00    -0.354 N 
ATOM     57  C   UNL A   1      39.499  33.276  36.822  1.00  0.00     0.074 A 
ATOM     58  C   UNL A   1      38.280  34.041  36.980  1.00  0.00     0.031 C 
ATOM     59  C   UNL A   1      39.111  31.155  30.772  1.00  0.00     0.029 A 
ATOM     60  C   UNL A   1      40.193  30.936  31.727  1.00  0.00     0.049 A 
ATOM     61  H   UNL A   1      40.287  31.587  33.704  1.00  0.00     0.167 HD
ATOM     62  C   UNL A   1      40.437  33.122  37.788  1.00  0.00     0.037 A 
ATOM     63  C   UNL A   1      41.331  30.259  31.471  1.00  0.00     0.037 A 
ATOM     64  C   UNL A   1      41.634  32.335  37.638  1.00  0.00     0.049 A 
ATOM     65  C   UNL A   1      42.360  30.108  32.558  1.00  0.00     0.074 A 
ATOM     66  C   UNL A   1      42.605  32.057  38.584  1.00  0.00     0.029 A 
ATOM     67  N   UNL A   1      42.029  31.706  36.467  1.00  0.00    -0.354 N 
ATOM     68  N   UNL A   1      42.329  30.555  33.791  1.00  0.00    -0.248 NA
ATOM     69  C   UNL A   1      43.580  29.360  32.219  1.00  0.00     0.031 C 
ATOM     70  C   UNL A   1      43.612  31.302  37.973  1.00  0.00     0.029 A 
ATOM     71  C   UNL A   1      43.243  31.065  36.659  1.00  0.00     0.049 A 
ATOM     72  H   UNL A   1      41.522  31.713  35.622  1.00  0.00     0.167 HD
ATOM     73  C   UNL A   1      43.507  30.114  34.384  1.00  0.00     0.074 A 
ATOM     74  C   UNL A   1      44.226  29.361  33.377  1.00  0.00     0.031 C 
ATOM     75  C   UNL A   1      43.950  30.313  35.650  1.00  0.00     0.037 A 
BRANCH  62  76
ATOM     76  C   UNL A   1      40.212  33.828  39.099  1.00  0.00     0.058 A 
ATOM     77  C   UNL A   1      39.387  33.288  40.100  1.00  0.00     0.135 A 
ATOM     78  C   UNL A   1      40.858  35.045  39.371  1.00  0.00     0.135 A 
ATOM     79  F   UNL A   1      38.737  32.133  39.889  1.00  0.00    -0.206 F 
ATOM     80  C   UNL A   1      39.183  33.947  41.308  1.00  0.00     0.059 A 
ATOM     81  C   UNL A   1      40.691  35.708  40.584  1.00  0.00     0.059 A 
ATOM     82  F   UNL A   1      41.661  35.605  38.453  1.00  0.00    -0.206 F 
ATOM     83  C   UNL A   1      39.836  35.158  41.539  1.00  0.00     0.060 A 
BRANCH  83  84
ATOM     84  S   UNL A   1      39.553  36.006  43.108  1.00  0.00     0.124 S 
ATOM     85  O   UNL A   1      38.193  35.578  43.426  1.00  0.00    -0.237 OA
ATOM     86  O   UNL A   1      40.604  35.455  43.956  1.00  0.00    -0.237 OA
ATOM     87  O   UNL A   1      39.702  37.416  42.765  1.00  0.00    -0.744 OA
ENDBRANCH  83  84
ENDBRANCH  62  76
BRANCH  63  88
ATOM     88  C   UNL A   1      41.544  29.645  30.133  1.00  0.00     0.058 A 
ATOM     89  C   UNL A   1      40.990  28.394  29.822  1.00  0.00     0.135 A 
ATOM     90  C   UNL A   1      42.286  30.297  29.138  1.00  0.00     0.135 A 
ATOM     91  F   UNL A   1      40.278  27.728  30.745  1.00  0.00    -0.206 F 
ATOM     92  C   UNL A   1      41.172  27.805  28.575  1.00  0.00     0.059 A 
ATOM     93  C   UNL A   1      42.462  29.740  27.875  1.00  0.00     0.059 A 
ATOM     94  F   UNL A   1      42.822  31.504  29.379  1.00  0.00    -0.206 F 
ATOM     95  C   UNL A   1      41.907  28.489  27.606  1.00  0.00     0.060 A 
BRANCH  95  96
ATOM     96  S   UNL A   1      42.085  27.746  25.970  1.00  0.00     0.124 S 
ATOM     97  O   UNL A   1      43.376  27.079  26.090  1.00  0.00    -0.237 OA
ATOM     98  O   UNL A   1      40.917  26.874  25.902  1.00  0.00    -0.237 OA
ATOM     99  O   UNL A   1      42.050  28.898  25.074  1.00  0.00    -0.744 OA
ENDBRANCH  95  96
ENDBRANCH  63  88
BRANCH  75 100
ATOM    100  C   UNL A   1      45.259  29.679  36.037  1.00  0.00     0.058 A 
ATOM    101  C   UNL A   1      45.338  28.343  36.457  1.00  0.00     0.135 A 
ATOM    102  C   UNL A   1      46.456  30.407  35.937  1.00  0.00     0.135 A 
ATOM    103  F   UNL A   1      44.224  27.605  36.578  1.00  0.00    -0.206 F 
ATOM    104  C   UNL A   1      46.557  27.756  36.786  1.00  0.00     0.059 A 
ATOM    105  C   UNL A   1      47.688  29.834  36.235  1.00  0.00     0.059 A 
ATOM    106  F   UNL A   1      46.437  31.687  35.532  1.00  0.00    -0.206 F 
ATOM    107  C   UNL A   1      47.726  28.510  36.670  1.00  0.00     0.060 A 
BRANCH 107 108
ATOM    108  S   UNL A   1      49.304  27.727  37.067  1.00  0.00     0.124 S 
ATOM    109  O   UNL A   1      48.937  26.315  37.078  1.00  0.00    -0.237 OA
ATOM    110  O   UNL A   1      50.153  28.152  35.958  1.00  0.00    -0.237 OA
ATOM    111  O   UNL A   1      49.649  28.296  38.366  1.00  0.00    -0.744 OA
ENDBRANCH 107 108
ENDBRANCH  75 100
ENDBRANCH  49  50
ENDBRANCH  41  44
ENDBRANCH  39  40
ENDBRANCH  38  39
ENDBRANCH  37  38
ENDBRANCH  36  37
ENDBRANCH   1  36
TORSDOF 21
ENDMDL
MODEL 2
REMARK VINA RESULT:     -11.7      5.546     10.339
REMARK SMILES O=C(NCCCCCCNC(=O)c1ccc(-c2c3nc(c(-c4c(F)cc(S(=O)(=O)[O-])cc4F)c4ccc([nH]4)c(-c4c(F)cc(S(=O)(=O)[O-])cc4F)c4nc(c(-c5c(F)cc(S(=O)(=O)[O-])cc5F)c5ccc2[nH]5)C=C4)C=C3)cc1)c1ccc(NC(=O)[C@@H]2CC=CC[C@H]2C(=O)Nc2cccc([N+](=O)[O-])c2)cc1
REMARK SMILES IDX 5 1 4 2 3 3 1 4 2 5 79 7 80 8 105 9 81 10 104 11 82 12 83 13
REMARK SMILES IDX 84 14 85 16 86 17 87 18 91 19 88 20 90 21 89 22 92 23 93 24
REMARK SMILES IDX 94 25 95 27 96 28 103 29 97 30 99 31 98 32 100 33 101 34
REMARK SMILES IDX 102 35 6 36 7 37 8 38 9 39 10 40 11 41 12 43 13 44 14 45
REMARK SMILES IDX 78 46 15 47 77 48 16 49 17 50 18 51 71 52 19 53 76 54 70 55
REMARK SMILES IDX 72 56 20 57 75 58 69 59 68 60 21 62 55 63 34 64 54 65 35 66
REMARK SMILES IDX 38 67 53 68 73 69 36 70 37 71 52 73 74 74 39 75 22 76 23 77
REMARK SMILES IDX 32 78 24 79 25 80 31 81 33 82 26 83 27 84 28 85 29 86 30 87
REMARK SMILES IDX 56 88 57 89 66 90 58 91 59 92 65 93 67 94 60 95 61 96 62 97
REMARK SMILES IDX 63 98 64 99 40 100 41 101 50 102 42 103 43 104 49 105 51 106
REMARK SMILES IDX 44 107 45 108 46 109 47 110 48 111
REMARK H PARENT 3 6 83 15 94 26 10 42 72 61 38 72
REMARK Flexibility Score: inf
ROOT
ATOM      1  C   UNL A   1      36.295  29.898  27.526  1.00  0.00     0.021 C 
ENDROOT
BRANCH   1   2
ATOM      2  C   UNL A   1      34.917  29.375  27.915  1.00  0.00     0.116 C 
BRANCH   2   3
ATOM      3  N   UNL A   1      33.846  30.360  27.737  1.00  0.00    -0.352 N 
ATOM      4  O   UNL A   1      31.969  31.289  26.864  1.00  0.00    -0.269 OA
ATOM      5  C   UNL A   1      32.679  30.287  26.999  1.00  0.00     0.251 C 
ATOM      6  H   UNL A   1      33.979  31.208  28.219  1.00  0.00     0.163 HD
BRANCH   5   7
ATOM      7  C   UNL A   1      32.257  29.009  26.379  1.00  0.00     0.039 A 
ATOM      8  C   UNL A   1      32.548  28.803  25.050  1.00  0.00     0.016 A 
ATOM      9  C   UNL A   1      31.583  27.992  27.071  1.00  0.00     0.016 A 
ATOM     10  C   UNL A   1      31.990  27.720  24.398  1.00  0.00     0.027 A 
ATOM     11  C   UNL A   1      31.161  26.817  26.395  1.00  0.00     0.027 A 
ATOM     12  C   UNL A   1      31.367  26.682  25.019  1.00  0.00     0.041 A 
BRANCH  12  13
ATOM     13  N   UNL A   1      31.084  25.507  24.299  1.00  0.00    -0.326 N 
ATOM     14  C   UNL A   1      31.571  24.216  24.311  1.00  0.00     0.228 C 
ATOM     15  H   UNL A   1      30.373  25.637  23.630  1.00  0.00     0.169 HD
ATOM     16  O   UNL A   1      30.804  23.400  23.772  1.00  0.00    -0.274 OA
BRANCH  14  17
ATOM     17  C   UNL A   1      33.004  23.731  24.782  1.00  0.00     0.095 C 
ATOM     18  C   UNL A   1      34.010  24.489  23.857  1.00  0.00     0.041 C 
ATOM     19  C   UNL A   1      33.363  22.201  24.855  1.00  0.00     0.095 C 
ATOM     20  C   UNL A   1      35.444  24.127  24.049  1.00  0.00    -0.030 C 
ATOM     21  C   UNL A   1      34.811  21.783  24.460  1.00  0.00     0.041 C 
ATOM     22  C   UNL A   1      35.810  22.874  24.319  1.00  0.00    -0.030 C 
BRANCH  19  23
ATOM     23  C   UNL A   1      33.139  21.298  26.099  1.00  0.00     0.228 C 
ATOM     24  O   UNL A   1      33.068  21.863  27.205  1.00  0.00    -0.274 OA
ATOM     25  N   UNL A   1      32.889  19.955  26.148  1.00  0.00    -0.326 N 
ATOM     26  H   UNL A   1      32.537  19.696  27.031  1.00  0.00     0.169 HD
BRANCH  25  27
ATOM     27  C   UNL A   1      32.989  18.836  25.301  1.00  0.00     0.048 A 
ATOM     28  C   UNL A   1      32.579  19.004  23.971  1.00  0.00     0.026 A 
ATOM     29  C   UNL A   1      33.362  17.559  25.684  1.00  0.00     0.111 A 
ATOM     30  C   UNL A   1      32.693  17.966  23.034  1.00  0.00     0.009 A 
ATOM     31  C   UNL A   1      33.566  16.538  24.741  1.00  0.00     0.271 A 
ATOM     32  C   UNL A   1      33.234  16.738  23.405  1.00  0.00     0.086 A 
BRANCH  31  33
ATOM     33  N   UNL A   1      34.141  15.260  25.184  1.00  0.00     0.062 N 
ATOM     34  O   UNL A   1      33.363  14.331  25.429  1.00  0.00    -0.258 OA
ATOM     35  O   UNL A   1      35.376  15.191  25.282  1.00  0.00    -0.258 OA
ENDBRANCH  31  33
ENDBRANCH  25  27
ENDBRANCH  19  23
ENDBRANCH  14  17
ENDBRANCH  12  13
ENDBRANCH   5   7
ENDBRANCH   2   3
ENDBRANCH   1   2
BRANCH   1  36
ATOM     36  C   UNL A   1      37.214  30.249  28.695  1.00  0.00     0.002 C 
BRANCH  36  37
ATOM     37  C   UNL A   1      37.647  29.079  29.587  1.00  0.00     0.002 C 
BRANCH  37  38
ATOM     38  C   UNL A   1      37.046  29.033  30.996  1.00  0.00     0.021 C 
BRANCH  38  39
ATOM     39  C   UNL A   1      36.641  30.374  31.607  1.00  0.00     0.116 C 
BRANCH  39  40
ATOM     40  N   UNL A   1      37.061  30.512  32.990  1.00  0.00    -0.352 N 
ATOM     41  C   UNL A   1      38.302  30.353  33.557  1.00  0.00     0.251 C 
ATOM     42  H   UNL A   1      36.346  30.759  33.620  1.00  0.00     0.163 HD
ATOM     43  O   UNL A   1      38.408  30.380  34.785  1.00  0.00    -0.269 OA
BRANCH  41  44
ATOM     44  C   UNL A   1      39.505  30.121  32.723  1.00  0.00     0.039 A 
ATOM     45  C   UNL A   1      40.335  29.037  33.029  1.00  0.00     0.014 A 
ATOM     46  C   UNL A   1      39.849  30.978  31.674  1.00  0.00     0.014 A 
ATOM     47  C   UNL A   1      41.467  28.777  32.250  1.00  0.00     0.010 A 
ATOM     48  C   UNL A   1      40.946  30.683  30.860  1.00  0.00     0.010 A 
ATOM     49  C   UNL A   1      41.766  29.579  31.137  1.00  0.00    -0.014 A 
BRANCH  49  50
ATOM     50  C   UNL A   1      42.920  29.266  30.250  1.00  0.00     0.031 A 
ATOM     51  C   UNL A   1      42.972  27.969  29.488  1.00  0.00     0.074 A 
ATOM     52  C   UNL A   1      43.955  30.127  30.177  1.00  0.00     0.049 A 
ATOM     53  N   UNL A   1      43.921  27.502  28.717  1.00  0.00    -0.248 NA
ATOM     54  C   UNL A   1      41.817  27.070  29.627  1.00  0.00     0.031 C 
ATOM     55  C   UNL A   1      44.047  31.403  30.891  1.00  0.00     0.029 A 
ATOM     56  N   UNL A   1      45.134  30.057  29.476  1.00  0.00    -0.354 N 
ATOM     57  C   UNL A   1      43.490  26.248  28.296  1.00  0.00     0.074 A 
ATOM     58  C   UNL A   1      42.210  26.013  28.930  1.00  0.00     0.031 C 
ATOM     59  C   UNL A   1      45.204  32.004  30.572  1.00  0.00     0.029 A 
ATOM     60  C   UNL A   1      45.956  31.143  29.665  1.00  0.00     0.049 A 
ATOM     61  H   UNL A   1      45.370  29.299  28.892  1.00  0.00     0.167 HD
ATOM     62  C   UNL A   1      44.096  25.382  27.448  1.00  0.00     0.037 A 
ATOM     63  C   UNL A   1      47.181  31.416  29.170  1.00  0.00     0.037 A 
ATOM     64  C   UNL A   1      45.355  25.632  26.795  1.00  0.00     0.049 A 
ATOM     65  C   UNL A   1      47.835  30.434  28.236  1.00  0.00     0.074 A 
ATOM     66  C   UNL A   1      46.010  24.849  25.861  1.00  0.00     0.029 A 
ATOM     67  N   UNL A   1      46.154  26.745  27.011  1.00  0.00    -0.354 N 
ATOM     68  N   UNL A   1      47.379  29.285  27.796  1.00  0.00    -0.248 NA
ATOM     69  C   UNL A   1      49.169  30.787  27.729  1.00  0.00     0.031 C 
ATOM     70  C   UNL A   1      47.228  25.462  25.549  1.00  0.00     0.029 A 
ATOM     71  C   UNL A   1      47.309  26.655  26.249  1.00  0.00     0.049 A 
ATOM     72  H   UNL A   1      45.934  27.490  27.615  1.00  0.00     0.167 HD
ATOM     73  C   UNL A   1      48.356  28.794  26.937  1.00  0.00     0.074 A 
ATOM     74  C   UNL A   1      49.424  29.772  26.914  1.00  0.00     0.031 C 
ATOM     75  C   UNL A   1      48.364  27.638  26.229  1.00  0.00     0.037 A 
BRANCH  62  76
ATOM     76  C   UNL A   1      43.407  24.070  27.181  1.00  0.00     0.058 A 
ATOM     77  C   UNL A   1      42.660  23.848  26.012  1.00  0.00     0.135 A 
ATOM     78  C   UNL A   1      43.524  23.007  28.092  1.00  0.00     0.135 A 
ATOM     79  F   UNL A   1      42.507  24.832  25.112  1.00  0.00    -0.206 F 
ATOM     80  C   UNL A   1      42.026  22.634  25.773  1.00  0.00     0.059 A 
ATOM     81  C   UNL A   1      42.921  21.774  27.860  1.00  0.00     0.059 A 
ATOM     82  F   UNL A   1      44.228  23.160  29.224  1.00  0.00    -0.206 F 
ATOM     83  C   UNL A   1      42.158  21.604  26.705  1.00  0.00     0.060 A 
BRANCH  83  84
ATOM     84  S   UNL A   1      41.320  20.037  26.385  1.00  0.00     0.124 S 
ATOM     85  O   UNL A   1      39.995  20.496  25.976  1.00  0.00    -0.237 OA
ATOM     86  O   UNL A   1      42.140  19.452  25.330  1.00  0.00    -0.237 OA
ATOM     87  O   UNL A   1      41.376  19.351  27.672  1.00  0.00    -0.744 OA
ENDBRANCH  83  84
ENDBRANCH  62  76
BRANCH  63  88
ATOM     88  C   UNL A   1      47.857  32.693  29.525  1.00  0.00     0.058 A 
ATOM     89  C   UNL A   1      47.686  33.839  28.734  1.00  0.00     0.135 A 
ATOM     90  C   UNL A   1      48.669  32.798  30.664  1.00  0.00     0.135 A 
ATOM     91  F   UNL A   1      46.925  33.784  27.630  1.00  0.00    -0.206 F 
ATOM     92  C   UNL A   1      48.305  35.043  29.053  1.00  0.00     0.059 A 
ATOM     93  C   UNL A   1      49.279  33.998  31.017  1.00  0.00     0.059 A 
ATOM     94  F   UNL A   1      48.849  31.735  31.463  1.00  0.00    -0.206 F 
ATOM     95  C   UNL A   1      49.096  35.114  30.200  1.00  0.00     0.060 A 
BRANCH  95  96
ATOM     96  S   UNL A   1      49.844  36.697  30.641  1.00  0.00     0.124 S 
ATOM     97  O   UNL A   1      49.041  37.629  29.858  1.00  0.00    -0.237 OA
ATOM     98  O   UNL A   1      49.645  36.737  32.086  1.00  0.00    -0.237 OA
ATOM     99  O   UNL A   1      51.231  36.543  30.212  1.00  0.00    -0.744 OA
ENDBRANCH  95  96
ENDBRANCH  63  88
BRANCH  75 100
ATOM    100  C   UNL A   1      49.548  27.377  25.338  1.00  0.00     0.058 A 
ATOM    101  C   UNL A   1      49.485  27.567  23.949  1.00  0.00     0.135 A 
ATOM    102  C   UNL A   1      50.777  26.978  25.890  1.00  0.00     0.135 A 
ATOM    103  F   UNL A   1      48.334  27.940  23.369  1.00  0.00    -0.206 F 
ATOM    104  C   UNL A   1      50.594  27.350  23.135  1.00  0.00     0.059 A 
ATOM    105  C   UNL A   1      51.905  26.781  25.099  1.00  0.00     0.059 A 
ATOM    106  F   UNL A   1      50.894  26.790  27.214  1.00  0.00    -0.206 F 
ATOM    107  C   UNL A   1      51.799  26.958  23.720  1.00  0.00     0.060 A 
BRANCH 107 108
ATOM    108  S   UNL A   1      53.239  26.714  22.657  1.00  0.00     0.124 S 
ATOM    109  O   UNL A   1      52.653  25.995  21.531  1.00  0.00    -0.237 OA
ATOM    110  O   UNL A   1      53.663  28.083  22.384  1.00  0.00    -0.237 OA
ATOM    111  O   UNL A   1      54.149  25.936  23.492  1.00  0.00    -0.744 OA
ENDBRANCH 107 108
ENDBRANCH  75 100
ENDBRANCH  49  50
ENDBRANCH  41  44
ENDBRANCH  39  40
ENDBRANCH  38  39
ENDBRANCH  37  38
ENDBRANCH  36  37
ENDBRANCH   1  36
TORSDOF 21
ENDMDL
MODEL 3
REMARK VINA RESULT:     -10.9      6.020      8.900
REMARK SMILES O=C(NCCCCCCNC(=O)c1ccc(-c2c3nc(c(-c4c(F)cc(S(=O)(=O)[O-])cc4F)c4ccc([nH]4)c(-c4c(F)cc(S(=O)(=O)[O-])cc4F)c4nc(c(-c5c(F)cc(S(=O)(=O)[O-])cc5F)c5ccc2[nH]5)C=C4)C=C3)cc1)c1ccc(NC(=O)[C@@H]2CC=CC[C@H]2C(=O)Nc2cccc([N+](=O)[O-])c2)cc1
REMARK SMILES IDX 5 1 4 2 3 3 1 4 2 5 79 7 80 8 105 9 81 10 104 11 82 12 83 13
REMARK SMILES IDX 84 14 85 16 86 17 87 18 91 19 88 20 90 21 89 22 92 23 93 24
REMARK SMILES IDX 94 25 95 27 96 28 103 29 97 30 99 31 98 32 100 33 101 34
REMARK SMILES IDX 102 35 6 36 7 37 8 38 9 39 10 40 11 41 12 43 13 44 14 45
REMARK SMILES IDX 78 46 15 47 77 48 16 49 17 50 18 51 71 52 19 53 76 54 70 55
REMARK SMILES IDX 72 56 20 57 75 58 69 59 68 60 21 62 55 63 34 64 54 65 35 66
REMARK SMILES IDX 38 67 53 68 73 69 36 70 37 71 52 73 74 74 39 75 22 76 23 77
REMARK SMILES IDX 32 78 24 79 25 80 31 81 33 82 26 83 27 84 28 85 29 86 30 87
REMARK SMILES IDX 56 88 57 89 66 90 58 91 59 92 65 93 67 94 60 95 61 96 62 97
REMARK SMILES IDX 63 98 64 99 40 100 41 101 50 102 42 103 43 104 49 105 51 106
REMARK SMILES IDX 44 107 45 108 46 109 47 110 48 111
REMARK H PARENT 3 6 83 15 94 26 10 42 72 61 38 72
REMARK Flexibility Score: inf
ROOT
ATOM      1  C   UNL A   1      37.698  30.450  32.013  1.00  0.00     0.021 C 
ENDROOT
BRANCH   1   2
ATOM      2  C   UNL A   1      37.729  29.178  31.172  1.00  0.00     0.116 C 
BRANCH   2   3
ATOM      3  N   UNL A   1      38.666  29.244  30.048  1.00  0.00    -0.352 N 
ATOM      4  O   UNL A   1      39.353  29.349  27.887  1.00  0.00    -0.269 OA
ATOM      5  C   UNL A   1      38.434  29.477  28.705  1.00  0.00     0.251 C 
ATOM      6  H   UNL A   1      39.610  29.099  30.286  1.00  0.00     0.163 HD
BRANCH   5   7
ATOM      7  C   UNL A   1      37.094  29.897  28.231  1.00  0.00     0.039 A 
ATOM      8  C   UNL A   1      36.803  31.241  28.211  1.00  0.00     0.016 A 
ATOM      9  C   UNL A   1      36.107  29.001  27.795  1.00  0.00     0.016 A 
ATOM     10  C   UNL A   1      35.504  31.645  27.973  1.00  0.00     0.027 A 
ATOM     11  C   UNL A   1      34.826  29.475  27.406  1.00  0.00     0.027 A 
ATOM     12  C   UNL A   1      34.516  30.834  27.505  1.00  0.00     0.041 A 
BRANCH  12  13
ATOM     13  N   UNL A   1      33.316  31.397  27.035  1.00  0.00    -0.326 N 
ATOM     14  C   UNL A   1      32.121  30.892  26.565  1.00  0.00     0.228 C 
ATOM     15  H   UNL A   1      33.333  32.382  27.043  1.00  0.00     0.169 HD
ATOM     16  O   UNL A   1      31.195  31.720  26.595  1.00  0.00    -0.274 OA
BRANCH  14  17
ATOM     17  C   UNL A   1      31.872  29.483  25.883  1.00  0.00     0.095 C 
ATOM     18  C   UNL A   1      31.506  28.525  27.061  1.00  0.00     0.041 C 
ATOM     19  C   UNL A   1      32.956  28.826  24.951  1.00  0.00     0.095 C 
ATOM     20  C   UNL A   1      31.311  27.096  26.680  1.00  0.00    -0.030 C 
ATOM     21  C   UNL A   1      33.121  27.279  25.021  1.00  0.00     0.041 C 
ATOM     22  C   UNL A   1      32.065  26.523  25.743  1.00  0.00    -0.030 C 
BRANCH  19  23
ATOM     23  C   UNL A   1      33.058  29.052  23.418  1.00  0.00     0.228 C 
ATOM     24  O   UNL A   1      34.200  29.100  22.926  1.00  0.00    -0.274 OA
ATOM     25  N   UNL A   1      32.055  29.093  22.490  1.00  0.00    -0.326 N 
ATOM     26  H   UNL A   1      32.416  28.992  21.579  1.00  0.00     0.169 HD
BRANCH  25  27
ATOM     27  C   UNL A   1      30.656  29.238  22.461  1.00  0.00     0.048 A 
ATOM     28  C   UNL A   1      29.896  28.199  23.014  1.00  0.00     0.026 A 
ATOM     29  C   UNL A   1      29.959  30.266  21.850  1.00  0.00     0.111 A 
ATOM     30  C   UNL A   1      28.497  28.274  23.086  1.00  0.00     0.009 A 
ATOM     31  C   UNL A   1      28.568  30.398  21.993  1.00  0.00     0.271 A 
ATOM     32  C   UNL A   1      27.827  29.401  22.617  1.00  0.00     0.086 A 
BRANCH  31  33
ATOM     33  N   UNL A   1      27.909  31.609  21.481  1.00  0.00     0.062 N 
ATOM     34  O   UNL A   1      27.457  31.577  20.331  1.00  0.00    -0.258 OA
ATOM     35  O   UNL A   1      27.843  32.590  22.238  1.00  0.00    -0.258 OA
ENDBRANCH  31  33
ENDBRANCH  25  27
ENDBRANCH  19  23
ENDBRANCH  14  17
ENDBRANCH  12  13
ENDBRANCH   5   7
ENDBRANCH   2   3
ENDBRANCH   1   2
BRANCH   1  36
ATOM     36  C   UNL A   1      36.308  30.919  32.438  1.00  0.00     0.002 C 
BRANCH  36  37
ATOM     37  C   UNL A   1      35.734  32.111  31.663  1.00  0.00     0.002 C 
BRANCH  37  38
ATOM     38  C   UNL A   1      34.866  33.092  32.458  1.00  0.00     0.021 C 
BRANCH  38  39
ATOM     39  C   UNL A   1      35.608  34.148  33.278  1.00  0.00     0.116 C 
BRANCH  39  40
ATOM     40  N   UNL A   1      35.953  33.686  34.611  1.00  0.00    -0.352 N 
ATOM     41  C   UNL A   1      37.164  33.292  35.123  1.00  0.00     0.251 C 
ATOM     42  H   UNL A   1      35.202  33.649  35.246  1.00  0.00     0.163 HD
ATOM     43  O   UNL A   1      37.205  32.796  36.252  1.00  0.00    -0.269 OA
BRANCH  41  44
ATOM     44  C   UNL A   1      38.413  33.423  34.336  1.00  0.00     0.039 A 
ATOM     45  C   UNL A   1      39.527  32.666  34.713  1.00  0.00     0.014 A 
ATOM     46  C   UNL A   1      38.514  34.310  33.261  1.00  0.00     0.014 A 
ATOM     47  C   UNL A   1      40.715  32.751  33.980  1.00  0.00     0.010 A 
ATOM     48  C   UNL A   1      39.681  34.349  32.493  1.00  0.00     0.010 A 
ATOM     49  C   UNL A   1      40.794  33.569  32.842  1.00  0.00    -0.014 A 
BRANCH  49  50
ATOM     50  C   UNL A   1      42.023  33.607  32.004  1.00  0.00     0.031 A 
ATOM     51  C   UNL A   1      42.976  34.770  32.093  1.00  0.00     0.074 A 
ATOM     52  C   UNL A   1      42.254  32.621  31.114  1.00  0.00     0.049 A 
ATOM     53  N   UNL A   1      44.063  35.002  31.401  1.00  0.00    -0.248 NA
ATOM     54  C   UNL A   1      42.655  35.818  33.073  1.00  0.00     0.031 C 
ATOM     55  C   UNL A   1      41.393  31.455  30.903  1.00  0.00     0.029 A 
ATOM     56  N   UNL A   1      43.275  32.444  30.213  1.00  0.00    -0.354 N 
ATOM     57  C   UNL A   1      44.543  36.230  31.845  1.00  0.00     0.074 A 
ATOM     58  C   UNL A   1      43.607  36.711  32.838  1.00  0.00     0.031 C 
ATOM     59  C   UNL A   1      41.935  30.674  29.954  1.00  0.00     0.029 A 
ATOM     60  C   UNL A   1      43.158  31.299  29.460  1.00  0.00     0.049 A 
ATOM     61  H   UNL A   1      44.023  33.078  30.115  1.00  0.00     0.167 HD
ATOM     62  C   UNL A   1      45.667  36.888  31.470  1.00  0.00     0.037 A 
ATOM     63  C   UNL A   1      43.941  30.808  28.478  1.00  0.00     0.037 A 
ATOM     64  C   UNL A   1      46.613  36.393  30.504  1.00  0.00     0.049 A 
ATOM     65  C   UNL A   1      45.180  31.561  28.077  1.00  0.00     0.074 A 
ATOM     66  C   UNL A   1      47.819  36.951  30.116  1.00  0.00     0.029 A 
ATOM     67  N   UNL A   1      46.459  35.228  29.766  1.00  0.00    -0.354 N 
ATOM     68  N   UNL A   1      45.653  32.687  28.557  1.00  0.00    -0.248 NA
ATOM     69  C   UNL A   1      45.993  30.976  27.001  1.00  0.00     0.031 C 
ATOM     70  C   UNL A   1      48.370  36.151  29.109  1.00  0.00     0.029 A 
ATOM     71  C   UNL A   1      47.533  35.066  28.905  1.00  0.00     0.049 A 
ATOM     72  H   UNL A   1      45.698  34.608  29.842  1.00  0.00     0.167 HD
ATOM     73  C   UNL A   1      46.835  32.928  27.864  1.00  0.00     0.074 A 
ATOM     74  C   UNL A   1      47.007  31.828  26.936  1.00  0.00     0.031 C 
ATOM     75  C   UNL A   1      47.699  33.964  27.989  1.00  0.00     0.037 A 
BRANCH  62  76
ATOM     76  C   UNL A   1      45.936  38.227  32.105  1.00  0.00     0.058 A 
ATOM     77  C   UNL A   1      46.706  38.353  33.273  1.00  0.00     0.135 A 
ATOM     78  C   UNL A   1      45.446  39.404  31.515  1.00  0.00     0.135 A 
ATOM     79  F   UNL A   1      47.191  37.261  33.883  1.00  0.00    -0.206 F 
ATOM     80  C   UNL A   1      46.950  39.593  33.853  1.00  0.00     0.059 A 
ATOM     81  C   UNL A   1      45.701  40.658  32.063  1.00  0.00     0.059 A 
ATOM     82  F   UNL A   1      44.708  39.344  30.396  1.00  0.00    -0.206 F 
ATOM     83  C   UNL A   1      46.439  40.740  33.244  1.00  0.00     0.060 A 
BRANCH  83  84
ATOM     84  S   UNL A   1      46.755  42.342  34.015  1.00  0.00     0.124 S 
ATOM     85  O   UNL A   1      47.059  43.169  32.850  1.00  0.00    -0.237 OA
ATOM     86  O   UNL A   1      45.487  42.626  34.678  1.00  0.00    -0.237 OA
ATOM     87  O   UNL A   1      47.880  42.075  34.905  1.00  0.00    -0.744 OA
ENDBRANCH  83  84
ENDBRANCH  62  76
BRANCH  63  88
ATOM     88  C   UNL A   1      43.591  29.518  27.826  1.00  0.00     0.058 A 
ATOM     89  C   UNL A   1      43.925  28.296  28.428  1.00  0.00     0.135 A 
ATOM     90  C   UNL A   1      42.905  29.479  26.603  1.00  0.00     0.135 A 
ATOM     91  F   UNL A   1      44.589  28.283  29.595  1.00  0.00    -0.206 F 
ATOM     92  C   UNL A   1      43.602  27.079  27.838  1.00  0.00     0.059 A 
ATOM     93  C   UNL A   1      42.549  28.274  26.004  1.00  0.00     0.059 A 
ATOM     94  F   UNL A   1      42.546  30.621  25.995  1.00  0.00    -0.206 F 
ATOM     95  C   UNL A   1      42.908  27.079  26.626  1.00  0.00     0.060 A 
BRANCH  95  96
ATOM     96  S   UNL A   1      42.437  25.496  25.898  1.00  0.00     0.124 S 
ATOM     97  O   UNL A   1      41.146  25.820  25.301  1.00  0.00    -0.237 OA
ATOM     98  O   UNL A   1      43.531  25.252  24.963  1.00  0.00    -0.237 OA
ATOM     99  O   UNL A   1      42.394  24.598  27.047  1.00  0.00    -0.744 OA
ENDBRANCH  95  96
ENDBRANCH  63  88
BRANCH  75 100
ATOM    100  C   UNL A   1      48.933  33.948  27.128  1.00  0.00     0.058 A 
ATOM    101  C   UNL A   1      50.087  33.243  27.502  1.00  0.00     0.135 A 
ATOM    102  C   UNL A   1      48.941  34.607  25.887  1.00  0.00     0.135 A 
ATOM    103  F   UNL A   1      50.136  32.603  28.681  1.00  0.00    -0.206 F 
ATOM    104  C   UNL A   1      51.215  33.211  26.687  1.00  0.00     0.059 A 
ATOM    105  C   UNL A   1      50.047  34.566  25.044  1.00  0.00     0.059 A 
ATOM    106  F   UNL A   1      47.860  35.289  25.477  1.00  0.00    -0.206 F 
ATOM    107  C   UNL A   1      51.184  33.874  25.459  1.00  0.00     0.060 A 
BRANCH 107 108
ATOM    108  S   UNL A   1      52.641  33.795  24.395  1.00  0.00     0.124 S 
ATOM    109  O   UNL A   1      53.642  33.254  25.308  1.00  0.00    -0.237 OA
ATOM    110  O   UNL A   1      52.204  32.898  23.330  1.00  0.00    -0.237 OA
ATOM    111  O   UNL A   1      52.845  35.184  23.994  1.00  0.00    -0.744 OA
ENDBRANCH 107 108
ENDBRANCH  75 100
ENDBRANCH  49  50
ENDBRANCH  41  44
ENDBRANCH  39  40
ENDBRANCH  38  39
ENDBRANCH  37  38
ENDBRANCH  36  37
ENDBRANCH   1  36
TORSDOF 21
ENDMDL
