MODEL 1
REMARK VINA RESULT:     -13.0      0.000      0.000
REMARK SMILES Cc1ccc(-c2cc(Cl)cc3c2O[C@H](C(F)(F)F)C(C(=O)NCCCCCCNC(=O)c2ccc(-c4c5nc(c(-c6c(F)cc(S(=O)(=O)[O-])cc6F)c6ccc([nH]6)c(-c6c(F)cc(S(=O)(=O)[O-])cc6F)c6nc(c(-c7c(F)cc(S(=O)(=O)[O-])cc7F)c7ccc4[nH]7)C=C6)C=C5)cc2)=C3)cc1F
REMARK SMILES IDX 26 1 25 2 24 3 23 4 22 5 20 6 21 7 19 9 6 10 7 11 12 12 8 13
REMARK SMILES IDX 11 14 13 15 9 16 10 17 98 18 14 19 5 20 1 21 2 22 3 23
REMARK SMILES IDX 100 24 4 25 99 26 101 27 15 28 16 29 17 30 18 31 27 32 28 33
REMARK SMILES IDX 29 34 30 35 31 37 32 38 33 39 97 40 34 41 96 42 35 43 36 44
REMARK SMILES IDX 37 45 90 46 38 47 95 48 89 49 91 50 39 51 94 52 88 53 87 54
REMARK SMILES IDX 40 56 74 57 53 58 73 59 54 60 57 61 72 62 92 63 55 64 56 65
REMARK SMILES IDX 71 67 93 68 58 69 41 70 42 71 51 72 43 73 44 74 50 75 52 76
REMARK SMILES IDX 45 77 46 78 47 79 48 80 49 81 75 82 76 83 85 84 77 85 78 86
REMARK SMILES IDX 84 87 86 88 79 89 80 90 81 91 82 92 83 93 59 94 60 95 69 96
REMARK SMILES IDX 61 97 62 98 68 99 70 100 63 101 64 102 65 103 66 104 67 105
REMARK H PARENT 22 8 29 36 91 55 57 66
REMARK Flexibility Score: inf
ROOT
ATOM      1  C   UNL A   1      35.113  21.352  24.683  1.00  0.00     0.002 C 
ENDROOT
BRANCH   1   2
ATOM      2  C   UNL A   1      33.860  20.609  25.152  1.00  0.00     0.002 C 
BRANCH   2   3
ATOM      3  C   UNL A   1      32.676  20.715  24.190  1.00  0.00     0.021 C 
BRANCH   3   4
ATOM      4  C   UNL A   1      32.016  22.092  24.237  1.00  0.00     0.116 C 
BRANCH   4   5
ATOM      5  N   UNL A   1      31.202  22.243  25.437  1.00  0.00    -0.352 N 
ATOM      6  C   UNL A   1      30.738  23.255  26.205  1.00  0.00     0.251 C 
ATOM      7  O   UNL A   1      30.107  22.925  27.215  1.00  0.00    -0.270 OA
ATOM      8  H   UNL A   1      30.909  21.369  25.782  1.00  0.00     0.163 HD
BRANCH   6   9
ATOM      9  C   UNL A   1      30.937  24.704  25.911  1.00  0.00     0.067 C 
ATOM     10  C   UNL A   1      31.348  28.813  25.082  1.00  0.00     0.026 A 
ATOM     11  C   UNL A   1      30.596  29.376  24.042  1.00  0.00     0.033 A 
ATOM     12  C   UNL A   1      31.160  27.447  25.371  1.00  0.00     0.135 A 
ATOM     13  C   UNL A   1      29.696  28.588  23.320  1.00  0.00     0.042 A 
ATOM     14  C   UNL A   1      30.266  26.655  24.647  1.00  0.00     0.019 A 
ATOM     15  O   UNL A   1      31.838  26.953  26.451  1.00  0.00    -0.475 OA
ATOM     16  Cl  UNL A   1      28.768  29.303  22.056  1.00  0.00    -0.084 Cl
ATOM     17  C   UNL A   1      29.530  27.233  23.612  1.00  0.00     0.032 A 
ATOM     18  C   UNL A   1      30.096  25.252  25.012  1.00  0.00     0.025 C 
ATOM     19  C   UNL A   1      32.035  25.523  26.520  1.00  0.00     0.314 C 
BRANCH  10  20
ATOM     20  C   UNL A   1      32.307  29.619  25.858  1.00  0.00    -0.012 A 
ATOM     21  C   UNL A   1      35.060  31.759  28.423  1.00  0.00     0.047 C 
ATOM     22  C   UNL A   1      34.100  31.045  27.521  1.00  0.00    -0.015 A 
ATOM     23  C   UNL A   1      32.793  31.505  27.329  1.00  0.00     0.007 A 
ATOM     24  C   UNL A   1      34.500  29.880  26.866  1.00  0.00     0.126 A 
ATOM     25  C   UNL A   1      31.908  30.800  26.504  1.00  0.00     0.009 A 
ATOM     26  C   UNL A   1      33.627  29.177  26.042  1.00  0.00     0.048 A 
ATOM     27  F   UNL A   1      35.742  29.411  27.042  1.00  0.00    -0.207 F 
ENDBRANCH  10  20
BRANCH  19  28
ATOM     28  C   UNL A   1      33.427  25.173  25.963  1.00  0.00     0.429 C 
ATOM     29  F   UNL A   1      34.293  26.194  26.172  1.00  0.00    -0.167 F 
ATOM     30  F   UNL A   1      33.966  24.078  26.546  1.00  0.00    -0.167 F 
ATOM     31  F   UNL A   1      33.398  24.935  24.630  1.00  0.00    -0.167 F 
ENDBRANCH  19  28
ENDBRANCH   6   9
ENDBRANCH   4   5
ENDBRANCH   3   4
ENDBRANCH   2   3
ENDBRANCH   1   2
BRANCH   1  32
ATOM     32  C   UNL A   1      36.057  21.814  25.794  1.00  0.00     0.021 C 
BRANCH  32  33
ATOM     33  C   UNL A   1      37.015  22.928  25.405  1.00  0.00     0.116 C 
BRANCH  33  34
ATOM     34  N   UNL A   1      38.410  22.560  25.303  1.00  0.00    -0.352 N 
ATOM     35  C   UNL A   1      39.510  22.885  26.059  1.00  0.00     0.251 C 
ATOM     36  H   UNL A   1      38.610  21.963  24.547  1.00  0.00     0.163 HD
ATOM     37  O   UNL A   1      40.441  22.078  26.116  1.00  0.00    -0.269 OA
BRANCH  35  38
ATOM     38  C   UNL A   1      39.686  24.237  26.648  1.00  0.00     0.039 A 
ATOM     39  C   UNL A   1      40.512  25.243  26.139  1.00  0.00     0.014 A 
ATOM     40  C   UNL A   1      39.082  24.408  27.903  1.00  0.00     0.014 A 
ATOM     41  C   UNL A   1      40.886  26.312  26.957  1.00  0.00     0.010 A 
ATOM     42  C   UNL A   1      39.448  25.468  28.715  1.00  0.00     0.010 A 
ATOM     43  C   UNL A   1      40.400  26.382  28.265  1.00  0.00    -0.014 A 
BRANCH  43  44
ATOM     44  C   UNL A   1      40.756  27.461  29.176  1.00  0.00     0.031 A 
ATOM     45  C   UNL A   1      39.856  28.635  29.237  1.00  0.00     0.074 A 
ATOM     46  C   UNL A   1      41.891  27.438  29.913  1.00  0.00     0.049 A 
ATOM     47  N   UNL A   1      40.249  29.839  29.477  1.00  0.00    -0.248 NA
ATOM     48  C   UNL A   1      38.428  28.550  28.939  1.00  0.00     0.031 C 
ATOM     49  C   UNL A   1      42.238  28.334  31.006  1.00  0.00     0.029 A 
ATOM     50  N   UNL A   1      43.051  26.688  29.719  1.00  0.00    -0.354 N 
ATOM     51  C   UNL A   1      39.126  30.615  29.662  1.00  0.00     0.074 A 
ATOM     52  C   UNL A   1      38.030  29.804  29.187  1.00  0.00     0.031 C 
ATOM     53  C   UNL A   1      43.559  28.264  31.233  1.00  0.00     0.029 A 
ATOM     54  C   UNL A   1      44.153  27.425  30.207  1.00  0.00     0.049 A 
ATOM     55  H   UNL A   1      43.095  25.793  29.312  1.00  0.00     0.167 HD
ATOM     56  C   UNL A   1      39.244  31.792  30.343  1.00  0.00     0.037 A 
ATOM     57  C   UNL A   1      45.202  27.802  29.402  1.00  0.00     0.037 A 
ATOM     58  C   UNL A   1      40.628  32.005  30.754  1.00  0.00     0.049 A 
ATOM     59  C   UNL A   1      45.305  29.286  29.165  1.00  0.00     0.074 A 
ATOM     60  C   UNL A   1      41.326  31.691  31.908  1.00  0.00     0.029 A 
ATOM     61  N   UNL A   1      41.570  32.350  29.811  1.00  0.00    -0.354 N 
ATOM     62  N   UNL A   1      44.471  30.153  29.655  1.00  0.00    -0.248 NA
ATOM     63  C   UNL A   1      46.296  29.904  28.283  1.00  0.00     0.031 C 
ATOM     64  C   UNL A   1      42.711  31.834  31.635  1.00  0.00     0.029 A 
ATOM     65  C   UNL A   1      42.848  32.246  30.321  1.00  0.00     0.049 A 
ATOM     66  H   UNL A   1      41.359  32.633  28.892  1.00  0.00     0.167 HD
ATOM     67  C   UNL A   1      44.744  31.388  29.144  1.00  0.00     0.074 A 
ATOM     68  C   UNL A   1      45.899  31.188  28.290  1.00  0.00     0.031 C 
ATOM     69  C   UNL A   1      43.980  32.475  29.444  1.00  0.00     0.037 A 
BRANCH  56  70
ATOM     70  C   UNL A   1      38.117  32.640  30.895  1.00  0.00     0.058 A 
ATOM     71  C   UNL A   1      37.583  32.343  32.172  1.00  0.00     0.135 A 
ATOM     72  C   UNL A   1      37.505  33.729  30.244  1.00  0.00     0.135 A 
ATOM     73  F   UNL A   1      38.110  31.392  32.955  1.00  0.00    -0.206 F 
ATOM     74  C   UNL A   1      36.483  32.999  32.714  1.00  0.00     0.059 A 
ATOM     75  C   UNL A   1      36.377  34.385  30.755  1.00  0.00     0.059 A 
ATOM     76  F   UNL A   1      38.001  34.236  29.108  1.00  0.00    -0.206 F 
ATOM     77  C   UNL A   1      35.867  34.004  31.989  1.00  0.00     0.060 A 
BRANCH  77  78
ATOM     78  S   UNL A   1      34.421  34.802  32.706  1.00  0.00     0.124 S 
ATOM     79  O   UNL A   1      33.890  35.549  31.570  1.00  0.00    -0.237 OA
ATOM     80  O   UNL A   1      33.625  33.658  33.140  1.00  0.00    -0.237 OA
ATOM     81  O   UNL A   1      34.980  35.618  33.780  1.00  0.00    -0.744 OA
ENDBRANCH  77  78
ENDBRANCH  56  70
BRANCH  57  82
ATOM     82  C   UNL A   1      45.626  26.781  28.389  1.00  0.00     0.058 A 
ATOM     83  C   UNL A   1      45.308  27.101  27.058  1.00  0.00     0.135 A 
ATOM     84  C   UNL A   1      46.860  26.183  28.646  1.00  0.00     0.135 A 
ATOM     85  F   UNL A   1      44.077  27.539  26.748  1.00  0.00    -0.206 F 
ATOM     86  C   UNL A   1      46.304  27.213  26.100  1.00  0.00     0.059 A 
ATOM     87  C   UNL A   1      47.889  26.423  27.752  1.00  0.00     0.059 A 
ATOM     88  F   UNL A   1      47.162  25.751  29.880  1.00  0.00    -0.206 F 
ATOM     89  C   UNL A   1      47.616  27.011  26.517  1.00  0.00     0.060 A 
BRANCH  89  90
ATOM     90  S   UNL A   1      48.905  27.904  25.615  1.00  0.00     0.124 S 
ATOM     91  O   UNL A   1      48.472  27.782  24.246  1.00  0.00    -0.237 OA
ATOM     92  O   UNL A   1      48.809  29.233  26.226  1.00  0.00    -0.237 OA
ATOM     93  O   UNL A   1      50.125  27.169  25.965  1.00  0.00    -0.744 OA
ENDBRANCH  89  90
ENDBRANCH  57  82
BRANCH  69  94
ATOM     94  C   UNL A   1      44.278  33.849  28.939  1.00  0.00     0.058 A 
ATOM     95  C   UNL A   1      44.736  34.863  29.792  1.00  0.00     0.135 A 
ATOM     96  C   UNL A   1      43.994  34.226  27.609  1.00  0.00     0.135 A 
ATOM     97  F   UNL A   1      44.966  34.614  31.092  1.00  0.00    -0.206 F 
ATOM     98  C   UNL A   1      44.970  36.158  29.339  1.00  0.00     0.059 A 
ATOM     99  C   UNL A   1      44.160  35.525  27.149  1.00  0.00     0.059 A 
ATOM    100  F   UNL A   1      43.582  33.329  26.699  1.00  0.00    -0.206 F 
ATOM    101  C   UNL A   1      44.685  36.476  28.013  1.00  0.00     0.060 A 
BRANCH 101 102
ATOM    102  S   UNL A   1      45.023  38.141  27.417  1.00  0.00     0.124 S 
ATOM    103  O   UNL A   1      43.792  38.482  26.710  1.00  0.00    -0.237 OA
ATOM    104  O   UNL A   1      45.247  38.851  28.672  1.00  0.00    -0.237 OA
ATOM    105  O   UNL A   1      46.199  37.968  26.571  1.00  0.00    -0.744 OA
ENDBRANCH 101 102
ENDBRANCH  69  94
ENDBRANCH  43  44
ENDBRANCH  35  38
ENDBRANCH  33  34
ENDBRANCH  32  33
ENDBRANCH   1  32
TORSDOF 18
ENDMDL
MODEL 2
REMARK VINA RESULT:     -12.7      2.069      2.681
REMARK SMILES Cc1ccc(-c2cc(Cl)cc3c2O[C@H](C(F)(F)F)C(C(=O)NCCCCCCNC(=O)c2ccc(-c4c5nc(c(-c6c(F)cc(S(=O)(=O)[O-])cc6F)c6ccc([nH]6)c(-c6c(F)cc(S(=O)(=O)[O-])cc6F)c6nc(c(-c7c(F)cc(S(=O)(=O)[O-])cc7F)c7ccc4[nH]7)C=C6)C=C5)cc2)=C3)cc1F
REMARK SMILES IDX 26 1 25 2 24 3 23 4 22 5 20 6 21 7 19 9 6 10 7 11 12 12 8 13
REMARK SMILES IDX 11 14 13 15 9 16 10 17 98 18 14 19 5 20 1 21 2 22 3 23
REMARK SMILES IDX 100 24 4 25 99 26 101 27 15 28 16 29 17 30 18 31 27 32 28 33
REMARK SMILES IDX 29 34 30 35 31 37 32 38 33 39 97 40 34 41 96 42 35 43 36 44
REMARK SMILES IDX 37 45 90 46 38 47 95 48 89 49 91 50 39 51 94 52 88 53 87 54
REMARK SMILES IDX 40 56 74 57 53 58 73 59 54 60 57 61 72 62 92 63 55 64 56 65
REMARK SMILES IDX 71 67 93 68 58 69 41 70 42 71 51 72 43 73 44 74 50 75 52 76
REMARK SMILES IDX 45 77 46 78 47 79 48 80 49 81 75 82 76 83 85 84 77 85 78 86
REMARK SMILES IDX 84 87 86 88 79 89 80 90 81 91 82 92 83 93 59 94 60 95 69 96
REMARK SMILES IDX 61 97 62 98 68 99 70 100 63 101 64 102 65 103 66 104 67 105
REMARK H PARENT 22 8 29 36 91 55 57 66
REMARK Flexibility Score: inf
ROOT
ATOM      1  C   UNL A   1      35.487  22.516  25.572  1.00  0.00     0.002 C 
ENDROOT
BRANCH   1   2
ATOM      2  C   UNL A   1      34.623  22.983  26.745  1.00  0.00     0.002 C 
BRANCH   2   3
ATOM      3  C   UNL A   1      33.441  22.064  27.052  1.00  0.00     0.021 C 
BRANCH   3   4
ATOM      4  C   UNL A   1      32.102  22.711  26.703  1.00  0.00     0.116 C 
BRANCH   4   5
ATOM      5  N   UNL A   1      31.809  22.579  25.281  1.00  0.00    -0.352 N 
ATOM      6  C   UNL A   1      31.481  23.393  24.252  1.00  0.00     0.251 C 
ATOM      7  O   UNL A   1      31.246  22.837  23.174  1.00  0.00    -0.270 OA
ATOM      8  H   UNL A   1      31.864  21.640  24.992  1.00  0.00     0.163 HD
BRANCH   6   9
ATOM      9  C   UNL A   1      31.394  24.880  24.340  1.00  0.00     0.067 C 
ATOM     10  C   UNL A   1      30.999  29.065  24.604  1.00  0.00     0.026 A 
ATOM     11  C   UNL A   1      30.069  29.714  23.780  1.00  0.00     0.033 A 
ATOM     12  C   UNL A   1      31.081  27.660  24.531  1.00  0.00     0.135 A 
ATOM     13  C   UNL A   1      29.261  28.973  22.913  1.00  0.00     0.042 A 
ATOM     14  C   UNL A   1      30.279  26.917  23.661  1.00  0.00     0.019 A 
ATOM     15  O   UNL A   1      31.929  27.053  25.415  1.00  0.00    -0.475 OA
ATOM     16  Cl  UNL A   1      28.113  29.788  21.921  1.00  0.00    -0.084 Cl
ATOM     17  C   UNL A   1      29.364  27.582  22.845  1.00  0.00     0.032 A 
ATOM     18  C   UNL A   1      30.393  25.461  23.652  1.00  0.00     0.025 C 
ATOM     19  C   UNL A   1      32.381  25.716  25.098  1.00  0.00     0.314 C 
BRANCH  10  20
ATOM     20  C   UNL A   1      31.866  29.821  25.525  1.00  0.00    -0.012 A 
ATOM     21  C   UNL A   1      34.307  31.807  28.496  1.00  0.00     0.047 C 
ATOM     22  C   UNL A   1      33.457  31.147  27.454  1.00  0.00    -0.015 A 
ATOM     23  C   UNL A   1      32.198  31.648  27.108  1.00  0.00     0.007 A 
ATOM     24  C   UNL A   1      33.912  29.991  26.819  1.00  0.00     0.126 A 
ATOM     25  C   UNL A   1      31.413  30.992  26.151  1.00  0.00     0.009 A 
ATOM     26  C   UNL A   1      33.139  29.336  25.865  1.00  0.00     0.048 A 
ATOM     27  F   UNL A   1      35.110  29.483  27.140  1.00  0.00    -0.207 F 
ENDBRANCH  10  20
BRANCH  19  28
ATOM     28  C   UNL A   1      33.757  25.793  24.412  1.00  0.00     0.429 C 
ATOM     29  F   UNL A   1      34.737  25.964  25.333  1.00  0.00    -0.167 F 
ATOM     30  F   UNL A   1      34.062  24.673  23.720  1.00  0.00    -0.167 F 
ATOM     31  F   UNL A   1      33.836  26.829  23.543  1.00  0.00    -0.167 F 
ENDBRANCH  19  28
ENDBRANCH   6   9
ENDBRANCH   4   5
ENDBRANCH   3   4
ENDBRANCH   2   3
ENDBRANCH   1   2
BRANCH   1  32
ATOM     32  C   UNL A   1      36.979  22.366  25.873  1.00  0.00     0.021 C 
BRANCH  32  33
ATOM     33  C   UNL A   1      37.737  23.672  26.054  1.00  0.00     0.116 C 
BRANCH  33  34
ATOM     34  N   UNL A   1      39.174  23.599  25.911  1.00  0.00    -0.352 N 
ATOM     35  C   UNL A   1      40.203  24.178  26.612  1.00  0.00     0.251 C 
ATOM     36  H   UNL A   1      39.472  23.025  25.169  1.00  0.00     0.163 HD
ATOM     37  O   UNL A   1      41.284  23.585  26.661  1.00  0.00    -0.269 OA
BRANCH  35  38
ATOM     38  C   UNL A   1      40.110  25.560  27.146  1.00  0.00     0.039 A 
ATOM     39  C   UNL A   1      40.560  26.713  26.498  1.00  0.00     0.014 A 
ATOM     40  C   UNL A   1      39.678  25.641  28.479  1.00  0.00     0.014 A 
ATOM     41  C   UNL A   1      40.763  27.885  27.230  1.00  0.00     0.010 A 
ATOM     42  C   UNL A   1      39.874  26.802  29.207  1.00  0.00     0.010 A 
ATOM     43  C   UNL A   1      40.478  27.902  28.598  1.00  0.00    -0.014 A 
BRANCH  43  44
ATOM     44  C   UNL A   1      40.675  29.084  29.424  1.00  0.00     0.031 A 
ATOM     45  C   UNL A   1      39.571  30.068  29.492  1.00  0.00     0.074 A 
ATOM     46  C   UNL A   1      41.836  29.322  30.078  1.00  0.00     0.049 A 
ATOM     47  N   UNL A   1      39.739  31.337  29.641  1.00  0.00    -0.248 NA
ATOM     48  C   UNL A   1      38.170  29.696  29.303  1.00  0.00     0.031 C 
ATOM     49  C   UNL A   1      42.071  30.336  31.096  1.00  0.00     0.029 A 
ATOM     50  N   UNL A   1      43.105  28.794  29.838  1.00  0.00    -0.354 N 
ATOM     51  C   UNL A   1      38.501  31.898  29.869  1.00  0.00     0.074 A 
ATOM     52  C   UNL A   1      37.555  30.866  29.516  1.00  0.00     0.031 C 
ATOM     53  C   UNL A   1      43.393  30.531  31.229  1.00  0.00     0.029 A 
ATOM     54  C   UNL A   1      44.072  29.756  30.206  1.00  0.00     0.049 A 
ATOM     55  H   UNL A   1      43.295  27.900  29.474  1.00  0.00     0.167 HD
ATOM     56  C   UNL A   1      38.432  33.117  30.479  1.00  0.00     0.037 A 
ATOM     57  C   UNL A   1      44.978  30.272  29.309  1.00  0.00     0.037 A 
ATOM     58  C   UNL A   1      39.772  33.613  30.776  1.00  0.00     0.049 A 
ATOM     59  C   UNL A   1      44.778  31.731  28.990  1.00  0.00     0.074 A 
ATOM     60  C   UNL A   1      40.588  33.510  31.891  1.00  0.00     0.029 A 
ATOM     61  N   UNL A   1      40.569  34.069  29.751  1.00  0.00    -0.354 N 
ATOM     62  N   UNL A   1      43.824  32.454  29.496  1.00  0.00    -0.248 NA
ATOM     63  C   UNL A   1      45.574  32.468  28.008  1.00  0.00     0.031 C 
ATOM     64  C   UNL A   1      41.899  33.894  31.510  1.00  0.00     0.029 A 
ATOM     65  C   UNL A   1      41.872  34.241  30.171  1.00  0.00     0.049 A 
ATOM     66  H   UNL A   1      40.252  34.248  28.837  1.00  0.00     0.167 HD
ATOM     67  C   UNL A   1      43.822  33.684  28.904  1.00  0.00     0.074 A 
ATOM     68  C   UNL A   1      44.938  33.652  27.980  1.00  0.00     0.031 C 
ATOM     69  C   UNL A   1      42.883  34.624  29.204  1.00  0.00     0.037 A 
BRANCH  56  70
ATOM     70  C   UNL A   1      37.199  33.770  31.067  1.00  0.00     0.058 A 
ATOM     71  C   UNL A   1      36.153  34.183  30.208  1.00  0.00     0.135 A 
ATOM     72  C   UNL A   1      36.974  34.035  32.432  1.00  0.00     0.135 A 
ATOM     73  F   UNL A   1      36.174  33.927  28.893  1.00  0.00    -0.206 F 
ATOM     74  C   UNL A   1      35.033  34.882  30.646  1.00  0.00     0.059 A 
ATOM     75  C   UNL A   1      35.869  34.764  32.894  1.00  0.00     0.059 A 
ATOM     76  F   UNL A   1      37.789  33.560  33.383  1.00  0.00    -0.206 F 
ATOM     77  C   UNL A   1      34.908  35.192  31.989  1.00  0.00     0.060 A 
BRANCH  77  78
ATOM     78  S   UNL A   1      33.464  36.132  32.511  1.00  0.00     0.124 S 
ATOM     79  O   UNL A   1      33.412  37.193  31.509  1.00  0.00    -0.237 OA
ATOM     80  O   UNL A   1      32.404  35.132  32.431  1.00  0.00    -0.237 OA
ATOM     81  O   UNL A   1      33.811  36.569  33.860  1.00  0.00    -0.744 OA
ENDBRANCH  77  78
ENDBRANCH  56  70
BRANCH  57  82
ATOM     82  C   UNL A   1      45.527  29.288  28.321  1.00  0.00     0.058 A 
ATOM     83  C   UNL A   1      46.466  28.383  28.847  1.00  0.00     0.135 A 
ATOM     84  C   UNL A   1      44.599  28.810  27.397  1.00  0.00     0.135 A 
ATOM     85  F   UNL A   1      47.467  28.828  29.623  1.00  0.00    -0.206 F 
ATOM     86  C   UNL A   1      46.239  27.016  28.790  1.00  0.00     0.059 A 
ATOM     87  C   UNL A   1      44.275  27.465  27.447  1.00  0.00     0.059 A 
ATOM     88  F   UNL A   1      43.760  29.654  26.776  1.00  0.00    -0.206 F 
ATOM     89  C   UNL A   1      45.050  26.590  28.209  1.00  0.00     0.060 A 
BRANCH  89  90
ATOM     90  S   UNL A   1      44.355  25.034  28.818  1.00  0.00     0.124 S 
ATOM     91  O   UNL A   1      43.065  25.441  29.315  1.00  0.00    -0.237 OA
ATOM     92  O   UNL A   1      44.371  24.221  27.599  1.00  0.00    -0.237 OA
ATOM     93  O   UNL A   1      45.326  24.613  29.833  1.00  0.00    -0.744 OA
ENDBRANCH  89  90
ENDBRANCH  57  82
BRANCH  69  94
ATOM     94  C   UNL A   1      42.878  35.994  28.609  1.00  0.00     0.058 A 
ATOM     95  C   UNL A   1      43.287  37.115  29.345  1.00  0.00     0.135 A 
ATOM     96  C   UNL A   1      42.346  36.242  27.326  1.00  0.00     0.135 A 
ATOM     97  F   UNL A   1      43.741  36.984  30.602  1.00  0.00    -0.206 F 
ATOM     98  C   UNL A   1      43.240  38.402  28.815  1.00  0.00     0.059 A 
ATOM     99  C   UNL A   1      42.232  37.522  26.799  1.00  0.00     0.059 A 
ATOM    100  F   UNL A   1      41.956  35.240  26.523  1.00  0.00    -0.206 F 
ATOM    101  C   UNL A   1      42.717  38.592  27.537  1.00  0.00     0.060 A 
BRANCH 101 102
ATOM    102  S   UNL A   1      42.692  40.250  26.837  1.00  0.00     0.124 S 
ATOM    103  O   UNL A   1      43.682  40.159  25.768  1.00  0.00    -0.237 OA
ATOM    104  O   UNL A   1      41.302  40.354  26.403  1.00  0.00    -0.237 OA
ATOM    105  O   UNL A   1      43.066  41.101  27.962  1.00  0.00    -0.744 OA
ENDBRANCH 101 102
ENDBRANCH  69  94
ENDBRANCH  43  44
ENDBRANCH  35  38
ENDBRANCH  33  34
ENDBRANCH  32  33
ENDBRANCH   1  32
TORSDOF 18
ENDMDL
MODEL 3
REMARK VINA RESULT:     -12.5      2.578      3.811
REMARK SMILES Cc1ccc(-c2cc(Cl)cc3c2O[C@H](C(F)(F)F)C(C(=O)NCCCCCCNC(=O)c2ccc(-c4c5nc(c(-c6c(F)cc(S(=O)(=O)[O-])cc6F)c6ccc([nH]6)c(-c6c(F)cc(S(=O)(=O)[O-])cc6F)c6nc(c(-c7c(F)cc(S(=O)(=O)[O-])cc7F)c7ccc4[nH]7)C=C6)C=C5)cc2)=C3)cc1F
REMARK SMILES IDX 26 1 25 2 24 3 23 4 22 5 20 6 21 7 19 9 6 10 7 11 12 12 8 13
REMARK SMILES IDX 11 14 13 15 9 16 10 17 98 18 14 19 5 20 1 21 2 22 3 23
REMARK SMILES IDX 100 24 4 25 99 26 101 27 15 28 16 29 17 30 18 31 27 32 28 33
REMARK SMILES IDX 29 34 30 35 31 37 32 38 33 39 97 40 34 41 96 42 35 43 36 44
REMARK SMILES IDX 37 45 90 46 38 47 95 48 89 49 91 50 39 51 94 52 88 53 87 54
REMARK SMILES IDX 40 56 74 57 53 58 73 59 54 60 57 61 72 62 92 63 55 64 56 65
REMARK SMILES IDX 71 67 93 68 58 69 41 70 42 71 51 72 43 73 44 74 50 75 52 76
REMARK SMILES IDX 45 77 46 78 47 79 48 80 49 81 75 82 76 83 85 84 77 85 78 86
REMARK SMILES IDX 84 87 86 88 79 89 80 90 81 91 82 92 83 93 59 94 60 95 69 96
REMARK SMILES IDX 61 97 62 98 68 99 70 100 63 101 64 102 65 103 66 104 67 105
REMARK H PARENT 22 8 29 36 91 55 57 66
REMARK Flexibility Score: inf
ROOT
ATOM      1  C   UNL A   1      36.245  22.530  25.011  1.00  0.00     0.002 C 
ENDROOT
BRANCH   1   2
ATOM      2  C   UNL A   1      35.484  21.311  24.486  1.00  0.00     0.002 C 
BRANCH   2   3
ATOM      3  C   UNL A   1      34.128  21.644  23.863  1.00  0.00     0.021 C 
BRANCH   3   4
ATOM      4  C   UNL A   1      33.641  23.039  24.252  1.00  0.00     0.116 C 
BRANCH   4   5
ATOM      5  N   UNL A   1      32.988  23.023  25.555  1.00  0.00    -0.352 N 
ATOM      6  C   UNL A   1      32.389  23.912  26.380  1.00  0.00     0.251 C 
ATOM      7  O   UNL A   1      32.010  23.470  27.470  1.00  0.00    -0.270 OA
ATOM      8  H   UNL A   1      32.981  22.117  25.940  1.00  0.00     0.163 HD
BRANCH   6   9
ATOM      9  C   UNL A   1      32.165  25.351  26.058  1.00  0.00     0.067 C 
ATOM     10  C   UNL A   1      31.682  29.436  25.150  1.00  0.00     0.026 A 
ATOM     11  C   UNL A   1      32.338  30.390  25.939  1.00  0.00     0.033 A 
ATOM     12  C   UNL A   1      31.895  28.074  25.443  1.00  0.00     0.135 A 
ATOM     13  C   UNL A   1      33.170  29.985  26.986  1.00  0.00     0.042 A 
ATOM     14  C   UNL A   1      32.721  27.665  26.494  1.00  0.00     0.019 A 
ATOM     15  O   UNL A   1      31.316  27.170  24.597  1.00  0.00    -0.475 OA
ATOM     16  Cl  UNL A   1      33.981  31.174  27.933  1.00  0.00    -0.084 Cl
ATOM     17  C   UNL A   1      33.361  28.631  27.271  1.00  0.00     0.032 A 
ATOM     18  C   UNL A   1      32.922  26.239  26.731  1.00  0.00     0.025 C 
ATOM     19  C   UNL A   1      31.126  25.823  25.086  1.00  0.00     0.314 C 
BRANCH  10  20
ATOM     20  C   UNL A   1      30.796  29.834  24.041  1.00  0.00    -0.012 A 
ATOM     21  C   UNL A   1      27.959  30.745  20.903  1.00  0.00     0.047 C 
ATOM     22  C   UNL A   1      28.964  30.437  21.969  1.00  0.00    -0.015 A 
ATOM     23  C   UNL A   1      30.065  29.610  21.723  1.00  0.00     0.007 A 
ATOM     24  C   UNL A   1      28.799  30.964  23.250  1.00  0.00     0.126 A 
ATOM     25  C   UNL A   1      30.972  29.314  22.749  1.00  0.00     0.009 A 
ATOM     26  C   UNL A   1      29.699  30.678  24.273  1.00  0.00     0.048 A 
ATOM     27  F   UNL A   1      27.747  31.750  23.516  1.00  0.00    -0.207 F 
ENDBRANCH  10  20
BRANCH  19  28
ATOM     28  C   UNL A   1      29.690  25.672  25.619  1.00  0.00     0.429 C 
ATOM     29  F   UNL A   1      29.367  24.363  25.751  1.00  0.00    -0.167 F 
ATOM     30  F   UNL A   1      29.518  26.241  26.834  1.00  0.00    -0.167 F 
ATOM     31  F   UNL A   1      28.777  26.232  24.789  1.00  0.00    -0.167 F 
ENDBRANCH  19  28
ENDBRANCH   6   9
ENDBRANCH   4   5
ENDBRANCH   3   4
ENDBRANCH   2   3
ENDBRANCH   1   2
BRANCH   1  32
ATOM     32  C   UNL A   1      37.504  22.220  25.822  1.00  0.00     0.021 C 
BRANCH  32  33
ATOM     33  C   UNL A   1      38.215  23.432  26.400  1.00  0.00     0.116 C 
BRANCH  33  34
ATOM     34  N   UNL A   1      39.616  23.567  26.065  1.00  0.00    -0.352 N 
ATOM     35  C   UNL A   1      40.627  24.323  26.605  1.00  0.00     0.251 C 
ATOM     36  H   UNL A   1      39.898  23.011  25.303  1.00  0.00     0.163 HD
ATOM     37  O   UNL A   1      41.783  23.900  26.521  1.00  0.00    -0.269 OA
BRANCH  35  38
ATOM     38  C   UNL A   1      40.394  25.698  27.113  1.00  0.00     0.039 A 
ATOM     39  C   UNL A   1      40.836  26.875  26.503  1.00  0.00     0.014 A 
ATOM     40  C   UNL A   1      39.823  25.756  28.394  1.00  0.00     0.014 A 
ATOM     41  C   UNL A   1      40.890  28.060  27.241  1.00  0.00     0.010 A 
ATOM     42  C   UNL A   1      39.871  26.930  29.127  1.00  0.00     0.010 A 
ATOM     43  C   UNL A   1      40.465  28.063  28.573  1.00  0.00    -0.014 A 
BRANCH  43  44
ATOM     44  C   UNL A   1      40.502  29.258  29.404  1.00  0.00     0.031 A 
ATOM     45  C   UNL A   1      39.360  30.196  29.313  1.00  0.00     0.074 A 
ATOM     46  C   UNL A   1      41.556  29.549  30.202  1.00  0.00     0.049 A 
ATOM     47  N   UNL A   1      39.455  31.471  29.468  1.00  0.00    -0.248 NA
ATOM     48  C   UNL A   1      38.013  29.763  28.945  1.00  0.00     0.031 C 
ATOM     49  C   UNL A   1      41.613  30.579  31.229  1.00  0.00     0.029 A 
ATOM     50  N   UNL A   1      42.866  29.073  30.138  1.00  0.00    -0.354 N 
ATOM     51  C   UNL A   1      38.176  31.981  29.523  1.00  0.00     0.074 A 
ATOM     52  C   UNL A   1      37.327  30.908  29.060  1.00  0.00     0.031 C 
ATOM     53  C   UNL A   1      42.896  30.830  31.534  1.00  0.00     0.029 A 
ATOM     54  C   UNL A   1      43.736  30.078  30.620  1.00  0.00     0.049 A 
ATOM     55  H   UNL A   1      43.139  28.185  29.814  1.00  0.00     0.167 HD
ATOM     56  C   UNL A   1      37.977  33.200  30.103  1.00  0.00     0.037 A 
ATOM     57  C   UNL A   1      44.730  30.625  29.843  1.00  0.00     0.037 A 
ATOM     58  C   UNL A   1      39.244  33.754  30.569  1.00  0.00     0.049 A 
ATOM     59  C   UNL A   1      44.515  32.072  29.484  1.00  0.00     0.074 A 
ATOM     60  C   UNL A   1      39.908  33.693  31.783  1.00  0.00     0.029 A 
ATOM     61  N   UNL A   1      40.151  34.236  29.653  1.00  0.00    -0.354 N 
ATOM     62  N   UNL A   1      43.474  32.758  29.850  1.00  0.00    -0.248 NA
ATOM     63  C   UNL A   1      45.404  32.835  28.607  1.00  0.00     0.031 C 
ATOM     64  C   UNL A   1      41.241  34.129  31.575  1.00  0.00     0.029 A 
ATOM     65  C   UNL A   1      41.378  34.466  30.240  1.00  0.00     0.049 A 
ATOM     66  H   UNL A   1      39.951  34.396  28.703  1.00  0.00     0.167 HD
ATOM     67  C   UNL A   1      43.500  33.982  29.249  1.00  0.00     0.074 A 
ATOM     68  C   UNL A   1      44.730  33.991  28.480  1.00  0.00     0.031 C 
ATOM     69  C   UNL A   1      42.492  34.884  29.410  1.00  0.00     0.037 A 
BRANCH  56  70
ATOM     70  C   UNL A   1      36.651  33.804  30.516  1.00  0.00     0.058 A 
ATOM     71  C   UNL A   1      35.689  34.116  29.524  1.00  0.00     0.135 A 
ATOM     72  C   UNL A   1      36.257  34.118  31.831  1.00  0.00     0.135 A 
ATOM     73  F   UNL A   1      35.875  33.802  28.235  1.00  0.00    -0.206 F 
ATOM     74  C   UNL A   1      34.490  34.765  29.798  1.00  0.00     0.059 A 
ATOM     75  C   UNL A   1      35.069  34.799  32.129  1.00  0.00     0.059 A 
ATOM     76  F   UNL A   1      36.982  33.735  32.890  1.00  0.00    -0.206 F 
ATOM     77  C   UNL A   1      34.196  35.128  31.100  1.00  0.00     0.060 A 
BRANCH  77  78
ATOM     78  S   UNL A   1      32.653  36.003  31.409  1.00  0.00     0.124 S 
ATOM     79  O   UNL A   1      32.116  36.158  30.060  1.00  0.00    -0.237 OA
ATOM     80  O   UNL A   1      31.939  35.068  32.272  1.00  0.00    -0.237 OA
ATOM     81  O   UNL A   1      33.085  37.241  32.050  1.00  0.00    -0.744 OA
ENDBRANCH  77  78
ENDBRANCH  56  70
BRANCH  57  82
ATOM     82  C   UNL A   1      45.445  29.658  28.949  1.00  0.00     0.058 A 
ATOM     83  C   UNL A   1      46.353  28.806  29.604  1.00  0.00     0.135 A 
ATOM     84  C   UNL A   1      44.664  29.124  27.924  1.00  0.00     0.135 A 
ATOM     85  F   UNL A   1      47.227  29.310  30.490  1.00  0.00    -0.206 F 
ATOM     86  C   UNL A   1      46.201  27.430  29.542  1.00  0.00     0.059 A 
ATOM     87  C   UNL A   1      44.401  27.766  27.957  1.00  0.00     0.059 A 
ATOM     88  F   UNL A   1      43.871  29.920  27.190  1.00  0.00    -0.206 F 
ATOM     89  C   UNL A   1      45.115  26.939  28.825  1.00  0.00     0.060 A 
BRANCH  89  90
ATOM     90  S   UNL A   1      44.424  25.358  29.369  1.00  0.00     0.124 S 
ATOM     91  O   UNL A   1      44.761  24.478  28.279  1.00  0.00    -0.237 OA
ATOM     92  O   UNL A   1      45.141  25.156  30.631  1.00  0.00    -0.237 OA
ATOM     93  O   UNL A   1      42.998  25.656  29.530  1.00  0.00    -0.744 OA
ENDBRANCH  89  90
ENDBRANCH  57  82
BRANCH  69  94
ATOM     94  C   UNL A   1      42.510  36.249  28.803  1.00  0.00     0.058 A 
ATOM     95  C   UNL A   1      41.997  36.490  27.521  1.00  0.00     0.135 A 
ATOM     96  C   UNL A   1      43.154  37.332  29.438  1.00  0.00     0.135 A 
ATOM     97  F   UNL A   1      41.430  35.501  26.811  1.00  0.00    -0.206 F 
ATOM     98  C   UNL A   1      42.054  37.748  26.929  1.00  0.00     0.059 A 
ATOM     99  C   UNL A   1      43.277  38.581  28.843  1.00  0.00     0.059 A 
ATOM    100  F   UNL A   1      43.651  37.223  30.680  1.00  0.00    -0.206 F 
ATOM    101  C   UNL A   1      42.691  38.789  27.603  1.00  0.00     0.060 A 
BRANCH 101 102
ATOM    102  S   UNL A   1      42.730  40.425  26.854  1.00  0.00     0.124 S 
ATOM    103  O   UNL A   1      41.329  40.653  26.514  1.00  0.00    -0.237 OA
ATOM    104  O   UNL A   1      43.250  41.229  27.956  1.00  0.00    -0.237 OA
ATOM    105  O   UNL A   1      43.628  40.259  25.717  1.00  0.00    -0.744 OA
ENDBRANCH 101 102
ENDBRANCH  69  94
ENDBRANCH  43  44
ENDBRANCH  35  38
ENDBRANCH  33  34
ENDBRANCH  32  33
ENDBRANCH   1  32
TORSDOF 18
ENDMDL
