MODEL 1
REMARK VINA RESULT:     -11.9      0.000      0.000
REMARK SMILES Cc1cc(N2CCC[C@H](C(=O)NCCCCCCNC(=O)c3ccc(-c4c5nc(c(-c6c(F)cc(S(=O)(=O)[O-])cc6F)c6ccc([nH]6)c(-c6c(F)cc(S(=O)(=O)[O-])cc6F)c6nc(c(-c7c(F)cc(S(=O)(=O)[O-])cc7F)c7ccc4[nH]7)C=C6)C=C5)cc3)C2)nc(C(C)C)n1
REMARK SMILES IDX 16 1 15 2 14 3 13 4 12 5 10 6 11 7 9 9 5 10 6 11 88 12 7 13
REMARK SMILES IDX 8 14 4 15 1 16 2 17 3 18 94 19 90 20 89 21 91 22 92 23 93 24
REMARK SMILES IDX 17 25 18 26 19 27 20 28 21 30 22 31 23 32 87 33 24 34 86 35
REMARK SMILES IDX 25 36 26 37 27 38 80 39 28 40 85 41 79 42 81 43 29 44 84 45
REMARK SMILES IDX 78 46 77 47 30 49 64 50 43 51 63 52 44 53 47 54 62 55 82 56
REMARK SMILES IDX 45 57 46 58 61 60 83 61 48 62 31 63 32 64 41 65 33 66 34 67
REMARK SMILES IDX 40 68 42 69 35 70 36 71 37 72 38 73 39 74 65 75 66 76 75 77
REMARK SMILES IDX 67 78 68 79 74 80 76 81 69 82 70 83 71 84 72 85 73 86 49 87
REMARK SMILES IDX 50 88 59 89 51 90 52 91 58 92 60 93 53 94 54 95 55 96 56 97
REMARK SMILES IDX 57 98
REMARK H PARENT 12 8 19 29 81 48 47 59
REMARK Flexibility Score: inf
ROOT
ATOM      1  C   UNL A   1      32.569  29.271  24.820  1.00  0.00     0.002 C 
ENDROOT
BRANCH   1   2
ATOM      2  C   UNL A   1      31.191  28.860  24.283  1.00  0.00     0.002 C 
BRANCH   2   3
ATOM      3  C   UNL A   1      31.203  28.012  23.009  1.00  0.00     0.021 C 
BRANCH   3   4
ATOM      4  C   UNL A   1      30.294  26.786  23.064  1.00  0.00     0.116 C 
BRANCH   4   5
ATOM      5  N   UNL A   1      30.971  25.564  22.693  1.00  0.00    -0.356 N 
ATOM      6  C   UNL A   1      31.609  24.644  23.459  1.00  0.00     0.224 C 
ATOM      7  O   UNL A   1      31.882  23.568  22.911  1.00  0.00    -0.275 OA
ATOM      8  H   UNL A   1      30.969  25.366  21.728  1.00  0.00     0.163 HD
BRANCH   6   9
ATOM      9  C   UNL A   1      32.003  24.851  24.926  1.00  0.00     0.098 C 
ATOM     10  N   UNL A   1      33.048  22.869  25.927  1.00  0.00    -0.356 N 
ATOM     11  C   UNL A   1      32.194  22.811  27.098  1.00  0.00     0.118 C 
ATOM     12  C   UNL A   1      33.303  24.158  25.310  1.00  0.00     0.131 C 
ATOM     13  C   UNL A   1      30.828  23.433  26.780  1.00  0.00     0.022 C 
ATOM     14  C   UNL A   1      30.880  24.729  25.963  1.00  0.00     0.017 C 
BRANCH  10  15
ATOM     15  C   UNL A   1      33.994  21.894  25.694  1.00  0.00     0.132 A 
ATOM     16  C   UNL A   1      37.685  21.382  25.303  1.00  0.00     0.067 C 
ATOM     17  C   UNL A   1      36.204  21.166  25.337  1.00  0.00     0.043 A 
ATOM     18  C   UNL A   1      35.346  22.159  25.771  1.00  0.00     0.070 A 
ATOM     19  N   UNL A   1      35.763  19.981  24.874  1.00  0.00    -0.238 NA
ATOM     20  C   UNL A   1      34.433  19.798  24.853  1.00  0.00     0.133 A 
ATOM     21  N   UNL A   1      33.535  20.717  25.245  1.00  0.00    -0.216 NA
BRANCH  20  22
ATOM     22  C   UNL A   1      33.887  18.508  24.286  1.00  0.00     0.051 C 
ATOM     23  C   UNL A   1      34.904  17.376  24.413  1.00  0.00     0.016 C 
ATOM     24  C   UNL A   1      32.550  18.137  24.921  1.00  0.00     0.016 C 
ENDBRANCH  20  22
ENDBRANCH  10  15
ENDBRANCH   6   9
ENDBRANCH   4   5
ENDBRANCH   3   4
ENDBRANCH   2   3
ENDBRANCH   1   2
BRANCH   1  25
ATOM     25  C   UNL A   1      33.422  28.147  25.418  1.00  0.00     0.021 C 
BRANCH  25  26
ATOM     26  C   UNL A   1      33.710  28.282  26.913  1.00  0.00     0.116 C 
BRANCH  26  27
ATOM     27  N   UNL A   1      33.581  29.657  27.366  1.00  0.00    -0.352 N 
ATOM     28  C   UNL A   1      34.444  30.440  28.083  1.00  0.00     0.251 C 
ATOM     29  H   UNL A   1      32.736  30.097  27.116  1.00  0.00     0.163 HD
ATOM     30  O   UNL A   1      34.037  31.505  28.551  1.00  0.00    -0.269 OA
BRANCH  28  31
ATOM     31  C   UNL A   1      35.849  30.032  28.297  1.00  0.00     0.039 A 
ATOM     32  C   UNL A   1      36.238  29.621  29.577  1.00  0.00     0.014 A 
ATOM     33  C   UNL A   1      36.800  30.130  27.277  1.00  0.00     0.014 A 
ATOM     34  C   UNL A   1      37.570  29.288  29.826  1.00  0.00     0.010 A 
ATOM     35  C   UNL A   1      38.117  29.737  27.510  1.00  0.00     0.010 A 
ATOM     36  C   UNL A   1      38.518  29.332  28.791  1.00  0.00    -0.014 A 
BRANCH  36  37
ATOM     37  C   UNL A   1      39.939  28.988  29.050  1.00  0.00     0.031 A 
ATOM     38  C   UNL A   1      40.864  30.007  29.661  1.00  0.00     0.074 A 
ATOM     39  C   UNL A   1      40.402  27.772  28.700  1.00  0.00     0.049 A 
ATOM     40  N   UNL A   1      42.138  29.905  29.938  1.00  0.00    -0.248 NA
ATOM     41  C   UNL A   1      40.286  31.323  29.979  1.00  0.00     0.031 C 
ATOM     42  C   UNL A   1      39.612  26.722  28.054  1.00  0.00     0.029 A 
ATOM     43  N   UNL A   1      41.648  27.217  28.834  1.00  0.00    -0.354 N 
ATOM     44  C   UNL A   1      42.517  31.141  30.448  1.00  0.00     0.074 A 
ATOM     45  C   UNL A   1      41.350  31.994  30.394  1.00  0.00     0.031 C 
ATOM     46  C   UNL A   1      40.387  25.640  27.870  1.00  0.00     0.029 A 
ATOM     47  C   UNL A   1      41.731  25.929  28.360  1.00  0.00     0.049 A 
ATOM     48  H   UNL A   1      42.411  27.695  29.233  1.00  0.00     0.167 HD
ATOM     49  C   UNL A   1      43.721  31.523  30.936  1.00  0.00     0.037 A 
ATOM     50  C   UNL A   1      42.774  25.077  28.328  1.00  0.00     0.037 A 
ATOM     51  C   UNL A   1      44.869  30.657  31.014  1.00  0.00     0.049 A 
ATOM     52  C   UNL A   1      44.091  25.512  28.908  1.00  0.00     0.074 A 
ATOM     53  C   UNL A   1      46.120  30.928  31.543  1.00  0.00     0.029 A 
ATOM     54  N   UNL A   1      44.905  29.348  30.557  1.00  0.00    -0.354 N 
ATOM     55  N   UNL A   1      44.417  26.667  29.438  1.00  0.00    -0.248 NA
ATOM     56  C   UNL A   1      45.180  24.525  28.897  1.00  0.00     0.031 C 
ATOM     57  C   UNL A   1      46.921  29.793  31.376  1.00  0.00     0.029 A 
ATOM     58  C   UNL A   1      46.158  28.801  30.780  1.00  0.00     0.049 A 
ATOM     59  H   UNL A   1      44.151  28.877  30.135  1.00  0.00     0.167 HD
ATOM     60  C   UNL A   1      45.740  26.538  29.847  1.00  0.00     0.074 A 
ATOM     61  C   UNL A   1      46.148  25.189  29.514  1.00  0.00     0.031 C 
ATOM     62  C   UNL A   1      46.543  27.454  30.444  1.00  0.00     0.037 A 
BRANCH  49  63
ATOM     63  C   UNL A   1      43.854  32.938  31.431  1.00  0.00     0.058 A 
ATOM     64  C   UNL A   1      43.573  33.281  32.763  1.00  0.00     0.135 A 
ATOM     65  C   UNL A   1      44.288  33.960  30.571  1.00  0.00     0.135 A 
ATOM     66  F   UNL A   1      43.140  32.346  33.625  1.00  0.00    -0.206 F 
ATOM     67  C   UNL A   1      43.686  34.591  33.218  1.00  0.00     0.059 A 
ATOM     68  C   UNL A   1      44.433  35.273  31.011  1.00  0.00     0.059 A 
ATOM     69  F   UNL A   1      44.571  33.690  29.287  1.00  0.00    -0.206 F 
ATOM     70  C   UNL A   1      44.113  35.581  32.333  1.00  0.00     0.060 A 
BRANCH  70  71
ATOM     71  S   UNL A   1      44.251  37.278  32.935  1.00  0.00     0.124 S 
ATOM     72  O   UNL A   1      44.073  38.039  31.702  1.00  0.00    -0.237 OA
ATOM     73  O   UNL A   1      43.154  37.361  33.895  1.00  0.00    -0.237 OA
ATOM     74  O   UNL A   1      45.590  37.325  33.514  1.00  0.00    -0.744 OA
ENDBRANCH  70  71
ENDBRANCH  49  63
BRANCH  50  75
ATOM     75  C   UNL A   1      42.598  23.714  27.762  1.00  0.00     0.058 A 
ATOM     76  C   UNL A   1      42.668  23.495  26.377  1.00  0.00     0.135 A 
ATOM     77  C   UNL A   1      42.378  22.603  28.590  1.00  0.00     0.135 A 
ATOM     78  F   UNL A   1      42.875  24.527  25.545  1.00  0.00    -0.206 F 
ATOM     79  C   UNL A   1      42.511  22.226  25.832  1.00  0.00     0.059 A 
ATOM     80  C   UNL A   1      42.239  21.321  28.070  1.00  0.00     0.059 A 
ATOM     81  F   UNL A   1      42.322  22.759  29.922  1.00  0.00    -0.206 F 
ATOM     82  C   UNL A   1      42.297  21.144  26.688  1.00  0.00     0.060 A 
BRANCH  82  83
ATOM     83  S   UNL A   1      42.141  19.492  25.974  1.00  0.00     0.124 S 
ATOM     84  O   UNL A   1      40.705  19.411  25.732  1.00  0.00    -0.237 OA
ATOM     85  O   UNL A   1      42.985  19.588  24.787  1.00  0.00    -0.237 OA
ATOM     86  O   UNL A   1      42.653  18.623  27.029  1.00  0.00    -0.744 OA
ENDBRANCH  82  83
ENDBRANCH  50  75
BRANCH  62  87
ATOM     87  C   UNL A   1      47.934  27.012  30.802  1.00  0.00     0.058 A 
ATOM     88  C   UNL A   1      48.210  26.361  32.013  1.00  0.00     0.135 A 
ATOM     89  C   UNL A   1      48.997  27.216  29.907  1.00  0.00     0.135 A 
ATOM     90  F   UNL A   1      47.229  26.147  32.905  1.00  0.00    -0.206 F 
ATOM     91  C   UNL A   1      49.499  25.951  32.339  1.00  0.00     0.059 A 
ATOM     92  C   UNL A   1      50.288  26.793  30.202  1.00  0.00     0.059 A 
ATOM     93  F   UNL A   1      48.783  27.824  28.730  1.00  0.00    -0.206 F 
ATOM     94  C   UNL A   1      50.532  26.175  31.427  1.00  0.00     0.060 A 
BRANCH  94  95
ATOM     95  S   UNL A   1      52.198  25.625  31.852  1.00  0.00     0.124 S 
ATOM     96  O   UNL A   1      51.972  24.220  32.172  1.00  0.00    -0.237 OA
ATOM     97  O   UNL A   1      52.939  25.884  30.621  1.00  0.00    -0.237 OA
ATOM     98  O   UNL A   1      52.557  26.477  32.983  1.00  0.00    -0.744 OA
ENDBRANCH  94  95
ENDBRANCH  62  87
ENDBRANCH  36  37
ENDBRANCH  28  31
ENDBRANCH  26  27
ENDBRANCH  25  26
ENDBRANCH   1  25
TORSDOF 18
ENDMDL
MODEL 2
REMARK VINA RESULT:     -11.9      2.778      3.566
REMARK SMILES Cc1cc(N2CCC[C@H](C(=O)NCCCCCCNC(=O)c3ccc(-c4c5nc(c(-c6c(F)cc(S(=O)(=O)[O-])cc6F)c6ccc([nH]6)c(-c6c(F)cc(S(=O)(=O)[O-])cc6F)c6nc(c(-c7c(F)cc(S(=O)(=O)[O-])cc7F)c7ccc4[nH]7)C=C6)C=C5)cc3)C2)nc(C(C)C)n1
REMARK SMILES IDX 16 1 15 2 14 3 13 4 12 5 10 6 11 7 9 9 5 10 6 11 88 12 7 13
REMARK SMILES IDX 8 14 4 15 1 16 2 17 3 18 94 19 90 20 89 21 91 22 92 23 93 24
REMARK SMILES IDX 17 25 18 26 19 27 20 28 21 30 22 31 23 32 87 33 24 34 86 35
REMARK SMILES IDX 25 36 26 37 27 38 80 39 28 40 85 41 79 42 81 43 29 44 84 45
REMARK SMILES IDX 78 46 77 47 30 49 64 50 43 51 63 52 44 53 47 54 62 55 82 56
REMARK SMILES IDX 45 57 46 58 61 60 83 61 48 62 31 63 32 64 41 65 33 66 34 67
REMARK SMILES IDX 40 68 42 69 35 70 36 71 37 72 38 73 39 74 65 75 66 76 75 77
REMARK SMILES IDX 67 78 68 79 74 80 76 81 69 82 70 83 71 84 72 85 73 86 49 87
REMARK SMILES IDX 50 88 59 89 51 90 52 91 58 92 60 93 53 94 54 95 55 96 56 97
REMARK SMILES IDX 57 98
REMARK H PARENT 12 8 19 29 81 48 47 59
REMARK Flexibility Score: inf
ROOT
ATOM      1  C   UNL A   1      33.777  30.528  27.173  1.00  0.00     0.002 C 
ENDROOT
BRANCH   1   2
ATOM      2  C   UNL A   1      32.262  30.418  26.959  1.00  0.00     0.002 C 
BRANCH   2   3
ATOM      3  C   UNL A   1      31.782  29.139  26.270  1.00  0.00     0.021 C 
BRANCH   3   4
ATOM      4  C   UNL A   1      32.001  27.867  27.087  1.00  0.00     0.116 C 
BRANCH   4   5
ATOM      5  N   UNL A   1      33.060  27.034  26.563  1.00  0.00    -0.356 N 
ATOM      6  C   UNL A   1      33.002  25.895  25.829  1.00  0.00     0.224 C 
ATOM      7  O   UNL A   1      34.061  25.527  25.302  1.00  0.00    -0.275 OA
ATOM      8  H   UNL A   1      33.971  27.344  26.772  1.00  0.00     0.163 HD
BRANCH   6   9
ATOM      9  C   UNL A   1      31.737  25.056  25.617  1.00  0.00     0.098 C 
ATOM     10  N   UNL A   1      32.206  22.830  24.698  1.00  0.00    -0.356 N 
ATOM     11  C   UNL A   1      31.257  22.905  23.603  1.00  0.00     0.118 C 
ATOM     12  C   UNL A   1      31.933  23.576  25.913  1.00  0.00     0.131 C 
ATOM     13  C   UNL A   1      31.048  24.368  23.193  1.00  0.00     0.022 C 
ATOM     14  C   UNL A   1      30.916  25.356  24.357  1.00  0.00     0.017 C 
BRANCH  10  15
ATOM     15  C   UNL A   1      33.040  21.741  24.836  1.00  0.00     0.132 A 
ATOM     16  C   UNL A   1      36.658  20.789  25.037  1.00  0.00     0.067 C 
ATOM     17  C   UNL A   1      35.164  20.735  24.946  1.00  0.00     0.043 A 
ATOM     18  C   UNL A   1      34.401  21.885  25.007  1.00  0.00     0.070 A 
ATOM     19  N   UNL A   1      34.623  19.517  24.749  1.00  0.00    -0.238 NA
ATOM     20  C   UNL A   1      33.288  19.464  24.615  1.00  0.00     0.133 A 
ATOM     21  N   UNL A   1      32.480  20.537  24.650  1.00  0.00    -0.216 NA
BRANCH  20  22
ATOM     22  C   UNL A   1      32.639  18.130  24.332  1.00  0.00     0.051 C 
ATOM     23  C   UNL A   1      33.294  17.441  23.136  1.00  0.00     0.016 C 
ATOM     24  C   UNL A   1      32.641  17.232  25.567  1.00  0.00     0.016 C 
ENDBRANCH  20  22
ENDBRANCH  10  15
ENDBRANCH   6   9
ENDBRANCH   4   5
ENDBRANCH   3   4
ENDBRANCH   2   3
ENDBRANCH   1   2
BRANCH   1  25
ATOM     25  C   UNL A   1      34.263  31.773  27.925  1.00  0.00     0.021 C 
BRANCH  25  26
ATOM     26  C   UNL A   1      35.661  31.655  28.530  1.00  0.00     0.116 C 
BRANCH  26  27
ATOM     27  N   UNL A   1      35.611  31.354  29.951  1.00  0.00    -0.352 N 
ATOM     28  C   UNL A   1      36.440  30.590  30.727  1.00  0.00     0.251 C 
ATOM     29  H   UNL A   1      34.858  31.766  30.435  1.00  0.00     0.163 HD
ATOM     30  O   UNL A   1      36.083  30.287  31.867  1.00  0.00    -0.269 OA
BRANCH  28  31
ATOM     31  C   UNL A   1      37.753  30.133  30.223  1.00  0.00     0.039 A 
ATOM     32  C   UNL A   1      38.736  29.771  31.150  1.00  0.00     0.014 A 
ATOM     33  C   UNL A   1      38.051  30.138  28.857  1.00  0.00     0.014 A 
ATOM     34  C   UNL A   1      40.004  29.393  30.708  1.00  0.00     0.010 A 
ATOM     35  C   UNL A   1      39.298  29.700  28.413  1.00  0.00     0.010 A 
ATOM     36  C   UNL A   1      40.292  29.344  29.335  1.00  0.00    -0.014 A 
BRANCH  36  37
ATOM     37  C   UNL A   1      41.642  28.952  28.857  1.00  0.00     0.031 A 
ATOM     38  C   UNL A   1      42.743  29.976  28.779  1.00  0.00     0.074 A 
ATOM     39  C   UNL A   1      41.863  27.684  28.458  1.00  0.00     0.049 A 
ATOM     40  N   UNL A   1      43.975  29.834  28.365  1.00  0.00    -0.248 NA
ATOM     41  C   UNL A   1      42.406  31.346  29.198  1.00  0.00     0.031 C 
ATOM     42  C   UNL A   1      40.860  26.618  28.440  1.00  0.00     0.029 A 
ATOM     43  N   UNL A   1      43.000  27.079  27.989  1.00  0.00    -0.354 N 
ATOM     44  C   UNL A   1      44.556  31.094  28.459  1.00  0.00     0.074 A 
ATOM     45  C   UNL A   1      43.526  31.998  28.922  1.00  0.00     0.031 C 
ATOM     46  C   UNL A   1      41.433  25.483  28.006  1.00  0.00     0.029 A 
ATOM     47  C   UNL A   1      42.833  25.748  27.691  1.00  0.00     0.049 A 
ATOM     48  H   UNL A   1      43.856  27.553  27.877  1.00  0.00     0.167 HD
ATOM     49  C   UNL A   1      45.835  31.458  28.206  1.00  0.00     0.037 A 
ATOM     50  C   UNL A   1      43.712  24.843  27.220  1.00  0.00     0.037 A 
ATOM     51  C   UNL A   1      46.862  30.544  27.776  1.00  0.00     0.049 A 
ATOM     52  C   UNL A   1      45.135  25.262  26.979  1.00  0.00     0.074 A 
ATOM     53  C   UNL A   1      48.203  30.800  27.544  1.00  0.00     0.029 A 
ATOM     54  N   UNL A   1      46.663  29.196  27.518  1.00  0.00    -0.354 N 
ATOM     55  N   UNL A   1      45.682  26.446  27.128  1.00  0.00    -0.248 NA
ATOM     56  C   UNL A   1      46.065  24.223  26.518  1.00  0.00     0.031 C 
ATOM     57  C   UNL A   1      48.807  29.612  27.117  1.00  0.00     0.029 A 
ATOM     58  C   UNL A   1      47.852  28.608  27.121  1.00  0.00     0.049 A 
ATOM     59  H   UNL A   1      45.802  28.726  27.605  1.00  0.00     0.167 HD
ATOM     60  C   UNL A   1      47.024  26.288  26.804  1.00  0.00     0.074 A 
ATOM     61  C   UNL A   1      47.209  24.893  26.463  1.00  0.00     0.031 C 
ATOM     62  C   UNL A   1      48.015  27.215  26.789  1.00  0.00     0.037 A 
BRANCH  49  63
ATOM     63  C   UNL A   1      46.197  32.907  28.396  1.00  0.00     0.058 A 
ATOM     64  C   UNL A   1      46.094  33.834  27.347  1.00  0.00     0.135 A 
ATOM     65  C   UNL A   1      46.629  33.379  29.646  1.00  0.00     0.135 A 
ATOM     66  F   UNL A   1      45.701  33.435  26.127  1.00  0.00    -0.206 F 
ATOM     67  C   UNL A   1      46.438  35.172  27.520  1.00  0.00     0.059 A 
ATOM     68  C   UNL A   1      46.953  34.717  29.850  1.00  0.00     0.059 A 
ATOM     69  F   UNL A   1      46.744  32.537  30.685  1.00  0.00    -0.206 F 
ATOM     70  C   UNL A   1      46.870  35.603  28.776  1.00  0.00     0.060 A 
BRANCH  70  71
ATOM     71  S   UNL A   1      47.317  37.340  28.986  1.00  0.00     0.124 S 
ATOM     72  O   UNL A   1      48.010  37.615  27.731  1.00  0.00    -0.237 OA
ATOM     73  O   UNL A   1      46.016  37.982  29.144  1.00  0.00    -0.237 OA
ATOM     74  O   UNL A   1      48.158  37.332  30.179  1.00  0.00    -0.744 OA
ENDBRANCH  70  71
ENDBRANCH  49  63
BRANCH  50  75
ATOM     75  C   UNL A   1      43.276  23.441  26.986  1.00  0.00     0.058 A 
ATOM     76  C   UNL A   1      43.051  22.964  25.686  1.00  0.00     0.135 A 
ATOM     77  C   UNL A   1      43.096  22.546  28.053  1.00  0.00     0.135 A 
ATOM     78  F   UNL A   1      43.208  23.784  24.635  1.00  0.00    -0.206 F 
ATOM     79  C   UNL A   1      42.648  21.655  25.450  1.00  0.00     0.059 A 
ATOM     80  C   UNL A   1      42.715  21.226  27.840  1.00  0.00     0.059 A 
ATOM     81  F   UNL A   1      43.318  22.949  29.313  1.00  0.00    -0.206 F 
ATOM     82  C   UNL A   1      42.483  20.792  26.535  1.00  0.00     0.060 A 
BRANCH  82  83
ATOM     83  S   UNL A   1      42.004  19.079  26.216  1.00  0.00     0.124 S 
ATOM     84  O   UNL A   1      42.919  18.715  25.142  1.00  0.00    -0.237 OA
ATOM     85  O   UNL A   1      42.250  18.445  27.508  1.00  0.00    -0.237 OA
ATOM     86  O   UNL A   1      40.598  19.190  25.839  1.00  0.00    -0.744 OA
ENDBRANCH  82  83
ENDBRANCH  50  75
BRANCH  62  87
ATOM     87  C   UNL A   1      49.392  26.738  26.421  1.00  0.00     0.058 A 
ATOM     88  C   UNL A   1      50.269  26.212  27.382  1.00  0.00     0.135 A 
ATOM     89  C   UNL A   1      49.825  26.779  25.086  1.00  0.00     0.135 A 
ATOM     90  F   UNL A   1      49.903  26.156  28.672  1.00  0.00    -0.206 F 
ATOM     91  C   UNL A   1      51.541  25.768  27.036  1.00  0.00     0.059 A 
ATOM     92  C   UNL A   1      51.084  26.320  24.716  1.00  0.00     0.059 A 
ATOM     93  F   UNL A   1      49.020  27.264  24.129  1.00  0.00    -0.206 F 
ATOM     94  C   UNL A   1      51.941  25.830  25.700  1.00  0.00     0.060 A 
BRANCH  94  95
ATOM     95  S   UNL A   1      53.588  25.237  25.259  1.00  0.00     0.124 S 
ATOM     96  O   UNL A   1      53.409  23.792  25.329  1.00  0.00    -0.237 OA
ATOM     97  O   UNL A   1      53.773  25.789  23.920  1.00  0.00    -0.237 OA
ATOM     98  O   UNL A   1      54.443  25.815  26.292  1.00  0.00    -0.744 OA
ENDBRANCH  94  95
ENDBRANCH  62  87
ENDBRANCH  36  37
ENDBRANCH  28  31
ENDBRANCH  26  27
ENDBRANCH  25  26
ENDBRANCH   1  25
TORSDOF 18
ENDMDL
MODEL 3
REMARK VINA RESULT:     -11.4      4.768      6.552
REMARK SMILES Cc1cc(N2CCC[C@H](C(=O)NCCCCCCNC(=O)c3ccc(-c4c5nc(c(-c6c(F)cc(S(=O)(=O)[O-])cc6F)c6ccc([nH]6)c(-c6c(F)cc(S(=O)(=O)[O-])cc6F)c6nc(c(-c7c(F)cc(S(=O)(=O)[O-])cc7F)c7ccc4[nH]7)C=C6)C=C5)cc3)C2)nc(C(C)C)n1
REMARK SMILES IDX 16 1 15 2 14 3 13 4 12 5 10 6 11 7 9 9 5 10 6 11 88 12 7 13
REMARK SMILES IDX 8 14 4 15 1 16 2 17 3 18 94 19 90 20 89 21 91 22 92 23 93 24
REMARK SMILES IDX 17 25 18 26 19 27 20 28 21 30 22 31 23 32 87 33 24 34 86 35
REMARK SMILES IDX 25 36 26 37 27 38 80 39 28 40 85 41 79 42 81 43 29 44 84 45
REMARK SMILES IDX 78 46 77 47 30 49 64 50 43 51 63 52 44 53 47 54 62 55 82 56
REMARK SMILES IDX 45 57 46 58 61 60 83 61 48 62 31 63 32 64 41 65 33 66 34 67
REMARK SMILES IDX 40 68 42 69 35 70 36 71 37 72 38 73 39 74 65 75 66 76 75 77
REMARK SMILES IDX 67 78 68 79 74 80 76 81 69 82 70 83 71 84 72 85 73 86 49 87
REMARK SMILES IDX 50 88 59 89 51 90 52 91 58 92 60 93 53 94 54 95 55 96 56 97
REMARK SMILES IDX 57 98
REMARK H PARENT 12 8 19 29 81 48 47 59
REMARK Flexibility Score: inf
ROOT
ATOM      1  C   UNL A   1      35.764  32.786  27.985  1.00  0.00     0.002 C 
ENDROOT
BRANCH   1   2
ATOM      2  C   UNL A   1      35.160  31.469  28.490  1.00  0.00     0.002 C 
BRANCH   2   3
ATOM      3  C   UNL A   1      35.264  30.282  27.530  1.00  0.00     0.021 C 
BRANCH   3   4
ATOM      4  C   UNL A   1      33.929  29.843  26.930  1.00  0.00     0.116 C 
BRANCH   4   5
ATOM      5  N   UNL A   1      34.049  29.370  25.570  1.00  0.00    -0.356 N 
ATOM      6  C   UNL A   1      33.100  29.165  24.622  1.00  0.00     0.224 C 
ATOM      7  O   UNL A   1      33.508  28.995  23.466  1.00  0.00    -0.275 OA
ATOM      8  H   UNL A   1      34.968  29.163  25.284  1.00  0.00     0.163 HD
BRANCH   6   9
ATOM      9  C   UNL A   1      31.592  29.132  24.890  1.00  0.00     0.098 C 
ATOM     10  N   UNL A   1      30.570  26.967  24.350  1.00  0.00    -0.356 N 
ATOM     11  C   UNL A   1      29.503  27.495  23.521  1.00  0.00     0.118 C 
ATOM     12  C   UNL A   1      31.098  27.793  25.420  1.00  0.00     0.131 C 
ATOM     13  C   UNL A   1      29.942  28.821  22.887  1.00  0.00     0.022 C 
ATOM     14  C   UNL A   1      30.691  29.773  23.827  1.00  0.00     0.017 C 
BRANCH  10  15
ATOM     15  C   UNL A   1      30.740  25.608  24.501  1.00  0.00     0.132 A 
ATOM     16  C   UNL A   1      30.456  22.848  27.019  1.00  0.00     0.067 C 
ATOM     17  C   UNL A   1      30.746  23.628  25.775  1.00  0.00     0.043 A 
ATOM     18  C   UNL A   1      30.361  24.950  25.652  1.00  0.00     0.070 A 
ATOM     19  N   UNL A   1      31.443  22.987  24.817  1.00  0.00    -0.238 NA
ATOM     20  C   UNL A   1      31.752  23.695  23.719  1.00  0.00     0.133 A 
ATOM     21  N   UNL A   1      31.426  24.984  23.531  1.00  0.00    -0.216 NA
BRANCH  20  22
ATOM     22  C   UNL A   1      32.585  23.038  22.644  1.00  0.00     0.051 C 
ATOM     23  C   UNL A   1      34.077  23.219  22.915  1.00  0.00     0.016 C 
ATOM     24  C   UNL A   1      32.220  21.566  22.472  1.00  0.00     0.016 C 
ENDBRANCH  20  22
ENDBRANCH  10  15
ENDBRANCH   6   9
ENDBRANCH   4   5
ENDBRANCH   3   4
ENDBRANCH   2   3
ENDBRANCH   1   2
BRANCH   1  25
ATOM     25  C   UNL A   1      34.795  33.966  27.856  1.00  0.00     0.021 C 
BRANCH  25  26
ATOM     26  C   UNL A   1      33.349  33.659  28.244  1.00  0.00     0.116 C 
BRANCH  26  27
ATOM     27  N   UNL A   1      32.832  34.621  29.204  1.00  0.00    -0.352 N 
ATOM     28  C   UNL A   1      33.175  34.846  30.509  1.00  0.00     0.251 C 
ATOM     29  H   UNL A   1      32.117  35.205  28.859  1.00  0.00     0.163 HD
ATOM     30  O   UNL A   1      32.450  35.561  31.204  1.00  0.00    -0.269 OA
BRANCH  28  31
ATOM     31  C   UNL A   1      34.399  34.254  31.091  1.00  0.00     0.039 A 
ATOM     32  C   UNL A   1      35.595  34.973  31.004  1.00  0.00     0.014 A 
ATOM     33  C   UNL A   1      34.395  32.970  31.642  1.00  0.00     0.014 A 
ATOM     34  C   UNL A   1      36.779  34.416  31.489  1.00  0.00     0.010 A 
ATOM     35  C   UNL A   1      35.566  32.439  32.184  1.00  0.00     0.010 A 
ATOM     36  C   UNL A   1      36.772  33.148  32.093  1.00  0.00    -0.014 A 
BRANCH  36  37
ATOM     37  C   UNL A   1      38.028  32.544  32.603  1.00  0.00     0.031 A 
ATOM     38  C   UNL A   1      38.485  32.824  34.011  1.00  0.00     0.074 A 
ATOM     39  C   UNL A   1      38.774  31.775  31.787  1.00  0.00     0.049 A 
ATOM     40  N   UNL A   1      39.563  32.412  34.627  1.00  0.00    -0.248 NA
ATOM     41  C   UNL A   1      37.631  33.705  34.823  1.00  0.00     0.031 C 
ATOM     42  C   UNL A   1      38.459  31.475  30.389  1.00  0.00     0.029 A 
ATOM     43  N   UNL A   1      39.951  31.109  32.013  1.00  0.00    -0.354 N 
ATOM     44  C   UNL A   1      39.524  32.992  35.890  1.00  0.00     0.074 A 
ATOM     45  C   UNL A   1      38.342  33.825  35.934  1.00  0.00     0.031 C 
ATOM     46  C   UNL A   1      39.407  30.665  29.889  1.00  0.00     0.029 A 
ATOM     47  C   UNL A   1      40.407  30.410  30.921  1.00  0.00     0.049 A 
ATOM     48  H   UNL A   1      40.424  31.128  32.876  1.00  0.00     0.167 HD
ATOM     49  C   UNL A   1      40.382  32.826  36.924  1.00  0.00     0.037 A 
ATOM     50  C   UNL A   1      41.506  29.647  30.770  1.00  0.00     0.037 A 
ATOM     51  C   UNL A   1      41.538  31.970  36.881  1.00  0.00     0.049 A 
ATOM     52  C   UNL A   1      42.425  29.450  31.944  1.00  0.00     0.074 A 
ATOM     53  C   UNL A   1      42.442  31.688  37.892  1.00  0.00     0.029 A 
ATOM     54  N   UNL A   1      41.948  31.250  35.769  1.00  0.00    -0.354 N 
ATOM     55  N   UNL A   1      42.343  29.961  33.150  1.00  0.00    -0.248 NA
ATOM     56  C   UNL A   1      43.580  28.564  31.742  1.00  0.00     0.031 C 
ATOM     57  C   UNL A   1      43.415  30.823  37.381  1.00  0.00     0.029 A 
ATOM     58  C   UNL A   1      43.096  30.533  36.063  1.00  0.00     0.049 A 
ATOM     59  H   UNL A   1      41.491  31.249  34.897  1.00  0.00     0.167 HD
ATOM     60  C   UNL A   1      43.420  29.439  33.858  1.00  0.00     0.074 A 
ATOM     61  C   UNL A   1      44.130  28.564  32.949  1.00  0.00     0.031 C 
ATOM     62  C   UNL A   1      43.786  29.664  35.144  1.00  0.00     0.037 A 
BRANCH  49  63
ATOM     63  C   UNL A   1      40.094  33.582  38.194  1.00  0.00     0.058 A 
ATOM     64  C   UNL A   1      39.119  33.148  39.104  1.00  0.00     0.135 A 
ATOM     65  C   UNL A   1      40.818  34.742  38.515  1.00  0.00     0.135 A 
ATOM     66  F   UNL A   1      38.386  32.053  38.840  1.00  0.00    -0.206 F 
ATOM     67  C   UNL A   1      38.846  33.853  40.273  1.00  0.00     0.059 A 
ATOM     68  C   UNL A   1      40.581  35.449  39.691  1.00  0.00     0.059 A 
ATOM     69  F   UNL A   1      41.764  35.203  37.682  1.00  0.00    -0.206 F 
ATOM     70  C   UNL A   1      39.581  35.005  40.555  1.00  0.00     0.060 A 
BRANCH  70  71
ATOM     71  S   UNL A   1      39.214  35.913  42.073  1.00  0.00     0.124 S 
ATOM     72  O   UNL A   1      40.264  35.426  42.963  1.00  0.00    -0.237 OA
ATOM     73  O   UNL A   1      39.340  37.303  41.646  1.00  0.00    -0.237 OA
ATOM     74  O   UNL A   1      37.860  35.484  42.407  1.00  0.00    -0.744 OA
ENDBRANCH  70  71
ENDBRANCH  49  63
BRANCH  50  75
ATOM     75  C   UNL A   1      41.772  28.981  29.469  1.00  0.00     0.058 A 
ATOM     76  C   UNL A   1      41.184  27.744  29.159  1.00  0.00     0.135 A 
ATOM     77  C   UNL A   1      42.600  29.573  28.503  1.00  0.00     0.135 A 
ATOM     78  F   UNL A   1      40.388  27.138  30.052  1.00  0.00    -0.206 F 
ATOM     79  C   UNL A   1      41.420  27.111  27.944  1.00  0.00     0.059 A 
ATOM     80  C   UNL A   1      42.832  28.969  27.271  1.00  0.00     0.059 A 
ATOM     81  F   UNL A   1      43.170  30.764  28.744  1.00  0.00    -0.206 F 
ATOM     82  C   UNL A   1      42.246  27.732  27.005  1.00  0.00     0.060 A 
BRANCH  82  83
ATOM     83  S   UNL A   1      42.508  26.925  25.411  1.00  0.00     0.124 S 
ATOM     84  O   UNL A   1      41.301  26.117  25.289  1.00  0.00    -0.237 OA
ATOM     85  O   UNL A   1      42.610  28.062  24.502  1.00  0.00    -0.237 OA
ATOM     86  O   UNL A   1      43.748  26.182  25.613  1.00  0.00    -0.744 OA
ENDBRANCH  82  83
ENDBRANCH  50  75
BRANCH  62  87
ATOM     87  C   UNL A   1      44.995  28.926  35.650  1.00  0.00     0.058 A 
ATOM     88  C   UNL A   1      44.886  27.664  36.252  1.00  0.00     0.135 A 
ATOM     89  C   UNL A   1      46.278  29.476  35.500  1.00  0.00     0.135 A 
ATOM     90  F   UNL A   1      43.681  27.098  36.423  1.00  0.00    -0.206 F 
ATOM     91  C   UNL A   1      46.007  26.983  36.716  1.00  0.00     0.059 A 
ATOM     92  C   UNL A   1      47.414  28.802  35.934  1.00  0.00     0.059 A 
ATOM     93  F   UNL A   1      46.435  30.676  34.920  1.00  0.00    -0.206 F 
ATOM     94  C   UNL A   1      47.267  27.563  36.555  1.00  0.00     0.060 A 
BRANCH  94  95
ATOM     95  S   UNL A   1      48.717  26.664  37.145  1.00  0.00     0.124 S 
ATOM     96  O   UNL A   1      49.499  27.736  37.752  1.00  0.00    -0.237 OA
ATOM     97  O   UNL A   1      48.134  25.701  38.074  1.00  0.00    -0.237 OA
ATOM     98  O   UNL A   1      49.278  26.089  35.926  1.00  0.00    -0.744 OA
ENDBRANCH  94  95
ENDBRANCH  62  87
ENDBRANCH  36  37
ENDBRANCH  28  31
ENDBRANCH  26  27
ENDBRANCH  25  26
ENDBRANCH   1  25
TORSDOF 18
ENDMDL
