MODEL 1
REMARK VINA RESULT:     -12.7      0.000      0.000
REMARK SMILES NC(=O)[C@@H]1CCC[N@@H+]1[C@@H](C(=O)NCCCCCCNC(=O)c1ccc(-c2c3nc(c(-c4c(F)cc(S(=O)(=O)[O-])cc4F)c4ccc([nH]4)c(-c4c(F)cc(S(=O)(=O)[O-])cc4F)c4nc(c(-c5c(F)cc(S(=O)(=O)[O-])cc5F)c5ccc2[nH]5)C=C4)C=C3)cc1)c1c[nH]c2cc(OCc3ccccc3)ccc12
REMARK SMILES IDX 15 1 14 2 13 3 12 4 10 5 11 6 9 8 8 9 4 10 5 11 6 12 7 13
REMARK SMILES IDX 2 15 1 16 3 19 88 20 89 21 104 22 90 23 91 24 103 25 92 27
REMARK SMILES IDX 102 28 93 29 94 30 95 31 96 32 97 33 101 34 98 35 100 36
REMARK SMILES IDX 99 37 16 38 17 39 18 40 19 41 20 42 21 44 22 45 23 46 87 47
REMARK SMILES IDX 24 48 86 49 25 50 26 51 27 52 80 53 28 54 85 55 79 56 81 57
REMARK SMILES IDX 29 58 84 59 78 60 77 61 30 63 64 64 43 65 63 66 44 67 47 68
REMARK SMILES IDX 62 69 82 70 45 71 46 72 61 74 83 75 48 76 31 77 32 78 41 79
REMARK SMILES IDX 33 80 34 81 40 82 42 83 35 84 36 85 37 86 38 87 39 88 65 89
REMARK SMILES IDX 66 90 75 91 67 92 68 93 74 94 76 95 69 96 70 97 71 98 72 99
REMARK SMILES IDX 73 100 49 101 50 102 59 103 51 104 52 105 58 106 60 107
REMARK SMILES IDX 53 108 54 109 55 110 56 111 57 112
REMARK H PARENT 12 7 8 14 1 17 1 18 90 26 19 43 81 62 47 73
REMARK Flexibility Score: inf
ROOT
ATOM      1  C   UNL A   1      33.054  30.151  26.499  1.00  0.00     0.002 C 
ENDROOT
BRANCH   1   2
ATOM      2  C   UNL A   1      32.948  28.781  27.179  1.00  0.00     0.021 C 
BRANCH   2   3
ATOM      3  C   UNL A   1      31.557  28.405  27.721  1.00  0.00     0.116 C 
BRANCH   3   4
ATOM      4  N   UNL A   1      31.107  27.091  27.294  1.00  0.00    -0.351 N 
ATOM      5  C   UNL A   1      31.274  26.280  26.210  1.00  0.00     0.283 C 
ATOM      6  O   UNL A   1      30.566  25.268  26.283  1.00  0.00    -0.268 OA
ATOM      7  H   UNL A   1      30.524  26.673  27.969  1.00  0.00     0.163 HD
BRANCH   5   8
ATOM      8  C   UNL A   1      32.308  26.518  25.058  1.00  0.00     0.308 C 
BRANCH   8   9
ATOM      9  N   UNL A   1      31.828  26.542  23.599  1.00  0.00    -0.311 N 
ATOM     10  C   UNL A   1      31.930  27.798  22.804  1.00  0.00     0.275 C 
ATOM     11  C   UNL A   1      30.738  28.644  23.251  1.00  0.00     0.081 C 
ATOM     12  C   UNL A   1      29.676  27.606  23.588  1.00  0.00     0.068 C 
ATOM     13  C   UNL A   1      30.394  26.297  23.355  1.00  0.00     0.264 C 
ATOM     14  H   UNL A   1      32.481  25.810  23.321  1.00  0.00     0.349 HD
BRANCH  10  15
ATOM     15  C   UNL A   1      33.322  28.320  22.485  1.00  0.00     0.275 C 
ATOM     16  N   UNL A   1      33.750  29.366  23.248  1.00  0.00    -0.365 N 
ATOM     17  H   UNL A   1      34.642  29.754  23.094  1.00  0.00     0.159 HD
ATOM     18  H   UNL A   1      33.167  29.733  23.951  1.00  0.00     0.159 HD
ATOM     19  O   UNL A   1      34.101  27.774  21.707  1.00  0.00    -0.268 OA
ENDBRANCH  10  15
ENDBRANCH   8   9
BRANCH   8  20
ATOM     20  C   UNL A   1      33.570  25.533  25.157  1.00  0.00     0.044 A 
ATOM     21  C   UNL A   1      34.586  25.489  24.200  1.00  0.00     0.094 A 
ATOM     22  C   UNL A   1      33.576  24.149  25.599  1.00  0.00     0.009 A 
ATOM     23  N   UNL A   1      34.343  24.310  23.528  1.00  0.00    -0.361 N 
ATOM     24  C   UNL A   1      33.729  23.445  24.405  1.00  0.00     0.050 A 
ATOM     25  C   UNL A   1      33.221  23.401  26.744  1.00  0.00     0.015 A 
ATOM     26  H   UNL A   1      34.569  24.119  22.588  1.00  0.00     0.166 HD
ATOM     27  C   UNL A   1      33.148  22.192  24.215  1.00  0.00     0.073 A 
ATOM     28  C   UNL A   1      32.800  22.064  26.606  1.00  0.00     0.047 A 
ATOM     29  C   UNL A   1      32.641  21.526  25.335  1.00  0.00     0.121 A 
BRANCH  29  30
ATOM     30  O   UNL A   1      31.897  20.417  25.035  1.00  0.00    -0.489 OA
BRANCH  30  31
ATOM     31  C   UNL A   1      32.229  19.685  23.857  1.00  0.00     0.265 C 
BRANCH  31  32
ATOM     32  C   UNL A   1      32.790  18.310  24.163  1.00  0.00    -0.011 A 
ATOM     33  C   UNL A   1      32.600  17.751  25.434  1.00  0.00     0.007 A 
ATOM     34  C   UNL A   1      33.539  17.577  23.231  1.00  0.00     0.007 A 
ATOM     35  C   UNL A   1      33.157  16.510  25.754  1.00  0.00     0.000 A 
ATOM     36  C   UNL A   1      34.098  16.343  23.547  1.00  0.00     0.000 A 
ATOM     37  C   UNL A   1      33.911  15.811  24.814  1.00  0.00     0.000 A 
ENDBRANCH  31  32
ENDBRANCH  30  31
ENDBRANCH  29  30
ENDBRANCH   8  20
ENDBRANCH   5   8
ENDBRANCH   3   4
ENDBRANCH   2   3
ENDBRANCH   1   2
BRANCH   1  38
ATOM     38  C   UNL A   1      31.690  30.776  26.213  1.00  0.00     0.002 C 
BRANCH  38  39
ATOM     39  C   UNL A   1      31.525  32.227  26.680  1.00  0.00     0.021 C 
BRANCH  39  40
ATOM     40  C   UNL A   1      32.678  32.761  27.525  1.00  0.00     0.116 C 
BRANCH  40  41
ATOM     41  N   UNL A   1      32.547  34.194  27.741  1.00  0.00    -0.352 N 
ATOM     42  C   UNL A   1      33.088  34.954  28.753  1.00  0.00     0.251 C 
ATOM     43  H   UNL A   1      32.003  34.681  27.082  1.00  0.00     0.163 HD
ATOM     44  O   UNL A   1      32.633  36.059  29.010  1.00  0.00    -0.269 OA
BRANCH  42  45
ATOM     45  C   UNL A   1      34.232  34.415  29.520  1.00  0.00     0.039 A 
ATOM     46  C   UNL A   1      34.012  33.839  30.773  1.00  0.00     0.014 A 
ATOM     47  C   UNL A   1      35.525  34.493  28.995  1.00  0.00     0.014 A 
ATOM     48  C   UNL A   1      35.088  33.301  31.482  1.00  0.00     0.010 A 
ATOM     49  C   UNL A   1      36.585  33.897  29.670  1.00  0.00     0.010 A 
ATOM     50  C   UNL A   1      36.380  33.306  30.926  1.00  0.00    -0.014 A 
BRANCH  50  51
ATOM     51  C   UNL A   1      37.535  32.717  31.653  1.00  0.00     0.031 A 
ATOM     52  C   UNL A   1      38.227  31.499  31.099  1.00  0.00     0.074 A 
ATOM     53  C   UNL A   1      37.922  33.240  32.832  1.00  0.00     0.049 A 
ATOM     54  N   UNL A   1      39.197  30.791  31.619  1.00  0.00    -0.248 NA
ATOM     55  C   UNL A   1      37.750  30.997  29.800  1.00  0.00     0.031 C 
ATOM     56  C   UNL A   1      37.298  34.387  33.495  1.00  0.00     0.029 A 
ATOM     57  N   UNL A   1      38.923  32.867  33.694  1.00  0.00    -0.354 N 
ATOM     58  C   UNL A   1      39.443  29.765  30.715  1.00  0.00     0.074 A 
ATOM     59  C   UNL A   1      38.478  29.902  29.646  1.00  0.00     0.031 C 
ATOM     60  C   UNL A   1      37.934  34.629  34.652  1.00  0.00     0.029 A 
ATOM     61  C   UNL A   1      38.985  33.633  34.835  1.00  0.00     0.049 A 
ATOM     62  H   UNL A   1      39.538  32.119  33.514  1.00  0.00     0.167 HD
ATOM     63  C   UNL A   1      40.405  28.812  30.757  1.00  0.00     0.037 A 
ATOM     64  C   UNL A   1      39.790  33.535  35.913  1.00  0.00     0.037 A 
ATOM     65  C   UNL A   1      41.369  28.689  31.819  1.00  0.00     0.049 A 
ATOM     66  C   UNL A   1      40.842  32.457  35.943  1.00  0.00     0.074 A 
ATOM     67  C   UNL A   1      42.401  27.775  31.944  1.00  0.00     0.029 A 
ATOM     68  N   UNL A   1      41.422  29.505  32.940  1.00  0.00    -0.354 N 
ATOM     69  N   UNL A   1      41.094  31.526  35.054  1.00  0.00    -0.248 NA
ATOM     70  C   UNL A   1      41.726  32.423  37.116  1.00  0.00     0.031 C 
ATOM     71  C   UNL A   1      43.053  28.013  33.158  1.00  0.00     0.029 A 
ATOM     72  C   UNL A   1      42.460  29.110  33.765  1.00  0.00     0.049 A 
ATOM     73  H   UNL A   1      40.809  30.254  33.121  1.00  0.00     0.167 HD
ATOM     74  C   UNL A   1      42.183  30.814  35.546  1.00  0.00     0.074 A 
ATOM     75  C   UNL A   1      42.550  31.433  36.804  1.00  0.00     0.031 C 
ATOM     76  C   UNL A   1      42.822  29.747  35.007  1.00  0.00     0.037 A 
BRANCH  63  77
ATOM     77  C   UNL A   1      40.474  27.838  29.611  1.00  0.00     0.058 A 
ATOM     78  C   UNL A   1      41.436  27.969  28.596  1.00  0.00     0.135 A 
ATOM     79  C   UNL A   1      39.603  26.739  29.546  1.00  0.00     0.135 A 
ATOM     80  F   UNL A   1      42.286  29.010  28.599  1.00  0.00    -0.206 F 
ATOM     81  C   UNL A   1      41.517  27.060  27.546  1.00  0.00     0.059 A 
ATOM     82  C   UNL A   1      39.685  25.799  28.521  1.00  0.00     0.059 A 
ATOM     83  F   UNL A   1      38.663  26.564  30.488  1.00  0.00    -0.206 F 
ATOM     84  C   UNL A   1      40.639  25.976  27.519  1.00  0.00     0.060 A 
BRANCH  84  85
ATOM     85  S   UNL A   1      40.772  24.797  26.158  1.00  0.00     0.124 S 
ATOM     86  O   UNL A   1      39.403  24.299  26.069  1.00  0.00    -0.237 OA
ATOM     87  O   UNL A   1      41.211  25.644  25.054  1.00  0.00    -0.237 OA
ATOM     88  O   UNL A   1      41.759  23.834  26.638  1.00  0.00    -0.744 OA
ENDBRANCH  84  85
ENDBRANCH  63  77
BRANCH  64  89
ATOM     89  C   UNL A   1      39.631  34.481  37.051  1.00  0.00     0.058 A 
ATOM     90  C   UNL A   1      40.145  35.785  36.991  1.00  0.00     0.135 A 
ATOM     91  C   UNL A   1      38.968  34.096  38.226  1.00  0.00     0.135 A 
ATOM     92  F   UNL A   1      40.791  36.201  35.891  1.00  0.00    -0.206 F 
ATOM     93  C   UNL A   1      40.034  36.664  38.064  1.00  0.00     0.059 A 
ATOM     94  C   UNL A   1      38.818  34.966  39.302  1.00  0.00     0.059 A 
ATOM     95  F   UNL A   1      38.441  32.866  38.330  1.00  0.00    -0.206 F 
ATOM     96  C   UNL A   1      39.369  36.243  39.218  1.00  0.00     0.060 A 
BRANCH  96  97
ATOM     97  S   UNL A   1      39.210  37.398  40.597  1.00  0.00     0.124 S 
ATOM     98  O   UNL A   1      40.595  37.806  40.799  1.00  0.00    -0.237 OA
ATOM     99  O   UNL A   1      38.317  38.413  40.046  1.00  0.00    -0.237 OA
ATOM    100  O   UNL A   1      38.633  36.575  41.657  1.00  0.00    -0.744 OA
ENDBRANCH  96  97
ENDBRANCH  64  89
BRANCH  76 101
ATOM    101  C   UNL A   1      44.014  29.203  35.748  1.00  0.00     0.058 A 
ATOM    102  C   UNL A   1      45.296  29.750  35.591  1.00  0.00     0.135 A 
ATOM    103  C   UNL A   1      43.855  28.156  36.670  1.00  0.00     0.135 A 
ATOM    104  F   UNL A   1      45.504  30.749  34.718  1.00  0.00    -0.206 F 
ATOM    105  C   UNL A   1      46.385  29.264  36.306  1.00  0.00     0.059 A 
ATOM    106  C   UNL A   1      44.925  27.673  37.418  1.00  0.00     0.059 A 
ATOM    107  F   UNL A   1      42.647  27.604  36.867  1.00  0.00    -0.206 F 
ATOM    108  C   UNL A   1      46.189  28.227  37.221  1.00  0.00     0.060 A 
BRANCH 108 109
ATOM    109  S   UNL A   1      47.604  27.630  38.170  1.00  0.00     0.124 S 
ATOM    110  O   UNL A   1      48.704  28.355  37.544  1.00  0.00    -0.237 OA
ATOM    111  O   UNL A   1      47.264  28.044  39.528  1.00  0.00    -0.237 OA
ATOM    112  O   UNL A   1      47.588  26.190  37.936  1.00  0.00    -0.744 OA
ENDBRANCH 108 109
ENDBRANCH  76 101
ENDBRANCH  50  51
ENDBRANCH  42  45
ENDBRANCH  40  41
ENDBRANCH  39  40
ENDBRANCH  38  39
ENDBRANCH   1  38
TORSDOF 22
ENDMDL
MODEL 2
REMARK VINA RESULT:     -12.5      5.920     10.492
REMARK SMILES NC(=O)[C@@H]1CCC[N@@H+]1[C@@H](C(=O)NCCCCCCNC(=O)c1ccc(-c2c3nc(c(-c4c(F)cc(S(=O)(=O)[O-])cc4F)c4ccc([nH]4)c(-c4c(F)cc(S(=O)(=O)[O-])cc4F)c4nc(c(-c5c(F)cc(S(=O)(=O)[O-])cc5F)c5ccc2[nH]5)C=C4)C=C3)cc1)c1c[nH]c2cc(OCc3ccccc3)ccc12
REMARK SMILES IDX 15 1 14 2 13 3 12 4 10 5 11 6 9 8 8 9 4 10 5 11 6 12 7 13
REMARK SMILES IDX 2 15 1 16 3 19 88 20 89 21 104 22 90 23 91 24 103 25 92 27
REMARK SMILES IDX 102 28 93 29 94 30 95 31 96 32 97 33 101 34 98 35 100 36
REMARK SMILES IDX 99 37 16 38 17 39 18 40 19 41 20 42 21 44 22 45 23 46 87 47
REMARK SMILES IDX 24 48 86 49 25 50 26 51 27 52 80 53 28 54 85 55 79 56 81 57
REMARK SMILES IDX 29 58 84 59 78 60 77 61 30 63 64 64 43 65 63 66 44 67 47 68
REMARK SMILES IDX 62 69 82 70 45 71 46 72 61 74 83 75 48 76 31 77 32 78 41 79
REMARK SMILES IDX 33 80 34 81 40 82 42 83 35 84 36 85 37 86 38 87 39 88 65 89
REMARK SMILES IDX 66 90 75 91 67 92 68 93 74 94 76 95 69 96 70 97 71 98 72 99
REMARK SMILES IDX 73 100 49 101 50 102 59 103 51 104 52 105 58 106 60 107
REMARK SMILES IDX 53 108 54 109 55 110 56 111 57 112
REMARK H PARENT 12 7 8 14 1 17 1 18 90 26 19 43 81 62 47 73
REMARK Flexibility Score: inf
ROOT
ATOM      1  C   UNL A   1      33.836  30.590  27.276  1.00  0.00     0.002 C 
ENDROOT
BRANCH   1   2
ATOM      2  C   UNL A   1      34.769  29.374  27.311  1.00  0.00     0.021 C 
BRANCH   2   3
ATOM      3  C   UNL A   1      34.237  28.098  26.632  1.00  0.00     0.116 C 
BRANCH   3   4
ATOM      4  N   UNL A   1      32.852  27.807  26.959  1.00  0.00    -0.351 N 
ATOM      5  C   UNL A   1      31.762  27.286  26.323  1.00  0.00     0.283 C 
ATOM      6  O   UNL A   1      30.748  27.351  27.029  1.00  0.00    -0.268 OA
ATOM      7  H   UNL A   1      32.642  28.051  27.889  1.00  0.00     0.163 HD
BRANCH   5   8
ATOM      8  C   UNL A   1      31.787  26.586  24.922  1.00  0.00     0.308 C 
BRANCH   8   9
ATOM      9  N   UNL A   1      31.541  27.416  23.654  1.00  0.00    -0.311 N 
ATOM     10  C   UNL A   1      32.553  27.420  22.562  1.00  0.00     0.275 C 
ATOM     11  C   UNL A   1      33.636  28.391  23.033  1.00  0.00     0.081 C 
ATOM     12  C   UNL A   1      32.861  29.410  23.856  1.00  0.00     0.068 C 
ATOM     13  C   UNL A   1      31.447  28.880  23.811  1.00  0.00     0.264 C 
ATOM     14  H   UNL A   1      30.681  26.913  23.433  1.00  0.00     0.349 HD
BRANCH  10  15
ATOM     15  C   UNL A   1      32.790  26.118  21.813  1.00  0.00     0.275 C 
ATOM     16  N   UNL A   1      31.869  25.811  20.855  1.00  0.00    -0.365 N 
ATOM     17  H   UNL A   1      31.960  24.982  20.332  1.00  0.00     0.159 HD
ATOM     18  H   UNL A   1      31.112  26.419  20.687  1.00  0.00     0.159 HD
ATOM     19  O   UNL A   1      33.805  25.434  21.924  1.00  0.00    -0.268 OA
ENDBRANCH  10  15
ENDBRANCH   8   9
BRANCH   8  20
ATOM     20  C   UNL A   1      30.838  25.292  24.870  1.00  0.00     0.044 A 
ATOM     21  C   UNL A   1      29.793  25.072  25.768  1.00  0.00     0.094 A 
ATOM     22  C   UNL A   1      31.232  23.922  24.593  1.00  0.00     0.009 A 
ATOM     23  N   UNL A   1      30.278  24.073  26.585  1.00  0.00    -0.361 N 
ATOM     24  C   UNL A   1      31.168  23.323  25.851  1.00  0.00     0.050 A 
ATOM     25  C   UNL A   1      31.864  23.188  23.564  1.00  0.00     0.015 A 
ATOM     26  H   UNL A   1      30.031  23.921  27.527  1.00  0.00     0.166 HD
ATOM     27  C   UNL A   1      32.038  22.297  26.217  1.00  0.00     0.073 A 
ATOM     28  C   UNL A   1      32.607  22.034  23.880  1.00  0.00     0.047 A 
ATOM     29  C   UNL A   1      32.793  21.686  25.212  1.00  0.00     0.121 A 
BRANCH  29  30
ATOM     30  O   UNL A   1      33.774  20.853  25.680  1.00  0.00    -0.489 OA
BRANCH  30  31
ATOM     31  C   UNL A   1      34.930  20.657  24.869  1.00  0.00     0.265 C 
BRANCH  31  32
ATOM     32  C   UNL A   1      36.067  21.589  25.238  1.00  0.00    -0.011 A 
ATOM     33  C   UNL A   1      37.386  21.115  25.220  1.00  0.00     0.007 A 
ATOM     34  C   UNL A   1      35.853  22.914  25.645  1.00  0.00     0.007 A 
ATOM     35  C   UNL A   1      38.443  21.941  25.611  1.00  0.00     0.000 A 
ATOM     36  C   UNL A   1      36.902  23.739  26.039  1.00  0.00     0.000 A 
ATOM     37  C   UNL A   1      38.200  23.249  26.028  1.00  0.00     0.000 A 
ENDBRANCH  31  32
ENDBRANCH  30  31
ENDBRANCH  29  30
ENDBRANCH   8  20
ENDBRANCH   5   8
ENDBRANCH   3   4
ENDBRANCH   2   3
ENDBRANCH   1   2
BRANCH   1  38
ATOM     38  C   UNL A   1      34.188  31.637  28.332  1.00  0.00     0.002 C 
BRANCH  38  39
ATOM     39  C   UNL A   1      35.398  32.518  28.001  1.00  0.00     0.021 C 
BRANCH  39  40
ATOM     40  C   UNL A   1      36.475  32.556  29.081  1.00  0.00     0.116 C 
BRANCH  40  41
ATOM     41  N   UNL A   1      36.058  31.814  30.261  1.00  0.00    -0.352 N 
ATOM     42  C   UNL A   1      36.547  30.617  30.730  1.00  0.00     0.251 C 
ATOM     43  H   UNL A   1      35.333  32.219  30.790  1.00  0.00     0.163 HD
ATOM     44  O   UNL A   1      35.896  29.944  31.517  1.00  0.00    -0.269 OA
BRANCH  42  45
ATOM     45  C   UNL A   1      37.876  30.158  30.271  1.00  0.00     0.039 A 
ATOM     46  C   UNL A   1      38.114  29.988  28.906  1.00  0.00     0.014 A 
ATOM     47  C   UNL A   1      38.883  29.887  31.203  1.00  0.00     0.014 A 
ATOM     48  C   UNL A   1      39.380  29.586  28.472  1.00  0.00     0.010 A 
ATOM     49  C   UNL A   1      40.160  29.553  30.767  1.00  0.00     0.010 A 
ATOM     50  C   UNL A   1      40.419  29.387  29.398  1.00  0.00    -0.014 A 
BRANCH  50  51
ATOM     51  C   UNL A   1      41.779  28.983  28.955  1.00  0.00     0.031 A 
ATOM     52  C   UNL A   1      42.873  30.014  28.862  1.00  0.00     0.074 A 
ATOM     53  C   UNL A   1      42.013  27.709  28.587  1.00  0.00     0.049 A 
ATOM     54  N   UNL A   1      44.099  29.880  28.424  1.00  0.00    -0.248 NA
ATOM     55  C   UNL A   1      42.538  31.380  29.294  1.00  0.00     0.031 C 
ATOM     56  C   UNL A   1      41.021  26.632  28.587  1.00  0.00     0.029 A 
ATOM     57  N   UNL A   1      43.155  27.104  28.124  1.00  0.00    -0.354 N 
ATOM     58  C   UNL A   1      44.678  31.140  28.527  1.00  0.00     0.074 A 
ATOM     59  C   UNL A   1      43.651  32.038  29.006  1.00  0.00     0.031 C 
ATOM     60  C   UNL A   1      41.598  25.499  28.155  1.00  0.00     0.029 A 
ATOM     61  C   UNL A   1      42.989  25.775  27.810  1.00  0.00     0.049 A 
ATOM     62  H   UNL A   1      44.013  27.578  28.024  1.00  0.00     0.167 HD
ATOM     63  C   UNL A   1      45.956  31.508  28.274  1.00  0.00     0.037 A 
ATOM     64  C   UNL A   1      43.857  24.883  27.289  1.00  0.00     0.037 A 
ATOM     65  C   UNL A   1      46.976  30.604  27.808  1.00  0.00     0.049 A 
ATOM     66  C   UNL A   1      45.269  25.321  27.003  1.00  0.00     0.074 A 
ATOM     67  C   UNL A   1      48.309  30.871  27.548  1.00  0.00     0.029 A 
ATOM     68  N   UNL A   1      46.778  29.259  27.535  1.00  0.00    -0.354 N 
ATOM     69  N   UNL A   1      45.813  26.505  27.155  1.00  0.00    -0.248 NA
ATOM     70  C   UNL A   1      46.189  24.300  26.483  1.00  0.00     0.031 C 
ATOM     71  C   UNL A   1      48.907  29.697  27.079  1.00  0.00     0.029 A 
ATOM     72  C   UNL A   1      47.959  28.685  27.099  1.00  0.00     0.049 A 
ATOM     73  H   UNL A   1      45.922  28.783  27.637  1.00  0.00     0.167 HD
ATOM     74  C   UNL A   1      47.144  26.364  26.779  1.00  0.00     0.074 A 
ATOM     75  C   UNL A   1      47.326  24.976  26.406  1.00  0.00     0.031 C 
ATOM     76  C   UNL A   1      48.127  27.297  26.746  1.00  0.00     0.037 A 
BRANCH  63  77
ATOM     77  C   UNL A   1      46.329  32.946  28.514  1.00  0.00     0.058 A 
ATOM     78  C   UNL A   1      46.220  33.910  27.498  1.00  0.00     0.135 A 
ATOM     79  C   UNL A   1      46.757  33.379  29.780  1.00  0.00     0.135 A 
ATOM     80  F   UNL A   1      45.831  33.551  26.263  1.00  0.00    -0.206 F 
ATOM     81  C   UNL A   1      46.544  35.245  27.720  1.00  0.00     0.059 A 
ATOM     82  C   UNL A   1      47.057  34.715  30.034  1.00  0.00     0.059 A 
ATOM     83  F   UNL A   1      46.880  32.501  30.788  1.00  0.00    -0.206 F 
ATOM     84  C   UNL A   1      46.958  35.638  28.993  1.00  0.00     0.060 A 
BRANCH  84  85
ATOM     85  S   UNL A   1      47.356  37.378  29.267  1.00  0.00     0.124 S 
ATOM     86  O   UNL A   1      47.450  37.430  30.722  1.00  0.00    -0.237 OA
ATOM     87  O   UNL A   1      48.615  37.527  28.545  1.00  0.00    -0.237 OA
ATOM     88  O   UNL A   1      46.216  38.082  28.687  1.00  0.00    -0.744 OA
ENDBRANCH  84  85
ENDBRANCH  63  77
BRANCH  64  89
ATOM     89  C   UNL A   1      43.414  23.491  27.005  1.00  0.00     0.058 A 
ATOM     90  C   UNL A   1      43.141  22.588  28.043  1.00  0.00     0.135 A 
ATOM     91  C   UNL A   1      43.264  23.033  25.687  1.00  0.00     0.135 A 
ATOM     92  F   UNL A   1      43.274  22.974  29.321  1.00  0.00    -0.206 F 
ATOM     93  C   UNL A   1      42.764  21.273  27.786  1.00  0.00     0.059 A 
ATOM     94  C   UNL A   1      42.858  21.732  25.404  1.00  0.00     0.059 A 
ATOM     95  F   UNL A   1      43.494  23.861  24.657  1.00  0.00    -0.206 F 
ATOM     96  C   UNL A   1      42.627  20.854  26.461  1.00  0.00     0.060 A 
BRANCH  96  97
ATOM     97  S   UNL A   1      42.114  19.153  26.137  1.00  0.00     0.124 S 
ATOM     98  O   UNL A   1      42.447  18.502  27.398  1.00  0.00    -0.237 OA
ATOM     99  O   UNL A   1      40.691  19.310  25.854  1.00  0.00    -0.237 OA
ATOM    100  O   UNL A   1      42.935  18.768  24.992  1.00  0.00    -0.744 OA
ENDBRANCH  96  97
ENDBRANCH  64  89
BRANCH  76 101
ATOM    101  C   UNL A   1      49.502  26.844  26.335  1.00  0.00     0.058 A 
ATOM    102  C   UNL A   1      50.356  26.170  27.221  1.00  0.00     0.135 A 
ATOM    103  C   UNL A   1      49.946  27.039  25.017  1.00  0.00     0.135 A 
ATOM    104  F   UNL A   1      49.983  25.963  28.495  1.00  0.00    -0.206 F 
ATOM    105  C   UNL A   1      51.612  25.725  26.822  1.00  0.00     0.059 A 
ATOM    106  C   UNL A   1      51.186  26.576  24.587  1.00  0.00     0.059 A 
ATOM    107  F   UNL A   1      49.164  27.669  24.125  1.00  0.00    -0.206 F 
ATOM    108  C   UNL A   1      52.016  25.929  25.501  1.00  0.00     0.060 A 
BRANCH 108 109
ATOM    109  S   UNL A   1      53.633  25.312  24.987  1.00  0.00     0.124 S 
ATOM    110  O   UNL A   1      53.458  23.871  25.134  1.00  0.00    -0.237 OA
ATOM    111  O   UNL A   1      53.730  25.801  23.615  1.00  0.00    -0.237 OA
ATOM    112  O   UNL A   1      54.553  25.933  25.934  1.00  0.00    -0.744 OA
ENDBRANCH 108 109
ENDBRANCH  76 101
ENDBRANCH  50  51
ENDBRANCH  42  45
ENDBRANCH  40  41
ENDBRANCH  39  40
ENDBRANCH  38  39
ENDBRANCH   1  38
TORSDOF 22
ENDMDL
MODEL 3
REMARK VINA RESULT:     -12.3      5.903      8.195
REMARK SMILES NC(=O)[C@@H]1CCC[N@@H+]1[C@@H](C(=O)NCCCCCCNC(=O)c1ccc(-c2c3nc(c(-c4c(F)cc(S(=O)(=O)[O-])cc4F)c4ccc([nH]4)c(-c4c(F)cc(S(=O)(=O)[O-])cc4F)c4nc(c(-c5c(F)cc(S(=O)(=O)[O-])cc5F)c5ccc2[nH]5)C=C4)C=C3)cc1)c1c[nH]c2cc(OCc3ccccc3)ccc12
REMARK SMILES IDX 15 1 14 2 13 3 12 4 10 5 11 6 9 8 8 9 4 10 5 11 6 12 7 13
REMARK SMILES IDX 2 15 1 16 3 19 88 20 89 21 104 22 90 23 91 24 103 25 92 27
REMARK SMILES IDX 102 28 93 29 94 30 95 31 96 32 97 33 101 34 98 35 100 36
REMARK SMILES IDX 99 37 16 38 17 39 18 40 19 41 20 42 21 44 22 45 23 46 87 47
REMARK SMILES IDX 24 48 86 49 25 50 26 51 27 52 80 53 28 54 85 55 79 56 81 57
REMARK SMILES IDX 29 58 84 59 78 60 77 61 30 63 64 64 43 65 63 66 44 67 47 68
REMARK SMILES IDX 62 69 82 70 45 71 46 72 61 74 83 75 48 76 31 77 32 78 41 79
REMARK SMILES IDX 33 80 34 81 40 82 42 83 35 84 36 85 37 86 38 87 39 88 65 89
REMARK SMILES IDX 66 90 75 91 67 92 68 93 74 94 76 95 69 96 70 97 71 98 72 99
REMARK SMILES IDX 73 100 49 101 50 102 59 103 51 104 52 105 58 106 60 107
REMARK SMILES IDX 53 108 54 109 55 110 56 111 57 112
REMARK H PARENT 12 7 8 14 1 17 1 18 90 26 19 43 81 62 47 73
REMARK Flexibility Score: inf
ROOT
ATOM      1  C   UNL A   1      34.885  30.133  27.321  1.00  0.00     0.002 C 
ENDROOT
BRANCH   1   2
ATOM      2  C   UNL A   1      33.979  29.252  26.453  1.00  0.00     0.021 C 
BRANCH   2   3
ATOM      3  C   UNL A   1      32.472  29.561  26.525  1.00  0.00     0.116 C 
BRANCH   3   4
ATOM      4  N   UNL A   1      31.661  28.402  26.857  1.00  0.00    -0.351 N 
ATOM      5  C   UNL A   1      31.364  27.195  26.294  1.00  0.00     0.283 C 
ATOM      6  O   UNL A   1      30.505  26.587  26.945  1.00  0.00    -0.268 OA
ATOM      7  H   UNL A   1      31.203  28.519  27.721  1.00  0.00     0.163 HD
BRANCH   5   8
ATOM      8  C   UNL A   1      32.084  26.582  25.046  1.00  0.00     0.308 C 
BRANCH   8   9
ATOM      9  N   UNL A   1      31.255  25.884  23.958  1.00  0.00    -0.311 N 
ATOM     10  C   UNL A   1      31.366  26.330  22.541  1.00  0.00     0.275 C 
ATOM     11  C   UNL A   1      30.495  27.585  22.454  1.00  0.00     0.081 C 
ATOM     12  C   UNL A   1      29.393  27.319  23.470  1.00  0.00     0.068 C 
ATOM     13  C   UNL A   1      29.786  25.984  24.058  1.00  0.00     0.264 C 
ATOM     14  H   UNL A   1      31.676  24.976  24.150  1.00  0.00     0.349 HD
BRANCH  10  15
ATOM     15  C   UNL A   1      32.697  26.120  21.836  1.00  0.00     0.275 C 
ATOM     16  N   UNL A   1      32.846  24.922  21.201  1.00  0.00    -0.365 N 
ATOM     17  H   UNL A   1      33.684  24.719  20.725  1.00  0.00     0.159 HD
ATOM     18  H   UNL A   1      32.117  24.261  21.220  1.00  0.00     0.159 HD
ATOM     19  O   UNL A   1      33.547  26.996  21.694  1.00  0.00    -0.268 OA
ENDBRANCH  10  15
ENDBRANCH   8   9
BRANCH   8  20
ATOM     20  C   UNL A   1      33.295  25.612  25.456  1.00  0.00     0.044 A 
ATOM     21  C   UNL A   1      34.526  25.603  24.798  1.00  0.00     0.094 A 
ATOM     22  C   UNL A   1      33.211  24.219  25.861  1.00  0.00     0.009 A 
ATOM     23  N   UNL A   1      34.489  24.434  24.066  1.00  0.00    -0.361 N 
ATOM     24  C   UNL A   1      33.684  23.543  24.737  1.00  0.00     0.050 A 
ATOM     25  C   UNL A   1      32.584  23.442  26.861  1.00  0.00     0.015 A 
ATOM     26  H   UNL A   1      34.956  24.266  23.215  1.00  0.00     0.166 HD
ATOM     27  C   UNL A   1      33.196  22.286  24.382  1.00  0.00     0.073 A 
ATOM     28  C   UNL A   1      32.238  22.103  26.596  1.00  0.00     0.047 A 
ATOM     29  C   UNL A   1      32.427  21.590  25.319  1.00  0.00     0.121 A 
BRANCH  29  30
ATOM     30  O   UNL A   1      31.808  20.477  24.816  1.00  0.00    -0.489 OA
BRANCH  30  31
ATOM     31  C   UNL A   1      32.426  19.802  23.723  1.00  0.00     0.265 C 
BRANCH  31  32
ATOM     32  C   UNL A   1      32.912  18.414  24.093  1.00  0.00    -0.011 A 
ATOM     33  C   UNL A   1      32.683  17.921  25.384  1.00  0.00     0.007 A 
ATOM     34  C   UNL A   1      33.630  17.605  23.201  1.00  0.00     0.007 A 
ATOM     35  C   UNL A   1      33.172  16.668  25.763  1.00  0.00     0.000 A 
ATOM     36  C   UNL A   1      34.121  16.358  23.574  1.00  0.00     0.000 A 
ATOM     37  C   UNL A   1      33.896  15.891  24.862  1.00  0.00     0.000 A 
ENDBRANCH  31  32
ENDBRANCH  30  31
ENDBRANCH  29  30
ENDBRANCH   8  20
ENDBRANCH   5   8
ENDBRANCH   3   4
ENDBRANCH   2   3
ENDBRANCH   1   2
BRANCH   1  38
ATOM     38  C   UNL A   1      34.176  31.385  27.836  1.00  0.00     0.002 C 
BRANCH  38  39
ATOM     39  C   UNL A   1      35.090  32.582  28.124  1.00  0.00     0.021 C 
BRANCH  39  40
ATOM     40  C   UNL A   1      36.384  32.236  28.854  1.00  0.00     0.116 C 
BRANCH  40  41
ATOM     41  N   UNL A   1      36.109  31.564  30.114  1.00  0.00    -0.352 N 
ATOM     42  C   UNL A   1      36.729  30.453  30.639  1.00  0.00     0.251 C 
ATOM     43  H   UNL A   1      35.388  31.951  30.661  1.00  0.00     0.163 HD
ATOM     44  O   UNL A   1      36.190  29.798  31.519  1.00  0.00    -0.269 OA
BRANCH  42  45
ATOM     45  C   UNL A   1      38.060  30.066  30.123  1.00  0.00     0.039 A 
ATOM     46  C   UNL A   1      38.260  29.953  28.746  1.00  0.00     0.014 A 
ATOM     47  C   UNL A   1      39.106  29.805  31.014  1.00  0.00     0.014 A 
ATOM     48  C   UNL A   1      39.527  29.619  28.259  1.00  0.00     0.010 A 
ATOM     49  C   UNL A   1      40.382  29.539  30.526  1.00  0.00     0.010 A 
ATOM     50  C   UNL A   1      40.603  29.431  29.145  1.00  0.00    -0.014 A 
BRANCH  50  51
ATOM     51  C   UNL A   1      41.963  29.100  28.647  1.00  0.00     0.031 A 
ATOM     52  C   UNL A   1      42.287  27.687  28.236  1.00  0.00     0.074 A 
ATOM     53  C   UNL A   1      42.916  30.051  28.617  1.00  0.00     0.049 A 
ATOM     54  N   UNL A   1      43.430  27.180  27.853  1.00  0.00    -0.248 NA
ATOM     55  C   UNL A   1      41.186  26.711  28.288  1.00  0.00     0.031 C 
ATOM     56  C   UNL A   1      42.737  31.443  29.036  1.00  0.00     0.029 A 
ATOM     57  N   UNL A   1      44.233  29.990  28.233  1.00  0.00    -0.354 N 
ATOM     58  C   UNL A   1      43.186  25.831  27.619  1.00  0.00     0.074 A 
ATOM     59  C   UNL A   1      41.804  25.585  27.967  1.00  0.00     0.031 C 
ATOM     60  C   UNL A   1      43.894  32.104  28.878  1.00  0.00     0.029 A 
ATOM     61  C   UNL A   1      44.909  31.179  28.384  1.00  0.00     0.049 A 
ATOM     62  H   UNL A   1      44.654  29.172  27.883  1.00  0.00     0.167 HD
ATOM     63  C   UNL A   1      44.029  24.890  27.130  1.00  0.00     0.037 A 
ATOM     64  C   UNL A   1      46.203  31.483  28.164  1.00  0.00     0.037 A 
ATOM     65  C   UNL A   1      45.401  25.146  26.775  1.00  0.00     0.049 A 
ATOM     66  C   UNL A   1      47.125  30.416  27.634  1.00  0.00     0.074 A 
ATOM     67  C   UNL A   1      46.332  24.269  26.247  1.00  0.00     0.029 A 
ATOM     68  N   UNL A   1      46.039  26.371  26.911  1.00  0.00    -0.354 N 
ATOM     69  N   UNL A   1      46.864  29.158  27.370  1.00  0.00    -0.248 NA
ATOM     70  C   UNL A   1      48.514  30.811  27.363  1.00  0.00     0.031 C 
ATOM     71  C   UNL A   1      47.543  24.952  26.100  1.00  0.00     0.029 A 
ATOM     72  C   UNL A   1      47.353  26.269  26.486  1.00  0.00     0.049 A 
ATOM     73  H   UNL A   1      45.619  27.191  27.258  1.00  0.00     0.167 HD
ATOM     74  C   UNL A   1      48.047  28.619  26.875  1.00  0.00     0.074 A 
ATOM     75  C   UNL A   1      49.019  29.693  26.862  1.00  0.00     0.031 C 
ATOM     76  C   UNL A   1      48.304  27.353  26.466  1.00  0.00     0.037 A 
BRANCH  63  77
ATOM     77  C   UNL A   1      43.486  23.501  26.933  1.00  0.00     0.058 A 
ATOM     78  C   UNL A   1      43.142  23.023  25.658  1.00  0.00     0.135 A 
ATOM     79  C   UNL A   1      43.349  22.620  28.018  1.00  0.00     0.135 A 
ATOM     80  F   UNL A   1      43.238  23.827  24.586  1.00  0.00    -0.206 F 
ATOM     81  C   UNL A   1      42.659  21.733  25.468  1.00  0.00     0.059 A 
ATOM     82  C   UNL A   1      42.896  21.313  27.848  1.00  0.00     0.059 A 
ATOM     83  F   UNL A   1      43.662  23.023  29.259  1.00  0.00    -0.206 F 
ATOM     84  C   UNL A   1      42.543  20.884  26.569  1.00  0.00     0.060 A 
BRANCH  84  85
ATOM     85  S   UNL A   1      41.931  19.206  26.300  1.00  0.00     0.124 S 
ATOM     86  O   UNL A   1      42.117  18.613  27.620  1.00  0.00    -0.237 OA
ATOM     87  O   UNL A   1      40.548  19.440  25.899  1.00  0.00    -0.237 OA
ATOM     88  O   UNL A   1      42.807  18.690  25.252  1.00  0.00    -0.744 OA
ENDBRANCH  84  85
ENDBRANCH  63  77
BRANCH  64  89
ATOM     89  C   UNL A   1      46.704  32.857  28.443  1.00  0.00     0.058 A 
ATOM     90  C   UNL A   1      46.704  33.848  27.451  1.00  0.00     0.135 A 
ATOM     91  C   UNL A   1      47.202  33.203  29.709  1.00  0.00     0.135 A 
ATOM     92  F   UNL A   1      46.243  33.567  26.222  1.00  0.00    -0.206 F 
ATOM     93  C   UNL A   1      47.205  35.124  27.692  1.00  0.00     0.059 A 
ATOM     94  C   UNL A   1      47.681  34.481  29.984  1.00  0.00     0.059 A 
ATOM     95  F   UNL A   1      47.208  32.299  30.700  1.00  0.00    -0.206 F 
ATOM     96  C   UNL A   1      47.694  35.430  28.964  1.00  0.00     0.060 A 
BRANCH  96  97
ATOM     97  S   UNL A   1      48.321  37.095  29.275  1.00  0.00     0.124 S 
ATOM     98  O   UNL A   1      47.278  37.918  28.676  1.00  0.00    -0.237 OA
ATOM     99  O   UNL A   1      48.402  37.125  30.733  1.00  0.00    -0.237 OA
ATOM    100  O   UNL A   1      49.607  37.102  28.584  1.00  0.00    -0.744 OA
ENDBRANCH  96  97
ENDBRANCH  64  89
BRANCH  76 101
ATOM    101  C   UNL A   1      49.679  27.062  25.927  1.00  0.00     0.058 A 
ATOM    102  C   UNL A   1      50.715  26.598  26.751  1.00  0.00     0.135 A 
ATOM    103  C   UNL A   1      49.943  27.197  24.554  1.00  0.00     0.135 A 
ATOM    104  F   UNL A   1      50.518  26.457  28.072  1.00  0.00    -0.206 F 
ATOM    105  C   UNL A   1      51.973  26.299  26.238  1.00  0.00     0.059 A 
ATOM    106  C   UNL A   1      51.184  26.875  24.014  1.00  0.00     0.059 A 
ATOM    107  F   UNL A   1      48.984  27.627  23.719  1.00  0.00    -0.206 F 
ATOM    108  C   UNL A   1      52.197  26.437  24.867  1.00  0.00     0.060 A 
BRANCH 108 109
ATOM    109  S   UNL A   1      53.822  26.009  24.208  1.00  0.00     0.124 S 
ATOM    110  O   UNL A   1      53.993  24.649  24.707  1.00  0.00    -0.237 OA
ATOM    111  O   UNL A   1      53.617  26.136  22.768  1.00  0.00    -0.237 OA
ATOM    112  O   UNL A   1      54.704  27.010  24.800  1.00  0.00    -0.744 OA
ENDBRANCH 108 109
ENDBRANCH  76 101
ENDBRANCH  50  51
ENDBRANCH  42  45
ENDBRANCH  40  41
ENDBRANCH  39  40
ENDBRANCH  38  39
ENDBRANCH   1  38
TORSDOF 22
ENDMDL
