MODEL 1
REMARK VINA RESULT:     -11.9      0.000      0.000
REMARK SMILES COc1ccc(C(=O)N(C)C)cc1NC(=O)[C@H]1[C@@H](C(=O)NCCCCCCNC(=O)c2ccc(-c3c4nc(c(-c5c(F)cc(S(=O)(=O)[O-])cc5F)c5ccc([nH]5)c(-c5c(F)cc(S(=O)(=O)[O-])cc5F)c5nc(c(-c6c(F)cc(S(=O)(=O)[O-])cc6F)c6ccc3[nH]6)C=C5)C=C4)cc2)[C@H]2C=C[C@@H]1C2
REMARK SMILES IDX 24 1 23 2 22 3 21 4 19 5 20 6 18 8 17 9 100 10 97 11 99 12
REMARK SMILES IDX 101 13 98 14 15 15 14 16 16 18 13 19 3 20 4 21 5 22 12 23
REMARK SMILES IDX 6 24 2 25 1 26 7 27 8 28 9 29 10 30 11 31 25 32 26 33 27 34
REMARK SMILES IDX 28 35 29 36 30 38 31 39 32 40 96 41 33 42 95 43 34 44 35 45
REMARK SMILES IDX 36 46 89 47 37 48 94 49 88 50 90 51 38 52 93 53 87 54 86 55
REMARK SMILES IDX 39 57 73 58 52 59 72 60 53 61 56 62 71 63 91 64 54 65 55 66
REMARK SMILES IDX 70 68 92 69 57 70 40 71 41 72 50 73 42 74 43 75 49 76 51 77
REMARK SMILES IDX 44 78 45 79 46 80 47 81 48 82 74 83 75 84 84 85 76 86 77 87
REMARK SMILES IDX 83 88 85 89 78 90 79 91 80 92 81 93 82 94 58 95 59 96 68 97
REMARK SMILES IDX 60 98 61 99 67 100 69 101 62 102 63 103 64 104 65 105 66 106
REMARK H PARENT 21 7 14 17 28 37 90 56 56 67
REMARK Flexibility Score: inf
ROOT
ATOM      1  C   UNL A   1      33.723  28.574  26.178  1.00  0.00     0.002 C 
ENDROOT
BRANCH   1   2
ATOM      2  C   UNL A   1      33.228  29.407  24.993  1.00  0.00     0.021 C 
BRANCH   2   3
ATOM      3  C   UNL A   1      33.726  28.959  23.625  1.00  0.00     0.116 C 
BRANCH   3   4
ATOM      4  N   UNL A   1      32.620  28.547  22.788  1.00  0.00    -0.356 N 
ATOM      5  C   UNL A   1      31.756  27.503  22.897  1.00  0.00     0.224 C 
ATOM      6  O   UNL A   1      30.859  27.439  22.054  1.00  0.00    -0.275 OA
ATOM      7  H   UNL A   1      32.466  29.124  22.004  1.00  0.00     0.163 HD
BRANCH   5   8
ATOM      8  C   UNL A   1      31.810  26.588  24.114  1.00  0.00     0.098 C 
ATOM      9  C   UNL A   1      32.725  25.322  24.164  1.00  0.00     0.099 C 
ATOM     10  C   UNL A   1      31.719  24.176  24.470  1.00  0.00     0.025 C 
ATOM     11  C   UNL A   1      30.419  25.994  24.502  1.00  0.00     0.025 C 
ATOM     12  C   UNL A   1      30.715  24.031  23.352  1.00  0.00    -0.027 C 
ATOM     13  C   UNL A   1      30.815  24.884  25.486  1.00  0.00     0.017 C 
ATOM     14  C   UNL A   1      29.922  25.110  23.386  1.00  0.00    -0.027 C 
BRANCH   9  15
ATOM     15  C   UNL A   1      33.673  24.931  23.048  1.00  0.00     0.229 C 
ATOM     16  N   UNL A   1      34.211  23.672  22.940  1.00  0.00    -0.323 N 
ATOM     17  H   UNL A   1      34.473  23.445  22.019  1.00  0.00     0.170 HD
ATOM     18  O   UNL A   1      33.971  25.731  22.157  1.00  0.00    -0.274 OA
BRANCH  16  19
ATOM     19  C   UNL A   1      34.475  22.627  23.860  1.00  0.00     0.084 A 
ATOM     20  C   UNL A   1      35.381  22.912  24.900  1.00  0.00     0.142 A 
ATOM     21  C   UNL A   1      35.487  22.063  26.004  1.00  0.00     0.049 A 
ATOM     22  C   UNL A   1      34.693  20.913  26.075  1.00  0.00     0.018 A 
ATOM     23  C   UNL A   1      33.853  21.377  23.869  1.00  0.00     0.044 A 
ATOM     24  C   UNL A   1      33.877  20.546  24.996  1.00  0.00     0.042 A 
BRANCH  20  25
ATOM     25  O   UNL A   1      36.285  23.939  24.771  1.00  0.00    -0.495 OA
ATOM     26  C   UNL A   1      37.446  23.808  25.584  1.00  0.00     0.278 C 
ENDBRANCH  20  25
BRANCH  24  27
ATOM     27  C   UNL A   1      33.139  19.239  25.069  1.00  0.00     0.253 C 
ATOM     28  O   UNL A   1      31.941  19.293  25.353  1.00  0.00    -0.269 OA
ATOM     29  N   UNL A   1      33.763  18.009  24.810  1.00  0.00    -0.345 N 
ATOM     30  C   UNL A   1      35.089  17.804  24.277  1.00  0.00     0.146 C 
ATOM     31  C   UNL A   1      32.964  16.801  24.953  1.00  0.00     0.146 C 
ENDBRANCH  24  27
ENDBRANCH  16  19
ENDBRANCH   9  15
ENDBRANCH   5   8
ENDBRANCH   3   4
ENDBRANCH   2   3
ENDBRANCH   1   2
BRANCH   1  32
ATOM     32  C   UNL A   1      34.844  29.217  26.997  1.00  0.00     0.002 C 
BRANCH  32  33
ATOM     33  C   UNL A   1      34.512  30.570  27.634  1.00  0.00     0.021 C 
BRANCH  33  34
ATOM     34  C   UNL A   1      35.651  31.242  28.396  1.00  0.00     0.116 C 
BRANCH  34  35
ATOM     35  N   UNL A   1      35.577  31.035  29.831  1.00  0.00    -0.352 N 
ATOM     36  C   UNL A   1      36.432  30.353  30.659  1.00  0.00     0.251 C 
ATOM     37  H   UNL A   1      34.800  31.447  30.276  1.00  0.00     0.163 HD
ATOM     38  O   UNL A   1      36.129  30.171  31.838  1.00  0.00    -0.269 OA
BRANCH  36  39
ATOM     39  C   UNL A   1      37.699  29.806  30.129  1.00  0.00     0.039 A 
ATOM     40  C   UNL A   1      37.979  29.965  28.770  1.00  0.00     0.014 A 
ATOM     41  C   UNL A   1      38.612  29.150  30.962  1.00  0.00     0.014 A 
ATOM     42  C   UNL A   1      39.207  29.539  28.261  1.00  0.00     0.010 A 
ATOM     43  C   UNL A   1      39.861  28.780  30.464  1.00  0.00     0.010 A 
ATOM     44  C   UNL A   1      40.178  28.985  29.113  1.00  0.00    -0.014 A 
BRANCH  44  45
ATOM     45  C   UNL A   1      41.544  28.675  28.610  1.00  0.00     0.031 A 
ATOM     46  C   UNL A   1      41.896  27.288  28.143  1.00  0.00     0.074 A 
ATOM     47  C   UNL A   1      42.487  29.640  28.635  1.00  0.00     0.049 A 
ATOM     48  N   UNL A   1      43.049  26.830  27.726  1.00  0.00    -0.248 NA
ATOM     49  C   UNL A   1      40.824  26.281  28.164  1.00  0.00     0.031 C 
ATOM     50  C   UNL A   1      42.281  31.011  29.112  1.00  0.00     0.029 A 
ATOM     51  N   UNL A   1      43.810  29.618  28.269  1.00  0.00    -0.354 N 
ATOM     52  C   UNL A   1      42.847  25.482  27.450  1.00  0.00     0.074 A 
ATOM     53  C   UNL A   1      41.468  25.187  27.776  1.00  0.00     0.031 C 
ATOM     54  C   UNL A   1      43.428  31.698  28.994  1.00  0.00     0.029 A 
ATOM     55  C   UNL A   1      44.465  30.810  28.479  1.00  0.00     0.049 A 
ATOM     56  H   UNL A   1      44.251  28.822  27.890  1.00  0.00     0.167 HD
ATOM     57  C   UNL A   1      43.729  24.581  26.958  1.00  0.00     0.037 A 
ATOM     58  C   UNL A   1      45.758  31.147  28.298  1.00  0.00     0.037 A 
ATOM     59  C   UNL A   1      45.091  24.890  26.603  1.00  0.00     0.049 A 
ATOM     60  C   UNL A   1      46.715  30.116  27.762  1.00  0.00     0.074 A 
ATOM     61  C   UNL A   1      46.029  24.065  26.008  1.00  0.00     0.029 A 
ATOM     62  N   UNL A   1      45.713  26.110  26.820  1.00  0.00    -0.354 N 
ATOM     63  N   UNL A   1      46.477  28.876  27.408  1.00  0.00    -0.248 NA
ATOM     64  C   UNL A   1      48.117  30.527  27.599  1.00  0.00     0.031 C 
ATOM     65  C   UNL A   1      47.237  24.763  25.926  1.00  0.00     0.029 A 
ATOM     66  C   UNL A   1      47.036  26.044  26.412  1.00  0.00     0.049 A 
ATOM     67  H   UNL A   1      45.280  26.905  27.206  1.00  0.00     0.167 HD
ATOM     68  C   UNL A   1      47.692  28.369  26.959  1.00  0.00     0.074 A 
ATOM     69  C   UNL A   1      48.657  29.443  27.062  1.00  0.00     0.031 C 
ATOM     70  C   UNL A   1      47.985  27.124  26.509  1.00  0.00     0.037 A 
BRANCH  57  71
ATOM     71  C   UNL A   1      43.271  23.161  26.763  1.00  0.00     0.058 A 
ATOM     72  C   UNL A   1      43.097  22.610  25.484  1.00  0.00     0.135 A 
ATOM     73  C   UNL A   1      43.123  22.308  27.870  1.00  0.00     0.135 A 
ATOM     74  F   UNL A   1      43.212  23.382  24.392  1.00  0.00    -0.206 F 
ATOM     75  C   UNL A   1      42.792  21.263  25.310  1.00  0.00     0.059 A 
ATOM     76  C   UNL A   1      42.844  20.954  27.719  1.00  0.00     0.059 A 
ATOM     77  F   UNL A   1      43.276  22.786  29.115  1.00  0.00    -0.206 F 
ATOM     78  C   UNL A   1      42.680  20.440  26.433  1.00  0.00     0.060 A 
BRANCH  78  79
ATOM     79  S   UNL A   1      42.351  18.683  26.183  1.00  0.00     0.124 S 
ATOM     80  O   UNL A   1      40.947  18.703  25.782  1.00  0.00    -0.237 OA
ATOM     81  O   UNL A   1      43.304  18.335  25.134  1.00  0.00    -0.237 OA
ATOM     82  O   UNL A   1      42.620  18.095  27.491  1.00  0.00    -0.744 OA
ENDBRANCH  78  79
ENDBRANCH  57  71
BRANCH  58  83
ATOM     83  C   UNL A   1      46.241  32.514  28.646  1.00  0.00     0.058 A 
ATOM     84  C   UNL A   1      46.215  33.554  27.706  1.00  0.00     0.135 A 
ATOM     85  C   UNL A   1      46.783  32.793  29.911  1.00  0.00     0.135 A 
ATOM     86  F   UNL A   1      45.711  33.339  26.480  1.00  0.00    -0.206 F 
ATOM     87  C   UNL A   1      46.747  34.808  27.989  1.00  0.00     0.059 A 
ATOM     88  C   UNL A   1      47.290  34.048  30.229  1.00  0.00     0.059 A 
ATOM     89  F   UNL A   1      46.816  31.840  30.856  1.00  0.00    -0.206 F 
ATOM     90  C   UNL A   1      47.289  35.044  29.254  1.00  0.00     0.060 A 
BRANCH  90  91
ATOM     91  S   UNL A   1      47.982  36.672  29.611  1.00  0.00     0.124 S 
ATOM     92  O   UNL A   1      46.971  37.553  29.039  1.00  0.00    -0.237 OA
ATOM     93  O   UNL A   1      48.066  36.657  31.068  1.00  0.00    -0.237 OA
ATOM     94  O   UNL A   1      49.266  36.649  28.918  1.00  0.00    -0.744 OA
ENDBRANCH  90  91
ENDBRANCH  58  83
BRANCH  70  95
ATOM     95  C   UNL A   1      49.399  26.858  26.067  1.00  0.00     0.058 A 
ATOM     96  C   UNL A   1      49.813  27.088  24.747  1.00  0.00     0.135 A 
ATOM     97  C   UNL A   1      50.364  26.421  26.990  1.00  0.00     0.135 A 
ATOM     98  F   UNL A   1      48.930  27.497  23.822  1.00  0.00    -0.206 F 
ATOM     99  C   UNL A   1      51.129  26.872  24.350  1.00  0.00     0.059 A 
ATOM    100  C   UNL A   1      51.692  26.231  26.623  1.00  0.00     0.059 A 
ATOM    101  F   UNL A   1      50.025  26.195  28.270  1.00  0.00    -0.206 F 
ATOM    102  C   UNL A   1      52.063  26.450  25.297  1.00  0.00     0.060 A 
BRANCH 102 103
ATOM    103  S   UNL A   1      53.776  26.215  24.776  1.00  0.00     0.124 S 
ATOM    104  O   UNL A   1      53.627  26.065  23.332  1.00  0.00    -0.237 OA
ATOM    105  O   UNL A   1      54.409  27.451  25.224  1.00  0.00    -0.237 OA
ATOM    106  O   UNL A   1      54.188  25.011  25.493  1.00  0.00    -0.744 OA
ENDBRANCH 102 103
ENDBRANCH  70  95
ENDBRANCH  44  45
ENDBRANCH  36  39
ENDBRANCH  34  35
ENDBRANCH  33  34
ENDBRANCH  32  33
ENDBRANCH   1  32
TORSDOF 20
ENDMDL
MODEL 2
REMARK VINA RESULT:     -11.7      1.528      8.206
REMARK SMILES COc1ccc(C(=O)N(C)C)cc1NC(=O)[C@H]1[C@@H](C(=O)NCCCCCCNC(=O)c2ccc(-c3c4nc(c(-c5c(F)cc(S(=O)(=O)[O-])cc5F)c5ccc([nH]5)c(-c5c(F)cc(S(=O)(=O)[O-])cc5F)c5nc(c(-c6c(F)cc(S(=O)(=O)[O-])cc6F)c6ccc3[nH]6)C=C5)C=C4)cc2)[C@H]2C=C[C@@H]1C2
REMARK SMILES IDX 24 1 23 2 22 3 21 4 19 5 20 6 18 8 17 9 100 10 97 11 99 12
REMARK SMILES IDX 101 13 98 14 15 15 14 16 16 18 13 19 3 20 4 21 5 22 12 23
REMARK SMILES IDX 6 24 2 25 1 26 7 27 8 28 9 29 10 30 11 31 25 32 26 33 27 34
REMARK SMILES IDX 28 35 29 36 30 38 31 39 32 40 96 41 33 42 95 43 34 44 35 45
REMARK SMILES IDX 36 46 89 47 37 48 94 49 88 50 90 51 38 52 93 53 87 54 86 55
REMARK SMILES IDX 39 57 73 58 52 59 72 60 53 61 56 62 71 63 91 64 54 65 55 66
REMARK SMILES IDX 70 68 92 69 57 70 40 71 41 72 50 73 42 74 43 75 49 76 51 77
REMARK SMILES IDX 44 78 45 79 46 80 47 81 48 82 74 83 75 84 84 85 76 86 77 87
REMARK SMILES IDX 83 88 85 89 78 90 79 91 80 92 81 93 82 94 58 95 59 96 68 97
REMARK SMILES IDX 60 98 61 99 67 100 69 101 62 102 63 103 64 104 65 105 66 106
REMARK H PARENT 21 7 14 17 28 37 90 56 56 67
REMARK Flexibility Score: inf
ROOT
ATOM      1  C   UNL A   1      34.781  31.600  27.771  1.00  0.00     0.002 C 
ENDROOT
BRANCH   1   2
ATOM      2  C   UNL A   1      33.708  30.896  26.937  1.00  0.00     0.021 C 
BRANCH   2   3
ATOM      3  C   UNL A   1      33.853  29.384  26.827  1.00  0.00     0.116 C 
BRANCH   3   4
ATOM      4  N   UNL A   1      34.279  29.007  25.497  1.00  0.00    -0.356 N 
ATOM      5  C   UNL A   1      33.681  28.231  24.553  1.00  0.00     0.224 C 
ATOM      6  O   UNL A   1      34.261  28.137  23.469  1.00  0.00    -0.275 OA
ATOM      7  H   UNL A   1      35.152  29.376  25.229  1.00  0.00     0.163 HD
BRANCH   5   8
ATOM      8  C   UNL A   1      32.281  27.679  24.789  1.00  0.00     0.098 C 
ATOM      9  C   UNL A   1      31.721  26.461  23.987  1.00  0.00     0.099 C 
ATOM     10  C   UNL A   1      30.416  27.026  23.359  1.00  0.00     0.025 C 
ATOM     11  C   UNL A   1      31.156  28.742  24.587  1.00  0.00     0.025 C 
ATOM     12  C   UNL A   1      30.724  28.159  22.410  1.00  0.00    -0.027 C 
ATOM     13  C   UNL A   1      29.898  27.862  24.537  1.00  0.00     0.017 C 
ATOM     14  C   UNL A   1      31.146  29.194  23.149  1.00  0.00    -0.027 C 
BRANCH   9  15
ATOM     15  C   UNL A   1      32.529  25.692  22.961  1.00  0.00     0.229 C 
ATOM     16  N   UNL A   1      33.235  24.556  23.273  1.00  0.00    -0.323 N 
ATOM     17  H   UNL A   1      33.379  23.969  22.496  1.00  0.00     0.170 HD
ATOM     18  O   UNL A   1      32.552  26.041  21.778  1.00  0.00    -0.274 OA
BRANCH  16  19
ATOM     19  C   UNL A   1      33.803  24.040  24.464  1.00  0.00     0.084 A 
ATOM     20  C   UNL A   1      32.967  23.246  25.273  1.00  0.00     0.142 A 
ATOM     21  C   UNL A   1      33.503  22.467  26.301  1.00  0.00     0.049 A 
ATOM     22  C   UNL A   1      34.883  22.481  26.537  1.00  0.00     0.018 A 
ATOM     23  C   UNL A   1      35.136  24.184  24.856  1.00  0.00     0.044 A 
ATOM     24  C   UNL A   1      35.716  23.356  25.826  1.00  0.00     0.042 A 
BRANCH  20  25
ATOM     25  O   UNL A   1      31.602  23.347  25.169  1.00  0.00    -0.495 OA
ATOM     26  C   UNL A   1      30.885  22.829  26.284  1.00  0.00     0.278 C 
ENDBRANCH  20  25
BRANCH  24  27
ATOM     27  C   UNL A   1      37.169  23.424  26.202  1.00  0.00     0.253 C 
ATOM     28  O   UNL A   1      37.519  24.382  26.894  1.00  0.00    -0.269 OA
ATOM     29  N   UNL A   1      38.093  22.443  25.810  1.00  0.00    -0.345 N 
ATOM     30  C   UNL A   1      37.799  21.178  25.178  1.00  0.00     0.146 C 
ATOM     31  C   UNL A   1      39.484  22.632  26.193  1.00  0.00     0.146 C 
ENDBRANCH  24  27
ENDBRANCH  16  19
ENDBRANCH   9  15
ENDBRANCH   5   8
ENDBRANCH   3   4
ENDBRANCH   2   3
ENDBRANCH   1   2
BRANCH   1  32
ATOM     32  C   UNL A   1      34.404  32.999  28.262  1.00  0.00     0.002 C 
BRANCH  32  33
ATOM     33  C   UNL A   1      35.216  33.532  29.447  1.00  0.00     0.021 C 
BRANCH  33  34
ATOM     34  C   UNL A   1      36.393  32.664  29.888  1.00  0.00     0.116 C 
BRANCH  34  35
ATOM     35  N   UNL A   1      35.985  31.487  30.634  1.00  0.00    -0.352 N 
ATOM     36  C   UNL A   1      36.644  30.296  30.813  1.00  0.00     0.251 C 
ATOM     37  H   UNL A   1      35.108  31.553  31.077  1.00  0.00     0.163 HD
ATOM     38  O   UNL A   1      36.075  29.359  31.370  1.00  0.00    -0.269 OA
BRANCH  36  39
ATOM     39  C   UNL A   1      38.022  30.128  30.306  1.00  0.00     0.039 A 
ATOM     40  C   UNL A   1      39.070  30.067  31.227  1.00  0.00     0.014 A 
ATOM     41  C   UNL A   1      38.284  30.020  28.936  1.00  0.00     0.014 A 
ATOM     42  C   UNL A   1      40.371  29.817  30.781  1.00  0.00     0.010 A 
ATOM     43  C   UNL A   1      39.572  29.712  28.499  1.00  0.00     0.010 A 
ATOM     44  C   UNL A   1      40.626  29.591  29.419  1.00  0.00    -0.014 A 
BRANCH  44  45
ATOM     45  C   UNL A   1      41.976  29.170  28.957  1.00  0.00     0.031 A 
ATOM     46  C   UNL A   1      43.098  30.167  28.846  1.00  0.00     0.074 A 
ATOM     47  C   UNL A   1      42.170  27.890  28.576  1.00  0.00     0.049 A 
ATOM     48  N   UNL A   1      44.319  29.986  28.413  1.00  0.00    -0.248 NA
ATOM     49  C   UNL A   1      42.809  31.550  29.258  1.00  0.00     0.031 C 
ATOM     50  C   UNL A   1      41.146  26.840  28.590  1.00  0.00     0.029 A 
ATOM     51  N   UNL A   1      43.284  27.253  28.088  1.00  0.00    -0.354 N 
ATOM     52  C   UNL A   1      44.939  31.228  28.483  1.00  0.00     0.074 A 
ATOM     53  C   UNL A   1      43.950  32.165  28.973  1.00  0.00     0.031 C 
ATOM     54  C   UNL A   1      41.684  25.691  28.148  1.00  0.00     0.029 A 
ATOM     55  C   UNL A   1      43.074  25.928  27.774  1.00  0.00     0.049 A 
ATOM     56  H   UNL A   1      44.154  27.701  27.973  1.00  0.00     0.167 HD
ATOM     57  C   UNL A   1      46.218  31.551  28.178  1.00  0.00     0.037 A 
ATOM     58  C   UNL A   1      43.899  25.013  27.228  1.00  0.00     0.037 A 
ATOM     59  C   UNL A   1      47.206  30.606  27.724  1.00  0.00     0.049 A 
ATOM     60  C   UNL A   1      45.312  25.410  26.890  1.00  0.00     0.074 A 
ATOM     61  C   UNL A   1      48.551  30.824  27.483  1.00  0.00     0.029 A 
ATOM     62  N   UNL A   1      46.959  29.274  27.430  1.00  0.00    -0.354 N 
ATOM     63  N   UNL A   1      45.907  26.565  27.064  1.00  0.00    -0.248 NA
ATOM     64  C   UNL A   1      46.167  24.381  26.281  1.00  0.00     0.031 C 
ATOM     65  C   UNL A   1      49.103  29.642  26.980  1.00  0.00     0.029 A 
ATOM     66  C   UNL A   1      48.117  28.671  26.967  1.00  0.00     0.049 A 
ATOM     67  H   UNL A   1      46.090  28.824  27.535  1.00  0.00     0.167 HD
ATOM     68  C   UNL A   1      47.211  26.394  26.609  1.00  0.00     0.074 A 
ATOM     69  C   UNL A   1      47.324  25.017  26.176  1.00  0.00     0.031 C 
ATOM     70  C   UNL A   1      48.221  27.296  26.548  1.00  0.00     0.037 A 
BRANCH  57  71
ATOM     71  C   UNL A   1      46.649  32.985  28.321  1.00  0.00     0.058 A 
ATOM     72  C   UNL A   1      47.306  33.450  29.472  1.00  0.00     0.135 A 
ATOM     73  C   UNL A   1      46.510  33.875  27.242  1.00  0.00     0.135 A 
ATOM     74  F   UNL A   1      47.452  32.647  30.537  1.00  0.00    -0.206 F 
ATOM     75  C   UNL A   1      47.810  34.745  29.546  1.00  0.00     0.059 A 
ATOM     76  C   UNL A   1      47.029  35.165  27.285  1.00  0.00     0.059 A 
ATOM     77  F   UNL A   1      45.888  33.483  26.119  1.00  0.00    -0.206 F 
ATOM     78  C   UNL A   1      47.678  35.591  28.443  1.00  0.00     0.060 A 
BRANCH  78  79
ATOM     79  S   UNL A   1      48.398  37.244  28.536  1.00  0.00     0.124 S 
ATOM     80  O   UNL A   1      49.761  36.945  28.969  1.00  0.00    -0.237 OA
ATOM     81  O   UNL A   1      48.260  37.720  27.164  1.00  0.00    -0.237 OA
ATOM     82  O   UNL A   1      47.564  37.925  29.521  1.00  0.00    -0.744 OA
ENDBRANCH  78  79
ENDBRANCH  57  71
BRANCH  58  83
ATOM     83  C   UNL A   1      43.416  23.632  26.941  1.00  0.00     0.058 A 
ATOM     84  C   UNL A   1      43.121  22.736  27.978  1.00  0.00     0.135 A 
ATOM     85  C   UNL A   1      43.286  23.168  25.622  1.00  0.00     0.135 A 
ATOM     86  F   UNL A   1      43.234  23.128  29.257  1.00  0.00    -0.206 F 
ATOM     87  C   UNL A   1      42.757  21.417  27.722  1.00  0.00     0.059 A 
ATOM     88  C   UNL A   1      42.892  21.864  25.341  1.00  0.00     0.059 A 
ATOM     89  F   UNL A   1      43.537  23.989  24.590  1.00  0.00    -0.206 F 
ATOM     90  C   UNL A   1      42.652  20.989  26.398  1.00  0.00     0.060 A 
BRANCH  90  91
ATOM     91  S   UNL A   1      42.185  19.275  26.075  1.00  0.00     0.124 S 
ATOM     92  O   UNL A   1      42.991  18.969  24.898  1.00  0.00    -0.237 OA
ATOM     93  O   UNL A   1      42.583  18.610  27.311  1.00  0.00    -0.237 OA
ATOM     94  O   UNL A   1      40.746  19.356  25.851  1.00  0.00    -0.744 OA
ENDBRANCH  90  91
ENDBRANCH  58  83
BRANCH  70  95
ATOM     95  C   UNL A   1      49.547  26.821  26.019  1.00  0.00     0.058 A 
ATOM     96  C   UNL A   1      49.911  26.998  24.675  1.00  0.00     0.135 A 
ATOM     97  C   UNL A   1      50.488  26.231  26.880  1.00  0.00     0.135 A 
ATOM     98  F   UNL A   1      49.045  27.548  23.808  1.00  0.00    -0.206 F 
ATOM     99  C   UNL A   1      51.150  26.587  24.198  1.00  0.00     0.059 A 
ATOM    100  C   UNL A   1      51.746  25.843  26.431  1.00  0.00     0.059 A 
ATOM    101  F   UNL A   1      50.197  26.047  28.178  1.00  0.00    -0.206 F 
ATOM    102  C   UNL A   1      52.064  26.017  25.085  1.00  0.00     0.060 A 
BRANCH 102 103
ATOM    103  S   UNL A   1      53.686  25.527  24.459  1.00  0.00     0.124 S 
ATOM    104  O   UNL A   1      53.560  25.841  23.039  1.00  0.00    -0.237 OA
ATOM    105  O   UNL A   1      54.586  26.387  25.221  1.00  0.00    -0.237 OA
ATOM    106  O   UNL A   1      53.761  24.106  24.783  1.00  0.00    -0.744 OA
ENDBRANCH 102 103
ENDBRANCH  70  95
ENDBRANCH  44  45
ENDBRANCH  36  39
ENDBRANCH  34  35
ENDBRANCH  33  34
ENDBRANCH  32  33
ENDBRANCH   1  32
TORSDOF 20
ENDMDL
MODEL 3
REMARK VINA RESULT:     -11.2      6.072     10.231
REMARK SMILES COc1ccc(C(=O)N(C)C)cc1NC(=O)[C@H]1[C@@H](C(=O)NCCCCCCNC(=O)c2ccc(-c3c4nc(c(-c5c(F)cc(S(=O)(=O)[O-])cc5F)c5ccc([nH]5)c(-c5c(F)cc(S(=O)(=O)[O-])cc5F)c5nc(c(-c6c(F)cc(S(=O)(=O)[O-])cc6F)c6ccc3[nH]6)C=C5)C=C4)cc2)[C@H]2C=C[C@@H]1C2
REMARK SMILES IDX 24 1 23 2 22 3 21 4 19 5 20 6 18 8 17 9 100 10 97 11 99 12
REMARK SMILES IDX 101 13 98 14 15 15 14 16 16 18 13 19 3 20 4 21 5 22 12 23
REMARK SMILES IDX 6 24 2 25 1 26 7 27 8 28 9 29 10 30 11 31 25 32 26 33 27 34
REMARK SMILES IDX 28 35 29 36 30 38 31 39 32 40 96 41 33 42 95 43 34 44 35 45
REMARK SMILES IDX 36 46 89 47 37 48 94 49 88 50 90 51 38 52 93 53 87 54 86 55
REMARK SMILES IDX 39 57 73 58 52 59 72 60 53 61 56 62 71 63 91 64 54 65 55 66
REMARK SMILES IDX 70 68 92 69 57 70 40 71 41 72 50 73 42 74 43 75 49 76 51 77
REMARK SMILES IDX 44 78 45 79 46 80 47 81 48 82 74 83 75 84 84 85 76 86 77 87
REMARK SMILES IDX 83 88 85 89 78 90 79 91 80 92 81 93 82 94 58 95 59 96 68 97
REMARK SMILES IDX 60 98 61 99 67 100 69 101 62 102 63 103 64 104 65 105 66 106
REMARK H PARENT 21 7 14 17 28 37 90 56 56 67
REMARK Flexibility Score: inf
ROOT
ATOM      1  C   UNL A   1      34.353  31.456  28.252  1.00  0.00     0.002 C 
ENDROOT
BRANCH   1   2
ATOM      2  C   UNL A   1      33.452  30.712  27.264  1.00  0.00     0.021 C 
BRANCH   2   3
ATOM      3  C   UNL A   1      33.990  29.375  26.768  1.00  0.00     0.116 C 
BRANCH   3   4
ATOM      4  N   UNL A   1      34.028  29.345  25.322  1.00  0.00    -0.356 N 
ATOM      5  C   UNL A   1      33.486  28.472  24.431  1.00  0.00     0.224 C 
ATOM      6  O   UNL A   1      33.633  28.740  23.237  1.00  0.00    -0.275 OA
ATOM      7  H   UNL A   1      34.533  30.085  24.913  1.00  0.00     0.163 HD
BRANCH   5   8
ATOM      8  C   UNL A   1      32.592  27.338  24.917  1.00  0.00     0.098 C 
ATOM      9  C   UNL A   1      32.587  25.932  24.235  1.00  0.00     0.099 C 
ATOM     10  C   UNL A   1      31.095  25.737  23.846  1.00  0.00     0.025 C 
ATOM     11  C   UNL A   1      31.074  27.703  24.910  1.00  0.00     0.025 C 
ATOM     12  C   UNL A   1      30.659  26.784  22.850  1.00  0.00    -0.027 C 
ATOM     13  C   UNL A   1      30.419  26.326  25.091  1.00  0.00     0.017 C 
ATOM     14  C   UNL A   1      30.625  27.958  23.494  1.00  0.00    -0.027 C 
BRANCH   9  15
ATOM     15  C   UNL A   1      33.502  25.556  23.088  1.00  0.00     0.229 C 
ATOM     16  N   UNL A   1      34.323  24.455  23.124  1.00  0.00    -0.323 N 
ATOM     17  H   UNL A   1      34.552  24.118  22.228  1.00  0.00     0.170 HD
ATOM     18  O   UNL A   1      33.516  26.213  22.043  1.00  0.00    -0.274 OA
BRANCH  16  19
ATOM     19  C   UNL A   1      34.915  23.697  24.164  1.00  0.00     0.084 A 
ATOM     20  C   UNL A   1      34.312  22.462  24.470  1.00  0.00     0.142 A 
ATOM     21  C   UNL A   1      34.974  21.523  25.265  1.00  0.00     0.049 A 
ATOM     22  C   UNL A   1      36.246  21.815  25.771  1.00  0.00     0.018 A 
ATOM     23  C   UNL A   1      36.086  24.031  24.847  1.00  0.00     0.044 A 
ATOM     24  C   UNL A   1      36.811  23.084  25.582  1.00  0.00     0.042 A 
BRANCH  20  25
ATOM     25  O   UNL A   1      33.003  22.225  24.127  1.00  0.00    -0.495 OA
ATOM     26  C   UNL A   1      32.528  20.929  24.473  1.00  0.00     0.278 C 
ENDBRANCH  20  25
BRANCH  24  27
ATOM     27  C   UNL A   1      38.123  23.390  26.250  1.00  0.00     0.253 C 
ATOM     28  O   UNL A   1      38.204  24.467  26.843  1.00  0.00    -0.269 OA
ATOM     29  N   UNL A   1      39.204  22.496  26.227  1.00  0.00    -0.345 N 
ATOM     30  C   UNL A   1      39.192  21.133  25.752  1.00  0.00     0.146 C 
ATOM     31  C   UNL A   1      40.442  22.914  26.868  1.00  0.00     0.146 C 
ENDBRANCH  24  27
ENDBRANCH  16  19
ENDBRANCH   9  15
ENDBRANCH   5   8
ENDBRANCH   3   4
ENDBRANCH   2   3
ENDBRANCH   1   2
BRANCH   1  32
ATOM     32  C   UNL A   1      34.486  32.959  27.999  1.00  0.00     0.002 C 
BRANCH  32  33
ATOM     33  C   UNL A   1      33.191  33.770  28.104  1.00  0.00     0.021 C 
BRANCH  33  34
ATOM     34  C   UNL A   1      33.358  35.244  28.466  1.00  0.00     0.116 C 
BRANCH  34  35
ATOM     35  N   UNL A   1      32.682  35.609  29.698  1.00  0.00    -0.352 N 
ATOM     36  C   UNL A   1      32.966  35.247  30.990  1.00  0.00     0.251 C 
ATOM     37  H   UNL A   1      31.906  36.206  29.590  1.00  0.00     0.163 HD
ATOM     38  O   UNL A   1      32.192  35.551  31.896  1.00  0.00    -0.269 OA
BRANCH  36  39
ATOM     39  C   UNL A   1      34.183  34.462  31.289  1.00  0.00     0.039 A 
ATOM     40  C   UNL A   1      35.428  35.022  30.997  1.00  0.00     0.014 A 
ATOM     41  C   UNL A   1      34.103  33.189  31.863  1.00  0.00     0.014 A 
ATOM     42  C   UNL A   1      36.595  34.341  31.352  1.00  0.00     0.010 A 
ATOM     43  C   UNL A   1      35.267  32.539  32.271  1.00  0.00     0.010 A 
ATOM     44  C   UNL A   1      36.525  33.116  32.035  1.00  0.00    -0.014 A 
BRANCH  44  45
ATOM     45  C   UNL A   1      37.757  32.463  32.555  1.00  0.00     0.031 A 
ATOM     46  C   UNL A   1      38.261  32.763  33.941  1.00  0.00     0.074 A 
ATOM     47  C   UNL A   1      38.456  31.641  31.744  1.00  0.00     0.049 A 
ATOM     48  N   UNL A   1      39.342  32.327  34.534  1.00  0.00    -0.248 NA
ATOM     49  C   UNL A   1      37.459  33.685  34.761  1.00  0.00     0.031 C 
ATOM     50  C   UNL A   1      38.096  31.310  30.362  1.00  0.00     0.029 A 
ATOM     51  N   UNL A   1      39.622  30.946  31.953  1.00  0.00    -0.354 N 
ATOM     52  C   UNL A   1      39.362  32.930  35.787  1.00  0.00     0.074 A 
ATOM     53  C   UNL A   1      38.199  33.789  35.858  1.00  0.00     0.031 C 
ATOM     54  C   UNL A   1      39.011  30.468  29.855  1.00  0.00     0.029 A 
ATOM     55  C   UNL A   1      40.048  30.233  30.855  1.00  0.00     0.049 A 
ATOM     56  H   UNL A   1      40.110  30.957  32.809  1.00  0.00     0.167 HD
ATOM     57  C   UNL A   1      40.261  32.771  36.786  1.00  0.00     0.037 A 
ATOM     58  C   UNL A   1      41.157  29.491  30.665  1.00  0.00     0.037 A 
ATOM     59  C   UNL A   1      41.398  31.887  36.720  1.00  0.00     0.049 A 
ATOM     60  C   UNL A   1      42.143  29.345  31.794  1.00  0.00     0.074 A 
ATOM     61  C   UNL A   1      42.308  31.588  37.718  1.00  0.00     0.029 A 
ATOM     62  N   UNL A   1      41.788  31.174  35.597  1.00  0.00    -0.354 N 
ATOM     63  N   UNL A   1      42.086  29.840  33.007  1.00  0.00    -0.248 NA
ATOM     64  C   UNL A   1      43.344  28.539  31.531  1.00  0.00     0.031 C 
ATOM     65  C   UNL A   1      43.287  30.747  37.180  1.00  0.00     0.029 A 
ATOM     66  C   UNL A   1      42.952  30.472  35.866  1.00  0.00     0.049 A 
ATOM     67  H   UNL A   1      41.310  31.168  34.737  1.00  0.00     0.167 HD
ATOM     68  C   UNL A   1      43.229  29.387  33.656  1.00  0.00     0.074 A 
ATOM     69  C   UNL A   1      43.945  28.557  32.711  1.00  0.00     0.031 C 
ATOM     70  C   UNL A   1      43.652  29.640  34.919  1.00  0.00     0.037 A 
BRANCH  57  71
ATOM     71  C   UNL A   1      40.072  33.558  38.053  1.00  0.00     0.058 A 
ATOM     72  C   UNL A   1      39.206  33.127  39.071  1.00  0.00     0.135 A 
ATOM     73  C   UNL A   1      40.860  34.695  38.302  1.00  0.00     0.135 A 
ATOM     74  F   UNL A   1      38.420  32.056  38.880  1.00  0.00    -0.206 F 
ATOM     75  C   UNL A   1      39.129  33.794  40.289  1.00  0.00     0.059 A 
ATOM     76  C   UNL A   1      40.818  35.362  39.522  1.00  0.00     0.059 A 
ATOM     77  F   UNL A   1      41.702  35.152  37.362  1.00  0.00    -0.206 F 
ATOM     78  C   UNL A   1      39.948  34.903  40.510  1.00  0.00     0.060 A 
BRANCH  78  79
ATOM     79  S   UNL A   1      39.882  35.714  42.122  1.00  0.00     0.124 S 
ATOM     80  O   UNL A   1      40.727  36.884  41.896  1.00  0.00    -0.237 OA
ATOM     81  O   UNL A   1      38.456  35.984  42.275  1.00  0.00    -0.237 OA
ATOM     82  O   UNL A   1      40.429  34.713  43.031  1.00  0.00    -0.744 OA
ENDBRANCH  78  79
ENDBRANCH  57  71
BRANCH  58  83
ATOM     83  C   UNL A   1      41.418  28.841  29.349  1.00  0.00     0.058 A 
ATOM     84  C   UNL A   1      40.913  27.565  29.055  1.00  0.00     0.135 A 
ATOM     85  C   UNL A   1      42.217  29.463  28.377  1.00  0.00     0.135 A 
ATOM     86  F   UNL A   1      40.147  26.925  29.952  1.00  0.00    -0.206 F 
ATOM     87  C   UNL A   1      41.226  26.911  27.868  1.00  0.00     0.059 A 
ATOM     88  C   UNL A   1      42.517  28.844  27.168  1.00  0.00     0.059 A 
ATOM     89  F   UNL A   1      42.711  30.692  28.596  1.00  0.00    -0.206 F 
ATOM     90  C   UNL A   1      42.035  27.558  26.932  1.00  0.00     0.060 A 
BRANCH  90  91
ATOM     91  S   UNL A   1      42.441  26.700  25.397  1.00  0.00     0.124 S 
ATOM     92  O   UNL A   1      41.221  25.939  25.154  1.00  0.00    -0.237 OA
ATOM     93  O   UNL A   1      42.695  27.809  24.482  1.00  0.00    -0.237 OA
ATOM     94  O   UNL A   1      43.617  25.912  25.753  1.00  0.00    -0.744 OA
ENDBRANCH  90  91
ENDBRANCH  58  83
BRANCH  70  95
ATOM     95  C   UNL A   1      44.935  28.994  35.367  1.00  0.00     0.058 A 
ATOM     96  C   UNL A   1      44.959  27.698  35.905  1.00  0.00     0.135 A 
ATOM     97  C   UNL A   1      46.162  29.658  35.203  1.00  0.00     0.135 A 
ATOM     98  F   UNL A   1      43.813  27.023  36.091  1.00  0.00    -0.206 F 
ATOM     99  C   UNL A   1      46.150  27.092  36.287  1.00  0.00     0.059 A 
ATOM    100  C   UNL A   1      47.369  29.058  35.547  1.00  0.00     0.059 A 
ATOM    101  F   UNL A   1      46.199  30.895  34.683  1.00  0.00    -0.206 F 
ATOM    102  C   UNL A   1      47.352  27.777  36.098  1.00  0.00     0.060 A 
BRANCH 102 103
ATOM    103  S   UNL A   1      48.894  26.959  36.560  1.00  0.00     0.124 S 
ATOM    104  O   UNL A   1      49.424  27.876  37.565  1.00  0.00    -0.237 OA
ATOM    105  O   UNL A   1      48.425  25.671  37.060  1.00  0.00    -0.237 OA
ATOM    106  O   UNL A   1      49.639  26.905  35.305  1.00  0.00    -0.744 OA
ENDBRANCH 102 103
ENDBRANCH  70  95
ENDBRANCH  44  45
ENDBRANCH  36  39
ENDBRANCH  34  35
ENDBRANCH  33  34
ENDBRANCH  32  33
ENDBRANCH   1  32
TORSDOF 20
ENDMDL
