MODEL 1
REMARK VINA RESULT:     -10.8      0.000      0.000
REMARK SMILES CC[C@H](NC(=O)N1CCO[C@@H](CC(=O)NCCCCCCNC(=O)c2ccc(-c3c4nc(c(-c5c(F)cc(S(=O)(=O)[O-])cc5F)c5ccc([nH]5)c(-c5c(F)cc(S(=O)(=O)[O-])cc5F)c5nc(c(-c6c(F)cc(S(=O)(=O)[O-])cc6F)c6ccc3[nH]6)C=C5)C=C4)cc2)C1)c1cccs1
REMARK SMILES IDX 18 1 17 2 16 3 15 4 13 5 14 6 12 8 11 9 7 10 8 11 91 12 9 13
REMARK SMILES IDX 10 14 5 15 4 16 6 18 3 19 2 20 1 21 92 22 93 23 96 24 94 25
REMARK SMILES IDX 95 26 19 27 20 28 21 29 22 30 23 31 24 33 25 34 26 35 90 36
REMARK SMILES IDX 27 37 89 38 28 39 29 40 30 41 83 42 31 43 88 44 82 45 84 46
REMARK SMILES IDX 32 47 87 48 81 49 80 50 33 52 67 53 46 54 66 55 47 56 50 57
REMARK SMILES IDX 65 58 85 59 48 60 49 61 64 63 86 64 51 65 34 66 35 67 44 68
REMARK SMILES IDX 36 69 37 70 43 71 45 72 38 73 39 74 40 75 41 76 42 77 68 78
REMARK SMILES IDX 69 79 78 80 70 81 71 82 77 83 79 84 72 85 73 86 74 87 75 88
REMARK SMILES IDX 76 89 52 90 53 91 62 92 54 93 55 94 61 95 63 96 56 97 57 98
REMARK SMILES IDX 58 99 59 100 60 101
REMARK H PARENT 15 7 4 17 22 32 84 51 50 62
REMARK Flexibility Score: inf
ROOT
ATOM      1  C   UNL A   1      38.859  23.067  26.900  1.00  0.00     0.002 C 
ENDROOT
BRANCH   1   2
ATOM      2  C   UNL A   1      38.201  23.881  25.787  1.00  0.00     0.021 C 
BRANCH   2   3
ATOM      3  C   UNL A   1      36.975  23.206  25.158  1.00  0.00     0.116 C 
BRANCH   3   4
ATOM      4  N   UNL A   1      36.130  22.627  26.196  1.00  0.00    -0.356 N 
ATOM      5  C   UNL A   1      34.802  22.313  26.182  1.00  0.00     0.222 C 
ATOM      6  O   UNL A   1      34.261  21.989  27.240  1.00  0.00    -0.275 OA
ATOM      7  H   UNL A   1      36.593  22.432  27.043  1.00  0.00     0.163 HD
BRANCH   5   8
ATOM      8  C   UNL A   1      34.021  22.351  24.888  1.00  0.00     0.133 C 
BRANCH   8   9
ATOM      9  C   UNL A   1      33.070  23.545  24.738  1.00  0.00     0.147 C 
ATOM     10  N   UNL A   1      32.400  25.354  23.116  1.00  0.00    -0.320 N 
ATOM     11  C   UNL A   1      31.129  24.663  22.950  1.00  0.00     0.150 C 
ATOM     12  C   UNL A   1      33.439  24.428  23.538  1.00  0.00     0.154 C 
ATOM     13  C   UNL A   1      30.760  23.948  24.246  1.00  0.00     0.182 C 
ATOM     14  O   UNL A   1      31.751  22.966  24.582  1.00  0.00    -0.374 OA
BRANCH  10  15
ATOM     15  C   UNL A   1      32.800  26.211  22.122  1.00  0.00     0.318 C 
ATOM     16  N   UNL A   1      32.550  27.529  22.280  1.00  0.00    -0.330 N 
ATOM     17  H   UNL A   1      33.105  28.103  21.705  1.00  0.00     0.166 HD
ATOM     18  O   UNL A   1      33.478  25.838  21.165  1.00  0.00    -0.249 OA
BRANCH  16  19
ATOM     19  C   UNL A   1      31.627  28.282  23.125  1.00  0.00     0.124 C 
BRANCH  19  20
ATOM     20  C   UNL A   1      30.157  28.087  22.702  1.00  0.00     0.027 C 
ATOM     21  C   UNL A   1      29.195  29.213  23.044  1.00  0.00     0.006 C 
ENDBRANCH  19  20
BRANCH  19  22
ATOM     22  C   UNL A   1      31.911  28.182  24.604  1.00  0.00     0.027 A 
ATOM     23  C   UNL A   1      31.289  27.432  25.588  1.00  0.00     0.017 A 
ATOM     24  S   UNL A   1      33.139  29.179  25.297  1.00  0.00    -0.147 S 
ATOM     25  C   UNL A   1      31.879  27.601  26.874  1.00  0.00     0.012 A 
ATOM     26  C   UNL A   1      32.913  28.507  26.850  1.00  0.00     0.065 A 
ENDBRANCH  19  22
ENDBRANCH  16  19
ENDBRANCH  10  15
ENDBRANCH   8   9
ENDBRANCH   5   8
ENDBRANCH   3   4
ENDBRANCH   2   3
ENDBRANCH   1   2
BRANCH   1  27
ATOM     27  C   UNL A   1      39.752  21.927  26.404  1.00  0.00     0.002 C 
BRANCH  27  28
ATOM     28  C   UNL A   1      41.025  21.682  27.223  1.00  0.00     0.021 C 
BRANCH  28  29
ATOM     29  C   UNL A   1      41.861  22.928  27.510  1.00  0.00     0.116 C 
BRANCH  29  30
ATOM     30  N   UNL A   1      42.082  23.713  26.304  1.00  0.00    -0.352 N 
ATOM     31  C   UNL A   1      41.920  25.059  26.099  1.00  0.00     0.251 C 
ATOM     32  H   UNL A   1      42.391  23.203  25.521  1.00  0.00     0.163 HD
ATOM     33  O   UNL A   1      41.900  25.506  24.950  1.00  0.00    -0.269 OA
BRANCH  31  34
ATOM     34  C   UNL A   1      41.765  25.972  27.249  1.00  0.00     0.039 A 
ATOM     35  C   UNL A   1      42.723  26.966  27.464  1.00  0.00     0.014 A 
ATOM     36  C   UNL A   1      40.692  25.827  28.134  1.00  0.00     0.014 A 
ATOM     37  C   UNL A   1      42.575  27.849  28.537  1.00  0.00     0.010 A 
ATOM     38  C   UNL A   1      40.510  26.747  29.161  1.00  0.00     0.010 A 
ATOM     39  C   UNL A   1      41.453  27.764  29.378  1.00  0.00    -0.014 A 
BRANCH  39  40
ATOM     40  C   UNL A   1      41.251  28.723  30.494  1.00  0.00     0.031 A 
ATOM     41  C   UNL A   1      42.131  28.662  31.712  1.00  0.00     0.074 A 
ATOM     42  C   UNL A   1      40.234  29.605  30.436  1.00  0.00     0.049 A 
ATOM     43  N   UNL A   1      42.071  29.369  32.811  1.00  0.00    -0.248 NA
ATOM     44  C   UNL A   1      43.203  27.655  31.703  1.00  0.00     0.031 C 
ATOM     45  C   UNL A   1      39.286  29.731  29.327  1.00  0.00     0.029 A 
ATOM     46  N   UNL A   1      39.822  30.556  31.334  1.00  0.00    -0.354 N 
ATOM     47  C   UNL A   1      43.086  28.886  33.628  1.00  0.00     0.074 A 
ATOM     48  C   UNL A   1      43.711  27.789  32.920  1.00  0.00     0.031 C 
ATOM     49  C   UNL A   1      38.419  30.720  29.600  1.00  0.00     0.029 A 
ATOM     50  C   UNL A   1      38.725  31.273  30.916  1.00  0.00     0.049 A 
ATOM     51  H   UNL A   1      40.270  30.712  32.197  1.00  0.00     0.167 HD
ATOM     52  C   UNL A   1      43.478  29.329  34.848  1.00  0.00     0.037 A 
ATOM     53  C   UNL A   1      38.041  32.260  31.524  1.00  0.00     0.037 A 
ATOM     54  C   UNL A   1      42.861  30.432  35.539  1.00  0.00     0.049 A 
ATOM     55  C   UNL A   1      38.487  32.732  32.881  1.00  0.00     0.074 A 
ATOM     56  C   UNL A   1      43.214  30.994  36.753  1.00  0.00     0.029 A 
ATOM     57  N   UNL A   1      41.759  31.138  35.078  1.00  0.00    -0.354 N 
ATOM     58  N   UNL A   1      39.485  32.303  33.616  1.00  0.00    -0.248 NA
ATOM     59  C   UNL A   1      37.717  33.825  33.490  1.00  0.00     0.031 C 
ATOM     60  C   UNL A   1      42.299  32.012  37.046  1.00  0.00     0.029 A 
ATOM     61  C   UNL A   1      41.406  32.117  35.992  1.00  0.00     0.049 A 
ATOM     62  H   UNL A   1      41.296  30.969  34.226  1.00  0.00     0.167 HD
ATOM     63  C   UNL A   1      39.480  33.090  34.762  1.00  0.00     0.074 A 
ATOM     64  C   UNL A   1      38.383  34.027  34.619  1.00  0.00     0.031 C 
ATOM     65  C   UNL A   1      40.310  33.043  35.834  1.00  0.00     0.037 A 
BRANCH  52  66
ATOM     66  C   UNL A   1      44.625  28.611  35.507  1.00  0.00     0.058 A 
ATOM     67  C   UNL A   1      45.953  29.040  35.346  1.00  0.00     0.135 A 
ATOM     68  C   UNL A   1      44.396  27.481  36.309  1.00  0.00     0.135 A 
ATOM     69  F   UNL A   1      46.231  30.108  34.581  1.00  0.00    -0.206 F 
ATOM     70  C   UNL A   1      47.017  28.347  35.916  1.00  0.00     0.059 A 
ATOM     71  C   UNL A   1      45.443  26.790  36.913  1.00  0.00     0.059 A 
ATOM     72  F   UNL A   1      43.147  27.029  36.501  1.00  0.00    -0.206 F 
ATOM     73  C   UNL A   1      46.751  27.218  36.692  1.00  0.00     0.060 A 
BRANCH  73  74
ATOM     74  S   UNL A   1      48.142  26.310  37.399  1.00  0.00     0.124 S 
ATOM     75  O   UNL A   1      49.264  26.867  36.650  1.00  0.00    -0.237 OA
ATOM     76  O   UNL A   1      48.076  26.681  38.809  1.00  0.00    -0.237 OA
ATOM     77  O   UNL A   1      47.822  24.916  37.106  1.00  0.00    -0.744 OA
ENDBRANCH  73  74
ENDBRANCH  52  66
BRANCH  53  78
ATOM     78  C   UNL A   1      36.888  32.891  30.832  1.00  0.00     0.058 A 
ATOM     79  C   UNL A   1      35.572  32.544  31.169  1.00  0.00     0.135 A 
ATOM     80  C   UNL A   1      37.073  33.881  29.854  1.00  0.00     0.135 A 
ATOM     81  F   UNL A   1      35.345  31.598  32.093  1.00  0.00    -0.206 F 
ATOM     82  C   UNL A   1      34.478  33.150  30.559  1.00  0.00     0.059 A 
ATOM     83  C   UNL A   1      35.995  34.517  29.246  1.00  0.00     0.059 A 
ATOM     84  F   UNL A   1      38.313  34.260  29.507  1.00  0.00    -0.206 F 
ATOM     85  C   UNL A   1      34.701  34.142  29.603  1.00  0.00     0.060 A 
BRANCH  85  86
ATOM     86  S   UNL A   1      33.274  34.972  28.870  1.00  0.00     0.124 S 
ATOM     87  O   UNL A   1      32.465  35.262  30.048  1.00  0.00    -0.237 OA
ATOM     88  O   UNL A   1      33.890  36.122  28.218  1.00  0.00    -0.237 OA
ATOM     89  O   UNL A   1      32.731  33.965  27.964  1.00  0.00    -0.744 OA
ENDBRANCH  85  86
ENDBRANCH  53  78
BRANCH  65  90
ATOM     90  C   UNL A   1      40.085  34.051  36.927  1.00  0.00     0.058 A 
ATOM     91  C   UNL A   1      40.797  35.260  36.972  1.00  0.00     0.135 A 
ATOM     92  C   UNL A   1      39.109  33.827  37.910  1.00  0.00     0.135 A 
ATOM     93  F   UNL A   1      41.747  35.519  36.060  1.00  0.00    -0.206 F 
ATOM     94  C   UNL A   1      40.563  36.203  37.968  1.00  0.00     0.059 A 
ATOM     95  C   UNL A   1      38.839  34.767  38.900  1.00  0.00     0.059 A 
ATOM     96  F   UNL A   1      38.393  32.691  37.907  1.00  0.00    -0.206 F 
ATOM     97  C   UNL A   1      39.579  35.949  38.926  1.00  0.00     0.060 A 
BRANCH  97  98
ATOM     98  S   UNL A   1      39.259  37.197  40.191  1.00  0.00     0.124 S 
ATOM     99  O   UNL A   1      38.413  38.139  39.467  1.00  0.00    -0.237 OA
ATOM    100  O   UNL A   1      38.595  36.421  41.234  1.00  0.00    -0.237 OA
ATOM    101  O   UNL A   1      40.592  37.683  40.534  1.00  0.00    -0.744 OA
ENDBRANCH  97  98
ENDBRANCH  65  90
ENDBRANCH  39  40
ENDBRANCH  31  34
ENDBRANCH  29  30
ENDBRANCH  28  29
ENDBRANCH  27  28
ENDBRANCH   1  27
TORSDOF 21
ENDMDL
MODEL 2
REMARK VINA RESULT:     -10.8      5.983     10.718
REMARK SMILES CC[C@H](NC(=O)N1CCO[C@@H](CC(=O)NCCCCCCNC(=O)c2ccc(-c3c4nc(c(-c5c(F)cc(S(=O)(=O)[O-])cc5F)c5ccc([nH]5)c(-c5c(F)cc(S(=O)(=O)[O-])cc5F)c5nc(c(-c6c(F)cc(S(=O)(=O)[O-])cc6F)c6ccc3[nH]6)C=C5)C=C4)cc2)C1)c1cccs1
REMARK SMILES IDX 18 1 17 2 16 3 15 4 13 5 14 6 12 8 11 9 7 10 8 11 91 12 9 13
REMARK SMILES IDX 10 14 5 15 4 16 6 18 3 19 2 20 1 21 92 22 93 23 96 24 94 25
REMARK SMILES IDX 95 26 19 27 20 28 21 29 22 30 23 31 24 33 25 34 26 35 90 36
REMARK SMILES IDX 27 37 89 38 28 39 29 40 30 41 83 42 31 43 88 44 82 45 84 46
REMARK SMILES IDX 32 47 87 48 81 49 80 50 33 52 67 53 46 54 66 55 47 56 50 57
REMARK SMILES IDX 65 58 85 59 48 60 49 61 64 63 86 64 51 65 34 66 35 67 44 68
REMARK SMILES IDX 36 69 37 70 43 71 45 72 38 73 39 74 40 75 41 76 42 77 68 78
REMARK SMILES IDX 69 79 78 80 70 81 71 82 77 83 79 84 72 85 73 86 74 87 75 88
REMARK SMILES IDX 76 89 52 90 53 91 62 92 54 93 55 94 61 95 63 96 56 97 57 98
REMARK SMILES IDX 58 99 59 100 60 101
REMARK H PARENT 15 7 4 17 22 32 84 51 50 62
REMARK Flexibility Score: inf
ROOT
ATOM      1  C   UNL A   1      37.354  21.746  25.330  1.00  0.00     0.002 C 
ENDROOT
BRANCH   1   2
ATOM      2  C   UNL A   1      37.091  22.915  24.381  1.00  0.00     0.021 C 
BRANCH   2   3
ATOM      3  C   UNL A   1      35.832  23.724  24.719  1.00  0.00     0.116 C 
BRANCH   3   4
ATOM      4  N   UNL A   1      34.827  22.862  25.330  1.00  0.00    -0.356 N 
ATOM      5  C   UNL A   1      33.743  23.176  26.097  1.00  0.00     0.222 C 
ATOM      6  O   UNL A   1      33.126  22.263  26.649  1.00  0.00    -0.275 OA
ATOM      7  H   UNL A   1      34.952  21.901  25.162  1.00  0.00     0.163 HD
BRANCH   5   8
ATOM      8  C   UNL A   1      33.303  24.614  26.251  1.00  0.00     0.133 C 
BRANCH   8   9
ATOM      9  C   UNL A   1      32.442  25.156  25.103  1.00  0.00     0.147 C 
ATOM     10  N   UNL A   1      32.440  26.891  23.275  1.00  0.00    -0.320 N 
ATOM     11  C   UNL A   1      32.564  25.805  22.314  1.00  0.00     0.150 C 
ATOM     12  C   UNL A   1      32.968  26.496  24.571  1.00  0.00     0.154 C 
ATOM     13  C   UNL A   1      31.870  24.558  22.854  1.00  0.00     0.182 C 
ATOM     14  O   UNL A   1      32.481  24.130  24.080  1.00  0.00    -0.374 OA
BRANCH  10  15
ATOM     15  C   UNL A   1      32.833  28.145  22.882  1.00  0.00     0.318 C 
ATOM     16  N   UNL A   1      32.338  29.207  23.556  1.00  0.00    -0.330 N 
ATOM     17  H   UNL A   1      32.867  30.028  23.433  1.00  0.00     0.166 HD
ATOM     18  O   UNL A   1      33.703  28.326  22.031  1.00  0.00    -0.249 OA
BRANCH  16  19
ATOM     19  C   UNL A   1      31.182  29.393  24.427  1.00  0.00     0.124 C 
BRANCH  19  20
ATOM     20  C   UNL A   1      31.493  30.316  25.622  1.00  0.00     0.027 C 
ATOM     21  C   UNL A   1      31.993  29.643  26.890  1.00  0.00     0.006 C 
ENDBRANCH  19  20
BRANCH  19  22
ATOM     22  C   UNL A   1      29.887  29.663  23.698  1.00  0.00     0.027 A 
ATOM     23  C   UNL A   1      29.103  28.826  22.923  1.00  0.00     0.017 A 
ATOM     24  S   UNL A   1      29.232  31.260  23.707  1.00  0.00    -0.147 S 
ATOM     25  C   UNL A   1      27.930  29.463  22.425  1.00  0.00     0.012 A 
ATOM     26  C   UNL A   1      27.866  30.785  22.799  1.00  0.00     0.065 A 
ENDBRANCH  19  22
ENDBRANCH  16  19
ENDBRANCH  10  15
ENDBRANCH   8   9
ENDBRANCH   5   8
ENDBRANCH   3   4
ENDBRANCH   2   3
ENDBRANCH   1   2
BRANCH   1  27
ATOM     27  C   UNL A   1      37.382  20.376  24.648  1.00  0.00     0.002 C 
BRANCH  27  28
ATOM     28  C   UNL A   1      38.422  19.389  25.190  1.00  0.00     0.021 C 
BRANCH  28  29
ATOM     29  C   UNL A   1      39.542  20.018  26.017  1.00  0.00     0.116 C 
BRANCH  29  30
ATOM     30  N   UNL A   1      40.653  19.096  26.203  1.00  0.00    -0.352 N 
ATOM     31  C   UNL A   1      41.996  19.355  26.294  1.00  0.00     0.251 C 
ATOM     32  H   UNL A   1      40.403  18.146  26.272  1.00  0.00     0.163 HD
ATOM     33  O   UNL A   1      42.807  18.434  26.187  1.00  0.00    -0.269 OA
BRANCH  31  34
ATOM     34  C   UNL A   1      42.471  20.736  26.515  1.00  0.00     0.039 A 
ATOM     35  C   UNL A   1      42.557  21.227  27.821  1.00  0.00     0.014 A 
ATOM     36  C   UNL A   1      42.803  21.557  25.433  1.00  0.00     0.014 A 
ATOM     37  C   UNL A   1      43.026  22.524  28.043  1.00  0.00     0.010 A 
ATOM     38  C   UNL A   1      43.333  22.823  25.659  1.00  0.00     0.010 A 
ATOM     39  C   UNL A   1      43.443  23.323  26.966  1.00  0.00    -0.014 A 
BRANCH  39  40
ATOM     40  C   UNL A   1      43.991  24.686  27.184  1.00  0.00     0.031 A 
ATOM     41  C   UNL A   1      43.083  25.807  27.612  1.00  0.00     0.074 A 
ATOM     42  C   UNL A   1      45.293  24.927  26.934  1.00  0.00     0.049 A 
ATOM     43  N   UNL A   1      43.361  27.072  27.792  1.00  0.00    -0.248 NA
ATOM     44  C   UNL A   1      41.671  25.462  27.841  1.00  0.00     0.031 C 
ATOM     45  C   UNL A   1      46.263  23.932  26.473  1.00  0.00     0.029 A 
ATOM     46  N   UNL A   1      46.022  26.085  27.024  1.00  0.00    -0.354 N 
ATOM     47  C   UNL A   1      42.160  27.677  28.144  1.00  0.00     0.074 A 
ATOM     48  C   UNL A   1      41.141  26.650  28.097  1.00  0.00     0.031 C 
ATOM     49  C   UNL A   1      47.465  24.517  26.345  1.00  0.00     0.029 A 
ATOM     50  C   UNL A   1      47.344  25.934  26.677  1.00  0.00     0.049 A 
ATOM     51  H   UNL A   1      45.636  26.945  27.309  1.00  0.00     0.167 HD
ATOM     52  C   UNL A   1      41.929  28.966  28.494  1.00  0.00     0.037 A 
ATOM     53  C   UNL A   1      48.345  26.833  26.629  1.00  0.00     0.037 A 
ATOM     54  C   UNL A   1      42.951  29.979  28.553  1.00  0.00     0.049 A 
ATOM     55  C   UNL A   1      48.066  28.261  27.015  1.00  0.00     0.074 A 
ATOM     56  C   UNL A   1      42.833  31.301  28.946  1.00  0.00     0.029 A 
ATOM     57  N   UNL A   1      44.280  29.783  28.204  1.00  0.00    -0.354 N 
ATOM     58  N   UNL A   1      46.937  28.804  27.400  1.00  0.00    -0.248 NA
ATOM     59  C   UNL A   1      49.199  29.195  26.963  1.00  0.00     0.031 C 
ATOM     60  C   UNL A   1      44.081  31.914  28.794  1.00  0.00     0.029 A 
ATOM     61  C   UNL A   1      44.988  30.964  28.353  1.00  0.00     0.049 A 
ATOM     62  H   UNL A   1      44.663  28.931  27.896  1.00  0.00     0.167 HD
ATOM     63  C   UNL A   1      47.227  30.139  27.663  1.00  0.00     0.074 A 
ATOM     64  C   UNL A   1      48.640  30.317  27.399  1.00  0.00     0.031 C 
ATOM     65  C   UNL A   1      46.397  31.125  28.086  1.00  0.00     0.037 A 
BRANCH  52  66
ATOM     66  C   UNL A   1      40.512  29.345  28.835  1.00  0.00     0.058 A 
ATOM     67  C   UNL A   1      40.099  29.532  30.165  1.00  0.00     0.135 A 
ATOM     68  C   UNL A   1      39.556  29.523  27.823  1.00  0.00     0.135 A 
ATOM     69  F   UNL A   1      40.969  29.364  31.174  1.00  0.00    -0.206 F 
ATOM     70  C   UNL A   1      38.779  29.835  30.482  1.00  0.00     0.059 A 
ATOM     71  C   UNL A   1      38.235  29.855  28.116  1.00  0.00     0.059 A 
ATOM     72  F   UNL A   1      39.895  29.362  26.535  1.00  0.00    -0.206 F 
ATOM     73  C   UNL A   1      37.852  29.986  29.449  1.00  0.00     0.060 A 
BRANCH  73  74
ATOM     74  S   UNL A   1      36.135  30.347  29.876  1.00  0.00     0.124 S 
ATOM     75  O   UNL A   1      35.424  29.745  28.753  1.00  0.00    -0.237 OA
ATOM     76  O   UNL A   1      35.981  29.671  31.160  1.00  0.00    -0.237 OA
ATOM     77  O   UNL A   1      36.099  31.805  29.932  1.00  0.00    -0.744 OA
ENDBRANCH  73  74
ENDBRANCH  52  66
BRANCH  53  78
ATOM     78  C   UNL A   1      49.710  26.396  26.237  1.00  0.00     0.058 A 
ATOM     79  C   UNL A   1      50.197  26.639  24.945  1.00  0.00     0.135 A 
ATOM     80  C   UNL A   1      50.568  25.767  27.152  1.00  0.00     0.135 A 
ATOM     81  F   UNL A   1      49.410  27.232  24.033  1.00  0.00    -0.206 F 
ATOM     82  C   UNL A   1      51.485  26.272  24.569  1.00  0.00     0.059 A 
ATOM     83  C   UNL A   1      51.868  25.409  26.807  1.00  0.00     0.059 A 
ATOM     84  F   UNL A   1      50.155  25.526  28.406  1.00  0.00    -0.206 F 
ATOM     85  C   UNL A   1      52.316  25.663  25.511  1.00  0.00     0.060 A 
BRANCH  85  86
ATOM     86  S   UNL A   1      54.009  25.254  25.033  1.00  0.00     0.124 S 
ATOM     87  O   UNL A   1      54.131  25.950  23.757  1.00  0.00    -0.237 OA
ATOM     88  O   UNL A   1      54.782  25.809  26.140  1.00  0.00    -0.237 OA
ATOM     89  O   UNL A   1      53.994  23.797  24.959  1.00  0.00    -0.744 OA
ENDBRANCH  85  86
ENDBRANCH  53  78
BRANCH  65  90
ATOM     90  C   UNL A   1      47.002  32.482  28.320  1.00  0.00     0.058 A 
ATOM     91  C   UNL A   1      47.615  32.815  29.537  1.00  0.00     0.135 A 
ATOM     92  C   UNL A   1      47.012  33.442  27.295  1.00  0.00     0.135 A 
ATOM     93  F   UNL A   1      47.625  31.937  30.552  1.00  0.00    -0.206 F 
ATOM     94  C   UNL A   1      48.200  34.062  29.738  1.00  0.00     0.059 A 
ATOM     95  C   UNL A   1      47.614  34.685  27.464  1.00  0.00     0.059 A 
ATOM     96  F   UNL A   1      46.447  33.170  26.108  1.00  0.00    -0.206 F 
ATOM     97  C   UNL A   1      48.197  34.989  28.694  1.00  0.00     0.060 A 
BRANCH  97  98
ATOM     98  S   UNL A   1      48.992  36.590  28.954  1.00  0.00     0.124 S 
ATOM     99  O   UNL A   1      49.141  36.612  30.405  1.00  0.00    -0.237 OA
ATOM    100  O   UNL A   1      50.229  36.451  28.192  1.00  0.00    -0.237 OA
ATOM    101  O   UNL A   1      48.029  37.540  28.406  1.00  0.00    -0.744 OA
ENDBRANCH  97  98
ENDBRANCH  65  90
ENDBRANCH  39  40
ENDBRANCH  31  34
ENDBRANCH  29  30
ENDBRANCH  28  29
ENDBRANCH  27  28
ENDBRANCH   1  27
TORSDOF 21
ENDMDL
MODEL 3
REMARK VINA RESULT:     -10.7      0.680      8.082
REMARK SMILES CC[C@H](NC(=O)N1CCO[C@@H](CC(=O)NCCCCCCNC(=O)c2ccc(-c3c4nc(c(-c5c(F)cc(S(=O)(=O)[O-])cc5F)c5ccc([nH]5)c(-c5c(F)cc(S(=O)(=O)[O-])cc5F)c5nc(c(-c6c(F)cc(S(=O)(=O)[O-])cc6F)c6ccc3[nH]6)C=C5)C=C4)cc2)C1)c1cccs1
REMARK SMILES IDX 18 1 17 2 16 3 15 4 13 5 14 6 12 8 11 9 7 10 8 11 91 12 9 13
REMARK SMILES IDX 10 14 5 15 4 16 6 18 3 19 2 20 1 21 92 22 93 23 96 24 94 25
REMARK SMILES IDX 95 26 19 27 20 28 21 29 22 30 23 31 24 33 25 34 26 35 90 36
REMARK SMILES IDX 27 37 89 38 28 39 29 40 30 41 83 42 31 43 88 44 82 45 84 46
REMARK SMILES IDX 32 47 87 48 81 49 80 50 33 52 67 53 46 54 66 55 47 56 50 57
REMARK SMILES IDX 65 58 85 59 48 60 49 61 64 63 86 64 51 65 34 66 35 67 44 68
REMARK SMILES IDX 36 69 37 70 43 71 45 72 38 73 39 74 40 75 41 76 42 77 68 78
REMARK SMILES IDX 69 79 78 80 70 81 71 82 77 83 79 84 72 85 73 86 74 87 75 88
REMARK SMILES IDX 76 89 52 90 53 91 62 92 54 93 55 94 61 95 63 96 56 97 57 98
REMARK SMILES IDX 58 99 59 100 60 101
REMARK H PARENT 15 7 4 17 22 32 84 51 50 62
REMARK Flexibility Score: inf
ROOT
ATOM      1  C   UNL A   1      39.674  22.283  26.954  1.00  0.00     0.002 C 
ENDROOT
BRANCH   1   2
ATOM      2  C   UNL A   1      38.976  23.554  26.472  1.00  0.00     0.021 C 
BRANCH   2   3
ATOM      3  C   UNL A   1      37.739  23.298  25.602  1.00  0.00     0.116 C 
BRANCH   3   4
ATOM      4  N   UNL A   1      36.609  22.904  26.435  1.00  0.00    -0.356 N 
ATOM      5  C   UNL A   1      35.272  22.890  26.161  1.00  0.00     0.222 C 
ATOM      6  O   UNL A   1      34.483  22.678  27.083  1.00  0.00    -0.275 OA
ATOM      7  H   UNL A   1      36.850  22.600  27.340  1.00  0.00     0.163 HD
BRANCH   5   8
ATOM      8  C   UNL A   1      34.777  23.116  24.751  1.00  0.00     0.133 C 
BRANCH   8   9
ATOM      9  C   UNL A   1      33.485  23.935  24.640  1.00  0.00     0.147 C 
ATOM     10  N   UNL A   1      32.076  25.200  22.977  1.00  0.00    -0.320 N 
ATOM     11  C   UNL A   1      31.081  24.145  23.093  1.00  0.00     0.150 C 
ATOM     12  C   UNL A   1      33.400  24.701  23.313  1.00  0.00     0.154 C 
ATOM     13  C   UNL A   1      31.124  23.551  24.498  1.00  0.00     0.182 C 
ATOM     14  O   UNL A   1      32.410  22.971  24.763  1.00  0.00    -0.374 OA
BRANCH  10  15
ATOM     15  C   UNL A   1      32.055  25.982  21.849  1.00  0.00     0.318 C 
ATOM     16  N   UNL A   1      31.779  27.297  21.991  1.00  0.00    -0.330 N 
ATOM     17  H   UNL A   1      32.066  27.841  21.222  1.00  0.00     0.166 HD
ATOM     18  O   UNL A   1      32.395  25.555  20.746  1.00  0.00    -0.249 OA
BRANCH  16  19
ATOM     19  C   UNL A   1      31.144  28.081  23.047  1.00  0.00     0.124 C 
BRANCH  19  20
ATOM     20  C   UNL A   1      29.621  27.852  23.108  1.00  0.00     0.027 C 
ATOM     21  C   UNL A   1      28.741  29.084  22.966  1.00  0.00     0.006 C 
ENDBRANCH  19  20
BRANCH  19  22
ATOM     22  C   UNL A   1      31.874  28.056  24.368  1.00  0.00     0.027 A 
ATOM     23  C   UNL A   1      31.410  27.776  25.642  1.00  0.00     0.017 A 
ATOM     24  S   UNL A   1      33.539  28.507  24.422  1.00  0.00    -0.147 S 
ATOM     25  C   UNL A   1      32.432  27.836  26.633  1.00  0.00     0.012 A 
ATOM     26  C   UNL A   1      33.646  28.200  26.098  1.00  0.00     0.065 A 
ENDBRANCH  19  22
ENDBRANCH  16  19
ENDBRANCH  10  15
ENDBRANCH   8   9
ENDBRANCH   5   8
ENDBRANCH   3   4
ENDBRANCH   2   3
ENDBRANCH   1   2
BRANCH   1  27
ATOM     27  C   UNL A   1      41.142  22.172  26.532  1.00  0.00     0.002 C 
BRANCH  27  28
ATOM     28  C   UNL A   1      42.168  22.351  27.657  1.00  0.00     0.021 C 
BRANCH  28  29
ATOM     29  C   UNL A   1      43.092  23.557  27.505  1.00  0.00     0.116 C 
BRANCH  29  30
ATOM     30  N   UNL A   1      42.812  24.295  26.281  1.00  0.00    -0.352 N 
ATOM     31  C   UNL A   1      42.140  25.476  26.110  1.00  0.00     0.251 C 
ATOM     32  H   UNL A   1      43.155  23.883  25.455  1.00  0.00     0.163 HD
ATOM     33  O   UNL A   1      41.773  25.816  24.983  1.00  0.00    -0.269 OA
BRANCH  31  34
ATOM     34  C   UNL A   1      41.851  26.341  27.272  1.00  0.00     0.039 A 
ATOM     35  C   UNL A   1      40.838  25.973  28.161  1.00  0.00     0.014 A 
ATOM     36  C   UNL A   1      42.559  27.531  27.467  1.00  0.00     0.014 A 
ATOM     37  C   UNL A   1      40.572  26.772  29.275  1.00  0.00     0.010 A 
ATOM     38  C   UNL A   1      42.339  28.290  28.612  1.00  0.00     0.010 A 
ATOM     39  C   UNL A   1      41.337  27.923  29.525  1.00  0.00    -0.014 A 
BRANCH  39  40
ATOM     40  C   UNL A   1      41.104  28.759  30.729  1.00  0.00     0.031 A 
ATOM     41  C   UNL A   1      40.001  29.782  30.737  1.00  0.00     0.074 A 
ATOM     42  C   UNL A   1      41.925  28.641  31.790  1.00  0.00     0.049 A 
ATOM     43  N   UNL A   1      39.681  30.646  31.666  1.00  0.00    -0.248 NA
ATOM     44  C   UNL A   1      39.164  29.861  29.529  1.00  0.00     0.031 C 
ATOM     45  C   UNL A   1      43.056  27.715  31.885  1.00  0.00     0.029 A 
ATOM     46  N   UNL A   1      41.942  29.308  32.988  1.00  0.00    -0.354 N 
ATOM     47  C   UNL A   1      38.617  31.378  31.152  1.00  0.00     0.074 A 
ATOM     48  C   UNL A   1      38.382  30.894  29.809  1.00  0.00     0.031 C 
ATOM     49  C   UNL A   1      43.640  27.857  33.085  1.00  0.00     0.029 A 
ATOM     50  C   UNL A   1      42.951  28.906  33.831  1.00  0.00     0.049 A 
ATOM     51  H   UNL A   1      41.292  30.010  33.223  1.00  0.00     0.167 HD
ATOM     52  C   UNL A   1      37.888  32.351  31.752  1.00  0.00     0.037 A 
ATOM     53  C   UNL A   1      43.286  29.335  35.063  1.00  0.00     0.037 A 
ATOM     54  C   UNL A   1      38.118  32.816  33.095  1.00  0.00     0.049 A 
ATOM     55  C   UNL A   1      42.468  30.421  35.708  1.00  0.00     0.074 A 
ATOM     56  C   UNL A   1      37.405  33.758  33.816  1.00  0.00     0.029 A 
ATOM     57  N   UNL A   1      39.144  32.376  33.920  1.00  0.00    -0.354 N 
ATOM     58  N   UNL A   1      41.429  31.063  35.231  1.00  0.00    -0.248 NA
ATOM     59  C   UNL A   1      42.866  30.836  37.060  1.00  0.00     0.031 C 
ATOM     60  C   UNL A   1      38.026  33.918  35.060  1.00  0.00     0.029 A 
ATOM     61  C   UNL A   1      39.096  33.041  35.134  1.00  0.00     0.049 A 
ATOM     62  H   UNL A   1      39.809  31.691  33.679  1.00  0.00     0.167 HD
ATOM     63  C   UNL A   1      41.032  31.941  36.234  1.00  0.00     0.074 A 
ATOM     64  C   UNL A   1      41.939  31.740  37.346  1.00  0.00     0.031 C 
ATOM     65  C   UNL A   1      40.007  32.830  36.233  1.00  0.00     0.037 A 
BRANCH  52  66
ATOM     66  C   UNL A   1      36.777  32.974  30.950  1.00  0.00     0.058 A 
ATOM     67  C   UNL A   1      37.037  33.891  29.918  1.00  0.00     0.135 A 
ATOM     68  C   UNL A   1      35.436  32.652  31.215  1.00  0.00     0.135 A 
ATOM     69  F   UNL A   1      38.300  34.243  29.629  1.00  0.00    -0.206 F 
ATOM     70  C   UNL A   1      36.007  34.502  29.210  1.00  0.00     0.059 A 
ATOM     71  C   UNL A   1      34.390  33.230  30.499  1.00  0.00     0.059 A 
ATOM     72  F   UNL A   1      35.128  31.779  32.187  1.00  0.00    -0.206 F 
ATOM     73  C   UNL A   1      34.686  34.171  29.514  1.00  0.00     0.060 A 
BRANCH  73  74
ATOM     74  S   UNL A   1      33.359  34.995  28.609  1.00  0.00     0.124 S 
ATOM     75  O   UNL A   1      34.104  35.986  27.839  1.00  0.00    -0.237 OA
ATOM     76  O   UNL A   1      32.776  33.902  27.839  1.00  0.00    -0.237 OA
ATOM     77  O   UNL A   1      32.510  35.533  29.668  1.00  0.00    -0.744 OA
ENDBRANCH  73  74
ENDBRANCH  52  66
BRANCH  53  78
ATOM     78  C   UNL A   1      44.426  28.705  35.777  1.00  0.00     0.058 A 
ATOM     79  C   UNL A   1      45.729  29.202  35.627  1.00  0.00     0.135 A 
ATOM     80  C   UNL A   1      44.235  27.624  36.652  1.00  0.00     0.135 A 
ATOM     81  F   UNL A   1      45.962  30.229  34.796  1.00  0.00    -0.206 F 
ATOM     82  C   UNL A   1      46.804  28.650  36.316  1.00  0.00     0.059 A 
ATOM     83  C   UNL A   1      45.291  27.069  37.369  1.00  0.00     0.059 A 
ATOM     84  F   UNL A   1      43.005  27.122  36.842  1.00  0.00    -0.206 F 
ATOM     85  C   UNL A   1      46.573  27.587  37.191  1.00  0.00     0.060 A 
BRANCH  85  86
ATOM     86  S   UNL A   1      47.965  26.926  38.133  1.00  0.00     0.124 S 
ATOM     87  O   UNL A   1      49.031  27.856  37.776  1.00  0.00    -0.237 OA
ATOM     88  O   UNL A   1      47.474  27.011  39.505  1.00  0.00    -0.237 OA
ATOM     89  O   UNL A   1      48.109  25.570  37.610  1.00  0.00    -0.744 OA
ENDBRANCH  85  86
ENDBRANCH  53  78
BRANCH  65  90
ATOM     90  C   UNL A   1      39.791  33.635  37.484  1.00  0.00     0.058 A 
ATOM     91  C   UNL A   1      40.474  34.840  37.713  1.00  0.00     0.135 A 
ATOM     92  C   UNL A   1      38.852  33.221  38.442  1.00  0.00     0.135 A 
ATOM     93  F   UNL A   1      41.389  35.276  36.833  1.00  0.00    -0.206 F 
ATOM     94  C   UNL A   1      40.247  35.595  38.860  1.00  0.00     0.059 A 
ATOM     95  C   UNL A   1      38.590  33.974  39.582  1.00  0.00     0.059 A 
ATOM     96  F   UNL A   1      38.165  32.081  38.266  1.00  0.00    -0.206 F 
ATOM     97  C   UNL A   1      39.301  35.156  39.787  1.00  0.00     0.060 A 
BRANCH  97  98
ATOM     98  S   UNL A   1      38.989  36.165  41.252  1.00  0.00     0.124 S 
ATOM     99  O   UNL A   1      38.675  37.459  40.656  1.00  0.00    -0.237 OA
ATOM    100  O   UNL A   1      37.871  35.467  41.879  1.00  0.00    -0.237 OA
ATOM    101  O   UNL A   1      40.251  36.099  41.983  1.00  0.00    -0.744 OA
ENDBRANCH  97  98
ENDBRANCH  65  90
ENDBRANCH  39  40
ENDBRANCH  31  34
ENDBRANCH  29  30
ENDBRANCH  28  29
ENDBRANCH  27  28
ENDBRANCH   1  27
TORSDOF 21
ENDMDL
