MODEL 1
REMARK VINA RESULT:     -11.5      0.000      0.000
REMARK SMILES CC[C@@H](C)Oc1cccc(C(=O)Nc2ccc(Cl)c(C(=O)NCCCCCCNC(=O)c3ccc(-c4c5nc(c(-c6c(F)cc(S(=O)(=O)[O-])cc6F)c6ccc([nH]6)c(-c6c(F)cc(S(=O)(=O)[O-])cc6F)c6nc(c(-c7c(F)cc(S(=O)(=O)[O-])cc7F)c7ccc4[nH]7)C=C6)C=C5)cc3)c2)c1
REMARK SMILES IDX 24 1 23 2 22 3 20 4 21 5 19 7 14 8 15 9 98 10 16 11 17 12
REMARK SMILES IDX 18 13 13 14 11 15 12 16 10 18 6 19 7 20 99 21 8 22 9 23 5 24
REMARK SMILES IDX 3 25 4 26 2 27 1 28 25 29 26 30 27 31 28 32 29 33 30 34
REMARK SMILES IDX 31 36 32 37 33 38 97 39 34 40 96 41 35 42 36 43 37 44 90 45
REMARK SMILES IDX 38 46 95 47 89 48 91 49 39 50 94 51 88 52 87 53 40 55 74 56
REMARK SMILES IDX 53 57 73 58 54 59 57 60 72 61 92 62 55 63 56 64 71 66 93 67
REMARK SMILES IDX 58 68 41 69 42 70 51 71 43 72 44 73 50 74 52 75 45 76 46 77
REMARK SMILES IDX 47 78 48 79 49 80 75 81 76 82 85 83 77 84 78 85 84 86 86 87
REMARK SMILES IDX 79 88 80 89 81 90 82 91 83 92 59 93 60 94 69 95 61 96 62 97
REMARK SMILES IDX 68 98 70 99 63 100 64 101 65 102 66 103 67 104
REMARK H PARENT 22 6 13 17 29 35 91 54 57 65
REMARK Flexibility Score: inf
ROOT
ATOM      1  C   UNL A   1      38.196  21.792  25.744  1.00  0.00     0.021 C 
ENDROOT
BRANCH   1   2
ATOM      2  C   UNL A   1      36.895  22.591  25.761  1.00  0.00     0.116 C 
BRANCH   2   3
ATOM      3  N   UNL A   1      35.898  21.873  26.525  1.00  0.00    -0.352 N 
ATOM      4  C   UNL A   1      34.545  21.684  26.398  1.00  0.00     0.252 C 
ATOM      5  O   UNL A   1      33.988  21.284  27.420  1.00  0.00    -0.269 OA
ATOM      6  H   UNL A   1      36.275  21.418  27.313  1.00  0.00     0.163 HD
BRANCH   4   7
ATOM      7  C   UNL A   1      33.775  21.860  25.118  1.00  0.00     0.060 A 
ATOM      8  C   UNL A   1      33.327  23.100  23.050  1.00  0.00     0.042 A 
ATOM      9  C   UNL A   1      32.546  22.055  22.572  1.00  0.00     0.028 A 
ATOM     10  C   UNL A   1      33.836  23.038  24.353  1.00  0.00     0.041 A 
ATOM     11  C   UNL A   1      32.389  20.908  23.343  1.00  0.00     0.023 A 
ATOM     12  C   UNL A   1      33.018  20.790  24.592  1.00  0.00     0.053 A 
ATOM     13  Cl  UNL A   1      32.829  19.238  25.342  1.00  0.00    -0.083 Cl
BRANCH   8  14
ATOM     14  N   UNL A   1      33.581  24.170  22.178  1.00  0.00    -0.322 N 
ATOM     15  C   UNL A   1      33.006  25.423  22.058  1.00  0.00     0.255 C 
ATOM     16  O   UNL A   1      33.219  26.061  21.026  1.00  0.00    -0.269 OA
ATOM     17  H   UNL A   1      34.302  23.996  21.531  1.00  0.00     0.170 HD
BRANCH  15  18
ATOM     18  C   UNL A   1      32.235  26.081  23.157  1.00  0.00     0.043 A 
ATOM     19  C   UNL A   1      32.107  27.383  25.209  1.00  0.00     0.120 A 
ATOM     20  C   UNL A   1      30.731  27.147  25.255  1.00  0.00     0.046 A 
ATOM     21  C   UNL A   1      32.833  26.921  24.111  1.00  0.00     0.060 A 
ATOM     22  C   UNL A   1      30.093  26.439  24.235  1.00  0.00     0.005 A 
ATOM     23  C   UNL A   1      30.848  25.884  23.203  1.00  0.00     0.014 A 
BRANCH  19  24
ATOM     24  O   UNL A   1      32.630  27.907  26.357  1.00  0.00    -0.491 OA
BRANCH  24  25
ATOM     25  C   UNL A   1      33.370  29.137  26.410  1.00  0.00     0.170 C 
ATOM     26  C   UNL A   1      34.795  28.910  26.897  1.00  0.00     0.053 C 
BRANCH  25  27
ATOM     27  C   UNL A   1      32.605  30.311  27.038  1.00  0.00     0.041 C 
ATOM     28  C   UNL A   1      31.528  30.924  26.158  1.00  0.00     0.008 C 
ENDBRANCH  25  27
ENDBRANCH  24  25
ENDBRANCH  19  24
ENDBRANCH  15  18
ENDBRANCH   8  14
ENDBRANCH   4   7
ENDBRANCH   2   3
ENDBRANCH   1   2
BRANCH   1  29
ATOM     29  C   UNL A   1      39.338  22.555  26.418  1.00  0.00     0.002 C 
BRANCH  29  30
ATOM     30  C   UNL A   1      40.597  21.711  26.656  1.00  0.00     0.002 C 
BRANCH  30  31
ATOM     31  C   UNL A   1      41.259  21.919  28.021  1.00  0.00     0.021 C 
BRANCH  31  32
ATOM     32  C   UNL A   1      42.473  22.841  27.989  1.00  0.00     0.116 C 
BRANCH  32  33
ATOM     33  N   UNL A   1      42.604  23.500  26.697  1.00  0.00    -0.352 N 
ATOM     34  C   UNL A   1      42.273  24.782  26.351  1.00  0.00     0.251 C 
ATOM     35  H   UNL A   1      42.983  22.949  25.976  1.00  0.00     0.163 HD
ATOM     36  O   UNL A   1      42.214  25.104  25.163  1.00  0.00    -0.269 OA
BRANCH  34  37
ATOM     37  C   UNL A   1      41.979  25.770  27.406  1.00  0.00     0.039 A 
ATOM     38  C   UNL A   1      40.812  25.636  28.159  1.00  0.00     0.014 A 
ATOM     39  C   UNL A   1      42.860  26.830  27.647  1.00  0.00     0.014 A 
ATOM     40  C   UNL A   1      40.550  26.540  29.188  1.00  0.00     0.010 A 
ATOM     41  C   UNL A   1      42.634  27.685  28.719  1.00  0.00     0.010 A 
ATOM     42  C   UNL A   1      41.472  27.555  29.494  1.00  0.00    -0.014 A 
BRANCH  42  43
ATOM     43  C   UNL A   1      41.234  28.494  30.619  1.00  0.00     0.031 A 
ATOM     44  C   UNL A   1      42.047  28.379  31.879  1.00  0.00     0.074 A 
ATOM     45  C   UNL A   1      40.248  29.407  30.525  1.00  0.00     0.049 A 
ATOM     46  N   UNL A   1      41.947  29.061  32.991  1.00  0.00    -0.248 NA
ATOM     47  C   UNL A   1      43.096  27.345  31.903  1.00  0.00     0.031 C 
ATOM     48  C   UNL A   1      39.361  29.578  29.371  1.00  0.00     0.029 A 
ATOM     49  N   UNL A   1      39.816  30.356  31.416  1.00  0.00    -0.354 N 
ATOM     50  C   UNL A   1      42.907  28.533  33.847  1.00  0.00     0.074 A 
ATOM     51  C   UNL A   1      43.542  27.439  33.147  1.00  0.00     0.031 C 
ATOM     52  C   UNL A   1      38.505  30.583  29.619  1.00  0.00     0.029 A 
ATOM     53  C   UNL A   1      38.756  31.102  30.959  1.00  0.00     0.049 A 
ATOM     54  H   UNL A   1      40.229  30.490  32.301  1.00  0.00     0.167 HD
ATOM     55  C   UNL A   1      43.244  28.942  35.093  1.00  0.00     0.037 A 
ATOM     56  C   UNL A   1      38.057  32.086  31.557  1.00  0.00     0.037 A 
ATOM     57  C   UNL A   1      42.620  30.048  35.772  1.00  0.00     0.049 A 
ATOM     58  C   UNL A   1      38.449  32.519  32.945  1.00  0.00     0.074 A 
ATOM     59  C   UNL A   1      42.924  30.576  37.014  1.00  0.00     0.029 A 
ATOM     60  N   UNL A   1      41.564  30.794  35.268  1.00  0.00    -0.354 N 
ATOM     61  N   UNL A   1      39.402  32.052  33.716  1.00  0.00    -0.248 NA
ATOM     62  C   UNL A   1      37.676  33.617  33.542  1.00  0.00     0.031 C 
ATOM     63  C   UNL A   1      42.022  31.611  37.281  1.00  0.00     0.029 A 
ATOM     64  C   UNL A   1      41.192  31.765  36.183  1.00  0.00     0.049 A 
ATOM     65  H   UNL A   1      41.142  30.653  34.390  1.00  0.00     0.167 HD
ATOM     66  C   UNL A   1      39.363  32.817  34.876  1.00  0.00     0.074 A 
ATOM     67  C   UNL A   1      38.300  33.786  34.699  1.00  0.00     0.031 C 
ATOM     68  C   UNL A   1      40.136  32.728  35.987  1.00  0.00     0.037 A 
BRANCH  55  69
ATOM     69  C   UNL A   1      44.343  28.195  35.802  1.00  0.00     0.058 A 
ATOM     70  C   UNL A   1      44.063  27.175  36.726  1.00  0.00     0.135 A 
ATOM     71  C   UNL A   1      45.691  28.474  35.524  1.00  0.00     0.135 A 
ATOM     72  F   UNL A   1      42.793  26.878  37.042  1.00  0.00    -0.206 F 
ATOM     73  C   UNL A   1      45.080  26.476  37.368  1.00  0.00     0.059 A 
ATOM     74  C   UNL A   1      46.724  27.767  36.132  1.00  0.00     0.059 A 
ATOM     75  F   UNL A   1      46.016  29.440  34.650  1.00  0.00    -0.206 F 
ATOM     76  C   UNL A   1      46.408  26.777  37.063  1.00  0.00     0.060 A 
BRANCH  76  77
ATOM     77  S   UNL A   1      47.714  25.850  37.895  1.00  0.00     0.124 S 
ATOM     78  O   UNL A   1      47.172  25.734  39.246  1.00  0.00    -0.237 OA
ATOM     79  O   UNL A   1      47.760  24.614  37.123  1.00  0.00    -0.237 OA
ATOM     80  O   UNL A   1      48.883  26.714  37.762  1.00  0.00    -0.744 OA
ENDBRANCH  76  77
ENDBRANCH  55  69
BRANCH  56  81
ATOM     81  C   UNL A   1      36.928  32.739  30.843  1.00  0.00     0.058 A 
ATOM     82  C   UNL A   1      37.156  33.771  29.920  1.00  0.00     0.135 A 
ATOM     83  C   UNL A   1      35.600  32.338  31.058  1.00  0.00     0.135 A 
ATOM     84  F   UNL A   1      38.407  34.192  29.681  1.00  0.00    -0.206 F 
ATOM     85  C   UNL A   1      36.108  34.398  29.254  1.00  0.00     0.059 A 
ATOM     86  C   UNL A   1      34.538  32.931  30.383  1.00  0.00     0.059 A 
ATOM     87  F   UNL A   1      35.329  31.341  31.916  1.00  0.00    -0.206 F 
ATOM     88  C   UNL A   1      34.801  33.970  29.491  1.00  0.00     0.060 A 
BRANCH  88  89
ATOM     89  S   UNL A   1      33.452  34.763  28.590  1.00  0.00     0.124 S 
ATOM     90  O   UNL A   1      33.097  33.730  27.625  1.00  0.00    -0.237 OA
ATOM     91  O   UNL A   1      32.479  35.009  29.651  1.00  0.00    -0.237 OA
ATOM     92  O   UNL A   1      34.078  35.960  28.035  1.00  0.00    -0.744 OA
ENDBRANCH  88  89
ENDBRANCH  56  81
BRANCH  68  93
ATOM     93  C   UNL A   1      39.889  33.725  37.085  1.00  0.00     0.058 A 
ATOM     94  C   UNL A   1      39.010  33.456  38.146  1.00  0.00     0.135 A 
ATOM     95  C   UNL A   1      40.584  34.946  37.103  1.00  0.00     0.135 A 
ATOM     96  F   UNL A   1      38.317  32.306  38.173  1.00  0.00    -0.206 F 
ATOM     97  C   UNL A   1      38.811  34.371  39.173  1.00  0.00     0.059 A 
ATOM     98  C   UNL A   1      40.422  35.864  38.135  1.00  0.00     0.059 A 
ATOM     99  F   UNL A   1      41.445  35.249  36.118  1.00  0.00    -0.206 F 
ATOM    100  C   UNL A   1      39.524  35.572  39.161  1.00  0.00     0.060 A 
BRANCH 100 101
ATOM    101  S   UNL A   1      39.282  36.736  40.519  1.00  0.00     0.124 S 
ATOM    102  O   UNL A   1      40.645  36.903  41.009  1.00  0.00    -0.237 OA
ATOM    103  O   UNL A   1      38.705  37.892  39.841  1.00  0.00    -0.237 OA
ATOM    104  O   UNL A   1      38.375  36.027  41.417  1.00  0.00    -0.744 OA
ENDBRANCH 100 101
ENDBRANCH  68  93
ENDBRANCH  42  43
ENDBRANCH  34  37
ENDBRANCH  32  33
ENDBRANCH  31  32
ENDBRANCH  30  31
ENDBRANCH  29  30
ENDBRANCH   1  29
TORSDOF 21
ENDMDL
MODEL 2
REMARK VINA RESULT:     -11.0      6.177      8.354
REMARK SMILES CC[C@@H](C)Oc1cccc(C(=O)Nc2ccc(Cl)c(C(=O)NCCCCCCNC(=O)c3ccc(-c4c5nc(c(-c6c(F)cc(S(=O)(=O)[O-])cc6F)c6ccc([nH]6)c(-c6c(F)cc(S(=O)(=O)[O-])cc6F)c6nc(c(-c7c(F)cc(S(=O)(=O)[O-])cc7F)c7ccc4[nH]7)C=C6)C=C5)cc3)c2)c1
REMARK SMILES IDX 24 1 23 2 22 3 20 4 21 5 19 7 14 8 15 9 98 10 16 11 17 12
REMARK SMILES IDX 18 13 13 14 11 15 12 16 10 18 6 19 7 20 99 21 8 22 9 23 5 24
REMARK SMILES IDX 3 25 4 26 2 27 1 28 25 29 26 30 27 31 28 32 29 33 30 34
REMARK SMILES IDX 31 36 32 37 33 38 97 39 34 40 96 41 35 42 36 43 37 44 90 45
REMARK SMILES IDX 38 46 95 47 89 48 91 49 39 50 94 51 88 52 87 53 40 55 74 56
REMARK SMILES IDX 53 57 73 58 54 59 57 60 72 61 92 62 55 63 56 64 71 66 93 67
REMARK SMILES IDX 58 68 41 69 42 70 51 71 43 72 44 73 50 74 52 75 45 76 46 77
REMARK SMILES IDX 47 78 48 79 49 80 75 81 76 82 85 83 77 84 78 85 84 86 86 87
REMARK SMILES IDX 79 88 80 89 81 90 82 91 83 92 59 93 60 94 69 95 61 96 62 97
REMARK SMILES IDX 68 98 70 99 63 100 64 101 65 102 66 103 67 104
REMARK H PARENT 22 6 13 17 29 35 91 54 57 65
REMARK Flexibility Score: inf
ROOT
ATOM      1  C   UNL A   1      39.133  21.630  25.796  1.00  0.00     0.021 C 
ENDROOT
BRANCH   1   2
ATOM      2  C   UNL A   1      37.752  22.250  25.595  1.00  0.00     0.116 C 
BRANCH   2   3
ATOM      3  N   UNL A   1      36.824  21.230  25.155  1.00  0.00    -0.352 N 
ATOM      4  C   UNL A   1      35.465  21.182  24.978  1.00  0.00     0.252 C 
ATOM      5  O   UNL A   1      35.001  20.045  24.903  1.00  0.00    -0.269 OA
ATOM      6  H   UNL A   1      37.269  20.380  24.932  1.00  0.00     0.163 HD
BRANCH   4   7
ATOM      7  C   UNL A   1      34.584  22.388  24.806  1.00  0.00     0.060 A 
ATOM      8  C   UNL A   1      33.381  23.964  23.362  1.00  0.00     0.042 A 
ATOM      9  C   UNL A   1      32.698  24.475  24.459  1.00  0.00     0.028 A 
ATOM     10  C   UNL A   1      34.389  23.014  23.561  1.00  0.00     0.041 A 
ATOM     11  C   UNL A   1      32.932  23.942  25.722  1.00  0.00     0.023 A 
ATOM     12  C   UNL A   1      33.842  22.888  25.899  1.00  0.00     0.053 A 
ATOM     13  Cl  UNL A   1      33.896  22.256  27.513  1.00  0.00    -0.083 Cl
BRANCH   8  14
ATOM     14  N   UNL A   1      33.003  24.426  22.092  1.00  0.00    -0.322 N 
ATOM     15  C   UNL A   1      32.391  25.597  21.677  1.00  0.00     0.255 C 
ATOM     16  O   UNL A   1      31.913  25.629  20.542  1.00  0.00    -0.269 OA
ATOM     17  H   UNL A   1      33.211  23.803  21.360  1.00  0.00     0.170 HD
BRANCH  15  18
ATOM     18  C   UNL A   1      32.379  26.851  22.492  1.00  0.00     0.043 A 
ATOM     19  C   UNL A   1      31.218  28.595  23.729  1.00  0.00     0.120 A 
ATOM     20  C   UNL A   1      32.429  29.278  23.873  1.00  0.00     0.046 A 
ATOM     21  C   UNL A   1      31.221  27.343  23.115  1.00  0.00     0.060 A 
ATOM     22  C   UNL A   1      33.619  28.732  23.388  1.00  0.00     0.005 A 
ATOM     23  C   UNL A   1      33.589  27.534  22.675  1.00  0.00     0.014 A 
BRANCH  19  24
ATOM     24  O   UNL A   1      30.114  29.326  24.065  1.00  0.00    -0.491 OA
BRANCH  24  25
ATOM     25  C   UNL A   1      29.466  30.248  23.176  1.00  0.00     0.170 C 
ATOM     26  C   UNL A   1      29.162  31.570  23.869  1.00  0.00     0.053 C 
BRANCH  25  27
ATOM     27  C   UNL A   1      28.336  29.634  22.337  1.00  0.00     0.041 C 
ATOM     28  C   UNL A   1      27.306  28.840  23.125  1.00  0.00     0.008 C 
ENDBRANCH  25  27
ENDBRANCH  24  25
ENDBRANCH  19  24
ENDBRANCH  15  18
ENDBRANCH   8  14
ENDBRANCH   4   7
ENDBRANCH   2   3
ENDBRANCH   1   2
BRANCH   1  29
ATOM     29  C   UNL A   1      39.971  22.427  26.798  1.00  0.00     0.002 C 
BRANCH  29  30
ATOM     30  C   UNL A   1      40.925  21.565  27.637  1.00  0.00     0.002 C 
BRANCH  30  31
ATOM     31  C   UNL A   1      40.944  20.081  27.261  1.00  0.00     0.021 C 
BRANCH  31  32
ATOM     32  C   UNL A   1      42.276  19.389  27.529  1.00  0.00     0.116 C 
BRANCH  32  33
ATOM     33  N   UNL A   1      42.879  18.904  26.296  1.00  0.00    -0.352 N 
ATOM     34  C   UNL A   1      43.494  19.617  25.304  1.00  0.00     0.251 C 
ATOM     35  H   UNL A   1      42.840  17.930  26.159  1.00  0.00     0.163 HD
ATOM     36  O   UNL A   1      43.727  19.085  24.216  1.00  0.00    -0.269 OA
BRANCH  34  37
ATOM     37  C   UNL A   1      43.866  21.024  25.540  1.00  0.00     0.039 A 
ATOM     38  C   UNL A   1      43.255  22.026  24.784  1.00  0.00     0.014 A 
ATOM     39  C   UNL A   1      44.822  21.350  26.508  1.00  0.00     0.014 A 
ATOM     40  C   UNL A   1      43.569  23.362  25.034  1.00  0.00     0.010 A 
ATOM     41  C   UNL A   1      45.078  22.684  26.804  1.00  0.00     0.010 A 
ATOM     42  C   UNL A   1      44.462  23.703  26.063  1.00  0.00    -0.014 A 
BRANCH  42  43
ATOM     43  C   UNL A   1      44.768  25.122  26.376  1.00  0.00     0.031 A 
ATOM     44  C   UNL A   1      46.175  25.635  26.240  1.00  0.00     0.074 A 
ATOM     45  C   UNL A   1      43.790  25.926  26.836  1.00  0.00     0.049 A 
ATOM     46  N   UNL A   1      46.653  26.818  26.525  1.00  0.00    -0.248 NA
ATOM     47  C   UNL A   1      47.185  24.685  25.742  1.00  0.00     0.031 C 
ATOM     48  C   UNL A   1      42.399  25.525  27.057  1.00  0.00     0.029 A 
ATOM     49  N   UNL A   1      43.818  27.244  27.215  1.00  0.00    -0.354 N 
ATOM     50  C   UNL A   1      48.015  26.753  26.253  1.00  0.00     0.074 A 
ATOM     51  C   UNL A   1      48.298  25.399  25.834  1.00  0.00     0.031 C 
ATOM     52  C   UNL A   1      41.703  26.580  27.512  1.00  0.00     0.029 A 
ATOM     53  C   UNL A   1      42.604  27.719  27.653  1.00  0.00     0.049 A 
ATOM     54  H   UNL A   1      44.631  27.798  27.175  1.00  0.00     0.167 HD
ATOM     55  C   UNL A   1      48.939  27.741  26.323  1.00  0.00     0.037 A 
ATOM     56  C   UNL A   1      42.259  28.932  28.125  1.00  0.00     0.037 A 
ATOM     57  C   UNL A   1      48.642  29.092  26.721  1.00  0.00     0.049 A 
ATOM     58  C   UNL A   1      43.306  30.012  28.197  1.00  0.00     0.074 A 
ATOM     59  C   UNL A   1      49.495  30.180  26.774  1.00  0.00     0.029 A 
ATOM     60  N   UNL A   1      47.396  29.541  27.137  1.00  0.00    -0.354 N 
ATOM     61  N   UNL A   1      44.576  29.951  27.875  1.00  0.00    -0.248 NA
ATOM     62  C   UNL A   1      42.872  31.326  28.690  1.00  0.00     0.031 C 
ATOM     63  C   UNL A   1      48.777  31.275  27.265  1.00  0.00     0.029 A 
ATOM     64  C   UNL A   1      47.463  30.884  27.466  1.00  0.00     0.049 A 
ATOM     65  H   UNL A   1      46.584  28.985  27.189  1.00  0.00     0.167 HD
ATOM     66  C   UNL A   1      45.087  31.225  28.097  1.00  0.00     0.074 A 
ATOM     67  C   UNL A   1      43.985  32.038  28.569  1.00  0.00     0.031 C 
ATOM     68  C   UNL A   1      46.352  31.681  27.926  1.00  0.00     0.037 A 
BRANCH  55  69
ATOM     69  C   UNL A   1      50.358  27.399  25.954  1.00  0.00     0.058 A 
ATOM     70  C   UNL A   1      51.302  27.025  26.925  1.00  0.00     0.135 A 
ATOM     71  C   UNL A   1      50.769  27.405  24.612  1.00  0.00     0.135 A 
ATOM     72  F   UNL A   1      50.969  27.017  28.226  1.00  0.00    -0.206 F 
ATOM     73  C   UNL A   1      52.608  26.695  26.580  1.00  0.00     0.059 A 
ATOM     74  C   UNL A   1      52.063  27.050  24.241  1.00  0.00     0.059 A 
ATOM     75  F   UNL A   1      49.909  27.756  23.642  1.00  0.00    -0.206 F 
ATOM     76  C   UNL A   1      52.980  26.708  25.235  1.00  0.00     0.060 A 
BRANCH  76  77
ATOM     77  S   UNL A   1      54.675  26.263  24.806  1.00  0.00     0.124 S 
ATOM     78  O   UNL A   1      55.435  27.036  25.784  1.00  0.00    -0.237 OA
ATOM     79  O   UNL A   1      54.678  24.817  25.001  1.00  0.00    -0.237 OA
ATOM     80  O   UNL A   1      54.804  26.707  23.421  1.00  0.00    -0.744 OA
ENDBRANCH  76  77
ENDBRANCH  55  69
BRANCH  56  81
ATOM     81  C   UNL A   1      40.858  29.196  28.551  1.00  0.00     0.058 A 
ATOM     82  C   UNL A   1      39.837  29.377  27.606  1.00  0.00     0.135 A 
ATOM     83  C   UNL A   1      40.509  29.260  29.909  1.00  0.00     0.135 A 
ATOM     84  F   UNL A   1      40.120  29.329  26.296  1.00  0.00    -0.206 F 
ATOM     85  C   UNL A   1      38.526  29.636  27.990  1.00  0.00     0.059 A 
ATOM     86  C   UNL A   1      39.200  29.489  30.318  1.00  0.00     0.059 A 
ATOM     87  F   UNL A   1      41.445  29.072  30.853  1.00  0.00    -0.206 F 
ATOM     88  C   UNL A   1      38.216  29.689  29.350  1.00  0.00     0.060 A 
BRANCH  88  89
ATOM     89  S   UNL A   1      36.503  29.985  29.839  1.00  0.00     0.124 S 
ATOM     90  O   UNL A   1      36.452  31.441  29.863  1.00  0.00    -0.237 OA
ATOM     91  O   UNL A   1      35.761  29.336  28.761  1.00  0.00    -0.237 OA
ATOM     92  O   UNL A   1      36.407  29.327  31.139  1.00  0.00    -0.744 OA
ENDBRANCH  88  89
ENDBRANCH  56  81
BRANCH  68  93
ATOM     93  C   UNL A   1      46.610  33.134  28.215  1.00  0.00     0.058 A 
ATOM     94  C   UNL A   1      46.441  34.125  27.236  1.00  0.00     0.135 A 
ATOM     95  C   UNL A   1      46.979  33.545  29.507  1.00  0.00     0.135 A 
ATOM     96  F   UNL A   1      46.095  33.785  25.984  1.00  0.00    -0.206 F 
ATOM     97  C   UNL A   1      46.652  35.470  27.520  1.00  0.00     0.059 A 
ATOM     98  C   UNL A   1      47.167  34.887  29.821  1.00  0.00     0.059 A 
ATOM     99  F   UNL A   1      47.143  32.639  30.484  1.00  0.00    -0.206 F 
ATOM    100  C   UNL A   1      47.012  35.842  28.817  1.00  0.00     0.060 A 
BRANCH 100 101
ATOM    101  S   UNL A   1      47.248  37.594  29.180  1.00  0.00     0.124 S 
ATOM    102  O   UNL A   1      48.107  38.010  28.077  1.00  0.00    -0.237 OA
ATOM    103  O   UNL A   1      45.882  38.107  29.150  1.00  0.00    -0.237 OA
ATOM    104  O   UNL A   1      47.879  37.587  30.497  1.00  0.00    -0.744 OA
ENDBRANCH 100 101
ENDBRANCH  68  93
ENDBRANCH  42  43
ENDBRANCH  34  37
ENDBRANCH  32  33
ENDBRANCH  31  32
ENDBRANCH  30  31
ENDBRANCH  29  30
ENDBRANCH   1  29
TORSDOF 21
ENDMDL
MODEL 3
REMARK VINA RESULT:     -10.2      4.625      8.008
REMARK SMILES CC[C@@H](C)Oc1cccc(C(=O)Nc2ccc(Cl)c(C(=O)NCCCCCCNC(=O)c3ccc(-c4c5nc(c(-c6c(F)cc(S(=O)(=O)[O-])cc6F)c6ccc([nH]6)c(-c6c(F)cc(S(=O)(=O)[O-])cc6F)c6nc(c(-c7c(F)cc(S(=O)(=O)[O-])cc7F)c7ccc4[nH]7)C=C6)C=C5)cc3)c2)c1
REMARK SMILES IDX 24 1 23 2 22 3 20 4 21 5 19 7 14 8 15 9 98 10 16 11 17 12
REMARK SMILES IDX 18 13 13 14 11 15 12 16 10 18 6 19 7 20 99 21 8 22 9 23 5 24
REMARK SMILES IDX 3 25 4 26 2 27 1 28 25 29 26 30 27 31 28 32 29 33 30 34
REMARK SMILES IDX 31 36 32 37 33 38 97 39 34 40 96 41 35 42 36 43 37 44 90 45
REMARK SMILES IDX 38 46 95 47 89 48 91 49 39 50 94 51 88 52 87 53 40 55 74 56
REMARK SMILES IDX 53 57 73 58 54 59 57 60 72 61 92 62 55 63 56 64 71 66 93 67
REMARK SMILES IDX 58 68 41 69 42 70 51 71 43 72 44 73 50 74 52 75 45 76 46 77
REMARK SMILES IDX 47 78 48 79 49 80 75 81 76 82 85 83 77 84 78 85 84 86 86 87
REMARK SMILES IDX 79 88 80 89 81 90 82 91 83 92 59 93 60 94 69 95 61 96 62 97
REMARK SMILES IDX 68 98 70 99 63 100 64 101 65 102 66 103 67 104
REMARK H PARENT 22 6 13 17 29 35 91 54 57 65
REMARK Flexibility Score: inf
ROOT
ATOM      1  C   UNL A   1      44.743  23.763  28.118  1.00  0.00     0.021 C 
ENDROOT
BRANCH   1   2
ATOM      2  C   UNL A   1      45.423  25.125  28.004  1.00  0.00     0.116 C 
BRANCH   2   3
ATOM      3  N   UNL A   1      45.793  25.366  26.626  1.00  0.00    -0.352 N 
ATOM      4  C   UNL A   1      45.948  26.491  25.857  1.00  0.00     0.252 C 
ATOM      5  O   UNL A   1      45.954  26.283  24.644  1.00  0.00    -0.269 OA
ATOM      6  H   UNL A   1      45.976  24.536  26.128  1.00  0.00     0.163 HD
BRANCH   4   7
ATOM      7  C   UNL A   1      46.173  27.874  26.404  1.00  0.00     0.060 A 
ATOM      8  C   UNL A   1      45.417  29.795  27.728  1.00  0.00     0.042 A 
ATOM      9  C   UNL A   1      46.690  30.350  27.681  1.00  0.00     0.028 A 
ATOM     10  C   UNL A   1      45.148  28.630  27.000  1.00  0.00     0.041 A 
ATOM     11  C   UNL A   1      47.710  29.673  27.022  1.00  0.00     0.023 A 
ATOM     12  C   UNL A   1      47.471  28.432  26.412  1.00  0.00     0.053 A 
ATOM     13  Cl  UNL A   1      48.889  27.669  25.767  1.00  0.00    -0.083 Cl
BRANCH   8  14
ATOM     14  N   UNL A   1      44.460  30.436  28.530  1.00  0.00    -0.322 N 
ATOM     15  C   UNL A   1      44.038  31.753  28.594  1.00  0.00     0.255 C 
ATOM     16  O   UNL A   1      43.392  32.106  29.581  1.00  0.00    -0.269 OA
ATOM     17  H   UNL A   1      44.005  29.839  29.165  1.00  0.00     0.170 HD
BRANCH  15  18
ATOM     18  C   UNL A   1      44.233  32.733  27.481  1.00  0.00     0.043 A 
ATOM     19  C   UNL A   1      44.797  34.948  26.646  1.00  0.00     0.120 A 
ATOM     20  C   UNL A   1      44.422  34.542  25.362  1.00  0.00     0.046 A 
ATOM     21  C   UNL A   1      44.782  34.011  27.679  1.00  0.00     0.060 A 
ATOM     22  C   UNL A   1      44.014  33.230  25.119  1.00  0.00     0.005 A 
ATOM     23  C   UNL A   1      43.893  32.335  26.182  1.00  0.00     0.014 A 
BRANCH  19  24
ATOM     24  O   UNL A   1      44.979  36.295  26.783  1.00  0.00    -0.491 OA
BRANCH  24  25
ATOM     25  C   UNL A   1      44.635  37.032  27.966  1.00  0.00     0.170 C 
ATOM     26  C   UNL A   1      45.309  36.449  29.201  1.00  0.00     0.053 C 
BRANCH  25  27
ATOM     27  C   UNL A   1      43.142  37.371  28.091  1.00  0.00     0.041 C 
ATOM     28  C   UNL A   1      42.228  36.612  27.143  1.00  0.00     0.008 C 
ENDBRANCH  25  27
ENDBRANCH  24  25
ENDBRANCH  19  24
ENDBRANCH  15  18
ENDBRANCH   8  14
ENDBRANCH   4   7
ENDBRANCH   2   3
ENDBRANCH   1   2
BRANCH   1  29
ATOM     29  C   UNL A   1      43.219  23.893  28.173  1.00  0.00     0.002 C 
BRANCH  29  30
ATOM     30  C   UNL A   1      42.512  22.682  28.797  1.00  0.00     0.002 C 
BRANCH  30  31
ATOM     31  C   UNL A   1      41.485  22.002  27.888  1.00  0.00     0.021 C 
BRANCH  31  32
ATOM     32  C   UNL A   1      41.527  22.475  26.440  1.00  0.00     0.116 C 
BRANCH  32  33
ATOM     33  N   UNL A   1      40.189  22.573  25.875  1.00  0.00    -0.352 N 
ATOM     34  C   UNL A   1      39.200  23.474  26.163  1.00  0.00     0.251 C 
ATOM     35  H   UNL A   1      39.966  21.901  25.191  1.00  0.00     0.163 HD
ATOM     36  O   UNL A   1      38.047  23.267  25.780  1.00  0.00    -0.269 OA
BRANCH  34  37
ATOM     37  C   UNL A   1      39.520  24.684  26.942  1.00  0.00     0.039 A 
ATOM     38  C   UNL A   1      39.063  24.789  28.257  1.00  0.00     0.014 A 
ATOM     39  C   UNL A   1      40.272  25.715  26.369  1.00  0.00     0.014 A 
ATOM     40  C   UNL A   1      39.400  25.911  29.014  1.00  0.00     0.010 A 
ATOM     41  C   UNL A   1      40.668  26.796  27.148  1.00  0.00     0.010 A 
ATOM     42  C   UNL A   1      40.228  26.910  28.475  1.00  0.00    -0.014 A 
BRANCH  42  43
ATOM     43  C   UNL A   1      40.639  28.085  29.283  1.00  0.00     0.031 A 
ATOM     44  C   UNL A   1      41.966  28.083  29.992  1.00  0.00     0.074 A 
ATOM     45  C   UNL A   1      39.792  29.123  29.425  1.00  0.00     0.049 A 
ATOM     46  N   UNL A   1      42.474  28.982  30.794  1.00  0.00    -0.248 NA
ATOM     47  C   UNL A   1      42.825  26.902  29.795  1.00  0.00     0.031 C 
ATOM     48  C   UNL A   1      38.459  29.215  28.825  1.00  0.00     0.029 A 
ATOM     49  N   UNL A   1      39.920  30.296  30.126  1.00  0.00    -0.354 N 
ATOM     50  C   UNL A   1      43.701  28.474  31.204  1.00  0.00     0.074 A 
ATOM     51  C   UNL A   1      43.837  27.164  30.608  1.00  0.00     0.031 C 
ATOM     52  C   UNL A   1      37.901  30.388  29.168  1.00  0.00     0.029 A 
ATOM     53  C   UNL A   1      38.818  31.113  30.040  1.00  0.00     0.049 A 
ATOM     54  H   UNL A   1      40.726  30.529  30.640  1.00  0.00     0.167 HD
ATOM     55  C   UNL A   1      44.640  29.060  31.986  1.00  0.00     0.037 A 
ATOM     56  C   UNL A   1      38.570  32.308  30.611  1.00  0.00     0.037 A 
ATOM     57  C   UNL A   1      44.504  30.374  32.556  1.00  0.00     0.049 A 
ATOM     58  C   UNL A   1      39.628  32.935  31.479  1.00  0.00     0.074 A 
ATOM     59  C   UNL A   1      45.418  31.079  33.319  1.00  0.00     0.029 A 
ATOM     60  N   UNL A   1      43.382  31.181  32.430  1.00  0.00    -0.354 N 
ATOM     61  N   UNL A   1      40.810  32.470  31.805  1.00  0.00    -0.248 NA
ATOM     62  C   UNL A   1      39.322  34.253  32.052  1.00  0.00     0.031 C 
ATOM     63  C   UNL A   1      44.833  32.294  33.691  1.00  0.00     0.029 A 
ATOM     64  C   UNL A   1      43.574  32.369  33.116  1.00  0.00     0.049 A 
ATOM     65  H   UNL A   1      42.570  30.945  31.926  1.00  0.00     0.167 HD
ATOM     66  C   UNL A   1      41.401  33.448  32.596  1.00  0.00     0.074 A 
ATOM     67  C   UNL A   1      40.450  34.538  32.689  1.00  0.00     0.031 C 
ATOM     68  C   UNL A   1      42.619  33.448  33.191  1.00  0.00     0.037 A 
BRANCH  55  69
ATOM     69  C   UNL A   1      45.901  28.285  32.264  1.00  0.00     0.058 A 
ATOM     70  C   UNL A   1      47.072  28.492  31.517  1.00  0.00     0.135 A 
ATOM     71  C   UNL A   1      45.952  27.357  33.316  1.00  0.00     0.135 A 
ATOM     72  F   UNL A   1      47.076  29.356  30.490  1.00  0.00    -0.206 F 
ATOM     73  C   UNL A   1      48.240  27.786  31.786  1.00  0.00     0.059 A 
ATOM     74  C   UNL A   1      47.118  26.661  33.622  1.00  0.00     0.059 A 
ATOM     75  F   UNL A   1      44.862  27.118  34.063  1.00  0.00    -0.206 F 
ATOM     76  C   UNL A   1      48.255  26.874  32.842  1.00  0.00     0.060 A 
BRANCH  76  77
ATOM     77  S   UNL A   1      49.784  25.978  33.185  1.00  0.00     0.124 S 
ATOM     78  O   UNL A   1      50.375  25.892  31.853  1.00  0.00    -0.237 OA
ATOM     79  O   UNL A   1      50.463  26.866  34.122  1.00  0.00    -0.237 OA
ATOM     80  O   UNL A   1      49.320  24.714  33.747  1.00  0.00    -0.744 OA
ENDBRANCH  76  77
ENDBRANCH  55  69
BRANCH  56  81
ATOM     81  C   UNL A   1      37.274  32.996  30.366  1.00  0.00     0.058 A 
ATOM     82  C   UNL A   1      36.184  32.813  31.229  1.00  0.00     0.135 A 
ATOM     83  C   UNL A   1      37.103  33.859  29.272  1.00  0.00     0.135 A 
ATOM     84  F   UNL A   1      36.296  31.996  32.287  1.00  0.00    -0.206 F 
ATOM     85  C   UNL A   1      34.963  33.441  31.005  1.00  0.00     0.059 A 
ATOM     86  C   UNL A   1      35.901  34.520  29.042  1.00  0.00     0.059 A 
ATOM     87  F   UNL A   1      38.121  34.084  28.427  1.00  0.00    -0.206 F 
ATOM     88  C   UNL A   1      34.831  34.294  29.909  1.00  0.00     0.060 A 
BRANCH  88  89
ATOM     89  S   UNL A   1      33.254  35.137  29.650  1.00  0.00     0.124 S 
ATOM     90  O   UNL A   1      33.690  36.399  29.066  1.00  0.00    -0.237 OA
ATOM     91  O   UNL A   1      32.562  34.220  28.749  1.00  0.00    -0.237 OA
ATOM     92  O   UNL A   1      32.696  35.222  30.996  1.00  0.00    -0.744 OA
ENDBRANCH  88  89
ENDBRANCH  56  81
BRANCH  68  93
ATOM     93  C   UNL A   1      43.012  34.674  33.966  1.00  0.00     0.058 A 
ATOM     94  C   UNL A   1      42.790  34.780  35.348  1.00  0.00     0.135 A 
ATOM     95  C   UNL A   1      43.670  35.738  33.324  1.00  0.00     0.135 A 
ATOM     96  F   UNL A   1      42.160  33.795  36.008  1.00  0.00    -0.206 F 
ATOM     97  C   UNL A   1      43.185  35.906  36.062  1.00  0.00     0.059 A 
ATOM     98  C   UNL A   1      44.100  36.860  34.024  1.00  0.00     0.059 A 
ATOM     99  F   UNL A   1      43.917  35.682  32.006  1.00  0.00    -0.206 F 
ATOM    100  C   UNL A   1      43.841  36.940  35.392  1.00  0.00     0.060 A 
BRANCH 100 101
ATOM    101  S   UNL A   1      44.379  38.380  36.338  1.00  0.00     0.124 S 
ATOM    102  O   UNL A   1      43.992  39.474  35.454  1.00  0.00    -0.237 OA
ATOM    103  O   UNL A   1      43.604  38.254  37.568  1.00  0.00    -0.237 OA
ATOM    104  O   UNL A   1      45.817  38.173  36.487  1.00  0.00    -0.744 OA
ENDBRANCH 100 101
ENDBRANCH  68  93
ENDBRANCH  42  43
ENDBRANCH  34  37
ENDBRANCH  32  33
ENDBRANCH  31  32
ENDBRANCH  30  31
ENDBRANCH  29  30
ENDBRANCH   1  29
TORSDOF 21
ENDMDL
