MODEL 1
REMARK VINA RESULT:     -12.4      0.000      0.000
REMARK SMILES O=C(NCCCCCCNC(=O)c1ccc(-c2c3nc(c(-c4c(F)cc(S(=O)(=O)[O-])cc4F)c4ccc([nH]4)c(-c4c(F)cc(S(=O)(=O)[O-])cc4F)c4nc(c(-c5c(F)cc(S(=O)(=O)[O-])cc5F)c5ccc2[nH]5)C=C4)C=C3)cc1)C1=Cc2cc(Cl)cc(-c3ccc(O)cc3)c2O[C@@H]1C(F)(F)F
REMARK SMILES IDX 7 1 6 2 5 3 4 4 3 5 1 6 2 7 79 9 80 10 96 11 81 12 95 13
REMARK SMILES IDX 82 14 94 15 83 16 86 17 84 18 85 19 97 20 98 21 99 22 100 23
REMARK SMILES IDX 87 24 88 25 93 26 89 27 92 28 90 29 91 30 8 32 9 33 10 34
REMARK SMILES IDX 11 35 12 37 13 38 14 39 78 40 15 41 77 42 16 43 17 44 18 45
REMARK SMILES IDX 71 46 19 47 76 48 70 49 72 50 20 51 75 52 69 53 68 54 21 56
REMARK SMILES IDX 55 57 34 58 54 59 35 60 38 61 53 62 73 63 36 64 37 65 52 67
REMARK SMILES IDX 74 68 39 69 22 70 23 71 32 72 24 73 25 74 31 75 33 76 26 77
REMARK SMILES IDX 27 78 28 79 29 80 30 81 56 82 57 83 66 84 58 85 59 86 65 87
REMARK SMILES IDX 67 88 60 89 61 90 62 91 63 92 64 93 40 94 41 95 50 96 42 97
REMARK SMILES IDX 43 98 49 99 51 100 44 101 45 102 46 103 47 104 48 105
REMARK H PARENT 3 8 91 31 10 36 72 55 38 66
REMARK Flexibility Score: inf
ROOT
ATOM      1  C   UNL A   1      31.875  28.913  24.817  1.00  0.00     0.002 C 
ENDROOT
BRANCH   1   2
ATOM      2  C   UNL A   1      30.905  27.925  24.163  1.00  0.00     0.002 C 
BRANCH   2   3
ATOM      3  C   UNL A   1      30.512  26.686  24.972  1.00  0.00     0.021 C 
BRANCH   3   4
ATOM      4  C   UNL A   1      31.002  26.607  26.415  1.00  0.00     0.116 C 
BRANCH   4   5
ATOM      5  N   UNL A   1      31.370  25.290  26.904  1.00  0.00    -0.352 N 
ATOM      6  O   UNL A   1      32.547  23.393  27.095  1.00  0.00    -0.270 OA
ATOM      7  C   UNL A   1      32.327  24.421  26.452  1.00  0.00     0.251 C 
ATOM      8  H   UNL A   1      30.853  24.973  27.680  1.00  0.00     0.163 HD
BRANCH   7   9
ATOM      9  C   UNL A   1      33.177  24.679  25.241  1.00  0.00     0.067 C 
ATOM     10  C   UNL A   1      34.493  24.954  25.299  1.00  0.00     0.025 C 
ATOM     11  C   UNL A   1      32.714  23.860  24.050  1.00  0.00     0.314 C 
ATOM     12  C   UNL A   1      35.298  23.729  25.022  1.00  0.00     0.019 A 
ATOM     13  O   UNL A   1      33.376  22.565  24.064  1.00  0.00    -0.475 OA
ATOM     14  C   UNL A   1      36.610  23.696  25.502  1.00  0.00     0.032 A 
ATOM     15  C   UNL A   1      34.661  22.551  24.567  1.00  0.00     0.135 A 
ATOM     16  C   UNL A   1      37.251  22.472  25.629  1.00  0.00     0.042 A 
ATOM     17  C   UNL A   1      35.287  21.307  24.748  1.00  0.00     0.026 A 
ATOM     18  Cl  UNL A   1      38.791  22.398  26.392  1.00  0.00    -0.084 Cl
ATOM     19  C   UNL A   1      36.596  21.291  25.276  1.00  0.00     0.033 A 
BRANCH  11  20
ATOM     20  C   UNL A   1      32.878  24.598  22.707  1.00  0.00     0.429 C 
ATOM     21  F   UNL A   1      33.788  25.597  22.791  1.00  0.00    -0.167 F 
ATOM     22  F   UNL A   1      33.314  23.756  21.735  1.00  0.00    -0.167 F 
ATOM     23  F   UNL A   1      31.724  25.148  22.258  1.00  0.00    -0.167 F 
ENDBRANCH  11  20
BRANCH  17  24
ATOM     24  C   UNL A   1      34.582  20.017  24.650  1.00  0.00    -0.014 A 
ATOM     25  C   UNL A   1      35.326  18.826  24.620  1.00  0.00     0.012 A 
ATOM     26  C   UNL A   1      33.208  19.942  24.402  1.00  0.00     0.012 A 
ATOM     27  C   UNL A   1      34.750  17.617  24.231  1.00  0.00     0.047 A 
ATOM     28  C   UNL A   1      32.614  18.721  24.054  1.00  0.00     0.047 A 
ATOM     29  C   UNL A   1      33.398  17.577  23.936  1.00  0.00     0.115 A 
BRANCH  29  30
ATOM     30  O   UNL A   1      32.874  16.390  23.522  1.00  0.00    -0.508 OA
ATOM     31  H   UNL A   1      32.103  16.378  22.989  1.00  0.00     0.293 HD
ENDBRANCH  29  30
ENDBRANCH  17  24
ENDBRANCH   7   9
ENDBRANCH   4   5
ENDBRANCH   3   4
ENDBRANCH   2   3
ENDBRANCH   1   2
BRANCH   1  32
ATOM     32  C   UNL A   1      33.357  28.540  24.825  1.00  0.00     0.021 C 
BRANCH  32  33
ATOM     33  C   UNL A   1      34.031  28.585  26.189  1.00  0.00     0.116 C 
BRANCH  33  34
ATOM     34  N   UNL A   1      33.785  29.833  26.898  1.00  0.00    -0.352 N 
ATOM     35  C   UNL A   1      34.548  30.502  27.826  1.00  0.00     0.251 C 
ATOM     36  H   UNL A   1      32.931  30.271  26.676  1.00  0.00     0.163 HD
ATOM     37  O   UNL A   1      34.071  31.462  28.419  1.00  0.00    -0.269 OA
BRANCH  35  38
ATOM     38  C   UNL A   1      35.930  30.059  28.128  1.00  0.00     0.039 A 
ATOM     39  C   UNL A   1      36.907  30.159  27.132  1.00  0.00     0.014 A 
ATOM     40  C   UNL A   1      36.265  29.526  29.373  1.00  0.00     0.014 A 
ATOM     41  C   UNL A   1      38.224  29.783  27.409  1.00  0.00     0.010 A 
ATOM     42  C   UNL A   1      37.594  29.257  29.682  1.00  0.00     0.010 A 
ATOM     43  C   UNL A   1      38.587  29.363  28.698  1.00  0.00    -0.014 A 
BRANCH  43  44
ATOM     44  C   UNL A   1      39.988  28.992  29.031  1.00  0.00     0.031 A 
ATOM     45  C   UNL A   1      40.904  30.011  29.662  1.00  0.00     0.074 A 
ATOM     46  C   UNL A   1      40.451  27.766  28.716  1.00  0.00     0.049 A 
ATOM     47  N   UNL A   1      42.176  29.912  29.951  1.00  0.00    -0.248 NA
ATOM     48  C   UNL A   1      40.321  31.327  29.979  1.00  0.00     0.031 C 
ATOM     49  C   UNL A   1      39.680  26.715  28.048  1.00  0.00     0.029 A 
ATOM     50  N   UNL A   1      41.688  27.198  28.903  1.00  0.00    -0.354 N 
ATOM     51  C   UNL A   1      42.544  31.150  30.468  1.00  0.00     0.074 A 
ATOM     52  C   UNL A   1      41.383  32.007  30.384  1.00  0.00     0.031 C 
ATOM     53  C   UNL A   1      40.450  25.625  27.906  1.00  0.00     0.029 A 
ATOM     54  C   UNL A   1      41.782  25.910  28.430  1.00  0.00     0.049 A 
ATOM     55  H   UNL A   1      42.436  27.670  29.335  1.00  0.00     0.167 HD
ATOM     56  C   UNL A   1      43.729  31.530  30.999  1.00  0.00     0.037 A 
ATOM     57  C   UNL A   1      42.828  25.060  28.410  1.00  0.00     0.037 A 
ATOM     58  C   UNL A   1      44.872  30.661  31.108  1.00  0.00     0.049 A 
ATOM     59  C   UNL A   1      44.136  25.501  29.008  1.00  0.00     0.074 A 
ATOM     60  C   UNL A   1      46.107  30.929  31.670  1.00  0.00     0.029 A 
ATOM     61  N   UNL A   1      44.917  29.351  30.648  1.00  0.00    -0.354 N 
ATOM     62  N   UNL A   1      44.448  26.658  29.546  1.00  0.00    -0.248 NA
ATOM     63  C   UNL A   1      45.232  24.525  29.008  1.00  0.00     0.031 C 
ATOM     64  C   UNL A   1      46.914  29.798  31.511  1.00  0.00     0.029 A 
ATOM     65  C   UNL A   1      46.163  28.804  30.901  1.00  0.00     0.049 A 
ATOM     66  H   UNL A   1      44.172  28.882  30.207  1.00  0.00     0.167 HD
ATOM     67  C   UNL A   1      45.766  26.537  29.971  1.00  0.00     0.074 A 
ATOM     68  C   UNL A   1      46.186  25.190  29.645  1.00  0.00     0.031 C 
ATOM     69  C   UNL A   1      46.558  27.456  30.577  1.00  0.00     0.037 A 
BRANCH  56  70
ATOM     70  C   UNL A   1      43.845  32.936  31.524  1.00  0.00     0.058 A 
ATOM     71  C   UNL A   1      44.281  33.992  30.707  1.00  0.00     0.135 A 
ATOM     72  C   UNL A   1      43.480  33.241  32.846  1.00  0.00     0.135 A 
ATOM     73  F   UNL A   1      44.660  33.755  29.441  1.00  0.00    -0.206 F 
ATOM     74  C   UNL A   1      44.377  35.293  31.187  1.00  0.00     0.059 A 
ATOM     75  C   UNL A   1      43.537  34.543  33.337  1.00  0.00     0.059 A 
ATOM     76  F   UNL A   1      43.059  32.272  33.673  1.00  0.00    -0.206 F 
ATOM     77  C   UNL A   1      43.999  35.559  32.504  1.00  0.00     0.060 A 
BRANCH  77  78
ATOM     78  S   UNL A   1      44.113  37.259  33.102  1.00  0.00     0.124 S 
ATOM     79  O   UNL A   1      42.955  37.333  33.989  1.00  0.00    -0.237 OA
ATOM     80  O   UNL A   1      45.416  37.271  33.760  1.00  0.00    -0.237 OA
ATOM     81  O   UNL A   1      44.021  38.057  31.884  1.00  0.00    -0.744 OA
ENDBRANCH  77  78
ENDBRANCH  56  70
BRANCH  57  82
ATOM     82  C   UNL A   1      42.676  23.704  27.812  1.00  0.00     0.058 A 
ATOM     83  C   UNL A   1      42.819  23.497  26.431  1.00  0.00     0.135 A 
ATOM     84  C   UNL A   1      42.387  22.586  28.611  1.00  0.00     0.135 A 
ATOM     85  F   UNL A   1      43.092  24.533  25.622  1.00  0.00    -0.206 F 
ATOM     86  C   UNL A   1      42.657  22.238  25.861  1.00  0.00     0.059 A 
ATOM     87  C   UNL A   1      42.250  21.313  28.068  1.00  0.00     0.059 A 
ATOM     88  F   UNL A   1      42.258  22.724  29.940  1.00  0.00    -0.206 F 
ATOM     89  C   UNL A   1      42.373  21.151  26.689  1.00  0.00     0.060 A 
BRANCH  89  90
ATOM     90  S   UNL A   1      42.199  19.514  25.944  1.00  0.00     0.124 S 
ATOM     91  O   UNL A   1      43.065  19.630  24.776  1.00  0.00    -0.237 OA
ATOM     92  O   UNL A   1      42.676  18.640  27.011  1.00  0.00    -0.237 OA
ATOM     93  O   UNL A   1      40.769  19.425  25.662  1.00  0.00    -0.744 OA
ENDBRANCH  89  90
ENDBRANCH  57  82
BRANCH  69  94
ATOM     94  C   UNL A   1      47.948  27.028  30.962  1.00  0.00     0.058 A 
ATOM     95  C   UNL A   1      48.226  26.457  32.214  1.00  0.00     0.135 A 
ATOM     96  C   UNL A   1      49.004  27.140  30.042  1.00  0.00     0.135 A 
ATOM     97  F   UNL A   1      47.253  26.332  33.130  1.00  0.00    -0.206 F 
ATOM     98  C   UNL A   1      49.508  26.035  32.549  1.00  0.00     0.059 A 
ATOM     99  C   UNL A   1      50.285  26.694  30.345  1.00  0.00     0.059 A 
ATOM    100  F   UNL A   1      48.789  27.668  28.827  1.00  0.00    -0.206 F 
ATOM    101  C   UNL A   1      50.531  26.154  31.606  1.00  0.00     0.060 A 
BRANCH 101 102
ATOM    102  S   UNL A   1      52.180  25.568  32.043  1.00  0.00     0.124 S 
ATOM    103  O   UNL A   1      51.934  24.151  32.287  1.00  0.00    -0.237 OA
ATOM    104  O   UNL A   1      52.949  25.881  30.842  1.00  0.00    -0.237 OA
ATOM    105  O   UNL A   1      52.522  26.358  33.222  1.00  0.00    -0.744 OA
ENDBRANCH 101 102
ENDBRANCH  69  94
ENDBRANCH  43  44
ENDBRANCH  35  38
ENDBRANCH  33  34
ENDBRANCH  32  33
ENDBRANCH   1  32
TORSDOF 19
ENDMDL
MODEL 2
REMARK VINA RESULT:     -12.3      2.734      3.483
REMARK SMILES O=C(NCCCCCCNC(=O)c1ccc(-c2c3nc(c(-c4c(F)cc(S(=O)(=O)[O-])cc4F)c4ccc([nH]4)c(-c4c(F)cc(S(=O)(=O)[O-])cc4F)c4nc(c(-c5c(F)cc(S(=O)(=O)[O-])cc5F)c5ccc2[nH]5)C=C4)C=C3)cc1)C1=Cc2cc(Cl)cc(-c3ccc(O)cc3)c2O[C@@H]1C(F)(F)F
REMARK SMILES IDX 7 1 6 2 5 3 4 4 3 5 1 6 2 7 79 9 80 10 96 11 81 12 95 13
REMARK SMILES IDX 82 14 94 15 83 16 86 17 84 18 85 19 97 20 98 21 99 22 100 23
REMARK SMILES IDX 87 24 88 25 93 26 89 27 92 28 90 29 91 30 8 32 9 33 10 34
REMARK SMILES IDX 11 35 12 37 13 38 14 39 78 40 15 41 77 42 16 43 17 44 18 45
REMARK SMILES IDX 71 46 19 47 76 48 70 49 72 50 20 51 75 52 69 53 68 54 21 56
REMARK SMILES IDX 55 57 34 58 54 59 35 60 38 61 53 62 73 63 36 64 37 65 52 67
REMARK SMILES IDX 74 68 39 69 22 70 23 71 32 72 24 73 25 74 31 75 33 76 26 77
REMARK SMILES IDX 27 78 28 79 29 80 30 81 56 82 57 83 66 84 58 85 59 86 65 87
REMARK SMILES IDX 67 88 60 89 61 90 62 91 63 92 64 93 40 94 41 95 50 96 42 97
REMARK SMILES IDX 43 98 49 99 51 100 44 101 45 102 46 103 47 104 48 105
REMARK H PARENT 3 8 91 31 10 36 72 55 38 66
REMARK Flexibility Score: inf
ROOT
ATOM      1  C   UNL A   1      33.709  28.957  26.030  1.00  0.00     0.002 C 
ENDROOT
BRANCH   1   2
ATOM      2  C   UNL A   1      33.165  27.618  26.534  1.00  0.00     0.002 C 
BRANCH   2   3
ATOM      3  C   UNL A   1      31.644  27.467  26.625  1.00  0.00     0.021 C 
BRANCH   3   4
ATOM      4  C   UNL A   1      31.040  26.151  26.142  1.00  0.00     0.116 C 
BRANCH   4   5
ATOM      5  N   UNL A   1      31.533  24.940  26.776  1.00  0.00    -0.352 N 
ATOM      6  O   UNL A   1      32.879  23.191  27.161  1.00  0.00    -0.270 OA
ATOM      7  C   UNL A   1      32.555  24.109  26.405  1.00  0.00     0.251 C 
ATOM      8  H   UNL A   1      31.061  24.679  27.599  1.00  0.00     0.163 HD
BRANCH   7   9
ATOM      9  C   UNL A   1      33.357  24.288  25.148  1.00  0.00     0.067 C 
ATOM     10  C   UNL A   1      34.680  24.535  25.136  1.00  0.00     0.025 C 
ATOM     11  C   UNL A   1      32.825  23.424  24.019  1.00  0.00     0.314 C 
ATOM     12  C   UNL A   1      35.446  23.279  24.885  1.00  0.00     0.019 A 
ATOM     13  O   UNL A   1      33.460  22.116  24.069  1.00  0.00    -0.475 OA
ATOM     14  C   UNL A   1      36.777  23.240  25.310  1.00  0.00     0.032 A 
ATOM     15  C   UNL A   1      34.766  22.096  24.517  1.00  0.00     0.135 A 
ATOM     16  C   UNL A   1      37.397  22.008  25.470  1.00  0.00     0.042 A 
ATOM     17  C   UNL A   1      35.372  20.848  24.732  1.00  0.00     0.026 A 
ATOM     18  Cl  UNL A   1      38.967  21.936  26.169  1.00  0.00    -0.084 Cl
ATOM     19  C   UNL A   1      36.702  20.828  25.204  1.00  0.00     0.033 A 
BRANCH  11  20
ATOM     20  C   UNL A   1      32.946  24.092  22.636  1.00  0.00     0.429 C 
ATOM     21  F   UNL A   1      33.308  23.204  21.679  1.00  0.00    -0.167 F 
ATOM     22  F   UNL A   1      31.759  24.624  22.243  1.00  0.00    -0.167 F 
ATOM     23  F   UNL A   1      33.852  25.098  22.608  1.00  0.00    -0.167 F 
ENDBRANCH  11  20
BRANCH  17  24
ATOM     24  C   UNL A   1      34.637  19.572  24.728  1.00  0.00    -0.014 A 
ATOM     25  C   UNL A   1      33.308  19.541  25.186  1.00  0.00     0.012 A 
ATOM     26  C   UNL A   1      35.268  18.354  24.455  1.00  0.00     0.012 A 
ATOM     27  C   UNL A   1      32.669  18.338  25.487  1.00  0.00     0.047 A 
ATOM     28  C   UNL A   1      34.615  17.141  24.712  1.00  0.00     0.047 A 
ATOM     29  C   UNL A   1      33.335  17.146  25.261  1.00  0.00     0.115 A 
BRANCH  29  30
ATOM     30  O   UNL A   1      32.699  15.990  25.601  1.00  0.00    -0.508 OA
ATOM     31  H   UNL A   1      33.107  15.163  25.434  1.00  0.00     0.293 HD
ENDBRANCH  29  30
ENDBRANCH  17  24
ENDBRANCH   7   9
ENDBRANCH   4   5
ENDBRANCH   3   4
ENDBRANCH   2   3
ENDBRANCH   1   2
BRANCH   1  32
ATOM     32  C   UNL A   1      34.157  29.972  27.082  1.00  0.00     0.021 C 
BRANCH  32  33
ATOM     33  C   UNL A   1      35.301  29.515  27.979  1.00  0.00     0.116 C 
BRANCH  33  34
ATOM     34  N   UNL A   1      35.339  30.225  29.249  1.00  0.00    -0.352 N 
ATOM     35  C   UNL A   1      36.384  30.464  30.111  1.00  0.00     0.251 C 
ATOM     36  H   UNL A   1      34.474  30.596  29.539  1.00  0.00     0.163 HD
ATOM     37  O   UNL A   1      36.157  30.948  31.213  1.00  0.00    -0.269 OA
BRANCH  35  38
ATOM     38  C   UNL A   1      37.774  30.122  29.725  1.00  0.00     0.039 A 
ATOM     39  C   UNL A   1      38.693  29.790  30.726  1.00  0.00     0.014 A 
ATOM     40  C   UNL A   1      38.182  30.145  28.391  1.00  0.00     0.014 A 
ATOM     41  C   UNL A   1      39.997  29.426  30.379  1.00  0.00     0.010 A 
ATOM     42  C   UNL A   1      39.444  29.677  28.040  1.00  0.00     0.010 A 
ATOM     43  C   UNL A   1      40.374  29.330  29.030  1.00  0.00    -0.014 A 
BRANCH  43  44
ATOM     44  C   UNL A   1      41.743  28.910  28.632  1.00  0.00     0.031 A 
ATOM     45  C   UNL A   1      42.845  29.935  28.539  1.00  0.00     0.074 A 
ATOM     46  C   UNL A   1      41.982  27.625  28.301  1.00  0.00     0.049 A 
ATOM     47  N   UNL A   1      44.080  29.787  28.133  1.00  0.00    -0.248 NA
ATOM     48  C   UNL A   1      42.506  31.317  28.921  1.00  0.00     0.031 C 
ATOM     49  C   UNL A   1      40.983  26.553  28.292  1.00  0.00     0.029 A 
ATOM     50  N   UNL A   1      43.136  27.002  27.895  1.00  0.00    -0.354 N 
ATOM     51  C   UNL A   1      44.655  31.052  28.198  1.00  0.00     0.074 A 
ATOM     52  C   UNL A   1      43.616  31.968  28.611  1.00  0.00     0.031 C 
ATOM     53  C   UNL A   1      41.572  25.404  27.927  1.00  0.00     0.029 A 
ATOM     54  C   UNL A   1      42.978  25.661  27.632  1.00  0.00     0.049 A 
ATOM     55  H   UNL A   1      43.996  27.472  27.800  1.00  0.00     0.167 HD
ATOM     56  C   UNL A   1      45.939  31.413  27.973  1.00  0.00     0.037 A 
ATOM     57  C   UNL A   1      43.864  24.746  27.191  1.00  0.00     0.037 A 
ATOM     58  C   UNL A   1      46.976  30.489  27.592  1.00  0.00     0.049 A 
ATOM     59  C   UNL A   1      45.287  25.169  26.948  1.00  0.00     0.074 A 
ATOM     60  C   UNL A   1      48.319  30.741  27.382  1.00  0.00     0.029 A 
ATOM     61  N   UNL A   1      46.783  29.132  27.370  1.00  0.00    -0.354 N 
ATOM     62  N   UNL A   1      45.826  26.360  27.072  1.00  0.00    -0.248 NA
ATOM     63  C   UNL A   1      46.228  24.127  26.516  1.00  0.00     0.031 C 
ATOM     64  C   UNL A   1      48.931  29.547  26.989  1.00  0.00     0.029 A 
ATOM     65  C   UNL A   1      47.980  28.537  27.010  1.00  0.00     0.049 A 
ATOM     66  H   UNL A   1      45.921  28.663  27.454  1.00  0.00     0.167 HD
ATOM     67  C   UNL A   1      47.172  26.203  26.760  1.00  0.00     0.074 A 
ATOM     68  C   UNL A   1      47.368  24.801  26.458  1.00  0.00     0.031 C 
ATOM     69  C   UNL A   1      48.156  27.135  26.724  1.00  0.00     0.037 A 
BRANCH  56  70
ATOM     70  C   UNL A   1      46.302  32.863  28.153  1.00  0.00     0.058 A 
ATOM     71  C   UNL A   1      46.206  33.782  27.094  1.00  0.00     0.135 A 
ATOM     72  C   UNL A   1      46.713  33.351  29.404  1.00  0.00     0.135 A 
ATOM     73  F   UNL A   1      45.837  33.368  25.871  1.00  0.00    -0.206 F 
ATOM     74  C   UNL A   1      46.530  35.123  27.262  1.00  0.00     0.059 A 
ATOM     75  C   UNL A   1      47.010  34.697  29.602  1.00  0.00     0.059 A 
ATOM     76  F   UNL A   1      46.826  32.519  30.451  1.00  0.00    -0.206 F 
ATOM     77  C   UNL A   1      46.928  35.572  28.522  1.00  0.00     0.060 A 
BRANCH  77  78
ATOM     78  S   UNL A   1      47.325  37.322  28.724  1.00  0.00     0.124 S 
ATOM     79  O   UNL A   1      47.255  37.471  30.174  1.00  0.00    -0.237 OA
ATOM     80  O   UNL A   1      48.661  37.407  28.142  1.00  0.00    -0.237 OA
ATOM     81  O   UNL A   1      46.273  37.999  27.973  1.00  0.00    -0.744 OA
ENDBRANCH  77  78
ENDBRANCH  56  70
BRANCH  57  82
ATOM     82  C   UNL A   1      43.431  23.339  26.961  1.00  0.00     0.058 A 
ATOM     83  C   UNL A   1      43.219  22.458  28.034  1.00  0.00     0.135 A 
ATOM     84  C   UNL A   1      43.219  22.847  25.664  1.00  0.00     0.135 A 
ATOM     85  F   UNL A   1      43.412  22.878  29.294  1.00  0.00    -0.206 F 
ATOM     86  C   UNL A   1      42.837  21.137  27.829  1.00  0.00     0.059 A 
ATOM     87  C   UNL A   1      42.808  21.538  25.435  1.00  0.00     0.059 A 
ATOM     88  F   UNL A   1      43.389  23.651  24.603  1.00  0.00    -0.206 F 
ATOM     89  C   UNL A   1      42.633  20.685  26.524  1.00  0.00     0.060 A 
BRANCH  89  90
ATOM     90  S   UNL A   1      42.103  18.977  26.269  1.00  0.00     0.124 S 
ATOM     91  O   UNL A   1      42.242  18.423  27.611  1.00  0.00    -0.237 OA
ATOM     92  O   UNL A   1      40.736  19.150  25.786  1.00  0.00    -0.237 OA
ATOM     93  O   UNL A   1      43.051  18.476  25.278  1.00  0.00    -0.744 OA
ENDBRANCH  89  90
ENDBRANCH  57  82
BRANCH  69  94
ATOM     94  C   UNL A   1      49.544  26.666  26.385  1.00  0.00     0.058 A 
ATOM     95  C   UNL A   1      50.344  25.986  27.316  1.00  0.00     0.135 A 
ATOM     96  C   UNL A   1      50.057  26.849  25.089  1.00  0.00     0.135 A 
ATOM     97  F   UNL A   1      49.904  25.789  28.568  1.00  0.00    -0.206 F 
ATOM     98  C   UNL A   1      51.614  25.526  26.983  1.00  0.00     0.059 A 
ATOM     99  C   UNL A   1      51.309  26.369  24.725  1.00  0.00     0.059 A 
ATOM    100  F   UNL A   1      49.327  27.482  24.157  1.00  0.00    -0.206 F 
ATOM    101  C   UNL A   1      52.087  25.720  25.683  1.00  0.00     0.060 A 
BRANCH 101 102
ATOM    102  S   UNL A   1      53.721  25.086  25.256  1.00  0.00     0.124 S 
ATOM    103  O   UNL A   1      53.539  23.651  25.447  1.00  0.00    -0.237 OA
ATOM    104  O   UNL A   1      53.873  25.527  23.872  1.00  0.00    -0.237 OA
ATOM    105  O   UNL A   1      54.603  25.742  26.217  1.00  0.00    -0.744 OA
ENDBRANCH 101 102
ENDBRANCH  69  94
ENDBRANCH  43  44
ENDBRANCH  35  38
ENDBRANCH  33  34
ENDBRANCH  32  33
ENDBRANCH   1  32
TORSDOF 19
ENDMDL
MODEL 3
REMARK VINA RESULT:     -12.2      4.836     10.559
REMARK SMILES O=C(NCCCCCCNC(=O)c1ccc(-c2c3nc(c(-c4c(F)cc(S(=O)(=O)[O-])cc4F)c4ccc([nH]4)c(-c4c(F)cc(S(=O)(=O)[O-])cc4F)c4nc(c(-c5c(F)cc(S(=O)(=O)[O-])cc5F)c5ccc2[nH]5)C=C4)C=C3)cc1)C1=Cc2cc(Cl)cc(-c3ccc(O)cc3)c2O[C@@H]1C(F)(F)F
REMARK SMILES IDX 7 1 6 2 5 3 4 4 3 5 1 6 2 7 79 9 80 10 96 11 81 12 95 13
REMARK SMILES IDX 82 14 94 15 83 16 86 17 84 18 85 19 97 20 98 21 99 22 100 23
REMARK SMILES IDX 87 24 88 25 93 26 89 27 92 28 90 29 91 30 8 32 9 33 10 34
REMARK SMILES IDX 11 35 12 37 13 38 14 39 78 40 15 41 77 42 16 43 17 44 18 45
REMARK SMILES IDX 71 46 19 47 76 48 70 49 72 50 20 51 75 52 69 53 68 54 21 56
REMARK SMILES IDX 55 57 34 58 54 59 35 60 38 61 53 62 73 63 36 64 37 65 52 67
REMARK SMILES IDX 74 68 39 69 22 70 23 71 32 72 24 73 25 74 31 75 33 76 26 77
REMARK SMILES IDX 27 78 28 79 29 80 30 81 56 82 57 83 66 84 58 85 59 86 65 87
REMARK SMILES IDX 67 88 60 89 61 90 62 91 63 92 64 93 40 94 41 95 50 96 42 97
REMARK SMILES IDX 43 98 49 99 51 100 44 101 45 102 46 103 47 104 48 105
REMARK H PARENT 3 8 91 31 10 36 72 55 38 66
REMARK Flexibility Score: inf
ROOT
ATOM      1  C   UNL A   1      36.719  23.685  24.992  1.00  0.00     0.002 C 
ENDROOT
BRANCH   1   2
ATOM      2  C   UNL A   1      36.215  22.877  23.793  1.00  0.00     0.002 C 
BRANCH   2   3
ATOM      3  C   UNL A   1      34.867  22.165  23.942  1.00  0.00     0.021 C 
BRANCH   3   4
ATOM      4  C   UNL A   1      33.657  22.809  23.270  1.00  0.00     0.116 C 
BRANCH   4   5
ATOM      5  N   UNL A   1      33.819  24.180  22.817  1.00  0.00    -0.352 N 
ATOM      6  O   UNL A   1      33.874  26.416  22.927  1.00  0.00    -0.270 OA
ATOM      7  C   UNL A   1      33.549  25.356  23.463  1.00  0.00     0.251 C 
ATOM      8  H   UNL A   1      34.180  24.277  21.906  1.00  0.00     0.163 HD
BRANCH   7   9
ATOM      9  C   UNL A   1      32.932  25.429  24.830  1.00  0.00     0.067 C 
ATOM     10  C   UNL A   1      33.493  26.075  25.869  1.00  0.00     0.025 C 
ATOM     11  C   UNL A   1      31.416  25.469  24.756  1.00  0.00     0.314 C 
ATOM     12  C   UNL A   1      32.886  27.427  26.036  1.00  0.00     0.019 A 
ATOM     13  O   UNL A   1      30.971  26.849  24.636  1.00  0.00    -0.475 OA
ATOM     14  C   UNL A   1      33.639  28.394  26.709  1.00  0.00     0.032 A 
ATOM     15  C   UNL A   1      31.744  27.790  25.285  1.00  0.00     0.135 A 
ATOM     16  C   UNL A   1      33.316  29.734  26.546  1.00  0.00     0.042 A 
ATOM     17  C   UNL A   1      31.452  29.147  25.074  1.00  0.00     0.026 A 
ATOM     18  Cl  UNL A   1      34.345  30.939  27.215  1.00  0.00    -0.084 Cl
ATOM     19  C   UNL A   1      32.251  30.109  25.727  1.00  0.00     0.033 A 
BRANCH  11  20
ATOM     20  C   UNL A   1      30.732  24.722  25.918  1.00  0.00     0.429 C 
ATOM     21  F   UNL A   1      29.651  25.395  26.379  1.00  0.00    -0.167 F 
ATOM     22  F   UNL A   1      30.291  23.500  25.523  1.00  0.00    -0.167 F 
ATOM     23  F   UNL A   1      31.555  24.517  26.974  1.00  0.00    -0.167 F 
ENDBRANCH  11  20
BRANCH  17  24
ATOM     24  C   UNL A   1      30.526  29.629  24.035  1.00  0.00    -0.014 A 
ATOM     25  C   UNL A   1      30.710  29.217  22.704  1.00  0.00     0.012 A 
ATOM     26  C   UNL A   1      29.580  30.626  24.291  1.00  0.00     0.012 A 
ATOM     27  C   UNL A   1      30.068  29.862  21.646  1.00  0.00     0.047 A 
ATOM     28  C   UNL A   1      28.898  31.248  23.235  1.00  0.00     0.047 A 
ATOM     29  C   UNL A   1      29.177  30.885  21.921  1.00  0.00     0.115 A 
BRANCH  29  30
ATOM     30  O   UNL A   1      28.596  31.520  20.865  1.00  0.00    -0.508 OA
ATOM     31  H   UNL A   1      29.122  32.019  20.272  1.00  0.00     0.293 HD
ENDBRANCH  29  30
ENDBRANCH  17  24
ENDBRANCH   7   9
ENDBRANCH   4   5
ENDBRANCH   3   4
ENDBRANCH   2   3
ENDBRANCH   1   2
BRANCH   1  32
ATOM     32  C   UNL A   1      37.809  23.051  25.855  1.00  0.00     0.021 C 
BRANCH  32  33
ATOM     33  C   UNL A   1      38.697  24.035  26.605  1.00  0.00     0.116 C 
BRANCH  33  34
ATOM     34  N   UNL A   1      40.061  24.066  26.095  1.00  0.00    -0.352 N 
ATOM     35  C   UNL A   1      41.118  24.887  26.413  1.00  0.00     0.251 C 
ATOM     36  H   UNL A   1      40.259  23.387  25.410  1.00  0.00     0.163 HD
ATOM     37  O   UNL A   1      42.139  24.841  25.738  1.00  0.00    -0.269 OA
BRANCH  35  38
ATOM     38  C   UNL A   1      41.021  25.836  27.547  1.00  0.00     0.039 A 
ATOM     39  C   UNL A   1      41.953  26.875  27.643  1.00  0.00     0.014 A 
ATOM     40  C   UNL A   1      40.036  25.699  28.526  1.00  0.00     0.014 A 
ATOM     41  C   UNL A   1      41.855  27.803  28.682  1.00  0.00     0.010 A 
ATOM     42  C   UNL A   1      39.873  26.684  29.494  1.00  0.00     0.010 A 
ATOM     43  C   UNL A   1      40.792  27.737  29.597  1.00  0.00    -0.014 A 
BRANCH  43  44
ATOM     44  C   UNL A   1      40.642  28.734  30.691  1.00  0.00     0.031 A 
ATOM     45  C   UNL A   1      41.500  28.624  31.927  1.00  0.00     0.074 A 
ATOM     46  C   UNL A   1      39.704  29.696  30.599  1.00  0.00     0.049 A 
ATOM     47  N   UNL A   1      41.466  29.339  33.022  1.00  0.00    -0.248 NA
ATOM     48  C   UNL A   1      42.505  27.548  31.950  1.00  0.00     0.031 C 
ATOM     49  C   UNL A   1      38.772  29.868  29.481  1.00  0.00     0.029 A 
ATOM     50  N   UNL A   1      39.366  30.706  31.466  1.00  0.00    -0.354 N 
ATOM     51  C   UNL A   1      42.430  28.792  33.862  1.00  0.00     0.074 A 
ATOM     52  C   UNL A   1      42.980  27.641  33.182  1.00  0.00     0.031 C 
ATOM     53  C   UNL A   1      37.990  30.932  29.717  1.00  0.00     0.029 A 
ATOM     54  C   UNL A   1      38.329  31.494  31.021  1.00  0.00     0.049 A 
ATOM     55  H   UNL A   1      39.822  30.853  32.326  1.00  0.00     0.167 HD
ATOM     56  C   UNL A   1      42.848  29.228  35.073  1.00  0.00     0.037 A 
ATOM     57  C   UNL A   1      37.714  32.542  31.603  1.00  0.00     0.037 A 
ATOM     58  C   UNL A   1      42.317  30.394  35.730  1.00  0.00     0.049 A 
ATOM     59  C   UNL A   1      38.197  33.013  32.949  1.00  0.00     0.074 A 
ATOM     60  C   UNL A   1      42.699  30.951  36.937  1.00  0.00     0.029 A 
ATOM     61  N   UNL A   1      41.291  31.185  35.230  1.00  0.00    -0.354 N 
ATOM     62  N   UNL A   1      39.150  32.517  33.703  1.00  0.00    -0.248 NA
ATOM     63  C   UNL A   1      37.529  34.188  33.523  1.00  0.00     0.031 C 
ATOM     64  C   UNL A   1      41.876  32.052  37.190  1.00  0.00     0.029 A 
ATOM     65  C   UNL A   1      41.018  32.217  36.112  1.00  0.00     0.049 A 
ATOM     66  H   UNL A   1      40.827  31.035  34.375  1.00  0.00     0.167 HD
ATOM     67  C   UNL A   1      39.215  33.335  34.824  1.00  0.00     0.074 A 
ATOM     68  C   UNL A   1      38.216  34.368  34.643  1.00  0.00     0.031 C 
ATOM     69  C   UNL A   1      40.026  33.242  35.907  1.00  0.00     0.037 A 
BRANCH  56  70
ATOM     70  C   UNL A   1      43.946  28.458  35.756  1.00  0.00     0.058 A 
ATOM     71  C   UNL A   1      43.663  27.405  36.643  1.00  0.00     0.135 A 
ATOM     72  C   UNL A   1      45.296  28.746  35.494  1.00  0.00     0.135 A 
ATOM     73  F   UNL A   1      42.392  27.097  36.944  1.00  0.00    -0.206 F 
ATOM     74  C   UNL A   1      44.677  26.685  37.265  1.00  0.00     0.059 A 
ATOM     75  C   UNL A   1      46.326  28.015  36.082  1.00  0.00     0.059 A 
ATOM     76  F   UNL A   1      45.625  29.742  34.659  1.00  0.00    -0.206 F 
ATOM     77  C   UNL A   1      46.006  26.996  36.975  1.00  0.00     0.060 A 
BRANCH  77  78
ATOM     78  S   UNL A   1      47.307  26.035  37.779  1.00  0.00     0.124 S 
ATOM     79  O   UNL A   1      46.854  26.036  39.167  1.00  0.00    -0.237 OA
ATOM     80  O   UNL A   1      47.221  24.754  37.085  1.00  0.00    -0.237 OA
ATOM     81  O   UNL A   1      48.515  26.809  37.513  1.00  0.00    -0.744 OA
ENDBRANCH  77  78
ENDBRANCH  56  70
BRANCH  57  82
ATOM     82  C   UNL A   1      36.585  33.223  30.912  1.00  0.00     0.058 A 
ATOM     83  C   UNL A   1      35.261  33.066  31.353  1.00  0.00     0.135 A 
ATOM     84  C   UNL A   1      36.806  34.048  29.797  1.00  0.00     0.135 A 
ATOM     85  F   UNL A   1      34.995  32.286  32.412  1.00  0.00    -0.206 F 
ATOM     86  C   UNL A   1      34.197  33.681  30.700  1.00  0.00     0.059 A 
ATOM     87  C   UNL A   1      35.762  34.696  29.146  1.00  0.00     0.059 A 
ATOM     88  F   UNL A   1      38.053  34.247  29.345  1.00  0.00    -0.206 F 
ATOM     89  C   UNL A   1      34.457  34.495  29.597  1.00  0.00     0.060 A 
BRANCH  89  90
ATOM     90  S   UNL A   1      33.073  35.316  28.777  1.00  0.00     0.124 S 
ATOM     91  O   UNL A   1      32.301  35.798  29.917  1.00  0.00    -0.237 OA
ATOM     92  O   UNL A   1      33.749  36.338  27.984  1.00  0.00    -0.237 OA
ATOM     93  O   UNL A   1      32.455  34.242  28.005  1.00  0.00    -0.744 OA
ENDBRANCH  89  90
ENDBRANCH  57  82
BRANCH  69  94
ATOM     94  C   UNL A   1      39.897  34.304  36.964  1.00  0.00     0.058 A 
ATOM     95  C   UNL A   1      40.557  35.538  36.857  1.00  0.00     0.135 A 
ATOM     96  C   UNL A   1      39.054  34.104  38.070  1.00  0.00     0.135 A 
ATOM     97  F   UNL A   1      41.377  35.779  35.823  1.00  0.00    -0.206 F 
ATOM     98  C   UNL A   1      40.406  36.527  37.824  1.00  0.00     0.059 A 
ATOM     99  C   UNL A   1      38.862  35.091  39.030  1.00  0.00     0.059 A 
ATOM    100  F   UNL A   1      38.389  32.947  38.213  1.00  0.00    -0.206 F 
ATOM    101  C   UNL A   1      39.553  36.296  38.905  1.00  0.00     0.060 A 
BRANCH 101 102
ATOM    102  S   UNL A   1      39.339  37.602  40.132  1.00  0.00     0.124 S 
ATOM    103  O   UNL A   1      39.024  36.831  41.330  1.00  0.00    -0.237 OA
ATOM    104  O   UNL A   1      40.645  38.254  40.122  1.00  0.00    -0.237 OA
ATOM    105  O   UNL A   1      38.243  38.400  39.592  1.00  0.00    -0.744 OA
ENDBRANCH 101 102
ENDBRANCH  69  94
ENDBRANCH  43  44
ENDBRANCH  35  38
ENDBRANCH  33  34
ENDBRANCH  32  33
ENDBRANCH   1  32
TORSDOF 19
ENDMDL
