MODEL 1
REMARK VINA RESULT:     -14.2      0.000      0.000
REMARK SMILES Cc1ccc(-c2nn(-c3ccccc3)cc2[C@@H]2[NH2+][C@H](C(=O)NCCCCCCNC(=O)c3ccc(-c4c5nc(c(-c6c(F)cc(S(=O)(=O)[O-])cc6F)c6ccc([nH]6)c(-c6c(F)cc(S(=O)(=O)[O-])cc6F)c6nc(c(-c7c(F)cc(S(=O)(=O)[O-])cc7F)c7ccc4[nH]7)C=C6)C=C5)cc3)CS2)cc1
REMARK SMILES IDX 26 1 25 2 24 3 23 4 22 5 20 6 21 7 19 9 17 10 18 11 99 12
REMARK SMILES IDX 98 15 16 16 6 17 7 18 8 19 15 20 5 21 1 22 2 23 3 24 101 25
REMARK SMILES IDX 4 26 100 27 9 28 10 29 14 30 11 31 13 32 12 33 27 34 28 35
REMARK SMILES IDX 29 36 30 37 31 39 32 40 33 41 97 42 34 43 96 44 35 45 36 46
REMARK SMILES IDX 37 47 90 48 38 49 95 50 89 51 91 52 39 53 94 54 88 55 87 56
REMARK SMILES IDX 40 58 74 59 53 60 73 61 54 62 57 63 72 64 92 65 55 66 56 67
REMARK SMILES IDX 71 69 93 70 58 71 41 72 42 73 51 74 43 75 44 76 50 77 52 78
REMARK SMILES IDX 45 79 46 80 47 81 48 82 49 83 75 84 76 85 85 86 77 87 78 88
REMARK SMILES IDX 84 89 86 90 79 91 80 92 81 93 82 94 83 95 59 96 60 97 69 98
REMARK SMILES IDX 61 99 62 100 68 101 70 102 63 103 64 104 65 105 66 106
REMARK SMILES IDX 67 107
REMARK H PARENT 22 8 18 13 18 14 29 38 91 57 57 68
REMARK Flexibility Score: inf
ROOT
ATOM      1  C   UNL A   1      32.374  29.171  25.594  1.00  0.00     0.002 C 
ENDROOT
BRANCH   1   2
ATOM      2  C   UNL A   1      33.126  28.611  24.376  1.00  0.00     0.002 C 
BRANCH   2   3
ATOM      3  C   UNL A   1      32.669  27.410  23.496  1.00  0.00     0.021 C 
BRANCH   3   4
ATOM      4  C   UNL A   1      33.362  26.974  22.204  1.00  0.00     0.116 C 
BRANCH   4   5
ATOM      5  N   UNL A   1      33.586  25.541  22.025  1.00  0.00    -0.351 N 
ATOM      6  C   UNL A   1      34.008  24.557  22.877  1.00  0.00     0.279 C 
ATOM      7  O   UNL A   1      33.851  23.395  22.461  1.00  0.00    -0.268 OA
ATOM      8  H   UNL A   1      33.398  25.221  21.114  1.00  0.00     0.163 HD
BRANCH   6   9
ATOM      9  C   UNL A   1      34.689  24.714  24.267  1.00  0.00     0.283 C 
ATOM     10  C   UNL A   1      34.117  23.638  26.364  1.00  0.00     0.278 C 
ATOM     11  N   UNL A   1      33.811  24.749  25.458  1.00  0.00    -0.320 N 
ATOM     12  S   UNL A   1      35.891  23.345  26.200  1.00  0.00    -0.087 SA
ATOM     13  H   UNL A   1      33.951  25.630  25.951  1.00  0.00     0.348 HD
ATOM     14  H   UNL A   1      32.842  24.662  25.151  1.00  0.00     0.348 HD
ATOM     15  C   UNL A   1      35.859  23.736  24.434  1.00  0.00     0.151 C 
BRANCH  10  16
ATOM     16  C   UNL A   1      33.264  22.473  25.983  1.00  0.00     0.067 A 
ATOM     17  C   UNL A   1      31.941  22.482  25.404  1.00  0.00     0.103 A 
ATOM     18  N   UNL A   1      31.508  21.213  25.213  1.00  0.00    -0.167 NA
ATOM     19  N   UNL A   1      32.595  20.436  25.442  1.00  0.00    -0.240 N 
ATOM     20  C   UNL A   1      33.596  21.134  26.043  1.00  0.00     0.126 A 
BRANCH  17  21
ATOM     21  C   UNL A   1      31.120  23.659  25.013  1.00  0.00     0.003 A 
ATOM     22  C   UNL A   1      28.869  27.190  23.820  1.00  0.00     0.044 C 
ATOM     23  C   UNL A   1      29.625  25.966  24.251  1.00  0.00    -0.051 A 
ATOM     24  C   UNL A   1      30.021  25.034  23.297  1.00  0.00     0.004 A 
ATOM     25  C   UNL A   1      29.934  25.714  25.593  1.00  0.00     0.004 A 
ATOM     26  C   UNL A   1      30.757  23.905  23.677  1.00  0.00     0.011 A 
ATOM     27  C   UNL A   1      30.665  24.572  25.970  1.00  0.00     0.011 A 
ENDBRANCH  17  21
BRANCH  19  28
ATOM     28  C   UNL A   1      32.758  19.130  24.919  1.00  0.00     0.065 A 
ATOM     29  C   UNL A   1      32.812  18.036  25.802  1.00  0.00     0.028 A 
ATOM     30  C   UNL A   1      32.845  18.928  23.545  1.00  0.00     0.028 A 
ATOM     31  C   UNL A   1      33.060  16.752  25.315  1.00  0.00     0.002 A 
ATOM     32  C   UNL A   1      33.001  17.624  23.061  1.00  0.00     0.002 A 
ATOM     33  C   UNL A   1      33.142  16.546  23.942  1.00  0.00     0.000 A 
ENDBRANCH  19  28
ENDBRANCH  10  16
ENDBRANCH   6   9
ENDBRANCH   4   5
ENDBRANCH   3   4
ENDBRANCH   2   3
ENDBRANCH   1   2
BRANCH   1  34
ATOM     34  C   UNL A   1      33.026  30.294  26.409  1.00  0.00     0.021 C 
BRANCH  34  35
ATOM     35  C   UNL A   1      34.205  29.932  27.318  1.00  0.00     0.116 C 
BRANCH  35  36
ATOM     36  N   UNL A   1      35.069  31.070  27.678  1.00  0.00    -0.352 N 
ATOM     37  C   UNL A   1      36.360  31.034  28.206  1.00  0.00     0.251 C 
ATOM     38  H   UNL A   1      34.688  31.966  27.529  1.00  0.00     0.163 HD
ATOM     39  O   UNL A   1      36.961  32.006  28.599  1.00  0.00    -0.269 OA
BRANCH  37  40
ATOM     40  C   UNL A   1      37.011  29.706  28.182  1.00  0.00     0.039 A 
ATOM     41  C   UNL A   1      37.153  29.072  29.423  1.00  0.00     0.014 A 
ATOM     42  C   UNL A   1      37.835  29.413  27.102  1.00  0.00     0.014 A 
ATOM     43  C   UNL A   1      38.301  28.329  29.666  1.00  0.00     0.010 A 
ATOM     44  C   UNL A   1      39.008  28.732  27.369  1.00  0.00     0.010 A 
ATOM     45  C   UNL A   1      39.273  28.267  28.671  1.00  0.00    -0.014 A 
BRANCH  45  46
ATOM     46  C   UNL A   1      40.642  27.827  28.909  1.00  0.00     0.031 A 
ATOM     47  C   UNL A   1      41.019  26.438  28.578  1.00  0.00     0.074 A 
ATOM     48  C   UNL A   1      41.584  28.684  29.364  1.00  0.00     0.049 A 
ATOM     49  N   UNL A   1      42.134  25.887  28.916  1.00  0.00    -0.248 NA
ATOM     50  C   UNL A   1      40.100  25.516  27.915  1.00  0.00     0.031 C 
ATOM     51  C   UNL A   1      43.033  28.516  29.289  1.00  0.00     0.029 A 
ATOM     52  N   UNL A   1      41.412  29.792  30.190  1.00  0.00    -0.354 N 
ATOM     53  C   UNL A   1      42.201  24.661  28.300  1.00  0.00     0.074 A 
ATOM     54  C   UNL A   1      40.865  24.426  27.814  1.00  0.00     0.031 C 
ATOM     55  C   UNL A   1      43.616  29.311  30.198  1.00  0.00     0.029 A 
ATOM     56  C   UNL A   1      42.563  29.910  30.996  1.00  0.00     0.049 A 
ATOM     57  H   UNL A   1      40.626  30.385  30.210  1.00  0.00     0.167 HD
ATOM     58  C   UNL A   1      43.417  24.059  28.181  1.00  0.00     0.037 A 
ATOM     59  C   UNL A   1      42.475  29.822  32.358  1.00  0.00     0.037 A 
ATOM     60  C   UNL A   1      44.385  24.666  29.102  1.00  0.00     0.049 A 
ATOM     61  C   UNL A   1      43.161  28.610  32.961  1.00  0.00     0.074 A 
ATOM     62  C   UNL A   1      45.451  25.540  28.986  1.00  0.00     0.029 A 
ATOM     63  N   UNL A   1      44.133  24.556  30.460  1.00  0.00    -0.354 N 
ATOM     64  N   UNL A   1      43.839  27.726  32.281  1.00  0.00    -0.248 NA
ATOM     65  C   UNL A   1      43.066  28.257  34.381  1.00  0.00     0.031 C 
ATOM     66  C   UNL A   1      45.780  26.009  30.297  1.00  0.00     0.029 A 
ATOM     67  C   UNL A   1      44.931  25.401  31.204  1.00  0.00     0.049 A 
ATOM     68  H   UNL A   1      43.463  23.947  30.848  1.00  0.00     0.167 HD
ATOM     69  C   UNL A   1      44.146  26.667  33.095  1.00  0.00     0.074 A 
ATOM     70  C   UNL A   1      43.683  27.064  34.412  1.00  0.00     0.031 C 
ATOM     71  C   UNL A   1      44.692  25.506  32.636  1.00  0.00     0.037 A 
BRANCH  58  72
ATOM     72  C   UNL A   1      43.787  23.026  27.130  1.00  0.00     0.058 A 
ATOM     73  C   UNL A   1      43.025  21.841  27.007  1.00  0.00     0.135 A 
ATOM     74  C   UNL A   1      44.937  23.057  26.307  1.00  0.00     0.135 A 
ATOM     75  F   UNL A   1      41.902  21.658  27.716  1.00  0.00    -0.206 F 
ATOM     76  C   UNL A   1      43.400  20.770  26.186  1.00  0.00     0.059 A 
ATOM     77  C   UNL A   1      45.310  22.017  25.456  1.00  0.00     0.059 A 
ATOM     78  F   UNL A   1      45.807  24.068  26.310  1.00  0.00    -0.206 F 
ATOM     79  C   UNL A   1      44.555  20.862  25.422  1.00  0.00     0.060 A 
BRANCH  79  80
ATOM     80  S   UNL A   1      45.089  19.459  24.430  1.00  0.00     0.124 S 
ATOM     81  O   UNL A   1      44.493  18.340  25.153  1.00  0.00    -0.237 OA
ATOM     82  O   UNL A   1      44.509  19.761  23.127  1.00  0.00    -0.237 OA
ATOM     83  O   UNL A   1      46.547  19.532  24.494  1.00  0.00    -0.744 OA
ENDBRANCH  79  80
ENDBRANCH  58  72
BRANCH  59  84
ATOM     84  C   UNL A   1      41.242  30.468  32.882  1.00  0.00     0.058 A 
ATOM     85  C   UNL A   1      40.165  29.625  33.220  1.00  0.00     0.135 A 
ATOM     86  C   UNL A   1      41.286  31.740  33.468  1.00  0.00     0.135 A 
ATOM     87  F   UNL A   1      40.070  28.403  32.672  1.00  0.00    -0.206 F 
ATOM     88  C   UNL A   1      39.272  29.958  34.230  1.00  0.00     0.059 A 
ATOM     89  C   UNL A   1      40.394  32.098  34.478  1.00  0.00     0.059 A 
ATOM     90  F   UNL A   1      42.287  32.584  33.177  1.00  0.00    -0.206 F 
ATOM     91  C   UNL A   1      39.439  31.170  34.898  1.00  0.00     0.060 A 
BRANCH  91  92
ATOM     92  S   UNL A   1      38.525  31.412  36.439  1.00  0.00     0.124 S 
ATOM     93  O   UNL A   1      37.425  32.264  36.005  1.00  0.00    -0.237 OA
ATOM     94  O   UNL A   1      38.164  30.039  36.786  1.00  0.00    -0.237 OA
ATOM     95  O   UNL A   1      39.508  32.043  37.312  1.00  0.00    -0.744 OA
ENDBRANCH  91  92
ENDBRANCH  59  84
BRANCH  71  96
ATOM     96  C   UNL A   1      45.014  24.353  33.541  1.00  0.00     0.058 A 
ATOM     97  C   UNL A   1      46.339  23.967  33.798  1.00  0.00     0.135 A 
ATOM     98  C   UNL A   1      44.003  23.523  34.064  1.00  0.00     0.135 A 
ATOM     99  F   UNL A   1      47.364  24.696  33.327  1.00  0.00    -0.206 F 
ATOM    100  C   UNL A   1      46.646  22.821  34.531  1.00  0.00     0.059 A 
ATOM    101  C   UNL A   1      44.285  22.351  34.762  1.00  0.00     0.059 A 
ATOM    102  F   UNL A   1      42.707  23.843  33.928  1.00  0.00    -0.206 F 
ATOM    103  C   UNL A   1      45.611  22.013  35.001  1.00  0.00     0.060 A 
BRANCH 103 104
ATOM    104  S   UNL A   1      46.000  20.495  35.895  1.00  0.00     0.124 S 
ATOM    105  O   UNL A   1      47.441  20.365  35.699  1.00  0.00    -0.237 OA
ATOM    106  O   UNL A   1      45.576  20.837  37.248  1.00  0.00    -0.237 OA
ATOM    107  O   UNL A   1      45.190  19.489  35.214  1.00  0.00    -0.744 OA
ENDBRANCH 103 104
ENDBRANCH  71  96
ENDBRANCH  45  46
ENDBRANCH  37  40
ENDBRANCH  35  36
ENDBRANCH  34  35
ENDBRANCH   1  34
TORSDOF 19
ENDMDL
MODEL 2
REMARK VINA RESULT:     -14.1      2.131      2.945
REMARK SMILES Cc1ccc(-c2nn(-c3ccccc3)cc2[C@@H]2[NH2+][C@H](C(=O)NCCCCCCNC(=O)c3ccc(-c4c5nc(c(-c6c(F)cc(S(=O)(=O)[O-])cc6F)c6ccc([nH]6)c(-c6c(F)cc(S(=O)(=O)[O-])cc6F)c6nc(c(-c7c(F)cc(S(=O)(=O)[O-])cc7F)c7ccc4[nH]7)C=C6)C=C5)cc3)CS2)cc1
REMARK SMILES IDX 26 1 25 2 24 3 23 4 22 5 20 6 21 7 19 9 17 10 18 11 99 12
REMARK SMILES IDX 98 15 16 16 6 17 7 18 8 19 15 20 5 21 1 22 2 23 3 24 101 25
REMARK SMILES IDX 4 26 100 27 9 28 10 29 14 30 11 31 13 32 12 33 27 34 28 35
REMARK SMILES IDX 29 36 30 37 31 39 32 40 33 41 97 42 34 43 96 44 35 45 36 46
REMARK SMILES IDX 37 47 90 48 38 49 95 50 89 51 91 52 39 53 94 54 88 55 87 56
REMARK SMILES IDX 40 58 74 59 53 60 73 61 54 62 57 63 72 64 92 65 55 66 56 67
REMARK SMILES IDX 71 69 93 70 58 71 41 72 42 73 51 74 43 75 44 76 50 77 52 78
REMARK SMILES IDX 45 79 46 80 47 81 48 82 49 83 75 84 76 85 85 86 77 87 78 88
REMARK SMILES IDX 84 89 86 90 79 91 80 92 81 93 82 94 83 95 59 96 60 97 69 98
REMARK SMILES IDX 61 99 62 100 68 101 70 102 63 103 64 104 65 105 66 106
REMARK SMILES IDX 67 107
REMARK H PARENT 22 8 18 13 18 14 29 38 91 57 57 68
REMARK Flexibility Score: inf
ROOT
ATOM      1  C   UNL A   1      31.923  28.859  24.875  1.00  0.00     0.002 C 
ENDROOT
BRANCH   1   2
ATOM      2  C   UNL A   1      33.318  28.656  24.261  1.00  0.00     0.002 C 
BRANCH   2   3
ATOM      3  C   UNL A   1      33.843  27.345  23.605  1.00  0.00     0.021 C 
BRANCH   3   4
ATOM      4  C   UNL A   1      33.111  26.580  22.500  1.00  0.00     0.116 C 
BRANCH   4   5
ATOM      5  N   UNL A   1      33.582  25.228  22.208  1.00  0.00    -0.351 N 
ATOM      6  C   UNL A   1      34.226  24.289  22.967  1.00  0.00     0.279 C 
ATOM      7  O   UNL A   1      34.260  23.147  22.475  1.00  0.00    -0.268 OA
ATOM      8  H   UNL A   1      33.403  24.937  21.286  1.00  0.00     0.163 HD
BRANCH   6   9
ATOM      9  C   UNL A   1      34.946  24.483  24.332  1.00  0.00     0.283 C 
ATOM     10  C   UNL A   1      34.465  23.427  26.462  1.00  0.00     0.278 C 
ATOM     11  N   UNL A   1      34.106  24.517  25.549  1.00  0.00    -0.320 N 
ATOM     12  S   UNL A   1      36.239  23.171  26.246  1.00  0.00    -0.087 SA
ATOM     13  H   UNL A   1      34.241  25.409  26.024  1.00  0.00     0.348 HD
ATOM     14  H   UNL A   1      33.129  24.404  25.274  1.00  0.00     0.348 HD
ATOM     15  C   UNL A   1      36.143  23.533  24.477  1.00  0.00     0.151 C 
BRANCH  10  16
ATOM     16  C   UNL A   1      33.627  22.238  26.125  1.00  0.00     0.067 A 
ATOM     17  C   UNL A   1      32.296  22.209  25.564  1.00  0.00     0.103 A 
ATOM     18  N   UNL A   1      31.882  20.928  25.414  1.00  0.00    -0.167 NA
ATOM     19  N   UNL A   1      32.985  20.176  25.651  1.00  0.00    -0.240 N 
ATOM     20  C   UNL A   1      33.982  20.907  26.218  1.00  0.00     0.126 A 
BRANCH  17  21
ATOM     21  C   UNL A   1      31.450  23.360  25.152  1.00  0.00     0.003 A 
ATOM     22  C   UNL A   1      29.122  26.812  23.878  1.00  0.00     0.044 C 
ATOM     23  C   UNL A   1      29.906  25.617  24.339  1.00  0.00    -0.051 A 
ATOM     24  C   UNL A   1      30.229  24.617  23.427  1.00  0.00     0.004 A 
ATOM     25  C   UNL A   1      30.313  25.459  25.669  1.00  0.00     0.004 A 
ATOM     26  C   UNL A   1      30.990  23.513  23.832  1.00  0.00     0.011 A 
ATOM     27  C   UNL A   1      31.068  24.342  26.072  1.00  0.00     0.011 A 
ENDBRANCH  17  21
BRANCH  19  28
ATOM     28  C   UNL A   1      33.164  18.859  25.162  1.00  0.00     0.065 A 
ATOM     29  C   UNL A   1      34.137  18.617  24.175  1.00  0.00     0.028 A 
ATOM     30  C   UNL A   1      32.399  17.811  25.666  1.00  0.00     0.028 A 
ATOM     31  C   UNL A   1      34.269  17.344  23.617  1.00  0.00     0.002 A 
ATOM     32  C   UNL A   1      32.605  16.520  25.165  1.00  0.00     0.002 A 
ATOM     33  C   UNL A   1      33.510  16.293  24.122  1.00  0.00     0.000 A 
ENDBRANCH  19  28
ENDBRANCH  10  16
ENDBRANCH   6   9
ENDBRANCH   4   5
ENDBRANCH   3   4
ENDBRANCH   2   3
ENDBRANCH   1   2
BRANCH   1  34
ATOM     34  C   UNL A   1      31.777  29.798  26.078  1.00  0.00     0.021 C 
BRANCH  34  35
ATOM     35  C   UNL A   1      32.882  29.782  27.141  1.00  0.00     0.116 C 
BRANCH  35  36
ATOM     36  N   UNL A   1      33.424  31.110  27.475  1.00  0.00    -0.352 N 
ATOM     37  C   UNL A   1      34.625  31.409  28.120  1.00  0.00     0.251 C 
ATOM     38  H   UNL A   1      32.872  31.882  27.213  1.00  0.00     0.163 HD
ATOM     39  O   UNL A   1      34.947  32.518  28.478  1.00  0.00    -0.269 OA
BRANCH  37  40
ATOM     40  C   UNL A   1      35.555  30.269  28.273  1.00  0.00     0.039 A 
ATOM     41  C   UNL A   1      35.719  29.784  29.577  1.00  0.00     0.014 A 
ATOM     42  C   UNL A   1      36.522  30.090  27.290  1.00  0.00     0.014 A 
ATOM     43  C   UNL A   1      36.975  29.348  29.975  1.00  0.00     0.010 A 
ATOM     44  C   UNL A   1      37.786  29.722  27.708  1.00  0.00     0.010 A 
ATOM     45  C   UNL A   1      38.026  29.434  29.065  1.00  0.00    -0.014 A 
BRANCH  45  46
ATOM     46  C   UNL A   1      39.430  29.342  29.445  1.00  0.00     0.031 A 
ATOM     47  C   UNL A   1      40.165  28.089  29.180  1.00  0.00     0.074 A 
ATOM     48  C   UNL A   1      40.084  30.401  29.972  1.00  0.00     0.049 A 
ATOM     49  N   UNL A   1      41.342  27.826  29.637  1.00  0.00    -0.248 NA
ATOM     50  C   UNL A   1      39.570  26.973  28.449  1.00  0.00     0.031 C 
ATOM     51  C   UNL A   1      41.530  30.594  30.043  1.00  0.00     0.029 A 
ATOM     52  N   UNL A   1      39.564  31.429  30.756  1.00  0.00    -0.354 N 
ATOM     53  C   UNL A   1      41.767  26.656  29.055  1.00  0.00     0.074 A 
ATOM     54  C   UNL A   1      40.585  26.104  28.445  1.00  0.00     0.031 C 
ATOM     55  C   UNL A   1      41.807  31.503  30.989  1.00  0.00     0.029 A 
ATOM     56  C   UNL A   1      40.565  31.822  31.668  1.00  0.00     0.049 A 
ATOM     57  H   UNL A   1      38.659  31.812  30.686  1.00  0.00     0.167 HD
ATOM     58  C   UNL A   1      43.099  26.372  29.067  1.00  0.00     0.037 A 
ATOM     59  C   UNL A   1      40.366  31.708  33.016  1.00  0.00     0.037 A 
ATOM     60  C   UNL A   1      43.793  27.193  30.066  1.00  0.00     0.049 A 
ATOM     61  C   UNL A   1      41.264  30.699  33.708  1.00  0.00     0.074 A 
ATOM     62  C   UNL A   1      44.619  28.302  30.038  1.00  0.00     0.029 A 
ATOM     63  N   UNL A   1      43.441  27.018  31.395  1.00  0.00    -0.354 N 
ATOM     64  N   UNL A   1      42.202  30.010  33.115  1.00  0.00    -0.248 NA
ATOM     65  C   UNL A   1      41.116  30.326  35.118  1.00  0.00     0.031 C 
ATOM     66  C   UNL A   1      44.691  28.831  31.365  1.00  0.00     0.029 A 
ATOM     67  C   UNL A   1      43.930  28.029  32.197  1.00  0.00     0.049 A 
ATOM     68  H   UNL A   1      42.905  26.262  31.728  1.00  0.00     0.167 HD
ATOM     69  C   UNL A   1      42.675  29.055  33.976  1.00  0.00     0.074 A 
ATOM     70  C   UNL A   1      41.999  29.320  35.233  1.00  0.00     0.031 C 
ATOM     71  C   UNL A   1      43.531  28.065  33.596  1.00  0.00     0.037 A 
BRANCH  58  72
ATOM     72  C   UNL A   1      43.813  25.466  28.078  1.00  0.00     0.058 A 
ATOM     73  C   UNL A   1      44.323  26.000  26.872  1.00  0.00     0.135 A 
ATOM     74  C   UNL A   1      43.919  24.059  28.172  1.00  0.00     0.135 A 
ATOM     75  F   UNL A   1      44.301  27.319  26.630  1.00  0.00    -0.206 F 
ATOM     76  C   UNL A   1      44.838  25.207  25.839  1.00  0.00     0.059 A 
ATOM     77  C   UNL A   1      44.460  23.252  27.172  1.00  0.00     0.059 A 
ATOM     78  F   UNL A   1      43.458  23.362  29.212  1.00  0.00    -0.206 F 
ATOM     79  C   UNL A   1      44.891  23.829  25.993  1.00  0.00     0.060 A 
BRANCH  79  80
ATOM     80  S   UNL A   1      45.472  22.796  24.638  1.00  0.00     0.124 S 
ATOM     81  O   UNL A   1      46.357  23.711  23.925  1.00  0.00    -0.237 OA
ATOM     82  O   UNL A   1      46.120  21.696  25.342  1.00  0.00    -0.237 OA
ATOM     83  O   UNL A   1      44.244  22.443  23.929  1.00  0.00    -0.744 OA
ENDBRANCH  79  80
ENDBRANCH  58  72
BRANCH  59  84
ATOM     84  C   UNL A   1      38.967  32.030  33.404  1.00  0.00     0.058 A 
ATOM     85  C   UNL A   1      38.619  33.393  33.495  1.00  0.00     0.135 A 
ATOM     86  C   UNL A   1      37.934  31.102  33.219  1.00  0.00     0.135 A 
ATOM     87  F   UNL A   1      39.572  34.319  33.689  1.00  0.00    -0.206 F 
ATOM     88  C   UNL A   1      37.328  33.831  33.232  1.00  0.00     0.059 A 
ATOM     89  C   UNL A   1      36.629  31.520  32.962  1.00  0.00     0.059 A 
ATOM     90  F   UNL A   1      38.209  29.792  33.132  1.00  0.00    -0.206 F 
ATOM     91  C   UNL A   1      36.356  32.889  32.899  1.00  0.00     0.060 A 
BRANCH  91  92
ATOM     92  S   UNL A   1      34.805  33.494  32.195  1.00  0.00     0.124 S 
ATOM     93  O   UNL A   1      34.247  32.281  31.610  1.00  0.00    -0.237 OA
ATOM     94  O   UNL A   1      34.119  33.998  33.383  1.00  0.00    -0.237 OA
ATOM     95  O   UNL A   1      35.246  34.509  31.245  1.00  0.00    -0.744 OA
ENDBRANCH  91  92
ENDBRANCH  59  84
BRANCH  71  96
ATOM     96  C   UNL A   1      44.033  27.022  34.550  1.00  0.00     0.058 A 
ATOM     97  C   UNL A   1      45.369  27.000  34.980  1.00  0.00     0.135 A 
ATOM     98  C   UNL A   1      43.224  25.941  34.951  1.00  0.00     0.135 A 
ATOM     99  F   UNL A   1      46.212  27.987  34.635  1.00  0.00    -0.206 F 
ATOM    100  C   UNL A   1      45.876  25.963  35.763  1.00  0.00     0.059 A 
ATOM    101  C   UNL A   1      43.718  24.873  35.696  1.00  0.00     0.059 A 
ATOM    102  F   UNL A   1      41.917  25.905  34.646  1.00  0.00    -0.206 F 
ATOM    103  C   UNL A   1      45.045  24.898  36.108  1.00  0.00     0.060 A 
BRANCH 103 104
ATOM    104  S   UNL A   1      45.710  23.521  37.065  1.00  0.00     0.124 S 
ATOM    105  O   UNL A   1      45.128  22.356  36.403  1.00  0.00    -0.237 OA
ATOM    106  O   UNL A   1      47.145  23.701  36.877  1.00  0.00    -0.237 OA
ATOM    107  O   UNL A   1      45.212  23.778  38.413  1.00  0.00    -0.744 OA
ENDBRANCH 103 104
ENDBRANCH  71  96
ENDBRANCH  45  46
ENDBRANCH  37  40
ENDBRANCH  35  36
ENDBRANCH  34  35
ENDBRANCH   1  34
TORSDOF 19
ENDMDL
MODEL 3
REMARK VINA RESULT:     -14.0      2.291      3.634
REMARK SMILES Cc1ccc(-c2nn(-c3ccccc3)cc2[C@@H]2[NH2+][C@H](C(=O)NCCCCCCNC(=O)c3ccc(-c4c5nc(c(-c6c(F)cc(S(=O)(=O)[O-])cc6F)c6ccc([nH]6)c(-c6c(F)cc(S(=O)(=O)[O-])cc6F)c6nc(c(-c7c(F)cc(S(=O)(=O)[O-])cc7F)c7ccc4[nH]7)C=C6)C=C5)cc3)CS2)cc1
REMARK SMILES IDX 26 1 25 2 24 3 23 4 22 5 20 6 21 7 19 9 17 10 18 11 99 12
REMARK SMILES IDX 98 15 16 16 6 17 7 18 8 19 15 20 5 21 1 22 2 23 3 24 101 25
REMARK SMILES IDX 4 26 100 27 9 28 10 29 14 30 11 31 13 32 12 33 27 34 28 35
REMARK SMILES IDX 29 36 30 37 31 39 32 40 33 41 97 42 34 43 96 44 35 45 36 46
REMARK SMILES IDX 37 47 90 48 38 49 95 50 89 51 91 52 39 53 94 54 88 55 87 56
REMARK SMILES IDX 40 58 74 59 53 60 73 61 54 62 57 63 72 64 92 65 55 66 56 67
REMARK SMILES IDX 71 69 93 70 58 71 41 72 42 73 51 74 43 75 44 76 50 77 52 78
REMARK SMILES IDX 45 79 46 80 47 81 48 82 49 83 75 84 76 85 85 86 77 87 78 88
REMARK SMILES IDX 84 89 86 90 79 91 80 92 81 93 82 94 83 95 59 96 60 97 69 98
REMARK SMILES IDX 61 99 62 100 68 101 70 102 63 103 64 104 65 105 66 106
REMARK SMILES IDX 67 107
REMARK H PARENT 22 8 18 13 18 14 29 38 91 57 57 68
REMARK Flexibility Score: inf
ROOT
ATOM      1  C   UNL A   1      31.715  28.693  27.450  1.00  0.00     0.002 C 
ENDROOT
BRANCH   1   2
ATOM      2  C   UNL A   1      31.717  27.275  26.857  1.00  0.00     0.002 C 
BRANCH   2   3
ATOM      3  C   UNL A   1      30.518  26.585  26.142  1.00  0.00     0.021 C 
BRANCH   3   4
ATOM      4  C   UNL A   1      30.271  25.075  26.134  1.00  0.00     0.116 C 
BRANCH   4   5
ATOM      5  N   UNL A   1      31.201  24.249  26.900  1.00  0.00    -0.351 N 
ATOM      6  C   UNL A   1      31.867  23.090  26.607  1.00  0.00     0.279 C 
ATOM      7  O   UNL A   1      32.774  22.788  27.403  1.00  0.00    -0.268 OA
ATOM      8  H   UNL A   1      31.384  24.593  27.804  1.00  0.00     0.163 HD
BRANCH   6   9
ATOM      9  C   UNL A   1      31.604  22.098  25.439  1.00  0.00     0.283 C 
ATOM     10  C   UNL A   1      32.835  21.837  23.366  1.00  0.00     0.278 C 
ATOM     11  N   UNL A   1      31.792  22.599  24.060  1.00  0.00    -0.320 N 
ATOM     12  S   UNL A   1      32.731  20.157  24.018  1.00  0.00    -0.087 SA
ATOM     13  H   UNL A   1      30.915  22.509  23.549  1.00  0.00     0.348 HD
ATOM     14  H   UNL A   1      32.079  23.578  24.106  1.00  0.00     0.348 HD
ATOM     15  C   UNL A   1      32.309  20.754  25.672  1.00  0.00     0.151 C 
BRANCH  10  16
ATOM     16  C   UNL A   1      34.146  22.510  23.605  1.00  0.00     0.067 A 
ATOM     17  C   UNL A   1      34.465  23.915  23.503  1.00  0.00     0.103 A 
ATOM     18  N   UNL A   1      35.772  24.118  23.796  1.00  0.00    -0.167 NA
ATOM     19  N   UNL A   1      36.207  22.932  24.287  1.00  0.00    -0.240 N 
ATOM     20  C   UNL A   1      35.319  21.930  24.045  1.00  0.00     0.126 A 
BRANCH  17  21
ATOM     21  C   UNL A   1      33.552  25.040  23.168  1.00  0.00     0.003 A 
ATOM     22  C   UNL A   1      30.774  28.285  22.327  1.00  0.00     0.044 C 
ATOM     23  C   UNL A   1      31.739  27.165  22.589  1.00  0.00    -0.051 A 
ATOM     24  C   UNL A   1      32.721  27.320  23.562  1.00  0.00     0.004 A 
ATOM     25  C   UNL A   1      31.699  25.964  21.871  1.00  0.00     0.004 A 
ATOM     26  C   UNL A   1      33.606  26.272  23.843  1.00  0.00     0.011 A 
ATOM     27  C   UNL A   1      32.599  24.918  22.151  1.00  0.00     0.011 A 
ENDBRANCH  17  21
BRANCH  19  28
ATOM     28  C   UNL A   1      37.327  22.793  25.142  1.00  0.00     0.065 A 
ATOM     29  C   UNL A   1      37.699  23.868  25.971  1.00  0.00     0.028 A 
ATOM     30  C   UNL A   1      38.043  21.600  25.176  1.00  0.00     0.028 A 
ATOM     31  C   UNL A   1      38.850  23.784  26.755  1.00  0.00     0.002 A 
ATOM     32  C   UNL A   1      39.142  21.494  26.037  1.00  0.00     0.002 A 
ATOM     33  C   UNL A   1      39.564  22.591  26.796  1.00  0.00     0.000 A 
ENDBRANCH  19  28
ENDBRANCH  10  16
ENDBRANCH   6   9
ENDBRANCH   4   5
ENDBRANCH   3   4
ENDBRANCH   2   3
ENDBRANCH   1   2
BRANCH   1  34
ATOM     34  C   UNL A   1      32.350  29.831  26.640  1.00  0.00     0.021 C 
BRANCH  34  35
ATOM     35  C   UNL A   1      33.871  30.004  26.712  1.00  0.00     0.116 C 
BRANCH  35  36
ATOM     36  N   UNL A   1      34.313  31.220  27.415  1.00  0.00    -0.352 N 
ATOM     37  C   UNL A   1      35.344  31.346  28.347  1.00  0.00     0.251 C 
ATOM     38  H   UNL A   1      33.820  32.046  27.203  1.00  0.00     0.163 HD
ATOM     39  O   UNL A   1      35.567  32.351  28.982  1.00  0.00    -0.269 OA
BRANCH  37  40
ATOM     40  C   UNL A   1      36.233  30.170  28.461  1.00  0.00     0.039 A 
ATOM     41  C   UNL A   1      36.355  29.617  29.742  1.00  0.00     0.014 A 
ATOM     42  C   UNL A   1      37.214  30.008  27.489  1.00  0.00     0.014 A 
ATOM     43  C   UNL A   1      37.588  29.121  30.142  1.00  0.00     0.010 A 
ATOM     44  C   UNL A   1      38.457  29.577  27.911  1.00  0.00     0.010 A 
ATOM     45  C   UNL A   1      38.659  29.216  29.257  1.00  0.00    -0.014 A 
BRANCH  45  46
ATOM     46  C   UNL A   1      40.052  29.059  29.658  1.00  0.00     0.031 A 
ATOM     47  C   UNL A   1      40.783  27.842  29.252  1.00  0.00     0.074 A 
ATOM     48  C   UNL A   1      40.700  30.034  30.335  1.00  0.00     0.049 A 
ATOM     49  N   UNL A   1      41.945  27.508  29.702  1.00  0.00    -0.248 NA
ATOM     50  C   UNL A   1      40.199  26.837  28.368  1.00  0.00     0.031 C 
ATOM     51  C   UNL A   1      42.145  30.198  30.467  1.00  0.00     0.029 A 
ATOM     52  N   UNL A   1      40.168  30.958  31.231  1.00  0.00    -0.354 N 
ATOM     53  C   UNL A   1      42.376  26.419  28.985  1.00  0.00     0.074 A 
ATOM     54  C   UNL A   1      41.206  25.964  28.278  1.00  0.00     0.031 C 
ATOM     55  C   UNL A   1      42.404  30.975  31.529  1.00  0.00     0.029 A 
ATOM     56  C   UNL A   1      41.147  31.218  32.211  1.00  0.00     0.049 A 
ATOM     57  H   UNL A   1      39.269  31.357  31.188  1.00  0.00     0.167 HD
ATOM     58  C   UNL A   1      43.705  26.120  28.994  1.00  0.00     0.037 A 
ATOM     59  C   UNL A   1      40.911  30.934  33.528  1.00  0.00     0.037 A 
ATOM     60  C   UNL A   1      44.378  26.796  30.109  1.00  0.00     0.049 A 
ATOM     61  C   UNL A   1      41.780  29.833  34.107  1.00  0.00     0.074 A 
ATOM     62  C   UNL A   1      45.214  27.890  30.246  1.00  0.00     0.029 A 
ATOM     63  N   UNL A   1      43.988  26.456  31.395  1.00  0.00    -0.354 N 
ATOM     64  N   UNL A   1      42.728  29.216  33.455  1.00  0.00    -0.248 NA
ATOM     65  C   UNL A   1      41.591  29.284  35.453  1.00  0.00     0.031 C 
ATOM     66  C   UNL A   1      45.254  28.243  31.632  1.00  0.00     0.029 A 
ATOM     67  C   UNL A   1      44.464  27.349  32.333  1.00  0.00     0.049 A 
ATOM     68  H   UNL A   1      43.437  25.669  31.613  1.00  0.00     0.167 HD
ATOM     69  C   UNL A   1      43.170  28.152  34.197  1.00  0.00     0.074 A 
ATOM     70  C   UNL A   1      42.462  28.261  35.459  1.00  0.00     0.031 C 
ATOM     71  C   UNL A   1      44.028  27.209  33.714  1.00  0.00     0.037 A 
BRANCH  58  72
ATOM     72  C   UNL A   1      44.438  25.340  27.916  1.00  0.00     0.058 A 
ATOM     73  C   UNL A   1      44.533  25.865  26.606  1.00  0.00     0.135 A 
ATOM     74  C   UNL A   1      44.949  24.028  28.046  1.00  0.00     0.135 A 
ATOM     75  F   UNL A   1      44.096  27.100  26.318  1.00  0.00    -0.206 F 
ATOM     76  C   UNL A   1      45.039  25.137  25.522  1.00  0.00     0.059 A 
ATOM     77  C   UNL A   1      45.490  23.297  26.988  1.00  0.00     0.059 A 
ATOM     78  F   UNL A   1      44.913  23.343  29.189  1.00  0.00    -0.206 F 
ATOM     79  C   UNL A   1      45.504  23.845  25.721  1.00  0.00     0.060 A 
BRANCH  79  80
ATOM     80  S   UNL A   1      46.076  22.872  24.319  1.00  0.00     0.124 S 
ATOM     81  O   UNL A   1      46.482  21.629  24.966  1.00  0.00    -0.237 OA
ATOM     82  O   UNL A   1      44.883  22.799  23.484  1.00  0.00    -0.237 OA
ATOM     83  O   UNL A   1      47.170  23.672  23.773  1.00  0.00    -0.744 OA
ENDBRANCH  79  80
ENDBRANCH  58  72
BRANCH  59  84
ATOM     84  C   UNL A   1      39.504  31.220  33.918  1.00  0.00     0.058 A 
ATOM     85  C   UNL A   1      39.179  32.555  34.231  1.00  0.00     0.135 A 
ATOM     86  C   UNL A   1      38.461  30.364  33.541  1.00  0.00     0.135 A 
ATOM     87  F   UNL A   1      40.141  33.410  34.614  1.00  0.00    -0.206 F 
ATOM     88  C   UNL A   1      37.907  33.064  34.003  1.00  0.00     0.059 A 
ATOM     89  C   UNL A   1      37.176  30.853  33.315  1.00  0.00     0.059 A 
ATOM     90  F   UNL A   1      38.714  29.082  33.238  1.00  0.00    -0.206 F 
ATOM     91  C   UNL A   1      36.931  32.218  33.481  1.00  0.00     0.060 A 
BRANCH  91  92
ATOM     92  S   UNL A   1      35.420  32.975  32.839  1.00  0.00     0.124 S 
ATOM     93  O   UNL A   1      34.860  31.893  32.037  1.00  0.00    -0.237 OA
ATOM     94  O   UNL A   1      34.700  33.287  34.072  1.00  0.00    -0.237 OA
ATOM     95  O   UNL A   1      35.916  34.125  32.092  1.00  0.00    -0.744 OA
ENDBRANCH  91  92
ENDBRANCH  59  84
BRANCH  71  96
ATOM     96  C   UNL A   1      44.494  26.046  34.538  1.00  0.00     0.058 A 
ATOM     97  C   UNL A   1      45.823  25.943  34.980  1.00  0.00     0.135 A 
ATOM     98  C   UNL A   1      43.659  24.940  34.791  1.00  0.00     0.135 A 
ATOM     99  F   UNL A   1      46.690  26.947  34.771  1.00  0.00    -0.206 F 
ATOM    100  C   UNL A   1      46.298  24.807  35.635  1.00  0.00     0.059 A 
ATOM    101  C   UNL A   1      44.121  23.779  35.404  1.00  0.00     0.059 A 
ATOM    102  F   UNL A   1      42.357  24.970  34.466  1.00  0.00    -0.206 F 
ATOM    103  C   UNL A   1      45.441  23.725  35.834  1.00  0.00     0.060 A 
BRANCH 103 104
ATOM    104  S   UNL A   1      46.065  22.226  36.622  1.00  0.00     0.124 S 
ATOM    105  O   UNL A   1      45.321  21.170  35.941  1.00  0.00    -0.237 OA
ATOM    106  O   UNL A   1      47.487  22.301  36.305  1.00  0.00    -0.237 OA
ATOM    107  O   UNL A   1      45.719  22.418  38.027  1.00  0.00    -0.744 OA
ENDBRANCH 103 104
ENDBRANCH  71  96
ENDBRANCH  45  46
ENDBRANCH  37  40
ENDBRANCH  35  36
ENDBRANCH  34  35
ENDBRANCH   1  34
TORSDOF 19
ENDMDL
