MODEL 1
REMARK VINA RESULT:     -14.0      0.000      0.000
REMARK SMILES Cc1c(CC(=O)NCCCCCCNC(=O)c2ccc(-c3c4nc(c(-c5c(F)cc(S(=O)(=O)[O-])cc5F)c5ccc([nH]5)c(-c5c(F)cc(S(=O)(=O)[O-])cc5F)c5nc(c(-c6c(F)cc(S(=O)(=O)[O-])cc6F)c6ccc3[nH]6)C=C5)C=C4)cc2)cccc1-c1ccn(C(F)F)c(=O)c1
REMARK SMILES IDX 10 1 9 2 8 3 7 4 5 5 6 6 4 8 3 9 1 10 2 11 86 12 83 13 85 14
REMARK SMILES IDX 84 15 87 16 88 17 96 18 89 19 94 20 90 21 95 22 91 23 92 24
REMARK SMILES IDX 93 25 11 26 12 27 13 28 14 29 15 30 16 32 17 33 18 34 82 35
REMARK SMILES IDX 19 36 81 37 20 38 21 39 22 40 75 41 23 42 80 43 74 44 76 45
REMARK SMILES IDX 24 46 79 47 73 48 72 49 25 51 59 52 38 53 58 54 39 55 42 56
REMARK SMILES IDX 57 57 77 58 40 59 41 60 56 62 78 63 43 64 26 65 27 66 36 67
REMARK SMILES IDX 28 68 29 69 35 70 37 71 30 72 31 73 32 74 33 75 34 76 60 77
REMARK SMILES IDX 61 78 70 79 62 80 63 81 69 82 71 83 64 84 65 85 66 86 67 87
REMARK SMILES IDX 68 88 44 89 45 90 54 91 46 92 47 93 53 94 55 95 48 96 49 97
REMARK SMILES IDX 50 98 51 99 52 100
REMARK H PARENT 7 7 14 31 76 50 42 61
REMARK Flexibility Score: inf
ROOT
ATOM      1  C   UNL A   1      33.418  28.889  25.105  1.00  0.00     0.002 C 
ENDROOT
BRANCH   1   2
ATOM      2  C   UNL A   1      33.275  28.963  23.579  1.00  0.00     0.021 C 
BRANCH   2   3
ATOM      3  C   UNL A   1      32.068  28.218  23.006  1.00  0.00     0.116 C 
BRANCH   3   4
ATOM      4  N   UNL A   1      32.424  27.331  21.915  1.00  0.00    -0.356 N 
ATOM      5  C   UNL A   1      33.159  26.181  21.944  1.00  0.00     0.224 C 
ATOM      6  O   UNL A   1      33.328  25.561  20.891  1.00  0.00    -0.275 OA
ATOM      7  H   UNL A   1      32.088  27.596  21.028  1.00  0.00     0.163 HD
BRANCH   5   8
ATOM      8  C   UNL A   1      33.707  25.642  23.262  1.00  0.00     0.135 C 
BRANCH   8   9
ATOM      9  C   UNL A   1      32.892  24.515  23.872  1.00  0.00    -0.035 A 
ATOM     10  C   UNL A   1      34.681  22.782  23.334  1.00  0.00     0.045 C 
ATOM     11  C   UNL A   1      33.310  23.158  23.857  1.00  0.00    -0.040 A 
ATOM     12  C   UNL A   1      32.439  22.167  24.378  1.00  0.00    -0.015 A 
ATOM     13  C   UNL A   1      31.663  24.853  24.469  1.00  0.00     0.004 A 
ATOM     14  C   UNL A   1      31.212  22.540  24.952  1.00  0.00     0.009 A 
ATOM     15  C   UNL A   1      30.832  23.875  25.006  1.00  0.00     0.001 A 
BRANCH  12  16
ATOM     16  C   UNL A   1      32.744  20.722  24.280  1.00  0.00    -0.011 A 
ATOM     17  C   UNL A   1      33.604  20.021  25.214  1.00  0.00     0.027 A 
ATOM     18  C   UNL A   1      32.248  20.060  23.221  1.00  0.00     0.080 A 
ATOM     19  C   UNL A   1      33.963  18.753  24.979  1.00  0.00     0.095 A 
ATOM     20  C   UNL A   1      32.613  18.641  22.965  1.00  0.00     0.255 A 
ATOM     21  N   UNL A   1      33.496  18.073  23.869  1.00  0.00    -0.258 N 
ATOM     22  O   UNL A   1      32.149  18.087  21.973  1.00  0.00    -0.269 OA
BRANCH  21  23
ATOM     23  C   UNL A   1      33.922  16.725  23.601  1.00  0.00     0.451 C 
ATOM     24  F   UNL A   1      35.050  16.418  24.283  1.00  0.00    -0.185 F 
ATOM     25  F   UNL A   1      32.962  15.833  23.947  1.00  0.00    -0.185 F 
ENDBRANCH  21  23
ENDBRANCH  12  16
ENDBRANCH   8   9
ENDBRANCH   5   8
ENDBRANCH   3   4
ENDBRANCH   2   3
ENDBRANCH   1   2
BRANCH   1  26
ATOM     26  C   UNL A   1      32.366  29.643  25.934  1.00  0.00     0.002 C 
BRANCH  26  27
ATOM     27  C   UNL A   1      32.879  30.378  27.175  1.00  0.00     0.021 C 
BRANCH  27  28
ATOM     28  C   UNL A   1      34.295  29.986  27.582  1.00  0.00     0.116 C 
BRANCH  28  29
ATOM     29  N   UNL A   1      34.966  31.018  28.362  1.00  0.00    -0.352 N 
ATOM     30  C   UNL A   1      36.064  30.877  29.188  1.00  0.00     0.251 C 
ATOM     31  H   UNL A   1      34.589  31.925  28.293  1.00  0.00     0.163 HD
ATOM     32  O   UNL A   1      36.391  31.725  30.012  1.00  0.00    -0.269 OA
BRANCH  30  33
ATOM     33  C   UNL A   1      36.963  29.743  28.907  1.00  0.00     0.039 A 
ATOM     34  C   UNL A   1      37.246  28.896  29.986  1.00  0.00     0.014 A 
ATOM     35  C   UNL A   1      37.726  29.711  27.741  1.00  0.00     0.014 A 
ATOM     36  C   UNL A   1      38.421  28.159  29.977  1.00  0.00     0.010 A 
ATOM     37  C   UNL A   1      38.934  29.043  27.766  1.00  0.00     0.010 A 
ATOM     38  C   UNL A   1      39.303  28.318  28.907  1.00  0.00    -0.014 A 
BRANCH  38  39
ATOM     39  C   UNL A   1      40.671  27.823  28.950  1.00  0.00     0.031 A 
ATOM     40  C   UNL A   1      40.961  26.446  28.501  1.00  0.00     0.074 A 
ATOM     41  C   UNL A   1      41.652  28.621  29.420  1.00  0.00     0.049 A 
ATOM     42  N   UNL A   1      41.947  25.729  28.920  1.00  0.00    -0.248 NA
ATOM     43  C   UNL A   1      40.088  25.744  27.567  1.00  0.00     0.031 C 
ATOM     44  C   UNL A   1      43.090  28.386  29.357  1.00  0.00     0.029 A 
ATOM     45  N   UNL A   1      41.514  29.727  30.261  1.00  0.00    -0.354 N 
ATOM     46  C   UNL A   1      41.986  24.583  28.156  1.00  0.00     0.074 A 
ATOM     47  C   UNL A   1      40.776  24.616  27.367  1.00  0.00     0.031 C 
ATOM     48  C   UNL A   1      43.692  29.139  30.291  1.00  0.00     0.029 A 
ATOM     49  C   UNL A   1      42.650  29.775  31.083  1.00  0.00     0.049 A 
ATOM     50  H   UNL A   1      40.758  30.358  30.275  1.00  0.00     0.167 HD
ATOM     51  C   UNL A   1      43.101  23.794  28.174  1.00  0.00     0.037 A 
ATOM     52  C   UNL A   1      42.536  29.658  32.438  1.00  0.00     0.037 A 
ATOM     53  C   UNL A   1      44.083  24.302  29.128  1.00  0.00     0.049 A 
ATOM     54  C   UNL A   1      43.215  28.429  32.999  1.00  0.00     0.074 A 
ATOM     55  C   UNL A   1      45.160  25.162  28.974  1.00  0.00     0.029 A 
ATOM     56  N   UNL A   1      43.831  24.229  30.496  1.00  0.00    -0.354 N 
ATOM     57  N   UNL A   1      43.540  27.382  32.289  1.00  0.00    -0.248 NA
ATOM     58  C   UNL A   1      43.590  28.289  34.403  1.00  0.00     0.031 C 
ATOM     59  C   UNL A   1      45.495  25.680  30.248  1.00  0.00     0.029 A 
ATOM     60  C   UNL A   1      44.649  25.108  31.184  1.00  0.00     0.049 A 
ATOM     61  H   UNL A   1      43.165  23.637  30.913  1.00  0.00     0.167 HD
ATOM     62  C   UNL A   1      44.136  26.449  33.097  1.00  0.00     0.074 A 
ATOM     63  C   UNL A   1      44.161  27.071  34.409  1.00  0.00     0.031 C 
ATOM     64  C   UNL A   1      44.570  25.239  32.631  1.00  0.00     0.037 A 
BRANCH  51  65
ATOM     65  C   UNL A   1      43.406  22.804  27.065  1.00  0.00     0.058 A 
ATOM     66  C   UNL A   1      42.735  21.565  26.997  1.00  0.00     0.135 A 
ATOM     67  C   UNL A   1      44.417  22.978  26.099  1.00  0.00     0.135 A 
ATOM     68  F   UNL A   1      41.672  21.299  27.768  1.00  0.00    -0.206 F 
ATOM     69  C   UNL A   1      43.133  20.531  26.147  1.00  0.00     0.059 A 
ATOM     70  C   UNL A   1      44.876  21.940  25.280  1.00  0.00     0.059 A 
ATOM     71  F   UNL A   1      44.976  24.181  25.896  1.00  0.00    -0.206 F 
ATOM     72  C   UNL A   1      44.237  20.709  25.325  1.00  0.00     0.060 A 
BRANCH  72  73
ATOM     73  S   UNL A   1      44.817  19.317  24.335  1.00  0.00     0.124 S 
ATOM     74  O   UNL A   1      46.234  19.255  24.683  1.00  0.00    -0.237 OA
ATOM     75  O   UNL A   1      43.993  18.224  24.839  1.00  0.00    -0.237 OA
ATOM     76  O   UNL A   1      44.536  19.733  22.964  1.00  0.00    -0.744 OA
ENDBRANCH  72  73
ENDBRANCH  51  65
BRANCH  52  77
ATOM     77  C   UNL A   1      41.335  30.326  33.007  1.00  0.00     0.058 A 
ATOM     78  C   UNL A   1      40.225  29.521  33.329  1.00  0.00     0.135 A 
ATOM     79  C   UNL A   1      41.388  31.606  33.576  1.00  0.00     0.135 A 
ATOM     80  F   UNL A   1      40.113  28.293  32.797  1.00  0.00    -0.206 F 
ATOM     81  C   UNL A   1      39.279  29.912  34.272  1.00  0.00     0.059 A 
ATOM     82  C   UNL A   1      40.449  32.018  34.528  1.00  0.00     0.059 A 
ATOM     83  F   UNL A   1      42.413  32.425  33.301  1.00  0.00    -0.206 F 
ATOM     84  C   UNL A   1      39.436  31.138  34.913  1.00  0.00     0.060 A 
BRANCH  84  85
ATOM     85  S   UNL A   1      38.350  31.517  36.311  1.00  0.00     0.124 S 
ATOM     86  O   UNL A   1      39.242  32.248  37.206  1.00  0.00    -0.237 OA
ATOM     87  O   UNL A   1      37.307  32.321  35.674  1.00  0.00    -0.237 OA
ATOM     88  O   UNL A   1      37.938  30.199  36.778  1.00  0.00    -0.744 OA
ENDBRANCH  84  85
ENDBRANCH  52  77
BRANCH  64  89
ATOM     89  C   UNL A   1      45.069  24.106  33.493  1.00  0.00     0.058 A 
ATOM     90  C   UNL A   1      44.323  22.946  33.762  1.00  0.00     0.135 A 
ATOM     91  C   UNL A   1      46.402  24.103  33.969  1.00  0.00     0.135 A 
ATOM     92  F   UNL A   1      43.084  22.788  33.275  1.00  0.00    -0.206 F 
ATOM     93  C   UNL A   1      44.838  21.884  34.507  1.00  0.00     0.059 A 
ATOM     94  C   UNL A   1      46.953  23.032  34.666  1.00  0.00     0.059 A 
ATOM     95  F   UNL A   1      47.220  25.145  33.759  1.00  0.00    -0.206 F 
ATOM     96  C   UNL A   1      46.155  21.934  34.953  1.00  0.00     0.060 A 
BRANCH  96  97
ATOM     97  S   UNL A   1      46.856  20.542  35.858  1.00  0.00     0.124 S 
ATOM     98  O   UNL A   1      45.741  20.161  36.719  1.00  0.00    -0.237 OA
ATOM     99  O   UNL A   1      47.184  19.593  34.797  1.00  0.00    -0.237 OA
ATOM    100  O   UNL A   1      48.005  21.134  36.534  1.00  0.00    -0.744 OA
ENDBRANCH  96  97
ENDBRANCH  64  89
ENDBRANCH  38  39
ENDBRANCH  30  33
ENDBRANCH  28  29
ENDBRANCH  27  28
ENDBRANCH  26  27
ENDBRANCH   1  26
TORSDOF 19
ENDMDL
MODEL 2
REMARK VINA RESULT:     -13.9      5.520     11.750
REMARK SMILES Cc1c(CC(=O)NCCCCCCNC(=O)c2ccc(-c3c4nc(c(-c5c(F)cc(S(=O)(=O)[O-])cc5F)c5ccc([nH]5)c(-c5c(F)cc(S(=O)(=O)[O-])cc5F)c5nc(c(-c6c(F)cc(S(=O)(=O)[O-])cc6F)c6ccc3[nH]6)C=C5)C=C4)cc2)cccc1-c1ccn(C(F)F)c(=O)c1
REMARK SMILES IDX 10 1 9 2 8 3 7 4 5 5 6 6 4 8 3 9 1 10 2 11 86 12 83 13 85 14
REMARK SMILES IDX 84 15 87 16 88 17 96 18 89 19 94 20 90 21 95 22 91 23 92 24
REMARK SMILES IDX 93 25 11 26 12 27 13 28 14 29 15 30 16 32 17 33 18 34 82 35
REMARK SMILES IDX 19 36 81 37 20 38 21 39 22 40 75 41 23 42 80 43 74 44 76 45
REMARK SMILES IDX 24 46 79 47 73 48 72 49 25 51 59 52 38 53 58 54 39 55 42 56
REMARK SMILES IDX 57 57 77 58 40 59 41 60 56 62 78 63 43 64 26 65 27 66 36 67
REMARK SMILES IDX 28 68 29 69 35 70 37 71 30 72 31 73 32 74 33 75 34 76 60 77
REMARK SMILES IDX 61 78 70 79 62 80 63 81 69 82 71 83 64 84 65 85 66 86 67 87
REMARK SMILES IDX 68 88 44 89 45 90 54 91 46 92 47 93 53 94 55 95 48 96 49 97
REMARK SMILES IDX 50 98 51 99 52 100
REMARK H PARENT 7 7 14 31 76 50 42 61
REMARK Flexibility Score: inf
ROOT
ATOM      1  C   UNL A   1      35.613  21.195  25.198  1.00  0.00     0.002 C 
ENDROOT
BRANCH   1   2
ATOM      2  C   UNL A   1      34.207  21.020  25.789  1.00  0.00     0.021 C 
BRANCH   2   3
ATOM      3  C   UNL A   1      33.995  21.675  27.154  1.00  0.00     0.116 C 
BRANCH   3   4
ATOM      4  N   UNL A   1      32.625  22.102  27.364  1.00  0.00    -0.356 N 
ATOM      5  C   UNL A   1      32.050  23.312  27.103  1.00  0.00     0.224 C 
ATOM      6  O   UNL A   1      30.849  23.459  27.342  1.00  0.00    -0.275 OA
ATOM      7  H   UNL A   1      32.025  21.423  27.749  1.00  0.00     0.163 HD
BRANCH   5   8
ATOM      8  C   UNL A   1      32.862  24.439  26.473  1.00  0.00     0.135 C 
BRANCH   8   9
ATOM      9  C   UNL A   1      32.394  24.859  25.090  1.00  0.00    -0.035 A 
ATOM     10  C   UNL A   1      31.357  27.011  25.974  1.00  0.00     0.045 C 
ATOM     11  C   UNL A   1      31.632  26.033  24.852  1.00  0.00    -0.040 A 
ATOM     12  C   UNL A   1      31.170  26.295  23.536  1.00  0.00    -0.015 A 
ATOM     13  C   UNL A   1      32.736  24.025  24.008  1.00  0.00     0.004 A 
ATOM     14  C   UNL A   1      31.518  25.432  22.484  1.00  0.00     0.009 A 
ATOM     15  C   UNL A   1      32.304  24.310  22.717  1.00  0.00     0.001 A 
BRANCH  12  16
ATOM     16  C   UNL A   1      30.264  27.424  23.231  1.00  0.00    -0.011 A 
ATOM     17  C   UNL A   1      30.729  28.732  22.811  1.00  0.00     0.027 A 
ATOM     18  C   UNL A   1      28.950  27.229  23.434  1.00  0.00     0.080 A 
ATOM     19  C   UNL A   1      29.868  29.752  22.703  1.00  0.00     0.095 A 
ATOM     20  C   UNL A   1      27.977  28.345  23.286  1.00  0.00     0.255 A 
ATOM     21  N   UNL A   1      28.519  29.576  22.951  1.00  0.00    -0.258 N 
ATOM     22  O   UNL A   1      26.791  28.120  23.501  1.00  0.00    -0.269 OA
BRANCH  21  23
ATOM     23  C   UNL A   1      27.608  30.687  22.875  1.00  0.00     0.451 C 
ATOM     24  F   UNL A   1      27.669  31.455  23.989  1.00  0.00    -0.185 F 
ATOM     25  F   UNL A   1      27.884  31.471  21.804  1.00  0.00    -0.185 F 
ENDBRANCH  21  23
ENDBRANCH  12  16
ENDBRANCH   8   9
ENDBRANCH   5   8
ENDBRANCH   3   4
ENDBRANCH   2   3
ENDBRANCH   1   2
BRANCH   1  26
ATOM     26  C   UNL A   1      36.166  22.629  25.147  1.00  0.00     0.002 C 
BRANCH  26  27
ATOM     27  C   UNL A   1      37.263  22.969  26.159  1.00  0.00     0.021 C 
BRANCH  27  28
ATOM     28  C   UNL A   1      38.529  23.536  25.529  1.00  0.00     0.116 C 
BRANCH  28  29
ATOM     29  N   UNL A   1      39.728  23.242  26.303  1.00  0.00    -0.352 N 
ATOM     30  C   UNL A   1      40.554  24.133  26.959  1.00  0.00     0.251 C 
ATOM     31  H   UNL A   1      39.979  22.292  26.365  1.00  0.00     0.163 HD
ATOM     32  O   UNL A   1      41.679  23.836  27.348  1.00  0.00    -0.269 OA
BRANCH  30  33
ATOM     33  C   UNL A   1      39.956  25.419  27.360  1.00  0.00     0.039 A 
ATOM     34  C   UNL A   1      40.408  26.552  26.671  1.00  0.00     0.014 A 
ATOM     35  C   UNL A   1      39.242  25.532  28.550  1.00  0.00     0.014 A 
ATOM     36  C   UNL A   1      40.320  27.795  27.281  1.00  0.00     0.010 A 
ATOM     37  C   UNL A   1      39.230  26.754  29.194  1.00  0.00     0.010 A 
ATOM     38  C   UNL A   1      39.822  27.867  28.582  1.00  0.00    -0.014 A 
BRANCH  38  39
ATOM     39  C   UNL A   1      39.963  29.061  29.402  1.00  0.00     0.031 A 
ATOM     40  C   UNL A   1      38.901  30.087  29.384  1.00  0.00     0.074 A 
ATOM     41  C   UNL A   1      41.075  29.226  30.149  1.00  0.00     0.049 A 
ATOM     42  N   UNL A   1      39.084  31.339  29.628  1.00  0.00    -0.248 NA
ATOM     43  C   UNL A   1      37.528  29.763  29.015  1.00  0.00     0.031 C 
ATOM     44  C   UNL A   1      41.311  30.238  31.173  1.00  0.00     0.029 A 
ATOM     45  N   UNL A   1      42.319  28.619  29.962  1.00  0.00    -0.354 N 
ATOM     46  C   UNL A   1      37.846  31.942  29.684  1.00  0.00     0.074 A 
ATOM     47  C   UNL A   1      36.916  30.929  29.241  1.00  0.00     0.031 C 
ATOM     48  C   UNL A   1      42.635  30.362  31.359  1.00  0.00     0.029 A 
ATOM     49  C   UNL A   1      43.300  29.540  30.360  1.00  0.00     0.049 A 
ATOM     50  H   UNL A   1      42.479  27.712  29.614  1.00  0.00     0.167 HD
ATOM     51  C   UNL A   1      37.723  33.189  30.225  1.00  0.00     0.037 A 
ATOM     52  C   UNL A   1      44.220  30.010  29.467  1.00  0.00     0.037 A 
ATOM     53  C   UNL A   1      39.029  33.728  30.597  1.00  0.00     0.049 A 
ATOM     54  C   UNL A   1      44.118  31.498  29.221  1.00  0.00     0.074 A 
ATOM     55  C   UNL A   1      39.734  33.696  31.790  1.00  0.00     0.029 A 
ATOM     56  N   UNL A   1      39.944  34.086  29.610  1.00  0.00    -0.354 N 
ATOM     57  N   UNL A   1      43.063  32.217  29.494  1.00  0.00    -0.248 NA
ATOM     58  C   UNL A   1      45.205  32.293  28.656  1.00  0.00     0.031 C 
ATOM     59  C   UNL A   1      41.098  33.945  31.502  1.00  0.00     0.029 A 
ATOM     60  C   UNL A   1      41.219  34.167  30.141  1.00  0.00     0.049 A 
ATOM     61  H   UNL A   1      39.715  34.257  28.668  1.00  0.00     0.167 HD
ATOM     62  C   UNL A   1      43.299  33.523  29.151  1.00  0.00     0.074 A 
ATOM     63  C   UNL A   1      44.661  33.523  28.648  1.00  0.00     0.031 C 
ATOM     64  C   UNL A   1      42.364  34.507  29.310  1.00  0.00     0.037 A 
BRANCH  51  65
ATOM     65  C   UNL A   1      36.395  33.722  30.729  1.00  0.00     0.058 A 
ATOM     66  C   UNL A   1      35.405  34.167  29.828  1.00  0.00     0.135 A 
ATOM     67  C   UNL A   1      36.078  33.910  32.089  1.00  0.00     0.135 A 
ATOM     68  F   UNL A   1      35.507  33.949  28.510  1.00  0.00    -0.206 F 
ATOM     69  C   UNL A   1      34.270  34.873  30.233  1.00  0.00     0.059 A 
ATOM     70  C   UNL A   1      34.982  34.667  32.520  1.00  0.00     0.059 A 
ATOM     71  F   UNL A   1      36.810  33.333  33.054  1.00  0.00    -0.206 F 
ATOM     72  C   UNL A   1      34.090  35.163  31.579  1.00  0.00     0.060 A 
BRANCH  72  73
ATOM     73  S   UNL A   1      32.691  36.192  32.066  1.00  0.00     0.124 S 
ATOM     74  O   UNL A   1      32.329  36.842  30.810  1.00  0.00    -0.237 OA
ATOM     75  O   UNL A   1      31.744  35.200  32.563  1.00  0.00    -0.237 OA
ATOM     76  O   UNL A   1      33.257  37.079  33.079  1.00  0.00    -0.744 OA
ENDBRANCH  72  73
ENDBRANCH  51  65
BRANCH  52  77
ATOM     77  C   UNL A   1      44.688  28.994  28.487  1.00  0.00     0.058 A 
ATOM     78  C   UNL A   1      44.122  29.012  27.198  1.00  0.00     0.135 A 
ATOM     79  C   UNL A   1      45.892  28.294  28.650  1.00  0.00     0.135 A 
ATOM     80  F   UNL A   1      42.959  29.651  26.988  1.00  0.00    -0.206 F 
ATOM     81  C   UNL A   1      44.780  28.477  26.095  1.00  0.00     0.059 A 
ATOM     82  C   UNL A   1      46.573  27.751  27.555  1.00  0.00     0.059 A 
ATOM     83  F   UNL A   1      46.477  28.230  29.855  1.00  0.00    -0.206 F 
ATOM     84  C   UNL A   1      46.037  27.904  26.275  1.00  0.00     0.060 A 
BRANCH  84  85
ATOM     85  S   UNL A   1      46.986  27.446  24.803  1.00  0.00     0.124 S 
ATOM     86  O   UNL A   1      46.611  28.494  23.857  1.00  0.00    -0.237 OA
ATOM     87  O   UNL A   1      48.361  27.513  25.297  1.00  0.00    -0.237 OA
ATOM     88  O   UNL A   1      46.488  26.113  24.488  1.00  0.00    -0.744 OA
ENDBRANCH  84  85
ENDBRANCH  52  77
BRANCH  64  89
ATOM     89  C   UNL A   1      42.494  35.919  28.793  1.00  0.00     0.058 A 
ATOM     90  C   UNL A   1      41.809  36.401  27.665  1.00  0.00     0.135 A 
ATOM     91  C   UNL A   1      43.228  36.883  29.523  1.00  0.00     0.135 A 
ATOM     92  F   UNL A   1      40.998  35.606  26.952  1.00  0.00    -0.206 F 
ATOM     93  C   UNL A   1      41.896  37.731  27.251  1.00  0.00     0.059 A 
ATOM     94  C   UNL A   1      43.284  38.225  29.160  1.00  0.00     0.059 A 
ATOM     95  F   UNL A   1      43.911  36.550  30.629  1.00  0.00    -0.206 F 
ATOM     96  C   UNL A   1      42.634  38.637  28.006  1.00  0.00     0.060 A 
BRANCH  96  97
ATOM     97  S   UNL A   1      42.702  40.372  27.522  1.00  0.00     0.124 S 
ATOM     98  O   UNL A   1      43.097  41.010  28.774  1.00  0.00    -0.237 OA
ATOM     99  O   UNL A   1      43.711  40.380  26.466  1.00  0.00    -0.237 OA
ATOM    100  O   UNL A   1      41.339  40.642  27.076  1.00  0.00    -0.744 OA
ENDBRANCH  96  97
ENDBRANCH  64  89
ENDBRANCH  38  39
ENDBRANCH  30  33
ENDBRANCH  28  29
ENDBRANCH  27  28
ENDBRANCH  26  27
ENDBRANCH   1  26
TORSDOF 19
ENDMDL
MODEL 3
REMARK VINA RESULT:     -13.4      5.294     11.687
REMARK SMILES Cc1c(CC(=O)NCCCCCCNC(=O)c2ccc(-c3c4nc(c(-c5c(F)cc(S(=O)(=O)[O-])cc5F)c5ccc([nH]5)c(-c5c(F)cc(S(=O)(=O)[O-])cc5F)c5nc(c(-c6c(F)cc(S(=O)(=O)[O-])cc6F)c6ccc3[nH]6)C=C5)C=C4)cc2)cccc1-c1ccn(C(F)F)c(=O)c1
REMARK SMILES IDX 10 1 9 2 8 3 7 4 5 5 6 6 4 8 3 9 1 10 2 11 86 12 83 13 85 14
REMARK SMILES IDX 84 15 87 16 88 17 96 18 89 19 94 20 90 21 95 22 91 23 92 24
REMARK SMILES IDX 93 25 11 26 12 27 13 28 14 29 15 30 16 32 17 33 18 34 82 35
REMARK SMILES IDX 19 36 81 37 20 38 21 39 22 40 75 41 23 42 80 43 74 44 76 45
REMARK SMILES IDX 24 46 79 47 73 48 72 49 25 51 59 52 38 53 58 54 39 55 42 56
REMARK SMILES IDX 57 57 77 58 40 59 41 60 56 62 78 63 43 64 26 65 27 66 36 67
REMARK SMILES IDX 28 68 29 69 35 70 37 71 30 72 31 73 32 74 33 75 34 76 60 77
REMARK SMILES IDX 61 78 70 79 62 80 63 81 69 82 71 83 64 84 65 85 66 86 67 87
REMARK SMILES IDX 68 88 44 89 45 90 54 91 46 92 47 93 53 94 55 95 48 96 49 97
REMARK SMILES IDX 50 98 51 99 52 100
REMARK H PARENT 7 7 14 31 76 50 42 61
REMARK Flexibility Score: inf
ROOT
ATOM      1  C   UNL A   1      35.914  22.503  24.505  1.00  0.00     0.002 C 
ENDROOT
BRANCH   1   2
ATOM      2  C   UNL A   1      35.181  21.274  25.059  1.00  0.00     0.021 C 
BRANCH   2   3
ATOM      3  C   UNL A   1      33.698  21.490  25.364  1.00  0.00     0.116 C 
BRANCH   3   4
ATOM      4  N   UNL A   1      32.836  21.076  24.274  1.00  0.00    -0.356 N 
ATOM      5  C   UNL A   1      32.371  21.807  23.218  1.00  0.00     0.224 C 
ATOM      6  O   UNL A   1      31.656  21.248  22.383  1.00  0.00    -0.275 OA
ATOM      7  H   UNL A   1      32.544  20.136  24.299  1.00  0.00     0.163 HD
BRANCH   5   8
ATOM      8  C   UNL A   1      32.777  23.267  23.044  1.00  0.00     0.135 C 
BRANCH   8   9
ATOM      9  C   UNL A   1      32.158  24.219  24.053  1.00  0.00    -0.035 A 
ATOM     10  C   UNL A   1      33.808  26.074  23.478  1.00  0.00     0.045 C 
ATOM     11  C   UNL A   1      32.672  25.518  24.310  1.00  0.00    -0.040 A 
ATOM     12  C   UNL A   1      32.075  26.301  25.332  1.00  0.00    -0.015 A 
ATOM     13  C   UNL A   1      31.027  23.770  24.761  1.00  0.00     0.004 A 
ATOM     14  C   UNL A   1      30.957  25.813  26.029  1.00  0.00     0.009 A 
ATOM     15  C   UNL A   1      30.431  24.560  25.738  1.00  0.00     0.001 A 
BRANCH  12  16
ATOM     16  C   UNL A   1      32.632  27.607  25.749  1.00  0.00    -0.011 A 
ATOM     17  C   UNL A   1      33.920  27.757  26.398  1.00  0.00     0.027 A 
ATOM     18  C   UNL A   1      31.854  28.689  25.576  1.00  0.00     0.080 A 
ATOM     19  C   UNL A   1      34.294  28.945  26.889  1.00  0.00     0.095 A 
ATOM     20  C   UNL A   1      32.271  30.023  26.088  1.00  0.00     0.255 A 
ATOM     21  N   UNL A   1      33.484  30.058  26.758  1.00  0.00    -0.258 N 
ATOM     22  O   UNL A   1      31.517  30.975  25.922  1.00  0.00    -0.269 OA
BRANCH  21  23
ATOM     23  C   UNL A   1      33.874  31.321  27.327  1.00  0.00     0.451 C 
ATOM     24  F   UNL A   1      33.629  31.361  28.658  1.00  0.00    -0.185 F 
ATOM     25  F   UNL A   1      35.195  31.556  27.132  1.00  0.00    -0.185 F 
ENDBRANCH  21  23
ENDBRANCH  12  16
ENDBRANCH   8   9
ENDBRANCH   5   8
ENDBRANCH   3   4
ENDBRANCH   2   3
ENDBRANCH   1   2
BRANCH   1  26
ATOM     26  C   UNL A   1      36.105  23.685  25.470  1.00  0.00     0.002 C 
BRANCH  26  27
ATOM     27  C   UNL A   1      37.336  23.626  26.379  1.00  0.00     0.021 C 
BRANCH  27  28
ATOM     28  C   UNL A   1      38.660  23.629  25.625  1.00  0.00     0.116 C 
BRANCH  28  29
ATOM     29  N   UNL A   1      39.795  23.289  26.473  1.00  0.00    -0.352 N 
ATOM     30  C   UNL A   1      40.590  24.144  27.210  1.00  0.00     0.251 C 
ATOM     31  H   UNL A   1      40.023  22.332  26.527  1.00  0.00     0.163 HD
ATOM     32  O   UNL A   1      41.679  23.813  27.668  1.00  0.00    -0.269 OA
BRANCH  30  33
ATOM     33  C   UNL A   1      39.991  25.432  27.603  1.00  0.00     0.039 A 
ATOM     34  C   UNL A   1      40.409  26.556  26.878  1.00  0.00     0.014 A 
ATOM     35  C   UNL A   1      39.312  25.563  28.812  1.00  0.00     0.014 A 
ATOM     36  C   UNL A   1      40.327  27.809  27.466  1.00  0.00     0.010 A 
ATOM     37  C   UNL A   1      39.306  26.797  29.431  1.00  0.00     0.010 A 
ATOM     38  C   UNL A   1      39.867  27.903  28.780  1.00  0.00    -0.014 A 
BRANCH  38  39
ATOM     39  C   UNL A   1      40.021  29.115  29.570  1.00  0.00     0.031 A 
ATOM     40  C   UNL A   1      38.954  30.136  29.553  1.00  0.00     0.074 A 
ATOM     41  C   UNL A   1      41.147  29.300  30.291  1.00  0.00     0.049 A 
ATOM     42  N   UNL A   1      39.137  31.394  29.766  1.00  0.00    -0.248 NA
ATOM     43  C   UNL A   1      37.575  29.800  29.219  1.00  0.00     0.031 C 
ATOM     44  C   UNL A   1      41.400  30.334  31.288  1.00  0.00     0.029 A 
ATOM     45  N   UNL A   1      42.390  28.694  30.091  1.00  0.00    -0.354 N 
ATOM     46  C   UNL A   1      37.898  31.993  29.835  1.00  0.00     0.074 A 
ATOM     47  C   UNL A   1      36.963  30.968  29.433  1.00  0.00     0.031 C 
ATOM     48  C   UNL A   1      42.727  30.467  31.444  1.00  0.00     0.029 A 
ATOM     49  C   UNL A   1      43.374  29.626  30.449  1.00  0.00     0.049 A 
ATOM     50  H   UNL A   1      42.545  27.780  29.760  1.00  0.00     0.167 HD
ATOM     51  C   UNL A   1      37.781  33.251  30.352  1.00  0.00     0.037 A 
ATOM     52  C   UNL A   1      44.274  30.080  29.528  1.00  0.00     0.037 A 
ATOM     53  C   UNL A   1      39.092  33.802  30.685  1.00  0.00     0.049 A 
ATOM     54  C   UNL A   1      44.161  31.562  29.252  1.00  0.00     0.074 A 
ATOM     55  C   UNL A   1      39.822  33.799  31.864  1.00  0.00     0.029 A 
ATOM     56  N   UNL A   1      39.985  34.143  29.672  1.00  0.00    -0.354 N 
ATOM     57  N   UNL A   1      43.109  32.284  29.531  1.00  0.00    -0.248 NA
ATOM     58  C   UNL A   1      45.233  32.350  28.648  1.00  0.00     0.031 C 
ATOM     59  C   UNL A   1      41.178  34.047  31.542  1.00  0.00     0.029 A 
ATOM     60  C   UNL A   1      41.271  34.240  30.175  1.00  0.00     0.049 A 
ATOM     61  H   UNL A   1      39.736  34.294  28.732  1.00  0.00     0.167 HD
ATOM     62  C   UNL A   1      43.332  33.583  29.156  1.00  0.00     0.074 A 
ATOM     63  C   UNL A   1      44.684  33.577  28.625  1.00  0.00     0.031 C 
ATOM     64  C   UNL A   1      42.396  34.567  29.313  1.00  0.00     0.037 A 
BRANCH  51  65
ATOM     65  C   UNL A   1      36.461  33.790  30.872  1.00  0.00     0.058 A 
ATOM     66  C   UNL A   1      35.439  34.182  29.982  1.00  0.00     0.135 A 
ATOM     67  C   UNL A   1      36.182  34.034  32.231  1.00  0.00     0.135 A 
ATOM     68  F   UNL A   1      35.505  33.907  28.672  1.00  0.00    -0.206 F 
ATOM     69  C   UNL A   1      34.307  34.892  30.390  1.00  0.00     0.059 A 
ATOM     70  C   UNL A   1      35.089  34.796  32.661  1.00  0.00     0.059 A 
ATOM     71  F   UNL A   1      36.950  33.509  33.198  1.00  0.00    -0.206 F 
ATOM     72  C   UNL A   1      34.164  35.239  31.726  1.00  0.00     0.060 A 
BRANCH  72  73
ATOM     73  S   UNL A   1      32.766  36.272  32.210  1.00  0.00     0.124 S 
ATOM     74  O   UNL A   1      33.278  36.955  33.394  1.00  0.00    -0.237 OA
ATOM     75  O   UNL A   1      32.582  37.106  31.027  1.00  0.00    -0.237 OA
ATOM     76  O   UNL A   1      31.701  35.306  32.466  1.00  0.00    -0.744 OA
ENDBRANCH  72  73
ENDBRANCH  51  65
BRANCH  52  77
ATOM     77  C   UNL A   1      44.726  29.045  28.560  1.00  0.00     0.058 A 
ATOM     78  C   UNL A   1      44.102  29.006  27.298  1.00  0.00     0.135 A 
ATOM     79  C   UNL A   1      45.955  28.384  28.690  1.00  0.00     0.135 A 
ATOM     80  F   UNL A   1      42.914  29.607  27.121  1.00  0.00    -0.206 F 
ATOM     81  C   UNL A   1      44.725  28.453  26.184  1.00  0.00     0.059 A 
ATOM     82  C   UNL A   1      46.601  27.823  27.583  1.00  0.00     0.059 A 
ATOM     83  F   UNL A   1      46.595  28.375  29.869  1.00  0.00    -0.206 F 
ATOM     84  C   UNL A   1      46.005  27.919  26.324  1.00  0.00     0.060 A 
BRANCH  84  85
ATOM     85  S   UNL A   1      46.899  27.439  24.826  1.00  0.00     0.124 S 
ATOM     86  O   UNL A   1      46.633  28.564  23.934  1.00  0.00    -0.237 OA
ATOM     87  O   UNL A   1      48.274  27.340  25.314  1.00  0.00    -0.237 OA
ATOM     88  O   UNL A   1      46.267  26.180  24.451  1.00  0.00    -0.744 OA
ENDBRANCH  84  85
ENDBRANCH  52  77
BRANCH  64  89
ATOM     89  C   UNL A   1      42.510  35.967  28.764  1.00  0.00     0.058 A 
ATOM     90  C   UNL A   1      41.955  36.370  27.538  1.00  0.00     0.135 A 
ATOM     91  C   UNL A   1      43.082  36.998  29.547  1.00  0.00     0.135 A 
ATOM     92  F   UNL A   1      41.295  35.503  26.756  1.00  0.00    -0.206 F 
ATOM     93  C   UNL A   1      42.016  37.690  27.088  1.00  0.00     0.059 A 
ATOM     94  C   UNL A   1      43.106  38.329  29.142  1.00  0.00     0.059 A 
ATOM     95  F   UNL A   1      43.629  36.743  30.745  1.00  0.00    -0.206 F 
ATOM     96  C   UNL A   1      42.592  38.664  27.897  1.00  0.00     0.060 A 
BRANCH  96  97
ATOM     97  S   UNL A   1      42.620  40.384  27.360  1.00  0.00     0.124 S 
ATOM     98  O   UNL A   1      43.711  40.925  28.166  1.00  0.00    -0.237 OA
ATOM     99  O   UNL A   1      42.890  40.277  25.929  1.00  0.00    -0.237 OA
ATOM    100  O   UNL A   1      41.284  40.858  27.703  1.00  0.00    -0.744 OA
ENDBRANCH  96  97
ENDBRANCH  64  89
ENDBRANCH  38  39
ENDBRANCH  30  33
ENDBRANCH  28  29
ENDBRANCH  27  28
ENDBRANCH  26  27
ENDBRANCH   1  26
TORSDOF 19
ENDMDL
