MODEL 1
REMARK VINA RESULT:     -10.8      0.000      0.000
REMARK SMILES C[C@H]1[C@@H](C(=O)NCCCCCCNC(=O)c2ccc(-c3c4nc(c(-c5c(F)cc(S(=O)(=O)[O-])cc5F)c5ccc([nH]5)c(-c5c(F)cc(S(=O)(=O)[O-])cc5F)c5nc(c(-c6c(F)cc(S(=O)(=O)[O-])cc6F)c6ccc3[nH]6)C=C5)C=C4)cc2)CC[N@@H+]1CC1(O)CCCC1
REMARK SMILES IDX 9 1 8 2 7 3 6 4 4 5 5 6 3 8 1 9 2 10 84 11 82 12 83 13 85 15
REMARK SMILES IDX 86 16 88 17 91 18 89 19 90 20 87 21 10 23 11 24 12 25 13 26
REMARK SMILES IDX 14 27 15 29 16 30 17 31 81 32 18 33 80 34 19 35 20 36 21 37
REMARK SMILES IDX 74 38 22 39 79 40 73 41 75 42 23 43 78 44 72 45 71 46 24 48
REMARK SMILES IDX 58 49 37 50 57 51 38 52 41 53 56 54 76 55 39 56 40 57 55 59
REMARK SMILES IDX 77 60 42 61 25 62 26 63 35 64 27 65 28 66 34 67 36 68 29 69
REMARK SMILES IDX 30 70 31 71 32 72 33 73 59 74 60 75 69 76 61 77 62 78 68 79
REMARK SMILES IDX 70 80 63 81 64 82 65 83 66 84 67 85 43 86 44 87 53 88 45 89
REMARK SMILES IDX 46 90 52 91 54 92 47 93 48 94 49 95 50 96 51 97
REMARK H PARENT 6 7 84 14 87 22 13 28 75 47 41 58
REMARK Flexibility Score: inf
ROOT
ATOM      1  C   UNL A   1      39.371  21.470  26.231  1.00  0.00     0.002 C 
ENDROOT
BRANCH   1   2
ATOM      2  C   UNL A   1      37.980  21.827  25.705  1.00  0.00     0.021 C 
BRANCH   2   3
ATOM      3  C   UNL A   1      37.338  20.736  24.842  1.00  0.00     0.116 C 
BRANCH   3   4
ATOM      4  N   UNL A   1      36.003  20.494  25.340  1.00  0.00    -0.356 N 
ATOM      5  C   UNL A   1      34.902  21.292  25.260  1.00  0.00     0.229 C 
ATOM      6  O   UNL A   1      34.043  21.116  26.128  1.00  0.00    -0.275 OA
ATOM      7  H   UNL A   1      35.872  19.634  25.801  1.00  0.00     0.163 HD
BRANCH   5   8
ATOM      8  C   UNL A   1      34.680  22.201  24.047  1.00  0.00     0.142 C 
ATOM      9  C   UNL A   1      35.488  24.364  25.353  1.00  0.00     0.076 C 
ATOM     10  C   UNL A   1      34.994  23.715  24.068  1.00  0.00     0.193 C 
ATOM     11  N   UNL A   1      33.746  24.415  23.742  1.00  0.00    -0.330 N 
ATOM     12  C   UNL A   1      33.204  22.134  23.606  1.00  0.00     0.081 C 
ATOM     13  C   UNL A   1      32.643  23.494  23.955  1.00  0.00     0.263 C 
ATOM     14  H   UNL A   1      33.637  25.194  24.389  1.00  0.00     0.348 HD
BRANCH  11  15
ATOM     15  C   UNL A   1      33.729  25.212  22.511  1.00  0.00     0.297 C 
BRANCH  15  16
ATOM     16  C   UNL A   1      33.203  26.672  22.498  1.00  0.00     0.113 C 
ATOM     17  C   UNL A   1      33.682  27.566  23.647  1.00  0.00     0.041 C 
ATOM     18  C   UNL A   1      31.683  26.710  22.709  1.00  0.00     0.041 C 
ATOM     19  C   UNL A   1      32.658  28.700  23.719  1.00  0.00     0.003 C 
ATOM     20  C   UNL A   1      31.389  28.167  23.058  1.00  0.00     0.003 C 
BRANCH  16  21
ATOM     21  O   UNL A   1      33.472  27.270  21.223  1.00  0.00    -0.384 OA
ATOM     22  H   UNL A   1      32.849  26.923  20.567  1.00  0.00     0.211 HD
ENDBRANCH  16  21
ENDBRANCH  15  16
ENDBRANCH  11  15
ENDBRANCH   5   8
ENDBRANCH   3   4
ENDBRANCH   2   3
ENDBRANCH   1   2
BRANCH   1  23
ATOM     23  C   UNL A   1      39.952  22.496  27.205  1.00  0.00     0.002 C 
BRANCH  23  24
ATOM     24  C   UNL A   1      41.354  22.169  27.730  1.00  0.00     0.021 C 
BRANCH  24  25
ATOM     25  C   UNL A   1      42.326  23.347  27.742  1.00  0.00     0.116 C 
BRANCH  25  26
ATOM     26  N   UNL A   1      42.334  24.050  26.470  1.00  0.00    -0.352 N 
ATOM     27  C   UNL A   1      41.921  25.323  26.183  1.00  0.00     0.251 C 
ATOM     28  H   UNL A   1      42.687  23.537  25.706  1.00  0.00     0.163 HD
ATOM     29  O   UNL A   1      41.760  25.669  25.013  1.00  0.00    -0.269 OA
BRANCH  27  30
ATOM     30  C   UNL A   1      41.659  26.274  27.281  1.00  0.00     0.039 A 
ATOM     31  C   UNL A   1      40.587  26.035  28.145  1.00  0.00     0.014 A 
ATOM     32  C   UNL A   1      42.461  27.408  27.448  1.00  0.00     0.014 A 
ATOM     33  C   UNL A   1      40.349  26.911  29.205  1.00  0.00     0.010 A 
ATOM     34  C   UNL A   1      42.263  28.241  28.544  1.00  0.00     0.010 A 
ATOM     35  C   UNL A   1      41.200  28.006  29.429  1.00  0.00    -0.014 A 
BRANCH  35  36
ATOM     36  C   UNL A   1      40.986  28.921  30.578  1.00  0.00     0.031 A 
ATOM     37  C   UNL A   1      41.829  28.785  31.818  1.00  0.00     0.074 A 
ATOM     38  C   UNL A   1      39.998  29.835  30.526  1.00  0.00     0.049 A 
ATOM     39  N   UNL A   1      41.755  29.448  32.942  1.00  0.00    -0.248 NA
ATOM     40  C   UNL A   1      42.873  27.748  31.800  1.00  0.00     0.031 C 
ATOM     41  C   UNL A   1      39.086  30.030  29.396  1.00  0.00     0.029 A 
ATOM     42  N   UNL A   1      39.588  30.765  31.447  1.00  0.00    -0.354 N 
ATOM     43  C   UNL A   1      42.732  28.904  33.767  1.00  0.00     0.074 A 
ATOM     44  C   UNL A   1      43.349  27.820  33.034  1.00  0.00     0.031 C 
ATOM     45  C   UNL A   1      38.238  31.031  29.683  1.00  0.00     0.029 A 
ATOM     46  C   UNL A   1      38.521  31.526  31.027  1.00  0.00     0.049 A 
ATOM     47  H   UNL A   1      40.017  30.877  32.326  1.00  0.00     0.167 HD
ATOM     48  C   UNL A   1      43.097  29.287  35.015  1.00  0.00     0.037 A 
ATOM     49  C   UNL A   1      37.845  32.504  31.657  1.00  0.00     0.037 A 
ATOM     50  C   UNL A   1      42.493  30.382  35.729  1.00  0.00     0.049 A 
ATOM     51  C   UNL A   1      38.268  32.913  33.041  1.00  0.00     0.074 A 
ATOM     52  C   UNL A   1      42.830  30.890  36.971  1.00  0.00     0.029 A 
ATOM     53  N   UNL A   1      41.427  31.139  35.265  1.00  0.00    -0.354 N 
ATOM     54  N   UNL A   1      39.235  32.430  33.783  1.00  0.00    -0.248 NA
ATOM     55  C   UNL A   1      37.511  34.002  33.674  1.00  0.00     0.031 C 
ATOM     56  C   UNL A   1      41.939  31.925  37.277  1.00  0.00     0.029 A 
ATOM     57  C   UNL A   1      41.078  32.094  36.204  1.00  0.00     0.049 A 
ATOM     58  H   UNL A   1      40.983  31.015  34.394  1.00  0.00     0.167 HD
ATOM     59  C   UNL A   1      39.220  33.171  34.960  1.00  0.00     0.074 A 
ATOM     60  C   UNL A   1      38.155  34.144  34.825  1.00  0.00     0.031 C 
ATOM     61  C   UNL A   1      40.015  33.056  36.052  1.00  0.00     0.037 A 
BRANCH  48  62
ATOM     62  C   UNL A   1      44.205  28.519  35.683  1.00  0.00     0.058 A 
ATOM     63  C   UNL A   1      43.942  27.416  36.511  1.00  0.00     0.135 A 
ATOM     64  C   UNL A   1      45.548  28.872  35.472  1.00  0.00     0.135 A 
ATOM     65  F   UNL A   1      42.676  27.043  36.759  1.00  0.00    -0.206 F 
ATOM     66  C   UNL A   1      44.967  26.712  37.134  1.00  0.00     0.059 A 
ATOM     67  C   UNL A   1      46.591  28.164  36.063  1.00  0.00     0.059 A 
ATOM     68  F   UNL A   1      45.857  29.918  34.689  1.00  0.00    -0.206 F 
ATOM     69  C   UNL A   1      46.290  27.095  36.905  1.00  0.00     0.060 A 
BRANCH  69  70
ATOM     70  S   UNL A   1      47.608  26.173  37.723  1.00  0.00     0.124 S 
ATOM     71  O   UNL A   1      47.676  24.971  36.899  1.00  0.00    -0.237 OA
ATOM     72  O   UNL A   1      48.743  27.083  37.611  1.00  0.00    -0.237 OA
ATOM     73  O   UNL A   1      47.097  25.978  39.076  1.00  0.00    -0.744 OA
ENDBRANCH  69  70
ENDBRANCH  48  62
BRANCH  49  74
ATOM     74  C   UNL A   1      36.712  33.181  30.971  1.00  0.00     0.058 A 
ATOM     75  C   UNL A   1      36.943  34.115  29.951  1.00  0.00     0.135 A 
ATOM     76  C   UNL A   1      35.380  32.894  31.306  1.00  0.00     0.135 A 
ATOM     77  F   UNL A   1      38.199  34.428  29.599  1.00  0.00    -0.206 F 
ATOM     78  C   UNL A   1      35.895  34.751  29.294  1.00  0.00     0.059 A 
ATOM     79  C   UNL A   1      34.314  33.498  30.647  1.00  0.00     0.059 A 
ATOM     80  F   UNL A   1      35.106  31.994  32.263  1.00  0.00    -0.206 F 
ATOM     81  C   UNL A   1      34.583  34.433  29.647  1.00  0.00     0.060 A 
BRANCH  81  82
ATOM     82  S   UNL A   1      33.227  35.221  28.750  1.00  0.00     0.124 S 
ATOM     83  O   UNL A   1      33.947  36.162  27.900  1.00  0.00    -0.237 OA
ATOM     84  O   UNL A   1      32.609  34.088  28.070  1.00  0.00    -0.237 OA
ATOM     85  O   UNL A   1      32.424  35.818  29.815  1.00  0.00    -0.744 OA
ENDBRANCH  81  82
ENDBRANCH  49  74
BRANCH  61  86
ATOM     86  C   UNL A   1      39.780  34.022  37.180  1.00  0.00     0.058 A 
ATOM     87  C   UNL A   1      38.912  33.720  38.240  1.00  0.00     0.135 A 
ATOM     88  C   UNL A   1      40.473  35.243  37.226  1.00  0.00     0.135 A 
ATOM     89  F   UNL A   1      38.220  32.569  38.240  1.00  0.00    -0.206 F 
ATOM     90  C   UNL A   1      38.722  34.604  39.297  1.00  0.00     0.059 A 
ATOM     91  C   UNL A   1      40.318  36.130  38.287  1.00  0.00     0.059 A 
ATOM     92  F   UNL A   1      41.323  35.576  36.243  1.00  0.00    -0.206 F 
ATOM     93  C   UNL A   1      39.432  35.806  39.313  1.00  0.00     0.060 A 
BRANCH  93  94
ATOM     94  S   UNL A   1      39.201  36.929  40.707  1.00  0.00     0.124 S 
ATOM     95  O   UNL A   1      38.351  37.958  40.120  1.00  0.00    -0.237 OA
ATOM     96  O   UNL A   1      38.563  36.069  41.699  1.00  0.00    -0.237 OA
ATOM     97  O   UNL A   1      40.561  37.348  41.034  1.00  0.00    -0.744 OA
ENDBRANCH  93  94
ENDBRANCH  61  86
ENDBRANCH  35  36
ENDBRANCH  27  30
ENDBRANCH  25  26
ENDBRANCH  24  25
ENDBRANCH  23  24
ENDBRANCH   1  23
TORSDOF 19
ENDMDL
MODEL 2
REMARK VINA RESULT:     -10.7      6.018      8.483
REMARK SMILES C[C@H]1[C@@H](C(=O)NCCCCCCNC(=O)c2ccc(-c3c4nc(c(-c5c(F)cc(S(=O)(=O)[O-])cc5F)c5ccc([nH]5)c(-c5c(F)cc(S(=O)(=O)[O-])cc5F)c5nc(c(-c6c(F)cc(S(=O)(=O)[O-])cc6F)c6ccc3[nH]6)C=C5)C=C4)cc2)CC[N@@H+]1CC1(O)CCCC1
REMARK SMILES IDX 9 1 8 2 7 3 6 4 4 5 5 6 3 8 1 9 2 10 84 11 82 12 83 13 85 15
REMARK SMILES IDX 86 16 88 17 91 18 89 19 90 20 87 21 10 23 11 24 12 25 13 26
REMARK SMILES IDX 14 27 15 29 16 30 17 31 81 32 18 33 80 34 19 35 20 36 21 37
REMARK SMILES IDX 74 38 22 39 79 40 73 41 75 42 23 43 78 44 72 45 71 46 24 48
REMARK SMILES IDX 58 49 37 50 57 51 38 52 41 53 56 54 76 55 39 56 40 57 55 59
REMARK SMILES IDX 77 60 42 61 25 62 26 63 35 64 27 65 28 66 34 67 36 68 29 69
REMARK SMILES IDX 30 70 31 71 32 72 33 73 59 74 60 75 69 76 61 77 62 78 68 79
REMARK SMILES IDX 70 80 63 81 64 82 65 83 66 84 67 85 43 86 44 87 53 88 45 89
REMARK SMILES IDX 46 90 52 91 54 92 47 93 48 94 49 95 50 96 51 97
REMARK H PARENT 6 7 84 14 87 22 13 28 75 47 41 58
REMARK Flexibility Score: inf
ROOT
ATOM      1  C   UNL A   1      37.395  22.068  24.609  1.00  0.00     0.002 C 
ENDROOT
BRANCH   1   2
ATOM      2  C   UNL A   1      36.316  22.797  23.808  1.00  0.00     0.021 C 
BRANCH   2   3
ATOM      3  C   UNL A   1      34.972  22.918  24.534  1.00  0.00     0.116 C 
BRANCH   3   4
ATOM      4  N   UNL A   1      33.919  22.642  23.584  1.00  0.00    -0.356 N 
ATOM      5  C   UNL A   1      32.822  23.390  23.281  1.00  0.00     0.229 C 
ATOM      6  O   UNL A   1      31.856  22.774  22.825  1.00  0.00    -0.275 OA
ATOM      7  H   UNL A   1      34.006  21.795  23.089  1.00  0.00     0.163 HD
BRANCH   5   8
ATOM      8  C   UNL A   1      32.881  24.921  23.325  1.00  0.00     0.142 C 
ATOM      9  C   UNL A   1      30.630  25.101  24.717  1.00  0.00     0.076 C 
ATOM     10  C   UNL A   1      31.822  25.778  24.057  1.00  0.00     0.193 C 
ATOM     11  N   UNL A   1      31.243  26.685  23.060  1.00  0.00    -0.330 N 
ATOM     12  C   UNL A   1      32.889  25.486  21.891  1.00  0.00     0.081 C 
ATOM     13  C   UNL A   1      31.543  26.156  21.740  1.00  0.00     0.263 C 
ATOM     14  H   UNL A   1      30.231  26.686  23.177  1.00  0.00     0.348 HD
BRANCH  11  15
ATOM     15  C   UNL A   1      31.441  28.123  23.268  1.00  0.00     0.297 C 
BRANCH  15  16
ATOM     16  C   UNL A   1      30.359  29.158  22.861  1.00  0.00     0.113 C 
ATOM     17  C   UNL A   1      30.072  30.263  23.883  1.00  0.00     0.041 C 
ATOM     18  C   UNL A   1      28.979  28.493  22.750  1.00  0.00     0.041 C 
ATOM     19  C   UNL A   1      28.679  30.783  23.521  1.00  0.00     0.003 C 
ATOM     20  C   UNL A   1      27.999  29.663  22.737  1.00  0.00     0.003 C 
BRANCH  16  21
ATOM     21  O   UNL A   1      30.674  29.704  21.574  1.00  0.00    -0.384 OA
ATOM     22  H   UNL A   1      30.034  29.381  20.921  1.00  0.00     0.211 HD
ENDBRANCH  16  21
ENDBRANCH  15  16
ENDBRANCH  11  15
ENDBRANCH   5   8
ENDBRANCH   3   4
ENDBRANCH   2   3
ENDBRANCH   1   2
BRANCH   1  23
ATOM     23  C   UNL A   1      37.069  20.604  24.908  1.00  0.00     0.002 C 
BRANCH  23  24
ATOM     24  C   UNL A   1      38.287  19.693  25.091  1.00  0.00     0.021 C 
BRANCH  24  25
ATOM     25  C   UNL A   1      39.362  20.238  26.030  1.00  0.00     0.116 C 
BRANCH  25  26
ATOM     26  N   UNL A   1      40.499  19.338  26.128  1.00  0.00    -0.352 N 
ATOM     27  C   UNL A   1      41.834  19.636  26.174  1.00  0.00     0.251 C 
ATOM     28  H   UNL A   1      40.276  18.379  26.165  1.00  0.00     0.163 HD
ATOM     29  O   UNL A   1      42.668  18.747  25.998  1.00  0.00    -0.269 OA
BRANCH  27  30
ATOM     30  C   UNL A   1      42.268  21.024  26.424  1.00  0.00     0.039 A 
ATOM     31  C   UNL A   1      42.523  21.429  27.736  1.00  0.00     0.014 A 
ATOM     32  C   UNL A   1      42.406  21.928  25.366  1.00  0.00     0.014 A 
ATOM     33  C   UNL A   1      42.964  22.731  27.982  1.00  0.00     0.010 A 
ATOM     34  C   UNL A   1      42.909  23.203  25.606  1.00  0.00     0.010 A 
ATOM     35  C   UNL A   1      43.185  23.620  26.916  1.00  0.00    -0.014 A 
BRANCH  35  36
ATOM     36  C   UNL A   1      43.695  24.993  27.157  1.00  0.00     0.031 A 
ATOM     37  C   UNL A   1      45.156  25.299  26.965  1.00  0.00     0.074 A 
ATOM     38  C   UNL A   1      42.854  25.946  27.602  1.00  0.00     0.049 A 
ATOM     39  N   UNL A   1      45.800  26.417  27.180  1.00  0.00    -0.248 NA
ATOM     40  C   UNL A   1      46.010  24.196  26.496  1.00  0.00     0.031 C 
ATOM     41  C   UNL A   1      41.427  25.757  27.869  1.00  0.00     0.029 A 
ATOM     42  N   UNL A   1      43.078  27.263  27.916  1.00  0.00    -0.354 N 
ATOM     43  C   UNL A   1      47.131  26.150  26.885  1.00  0.00     0.074 A 
ATOM     44  C   UNL A   1      47.212  24.751  26.527  1.00  0.00     0.031 C 
ATOM     45  C   UNL A   1      40.899  26.919  28.287  1.00  0.00     0.029 A 
ATOM     46  C   UNL A   1      41.954  27.926  28.352  1.00  0.00     0.049 A 
ATOM     47  H   UNL A   1      43.960  27.693  27.839  1.00  0.00     0.167 HD
ATOM     48  C   UNL A   1      48.186  27.000  26.889  1.00  0.00     0.037 A 
ATOM     49  C   UNL A   1      41.794  29.198  28.762  1.00  0.00     0.037 A 
ATOM     50  C   UNL A   1      48.093  28.397  27.223  1.00  0.00     0.049 A 
ATOM     51  C   UNL A   1      42.980  30.123  28.758  1.00  0.00     0.074 A 
ATOM     52  C   UNL A   1      49.090  29.357  27.200  1.00  0.00     0.029 A 
ATOM     53  N   UNL A   1      46.935  29.036  27.643  1.00  0.00    -0.354 N 
ATOM     54  N   UNL A   1      44.220  29.870  28.416  1.00  0.00    -0.248 NA
ATOM     55  C   UNL A   1      42.745  31.507  29.193  1.00  0.00     0.031 C 
ATOM     56  C   UNL A   1      48.544  30.565  27.647  1.00  0.00     0.029 A 
ATOM     57  C   UNL A   1      47.196  30.370  27.903  1.00  0.00     0.049 A 
ATOM     58  H   UNL A   1      46.056  28.603  27.741  1.00  0.00     0.167 HD
ATOM     59  C   UNL A   1      44.909  31.068  28.570  1.00  0.00     0.074 A 
ATOM     60  C   UNL A   1      43.944  32.048  29.024  1.00  0.00     0.031 C 
ATOM     61  C   UNL A   1      46.222  31.333  28.354  1.00  0.00     0.037 A 
BRANCH  48  62
ATOM     62  C   UNL A   1      49.532  26.440  26.514  1.00  0.00     0.058 A 
ATOM     63  C   UNL A   1      50.370  25.836  27.465  1.00  0.00     0.135 A 
ATOM     64  C   UNL A   1      49.980  26.484  25.183  1.00  0.00     0.135 A 
ATOM     65  F   UNL A   1      49.999  25.779  28.754  1.00  0.00    -0.206 F 
ATOM     66  C   UNL A   1      51.617  25.326  27.118  1.00  0.00     0.059 A 
ATOM     67  C   UNL A   1      51.212  25.955  24.809  1.00  0.00     0.059 A 
ATOM     68  F   UNL A   1      49.220  27.050  24.233  1.00  0.00    -0.206 F 
ATOM     69  C   UNL A   1      52.031  25.392  25.787  1.00  0.00     0.060 A 
BRANCH  69  70
ATOM     70  S   UNL A   1      53.652  24.729  25.355  1.00  0.00     0.124 S 
ATOM     71  O   UNL A   1      54.384  24.914  26.603  1.00  0.00    -0.237 OA
ATOM     72  O   UNL A   1      53.341  23.347  25.002  1.00  0.00    -0.237 OA
ATOM     73  O   UNL A   1      54.080  25.575  24.245  1.00  0.00    -0.744 OA
ENDBRANCH  69  70
ENDBRANCH  48  62
BRANCH  49  74
ATOM     74  C   UNL A   1      40.451  29.676  29.187  1.00  0.00     0.058 A 
ATOM     75  C   UNL A   1      39.425  29.866  28.250  1.00  0.00     0.135 A 
ATOM     76  C   UNL A   1      40.161  29.930  30.536  1.00  0.00     0.135 A 
ATOM     77  F   UNL A   1      39.655  29.641  26.948  1.00  0.00    -0.206 F 
ATOM     78  C   UNL A   1      38.161  30.304  28.632  1.00  0.00     0.059 A 
ATOM     79  C   UNL A   1      38.898  30.346  30.946  1.00  0.00     0.059 A 
ATOM     80  F   UNL A   1      41.104  29.747  31.473  1.00  0.00    -0.206 F 
ATOM     81  C   UNL A   1      37.907  30.539  29.984  1.00  0.00     0.060 A 
BRANCH  81  82
ATOM     82  S   UNL A   1      36.247  31.054  30.478  1.00  0.00     0.124 S 
ATOM     83  O   UNL A   1      35.900  30.027  31.453  1.00  0.00    -0.237 OA
ATOM     84  O   UNL A   1      36.486  32.390  31.013  1.00  0.00    -0.237 OA
ATOM     85  O   UNL A   1      35.498  31.015  29.224  1.00  0.00    -0.744 OA
ENDBRANCH  81  82
ENDBRANCH  49  74
BRANCH  61  86
ATOM     86  C   UNL A   1      46.688  32.743  28.584  1.00  0.00     0.058 A 
ATOM     87  C   UNL A   1      47.192  33.159  29.826  1.00  0.00     0.135 A 
ATOM     88  C   UNL A   1      46.677  33.676  27.534  1.00  0.00     0.135 A 
ATOM     89  F   UNL A   1      47.218  32.308  30.864  1.00  0.00    -0.206 F 
ATOM     90  C   UNL A   1      47.652  34.457  30.025  1.00  0.00     0.059 A 
ATOM     91  C   UNL A   1      47.155  34.971  27.704  1.00  0.00     0.059 A 
ATOM     92  F   UNL A   1      46.213  33.327  26.324  1.00  0.00    -0.206 F 
ATOM     93  C   UNL A   1      47.630  35.356  28.957  1.00  0.00     0.060 A 
BRANCH  93  94
ATOM     94  S   UNL A   1      48.260  37.027  29.220  1.00  0.00     0.124 S 
ATOM     95  O   UNL A   1      47.150  37.652  29.929  1.00  0.00    -0.237 OA
ATOM     96  O   UNL A   1      49.463  36.787  30.010  1.00  0.00    -0.237 OA
ATOM     97  O   UNL A   1      48.497  37.518  27.865  1.00  0.00    -0.744 OA
ENDBRANCH  93  94
ENDBRANCH  61  86
ENDBRANCH  35  36
ENDBRANCH  27  30
ENDBRANCH  25  26
ENDBRANCH  24  25
ENDBRANCH  23  24
ENDBRANCH   1  23
TORSDOF 19
ENDMDL
MODEL 3
REMARK VINA RESULT:     -10.7      4.809     10.698
REMARK SMILES C[C@H]1[C@@H](C(=O)NCCCCCCNC(=O)c2ccc(-c3c4nc(c(-c5c(F)cc(S(=O)(=O)[O-])cc5F)c5ccc([nH]5)c(-c5c(F)cc(S(=O)(=O)[O-])cc5F)c5nc(c(-c6c(F)cc(S(=O)(=O)[O-])cc6F)c6ccc3[nH]6)C=C5)C=C4)cc2)CC[N@@H+]1CC1(O)CCCC1
REMARK SMILES IDX 9 1 8 2 7 3 6 4 4 5 5 6 3 8 1 9 2 10 84 11 82 12 83 13 85 15
REMARK SMILES IDX 86 16 88 17 91 18 89 19 90 20 87 21 10 23 11 24 12 25 13 26
REMARK SMILES IDX 14 27 15 29 16 30 17 31 81 32 18 33 80 34 19 35 20 36 21 37
REMARK SMILES IDX 74 38 22 39 79 40 73 41 75 42 23 43 78 44 72 45 71 46 24 48
REMARK SMILES IDX 58 49 37 50 57 51 38 52 41 53 56 54 76 55 39 56 40 57 55 59
REMARK SMILES IDX 77 60 42 61 25 62 26 63 35 64 27 65 28 66 34 67 36 68 29 69
REMARK SMILES IDX 30 70 31 71 32 72 33 73 59 74 60 75 69 76 61 77 62 78 68 79
REMARK SMILES IDX 70 80 63 81 64 82 65 83 66 84 67 85 43 86 44 87 53 88 45 89
REMARK SMILES IDX 46 90 52 91 54 92 47 93 48 94 49 95 50 96 51 97
REMARK H PARENT 6 7 84 14 87 22 13 28 75 47 41 58
REMARK Flexibility Score: inf
ROOT
ATOM      1  C   UNL A   1      30.958  28.437  24.482  1.00  0.00     0.002 C 
ENDROOT
BRANCH   1   2
ATOM      2  C   UNL A   1      29.911  27.567  23.786  1.00  0.00     0.021 C 
BRANCH   2   3
ATOM      3  C   UNL A   1      30.260  26.076  23.748  1.00  0.00     0.116 C 
BRANCH   3   4
ATOM      4  N   UNL A   1      31.395  25.900  22.872  1.00  0.00    -0.356 N 
ATOM      5  C   UNL A   1      32.328  24.907  22.868  1.00  0.00     0.229 C 
ATOM      6  O   UNL A   1      33.423  25.196  22.380  1.00  0.00    -0.275 OA
ATOM      7  H   UNL A   1      31.512  26.595  22.184  1.00  0.00     0.163 HD
BRANCH   5   8
ATOM      8  C   UNL A   1      31.950  23.477  23.267  1.00  0.00     0.142 C 
ATOM      9  C   UNL A   1      32.580  23.879  25.813  1.00  0.00     0.076 C 
ATOM     10  C   UNL A   1      32.041  22.964  24.724  1.00  0.00     0.193 C 
ATOM     11  N   UNL A   1      32.943  21.808  24.714  1.00  0.00    -0.330 N 
ATOM     12  C   UNL A   1      32.798  22.469  22.466  1.00  0.00     0.081 C 
ATOM     13  C   UNL A   1      33.724  21.854  23.490  1.00  0.00     0.263 C 
ATOM     14  H   UNL A   1      33.585  21.895  25.501  1.00  0.00     0.348 HD
BRANCH  11  15
ATOM     15  C   UNL A   1      32.375  20.512  25.100  1.00  0.00     0.297 C 
BRANCH  15  16
ATOM     16  C   UNL A   1      33.096  19.179  24.764  1.00  0.00     0.113 C 
ATOM     17  C   UNL A   1      32.800  18.587  23.383  1.00  0.00     0.041 C 
ATOM     18  C   UNL A   1      32.609  18.047  25.681  1.00  0.00     0.041 C 
ATOM     19  C   UNL A   1      33.156  17.104  23.504  1.00  0.00     0.003 C 
ATOM     20  C   UNL A   1      33.093  16.773  24.993  1.00  0.00     0.003 C 
BRANCH  16  21
ATOM     21  O   UNL A   1      34.506  19.325  24.980  1.00  0.00    -0.384 OA
ATOM     22  H   UNL A   1      34.679  20.175  25.413  1.00  0.00     0.211 HD
ENDBRANCH  16  21
ENDBRANCH  15  16
ENDBRANCH  11  15
ENDBRANCH   5   8
ENDBRANCH   3   4
ENDBRANCH   2   3
ENDBRANCH   1   2
BRANCH   1  23
ATOM     23  C   UNL A   1      31.569  27.800  25.731  1.00  0.00     0.002 C 
BRANCH  23  24
ATOM     24  C   UNL A   1      33.101  27.777  25.763  1.00  0.00     0.021 C 
BRANCH  24  25
ATOM     25  C   UNL A   1      33.721  28.182  27.099  1.00  0.00     0.116 C 
BRANCH  25  26
ATOM     26  N   UNL A   1      33.573  29.606  27.351  1.00  0.00    -0.352 N 
ATOM     27  C   UNL A   1      34.432  30.465  27.982  1.00  0.00     0.251 C 
ATOM     28  H   UNL A   1      32.737  30.009  27.021  1.00  0.00     0.163 HD
ATOM     29  O   UNL A   1      34.040  31.578  28.334  1.00  0.00    -0.269 OA
BRANCH  27  30
ATOM     30  C   UNL A   1      35.823  30.049  28.247  1.00  0.00     0.039 A 
ATOM     31  C   UNL A   1      36.751  30.079  27.203  1.00  0.00     0.014 A 
ATOM     32  C   UNL A   1      36.206  29.613  29.519  1.00  0.00     0.014 A 
ATOM     33  C   UNL A   1      38.076  29.716  27.448  1.00  0.00     0.010 A 
ATOM     34  C   UNL A   1      37.540  29.317  29.777  1.00  0.00     0.010 A 
ATOM     35  C   UNL A   1      38.487  29.357  28.744  1.00  0.00    -0.014 A 
BRANCH  35  36
ATOM     36  C   UNL A   1      39.902  29.012  29.030  1.00  0.00     0.031 A 
ATOM     37  C   UNL A   1      40.822  30.040  29.632  1.00  0.00     0.074 A 
ATOM     38  C   UNL A   1      40.370  27.794  28.697  1.00  0.00     0.049 A 
ATOM     39  N   UNL A   1      42.099  29.947  29.900  1.00  0.00    -0.248 NA
ATOM     40  C   UNL A   1      40.236  31.352  29.947  1.00  0.00     0.031 C 
ATOM     41  C   UNL A   1      39.585  26.730  28.066  1.00  0.00     0.029 A 
ATOM     42  N   UNL A   1      41.620  27.246  28.833  1.00  0.00    -0.354 N 
ATOM     43  C   UNL A   1      42.470  31.188  30.404  1.00  0.00     0.074 A 
ATOM     44  C   UNL A   1      41.297  32.033  30.354  1.00  0.00     0.031 C 
ATOM     45  C   UNL A   1      40.366  25.652  27.889  1.00  0.00     0.029 A 
ATOM     46  C   UNL A   1      41.713  25.957  28.361  1.00  0.00     0.049 A 
ATOM     47  H   UNL A   1      42.380  27.730  29.231  1.00  0.00     0.167 HD
ATOM     48  C   UNL A   1      43.674  31.580  30.886  1.00  0.00     0.037 A 
ATOM     49  C   UNL A   1      42.767  25.121  28.307  1.00  0.00     0.037 A 
ATOM     50  C   UNL A   1      44.831  30.726  30.955  1.00  0.00     0.049 A 
ATOM     51  C   UNL A   1      44.093  25.578  28.848  1.00  0.00     0.074 A 
ATOM     52  C   UNL A   1      46.080  31.007  31.480  1.00  0.00     0.029 A 
ATOM     53  N   UNL A   1      44.882  29.423  30.481  1.00  0.00    -0.354 N 
ATOM     54  N   UNL A   1      44.412  26.734  29.379  1.00  0.00    -0.248 NA
ATOM     55  C   UNL A   1      45.204  24.617  28.786  1.00  0.00     0.031 C 
ATOM     56  C   UNL A   1      46.898  29.889  31.286  1.00  0.00     0.029 A 
ATOM     57  C   UNL A   1      46.146  28.894  30.682  1.00  0.00     0.049 A 
ATOM     58  H   UNL A   1      44.130  28.943  30.064  1.00  0.00     0.167 HD
ATOM     59  C   UNL A   1      45.752  26.632  29.737  1.00  0.00     0.074 A 
ATOM     60  C   UNL A   1      46.180  25.297  29.374  1.00  0.00     0.031 C 
ATOM     61  C   UNL A   1      46.554  27.560  30.315  1.00  0.00     0.037 A 
BRANCH  48  62
ATOM     62  C   UNL A   1      43.797  32.996  31.383  1.00  0.00     0.058 A 
ATOM     63  C   UNL A   1      43.526  33.334  32.718  1.00  0.00     0.135 A 
ATOM     64  C   UNL A   1      44.216  34.022  30.521  1.00  0.00     0.135 A 
ATOM     65  F   UNL A   1      43.108  32.396  33.583  1.00  0.00    -0.206 F 
ATOM     66  C   UNL A   1      43.633  34.645  33.173  1.00  0.00     0.059 A 
ATOM     67  C   UNL A   1      44.356  35.335  30.962  1.00  0.00     0.059 A 
ATOM     68  F   UNL A   1      44.489  33.755  29.234  1.00  0.00    -0.206 F 
ATOM     69  C   UNL A   1      44.047  35.640  32.286  1.00  0.00     0.060 A 
BRANCH  69  70
ATOM     70  S   UNL A   1      44.177  37.334  32.892  1.00  0.00     0.124 S 
ATOM     71  O   UNL A   1      44.005  38.097  31.660  1.00  0.00    -0.237 OA
ATOM     72  O   UNL A   1      43.074  37.413  33.844  1.00  0.00    -0.237 OA
ATOM     73  O   UNL A   1      45.512  37.384  33.480  1.00  0.00    -0.744 OA
ENDBRANCH  69  70
ENDBRANCH  48  62
BRANCH  49  74
ATOM     74  C   UNL A   1      42.600  23.756  27.740  1.00  0.00     0.058 A 
ATOM     75  C   UNL A   1      42.465  22.640  28.579  1.00  0.00     0.135 A 
ATOM     76  C   UNL A   1      42.551  23.542  26.354  1.00  0.00     0.135 A 
ATOM     77  F   UNL A   1      42.511  22.792  29.911  1.00  0.00    -0.206 F 
ATOM     78  C   UNL A   1      42.300  21.357  28.065  1.00  0.00     0.059 A 
ATOM     79  C   UNL A   1      42.362  22.273  25.816  1.00  0.00     0.059 A 
ATOM     80  F   UNL A   1      42.658  24.580  25.510  1.00  0.00    -0.206 F 
ATOM     81  C   UNL A   1      42.247  21.185  26.681  1.00  0.00     0.060 A 
BRANCH  81  82
ATOM     82  S   UNL A   1      41.976  19.524  26.024  1.00  0.00     0.124 S 
ATOM     83  O   UNL A   1      40.540  19.539  25.775  1.00  0.00    -0.237 OA
ATOM     84  O   UNL A   1      42.830  19.519  24.841  1.00  0.00    -0.237 OA
ATOM     85  O   UNL A   1      42.421  18.657  27.112  1.00  0.00    -0.744 OA
ENDBRANCH  81  82
ENDBRANCH  49  74
BRANCH  61  86
ATOM     86  C   UNL A   1      47.972  27.157  30.612  1.00  0.00     0.058 A 
ATOM     87  C   UNL A   1      48.997  27.320  29.668  1.00  0.00     0.135 A 
ATOM     88  C   UNL A   1      48.316  26.650  31.876  1.00  0.00     0.135 A 
ATOM     89  F   UNL A   1      48.720  27.794  28.444  1.00  0.00    -0.206 F 
ATOM     90  C   UNL A   1      50.313  26.974  29.960  1.00  0.00     0.059 A 
ATOM     91  C   UNL A   1      49.630  26.322  32.197  1.00  0.00     0.059 A 
ATOM     92  F   UNL A   1      47.375  26.483  32.818  1.00  0.00    -0.206 F 
ATOM     93  C   UNL A   1      50.619  26.477  31.228  1.00  0.00     0.060 A 
BRANCH  93  94
ATOM     94  S   UNL A   1      52.336  26.064  31.604  1.00  0.00     0.124 S 
ATOM     95  O   UNL A   1      52.966  26.206  30.296  1.00  0.00    -0.237 OA
ATOM     96  O   UNL A   1      52.693  27.076  32.593  1.00  0.00    -0.237 OA
ATOM     97  O   UNL A   1      52.252  24.700  32.117  1.00  0.00    -0.744 OA
ENDBRANCH  93  94
ENDBRANCH  61  86
ENDBRANCH  35  36
ENDBRANCH  27  30
ENDBRANCH  25  26
ENDBRANCH  24  25
ENDBRANCH  23  24
ENDBRANCH   1  23
TORSDOF 19
ENDMDL
