MODEL 1
REMARK VINA RESULT:     -12.8      0.000      0.000
REMARK SMILES N#CCOc1ccc2[nH]cc([C@H](C(=O)NCCCCCCNC(=O)c3ccc(-c4c5nc(c(-c6c(F)cc(S(=O)(=O)[O-])cc6F)c6ccc([nH]6)c(-c6c(F)cc(S(=O)(=O)[O-])cc6F)c6nc(c(-c7c(F)cc(S(=O)(=O)[O-])cc7F)c7ccc4[nH]7)C=C6)C=C5)cc3)[NH+]3CC[NH+]([C@@H]4CCS(=O)(=O)C4)CC3)c2c1
REMARK SMILES IDX 18 1 17 2 16 3 15 4 13 5 14 6 12 8 11 9 5 10 6 11 105 12
REMARK SMILES IDX 7 13 104 14 8 15 9 16 10 17 4 19 3 20 2 21 1 22 91 23 92 24
REMARK SMILES IDX 103 25 93 27 102 28 94 29 95 31 96 32 101 33 97 34 98 35
REMARK SMILES IDX 99 36 100 37 19 38 20 39 21 40 22 41 23 42 24 44 25 45 26 46
REMARK SMILES IDX 90 47 27 48 89 49 28 50 29 51 30 52 83 53 31 54 88 55 82 56
REMARK SMILES IDX 84 57 32 58 87 59 81 60 80 61 33 63 67 64 46 65 66 66 47 67
REMARK SMILES IDX 50 68 65 69 85 70 48 71 49 72 64 74 86 75 51 76 34 77 35 78
REMARK SMILES IDX 44 79 36 80 37 81 43 82 45 83 38 84 39 85 40 86 41 87 42 88
REMARK SMILES IDX 68 89 69 90 78 91 70 92 71 93 77 94 79 95 72 96 73 97 74 98
REMARK SMILES IDX 75 99 76 100 52 101 53 102 62 103 54 104 55 105 61 106
REMARK SMILES IDX 63 107 56 108 57 109 58 110 59 111 60 112
REMARK H PARENT 15 7 9 18 91 26 94 30 22 43 84 62 50 73
REMARK Flexibility Score: inf
ROOT
ATOM      1  C   UNL A   1      33.376  29.588  27.308  1.00  0.00     0.002 C 
ENDROOT
BRANCH   1   2
ATOM      2  C   UNL A   1      32.413  30.611  26.681  1.00  0.00     0.021 C 
BRANCH   2   3
ATOM      3  C   UNL A   1      31.478  30.047  25.613  1.00  0.00     0.116 C 
BRANCH   3   4
ATOM      4  N   UNL A   1      32.214  29.766  24.404  1.00  0.00    -0.351 N 
ATOM      5  C   UNL A   1      32.323  28.610  23.705  1.00  0.00     0.283 C 
ATOM      6  O   UNL A   1      32.720  28.774  22.548  1.00  0.00    -0.268 OA
ATOM      7  H   UNL A   1      32.712  30.529  24.031  1.00  0.00     0.163 HD
BRANCH   5   8
ATOM      8  C   UNL A   1      31.938  27.240  24.332  1.00  0.00     0.308 C 
BRANCH   8   9
ATOM      9  C   UNL A   1      30.469  26.930  24.192  1.00  0.00     0.045 A 
ATOM     10  C   UNL A   1      28.747  29.580  22.178  1.00  0.00     0.121 A 
ATOM     11  C   UNL A   1      27.469  29.252  22.648  1.00  0.00     0.048 A 
ATOM     12  C   UNL A   1      29.755  28.672  22.415  1.00  0.00     0.057 A 
ATOM     13  C   UNL A   1      27.187  28.067  23.357  1.00  0.00     0.030 A 
ATOM     14  C   UNL A   1      29.567  27.654  23.361  1.00  0.00     0.013 A 
ATOM     15  C   UNL A   1      28.283  27.323  23.763  1.00  0.00     0.046 A 
ATOM     16  N   UNL A   1      28.385  26.228  24.584  1.00  0.00    -0.361 N 
ATOM     17  C   UNL A   1      29.705  26.018  24.900  1.00  0.00     0.094 A 
ATOM     18  H   UNL A   1      27.630  25.679  24.898  1.00  0.00     0.166 HD
BRANCH  10  19
ATOM     19  O   UNL A   1      29.235  30.679  21.508  1.00  0.00    -0.479 OA
BRANCH  19  20
ATOM     20  C   UNL A   1      28.377  31.739  21.059  1.00  0.00     0.349 C 
BRANCH  20  21
ATOM     21  C   UNL A   1      28.499  32.846  22.094  1.00  0.00     0.104 C 
ATOM     22  N   UNL A   1      28.601  33.764  22.952  1.00  0.00    -0.195 NA
ENDBRANCH  20  21
ENDBRANCH  19  20
ENDBRANCH  10  19
ENDBRANCH   8   9
BRANCH   8  23
ATOM     23  N   UNL A   1      32.756  26.111  23.848  1.00  0.00    -0.312 N 
ATOM     24  C   UNL A   1      33.316  25.201  24.859  1.00  0.00     0.325 C 
ATOM     25  C   UNL A   1      32.106  25.411  22.734  1.00  0.00     0.325 C 
ATOM     26  H   UNL A   1      33.600  26.563  23.496  1.00  0.00     0.349 HD
ATOM     27  C   UNL A   1      32.596  23.860  25.121  1.00  0.00     0.324 C 
ATOM     28  C   UNL A   1      31.361  24.100  23.055  1.00  0.00     0.324 C 
ATOM     29  N   UNL A   1      32.066  23.172  23.936  1.00  0.00    -0.322 N 
ATOM     30  H   UNL A   1      31.327  22.540  24.246  1.00  0.00     0.348 HD
BRANCH  29  31
ATOM     31  C   UNL A   1      32.922  22.143  23.355  1.00  0.00     0.200 C 
ATOM     32  C   UNL A   1      32.318  20.786  22.961  1.00  0.00     0.082 C 
ATOM     33  C   UNL A   1      34.174  21.855  24.197  1.00  0.00     0.201 C 
ATOM     34  C   UNL A   1      32.466  19.794  24.101  1.00  0.00     0.143 C 
ATOM     35  S   UNL A   1      33.897  20.300  25.025  1.00  0.00     0.156 S 
ATOM     36  O   UNL A   1      33.497  20.533  26.396  1.00  0.00    -0.229 OA
ATOM     37  O   UNL A   1      34.991  19.406  24.699  1.00  0.00    -0.229 OA
ENDBRANCH  29  31
ENDBRANCH   8  23
ENDBRANCH   5   8
ENDBRANCH   3   4
ENDBRANCH   2   3
ENDBRANCH   1   2
BRANCH   1  38
ATOM     38  C   UNL A   1      34.782  30.113  27.607  1.00  0.00     0.002 C 
BRANCH  38  39
ATOM     39  C   UNL A   1      34.855  31.591  27.989  1.00  0.00     0.021 C 
BRANCH  39  40
ATOM     40  C   UNL A   1      35.906  31.913  29.039  1.00  0.00     0.116 C 
BRANCH  40  41
ATOM     41  N   UNL A   1      35.705  31.168  30.271  1.00  0.00    -0.352 N 
ATOM     42  C   UNL A   1      36.561  30.283  30.878  1.00  0.00     0.251 C 
ATOM     43  H   UNL A   1      34.847  31.319  30.729  1.00  0.00     0.163 HD
ATOM     44  O   UNL A   1      36.185  29.622  31.839  1.00  0.00    -0.269 OA
BRANCH  42  45
ATOM     45  C   UNL A   1      37.922  30.114  30.329  1.00  0.00     0.039 A 
ATOM     46  C   UNL A   1      38.998  30.052  31.214  1.00  0.00     0.014 A 
ATOM     47  C   UNL A   1      38.125  29.970  28.952  1.00  0.00     0.014 A 
ATOM     48  C   UNL A   1      40.275  29.789  30.719  1.00  0.00     0.010 A 
ATOM     49  C   UNL A   1      39.383  29.622  28.472  1.00  0.00     0.010 A 
ATOM     50  C   UNL A   1      40.472  29.532  29.351  1.00  0.00    -0.014 A 
BRANCH  50  51
ATOM     51  C   UNL A   1      41.812  29.150  28.840  1.00  0.00     0.031 A 
ATOM     52  C   UNL A   1      42.913  30.169  28.749  1.00  0.00     0.074 A 
ATOM     53  C   UNL A   1      42.019  27.884  28.428  1.00  0.00     0.049 A 
ATOM     54  N   UNL A   1      44.149  30.011  28.347  1.00  0.00    -0.248 NA
ATOM     55  C   UNL A   1      42.582  31.550  29.135  1.00  0.00     0.031 C 
ATOM     56  C   UNL A   1      41.006  26.826  28.405  1.00  0.00     0.029 A 
ATOM     57  N   UNL A   1      43.149  27.269  27.950  1.00  0.00    -0.354 N 
ATOM     58  C   UNL A   1      44.739  31.267  28.429  1.00  0.00     0.074 A 
ATOM     59  C   UNL A   1      43.709  32.189  28.858  1.00  0.00     0.031 C 
ATOM     60  C   UNL A   1      41.569  25.686  27.977  1.00  0.00     0.029 A 
ATOM     61  C   UNL A   1      42.970  25.937  27.658  1.00  0.00     0.049 A 
ATOM     62  H   UNL A   1      44.006  27.737  27.829  1.00  0.00     0.167 HD
ATOM     63  C   UNL A   1      46.026  31.615  28.194  1.00  0.00     0.037 A 
ATOM     64  C   UNL A   1      43.837  25.021  27.185  1.00  0.00     0.037 A 
ATOM     65  C   UNL A   1      47.046  30.685  27.779  1.00  0.00     0.049 A 
ATOM     66  C   UNL A   1      45.262  25.432  26.935  1.00  0.00     0.074 A 
ATOM     67  C   UNL A   1      48.393  30.921  27.574  1.00  0.00     0.029 A 
ATOM     68  N   UNL A   1      46.830  29.343  27.496  1.00  0.00    -0.354 N 
ATOM     69  N   UNL A   1      45.823  26.607  27.099  1.00  0.00    -0.248 NA
ATOM     70  C   UNL A   1      46.174  24.390  26.447  1.00  0.00     0.031 C 
ATOM     71  C   UNL A   1      48.981  29.739  27.111  1.00  0.00     0.029 A 
ATOM     72  C   UNL A   1      48.013  28.747  27.088  1.00  0.00     0.049 A 
ATOM     73  H   UNL A   1      45.963  28.883  27.574  1.00  0.00     0.167 HD
ATOM     74  C   UNL A   1      47.159  26.441  26.750  1.00  0.00     0.074 A 
ATOM     75  C   UNL A   1      47.325  25.046  26.395  1.00  0.00     0.031 C 
ATOM     76  C   UNL A   1      48.158  27.359  26.724  1.00  0.00     0.037 A 
BRANCH  63  77
ATOM     77  C   UNL A   1      46.406  33.060  28.379  1.00  0.00     0.058 A 
ATOM     78  C   UNL A   1      46.867  33.552  29.612  1.00  0.00     0.135 A 
ATOM     79  C   UNL A   1      46.346  33.958  27.301  1.00  0.00     0.135 A 
ATOM     80  F   UNL A   1      46.930  32.744  30.682  1.00  0.00    -0.206 F 
ATOM     81  C   UNL A   1      47.227  34.886  29.776  1.00  0.00     0.059 A 
ATOM     82  C   UNL A   1      46.731  35.289  27.435  1.00  0.00     0.059 A 
ATOM     83  F   UNL A   1      45.912  33.545  26.100  1.00  0.00    -0.206 F 
ATOM     84  C   UNL A   1      47.157  35.747  28.681  1.00  0.00     0.060 A 
BRANCH  84  85
ATOM     85  S   UNL A   1      47.639  37.472  28.908  1.00  0.00     0.124 S 
ATOM     86  O   UNL A   1      47.012  37.780  30.191  1.00  0.00    -0.237 OA
ATOM     87  O   UNL A   1      49.096  37.389  28.920  1.00  0.00    -0.237 OA
ATOM     88  O   UNL A   1      47.060  38.144  27.750  1.00  0.00    -0.744 OA
ENDBRANCH  84  85
ENDBRANCH  63  77
BRANCH  64  89
ATOM     89  C   UNL A   1      43.383  23.627  26.938  1.00  0.00     0.058 A 
ATOM     90  C   UNL A   1      43.116  23.170  25.638  1.00  0.00     0.135 A 
ATOM     91  C   UNL A   1      43.222  22.718  27.996  1.00  0.00     0.135 A 
ATOM     92  F   UNL A   1      43.250  24.001  24.594  1.00  0.00    -0.206 F 
ATOM     93  C   UNL A   1      42.686  21.869  25.397  1.00  0.00     0.059 A 
ATOM     94  C   UNL A   1      42.822  21.403  27.777  1.00  0.00     0.059 A 
ATOM     95  F   UNL A   1      43.482  23.099  29.256  1.00  0.00    -0.206 F 
ATOM     96  C   UNL A   1      42.545  20.992  26.474  1.00  0.00     0.060 A 
BRANCH  96  97
ATOM     97  S   UNL A   1      42.029  19.292  26.145  1.00  0.00     0.124 S 
ATOM     98  O   UNL A   1      42.805  18.975  24.953  1.00  0.00    -0.237 OA
ATOM     99  O   UNL A   1      42.432  18.609  27.371  1.00  0.00    -0.237 OA
ATOM    100  O   UNL A   1      40.588  19.412  25.948  1.00  0.00    -0.744 OA
ENDBRANCH  96  97
ENDBRANCH  64  89
BRANCH  76 101
ATOM    101  C   UNL A   1      49.522  26.875  26.310  1.00  0.00     0.058 A 
ATOM    102  C   UNL A   1      50.378  26.218  27.207  1.00  0.00     0.135 A 
ATOM    103  C   UNL A   1      49.974  27.060  24.992  1.00  0.00     0.135 A 
ATOM    104  F   UNL A   1      49.998  26.019  28.480  1.00  0.00    -0.206 F 
ATOM    105  C   UNL A   1      51.650  25.801  26.829  1.00  0.00     0.059 A 
ATOM    106  C   UNL A   1      51.228  26.619  24.581  1.00  0.00     0.059 A 
ATOM    107  F   UNL A   1      49.192  27.669  24.087  1.00  0.00    -0.206 F 
ATOM    108  C   UNL A   1      52.067  26.010  25.513  1.00  0.00     0.060 A 
BRANCH 108 109
ATOM    109  S   UNL A   1      53.720  25.466  25.034  1.00  0.00     0.124 S 
ATOM    110  O   UNL A   1      53.652  25.563  23.581  1.00  0.00    -0.237 OA
ATOM    111  O   UNL A   1      54.575  26.449  25.695  1.00  0.00    -0.237 OA
ATOM    112  O   UNL A   1      53.802  24.111  25.571  1.00  0.00    -0.744 OA
ENDBRANCH 108 109
ENDBRANCH  76 101
ENDBRANCH  50  51
ENDBRANCH  42  45
ENDBRANCH  40  41
ENDBRANCH  39  40
ENDBRANCH  38  39
ENDBRANCH   1  38
TORSDOF 22
ENDMDL
MODEL 2
REMARK VINA RESULT:     -10.9      6.628     15.397
REMARK SMILES N#CCOc1ccc2[nH]cc([C@H](C(=O)NCCCCCCNC(=O)c3ccc(-c4c5nc(c(-c6c(F)cc(S(=O)(=O)[O-])cc6F)c6ccc([nH]6)c(-c6c(F)cc(S(=O)(=O)[O-])cc6F)c6nc(c(-c7c(F)cc(S(=O)(=O)[O-])cc7F)c7ccc4[nH]7)C=C6)C=C5)cc3)[NH+]3CC[NH+]([C@@H]4CCS(=O)(=O)C4)CC3)c2c1
REMARK SMILES IDX 18 1 17 2 16 3 15 4 13 5 14 6 12 8 11 9 5 10 6 11 105 12
REMARK SMILES IDX 7 13 104 14 8 15 9 16 10 17 4 19 3 20 2 21 1 22 91 23 92 24
REMARK SMILES IDX 103 25 93 27 102 28 94 29 95 31 96 32 101 33 97 34 98 35
REMARK SMILES IDX 99 36 100 37 19 38 20 39 21 40 22 41 23 42 24 44 25 45 26 46
REMARK SMILES IDX 90 47 27 48 89 49 28 50 29 51 30 52 83 53 31 54 88 55 82 56
REMARK SMILES IDX 84 57 32 58 87 59 81 60 80 61 33 63 67 64 46 65 66 66 47 67
REMARK SMILES IDX 50 68 65 69 85 70 48 71 49 72 64 74 86 75 51 76 34 77 35 78
REMARK SMILES IDX 44 79 36 80 37 81 43 82 45 83 38 84 39 85 40 86 41 87 42 88
REMARK SMILES IDX 68 89 69 90 78 91 70 92 71 93 77 94 79 95 72 96 73 97 74 98
REMARK SMILES IDX 75 99 76 100 52 101 53 102 62 103 54 104 55 105 61 106
REMARK SMILES IDX 63 107 56 108 57 109 58 110 59 111 60 112
REMARK H PARENT 15 7 9 18 91 26 94 30 22 43 84 62 50 73
REMARK Flexibility Score: inf
ROOT
ATOM      1  C   UNL A   1      45.167  24.647  34.953  1.00  0.00     0.002 C 
ENDROOT
BRANCH   1   2
ATOM      2  C   UNL A   1      44.939  24.006  33.573  1.00  0.00     0.021 C 
BRANCH   2   3
ATOM      3  C   UNL A   1      45.258  24.907  32.382  1.00  0.00     0.116 C 
BRANCH   3   4
ATOM      4  N   UNL A   1      46.678  25.150  32.305  1.00  0.00    -0.351 N 
ATOM      5  C   UNL A   1      47.349  26.306  32.084  1.00  0.00     0.283 C 
ATOM      6  O   UNL A   1      48.535  26.256  32.426  1.00  0.00    -0.268 OA
ATOM      7  H   UNL A   1      47.245  24.355  32.431  1.00  0.00     0.163 HD
BRANCH   5   8
ATOM      8  C   UNL A   1      46.642  27.558  31.491  1.00  0.00     0.308 C 
BRANCH   8   9
ATOM      9  C   UNL A   1      46.846  28.792  32.333  1.00  0.00     0.045 A 
ATOM     10  C   UNL A   1      44.749  31.623  31.058  1.00  0.00     0.121 A 
ATOM     11  C   UNL A   1      45.508  32.610  31.699  1.00  0.00     0.048 A 
ATOM     12  C   UNL A   1      44.950  30.320  31.455  1.00  0.00     0.057 A 
ATOM     13  C   UNL A   1      46.464  32.325  32.694  1.00  0.00     0.030 A 
ATOM     14  C   UNL A   1      46.086  29.989  32.208  1.00  0.00     0.013 A 
ATOM     15  C   UNL A   1      46.781  30.988  32.871  1.00  0.00     0.046 A 
ATOM     16  N   UNL A   1      47.755  30.376  33.620  1.00  0.00    -0.361 N 
ATOM     17  C   UNL A   1      47.844  29.055  33.257  1.00  0.00     0.094 A 
ATOM     18  H   UNL A   1      48.303  30.816  34.310  1.00  0.00     0.166 HD
BRANCH  10  19
ATOM     19  O   UNL A   1      43.806  31.682  30.055  1.00  0.00    -0.479 OA
BRANCH  19  20
ATOM     20  C   UNL A   1      42.465  32.131  30.299  1.00  0.00     0.349 C 
BRANCH  20  21
ATOM     21  C   UNL A   1      42.388  33.546  29.747  1.00  0.00     0.104 C 
ATOM     22  N   UNL A   1      42.324  34.719  29.290  1.00  0.00    -0.195 NA
ENDBRANCH  20  21
ENDBRANCH  19  20
ENDBRANCH  10  19
ENDBRANCH   8   9
BRANCH   8  23
ATOM     23  N   UNL A   1      46.987  27.827  30.082  1.00  0.00    -0.312 N 
ATOM     24  C   UNL A   1      48.372  28.227  29.791  1.00  0.00     0.325 C 
ATOM     25  C   UNL A   1      46.487  26.773  29.191  1.00  0.00     0.325 C 
ATOM     26  H   UNL A   1      46.483  28.690  29.875  1.00  0.00     0.349 HD
ATOM     27  C   UNL A   1      49.350  27.156  29.258  1.00  0.00     0.324 C 
ATOM     28  C   UNL A   1      47.492  25.702  28.725  1.00  0.00     0.324 C 
ATOM     29  N   UNL A   1      48.793  26.202  28.290  1.00  0.00    -0.322 N 
ATOM     30  H   UNL A   1      49.379  25.366  28.301  1.00  0.00     0.348 HD
BRANCH  29  31
ATOM     31  C   UNL A   1      49.002  26.522  26.881  1.00  0.00     0.200 C 
ATOM     32  C   UNL A   1      48.892  27.981  26.410  1.00  0.00     0.082 C 
ATOM     33  C   UNL A   1      48.137  25.675  25.936  1.00  0.00     0.201 C 
ATOM     34  C   UNL A   1      47.484  28.271  25.923  1.00  0.00     0.143 C 
ATOM     35  S   UNL A   1      46.820  26.725  25.354  1.00  0.00     0.156 S 
ATOM     36  O   UNL A   1      45.605  26.451  26.090  1.00  0.00    -0.229 OA
ATOM     37  O   UNL A   1      46.840  26.725  23.904  1.00  0.00    -0.229 OA
ENDBRANCH  29  31
ENDBRANCH   8  23
ENDBRANCH   5   8
ENDBRANCH   3   4
ENDBRANCH   2   3
ENDBRANCH   1   2
BRANCH   1  38
ATOM     38  C   UNL A   1      45.004  23.704  36.146  1.00  0.00     0.002 C 
BRANCH  38  39
ATOM     39  C   UNL A   1      46.234  23.574  37.043  1.00  0.00     0.021 C 
BRANCH  39  40
ATOM     40  C   UNL A   1      47.232  24.713  36.902  1.00  0.00     0.116 C 
BRANCH  40  41
ATOM     41  N   UNL A   1      47.362  25.492  38.122  1.00  0.00    -0.352 N 
ATOM     42  C   UNL A   1      46.776  26.695  38.428  1.00  0.00     0.251 C 
ATOM     43  H   UNL A   1      47.942  25.107  38.817  1.00  0.00     0.163 HD
ATOM     44  O   UNL A   1      47.101  27.298  39.444  1.00  0.00    -0.269 OA
BRANCH  42  45
ATOM     45  C   UNL A   1      45.781  27.263  37.496  1.00  0.00     0.039 A 
ATOM     46  C   UNL A   1      44.436  26.938  37.672  1.00  0.00     0.014 A 
ATOM     47  C   UNL A   1      46.171  28.149  36.486  1.00  0.00     0.014 A 
ATOM     48  C   UNL A   1      43.475  27.548  36.867  1.00  0.00     0.010 A 
ATOM     49  C   UNL A   1      45.204  28.820  35.744  1.00  0.00     0.010 A 
ATOM     50  C   UNL A   1      43.846  28.523  35.924  1.00  0.00    -0.014 A 
BRANCH  50  51
ATOM     51  C   UNL A   1      42.815  29.247  35.141  1.00  0.00     0.031 A 
ATOM     52  C   UNL A   1      42.441  28.783  33.760  1.00  0.00     0.074 A 
ATOM     53  C   UNL A   1      42.241  30.345  35.670  1.00  0.00     0.049 A 
ATOM     54  N   UNL A   1      41.551  29.280  32.939  1.00  0.00    -0.248 NA
ATOM     55  C   UNL A   1      43.176  27.630  33.218  1.00  0.00     0.031 C 
ATOM     56  C   UNL A   1      42.574  30.928  36.973  1.00  0.00     0.029 A 
ATOM     57  N   UNL A   1      41.258  31.167  35.181  1.00  0.00    -0.354 N 
ATOM     58  C   UNL A   1      41.620  28.504  31.788  1.00  0.00     0.074 A 
ATOM     59  C   UNL A   1      42.684  27.544  31.991  1.00  0.00     0.031 C 
ATOM     60  C   UNL A   1      41.781  31.987  37.196  1.00  0.00     0.029 A 
ATOM     61  C   UNL A   1      40.912  32.184  36.042  1.00  0.00     0.049 A 
ATOM     62  H   UNL A   1      40.838  31.041  34.300  1.00  0.00     0.167 HD
ATOM     63  C   UNL A   1      40.852  28.569  30.675  1.00  0.00     0.037 A 
ATOM     64  C   UNL A   1      39.998  33.165  35.913  1.00  0.00     0.037 A 
ATOM     65  C   UNL A   1      39.786  29.521  30.490  1.00  0.00     0.049 A 
ATOM     66  C   UNL A   1      39.154  33.213  34.669  1.00  0.00     0.074 A 
ATOM     67  C   UNL A   1      38.907  29.633  29.428  1.00  0.00     0.029 A 
ATOM     68  N   UNL A   1      39.462  30.533  31.383  1.00  0.00    -0.354 N 
ATOM     69  N   UNL A   1      39.177  32.418  33.625  1.00  0.00    -0.248 NA
ATOM     70  C   UNL A   1      38.153  34.284  34.590  1.00  0.00     0.031 C 
ATOM     71  C   UNL A   1      38.090  30.746  29.650  1.00  0.00     0.029 A 
ATOM     72  C   UNL A   1      38.416  31.293  30.881  1.00  0.00     0.049 A 
ATOM     73  H   UNL A   1      39.909  30.689  32.246  1.00  0.00     0.167 HD
ATOM     74  C   UNL A   1      38.181  32.883  32.773  1.00  0.00     0.074 A 
ATOM     75  C   UNL A   1      37.559  34.009  33.437  1.00  0.00     0.031 C 
ATOM     76  C   UNL A   1      37.817  32.421  31.549  1.00  0.00     0.037 A 
BRANCH  63  77
ATOM     77  C   UNL A   1      41.132  27.584  29.572  1.00  0.00     0.058 A 
ATOM     78  C   UNL A   1      42.296  27.661  28.788  1.00  0.00     0.135 A 
ATOM     79  C   UNL A   1      40.244  26.525  29.317  1.00  0.00     0.135 A 
ATOM     80  F   UNL A   1      43.172  28.660  28.975  1.00  0.00    -0.206 F 
ATOM     81  C   UNL A   1      42.555  26.742  27.775  1.00  0.00     0.059 A 
ATOM     82  C   UNL A   1      40.499  25.577  28.330  1.00  0.00     0.059 A 
ATOM     83  F   UNL A   1      39.115  26.403  30.032  1.00  0.00    -0.206 F 
ATOM     84  C   UNL A   1      41.651  25.703  27.555  1.00  0.00     0.060 A 
BRANCH  84  85
ATOM     85  S   UNL A   1      42.009  24.514  26.244  1.00  0.00     0.124 S 
ATOM     86  O   UNL A   1      40.851  23.628  26.333  1.00  0.00    -0.237 OA
ATOM     87  O   UNL A   1      42.066  25.364  25.060  1.00  0.00    -0.237 OA
ATOM     88  O   UNL A   1      43.279  23.926  26.655  1.00  0.00    -0.744 OA
ENDBRANCH  84  85
ENDBRANCH  63  77
BRANCH  64  89
ATOM     89  C   UNL A   1      39.824  34.164  37.001  1.00  0.00     0.058 A 
ATOM     90  C   UNL A   1      40.405  35.438  36.915  1.00  0.00     0.135 A 
ATOM     91  C   UNL A   1      39.059  33.871  38.141  1.00  0.00     0.135 A 
ATOM     92  F   UNL A   1      41.149  35.766  35.848  1.00  0.00    -0.206 F 
ATOM     93  C   UNL A   1      40.252  36.379  37.929  1.00  0.00     0.059 A 
ATOM     94  C   UNL A   1      38.867  34.805  39.154  1.00  0.00     0.059 A 
ATOM     95  F   UNL A   1      38.466  32.673  38.263  1.00  0.00    -0.206 F 
ATOM     96  C   UNL A   1      39.478  36.052  39.044  1.00  0.00     0.060 A 
BRANCH  96  97
ATOM     97  S   UNL A   1      39.249  37.296  40.334  1.00  0.00     0.124 S 
ATOM     98  O   UNL A   1      38.476  38.311  39.629  1.00  0.00    -0.237 OA
ATOM     99  O   UNL A   1      38.533  36.544  41.359  1.00  0.00    -0.237 OA
ATOM    100  O   UNL A   1      40.616  37.672  40.682  1.00  0.00    -0.744 OA
ENDBRANCH  96  97
ENDBRANCH  64  89
BRANCH  76 101
ATOM    101  C   UNL A   1      36.681  33.130  30.861  1.00  0.00     0.058 A 
ATOM    102  C   UNL A   1      36.885  33.911  29.712  1.00  0.00     0.135 A 
ATOM    103  C   UNL A   1      35.369  33.017  31.350  1.00  0.00     0.135 A 
ATOM    104  F   UNL A   1      38.120  34.057  29.204  1.00  0.00    -0.206 F 
ATOM    105  C   UNL A   1      35.838  34.590  29.098  1.00  0.00     0.059 A 
ATOM    106  C   UNL A   1      34.301  33.658  30.731  1.00  0.00     0.059 A 
ATOM    107  F   UNL A   1      35.113  32.272  32.437  1.00  0.00    -0.206 F 
ATOM    108  C   UNL A   1      34.549  34.460  29.618  1.00  0.00     0.060 A 
BRANCH 108 109
ATOM    109  S   UNL A   1      33.199  35.349  28.814  1.00  0.00     0.124 S 
ATOM    110  O   UNL A   1      33.896  36.508  28.267  1.00  0.00    -0.237 OA
ATOM    111  O   UNL A   1      32.725  34.374  27.835  1.00  0.00    -0.237 OA
ATOM    112  O   UNL A   1      32.276  35.629  29.909  1.00  0.00    -0.744 OA
ENDBRANCH 108 109
ENDBRANCH  76 101
ENDBRANCH  50  51
ENDBRANCH  42  45
ENDBRANCH  40  41
ENDBRANCH  39  40
ENDBRANCH  38  39
ENDBRANCH   1  38
TORSDOF 22
ENDMDL
MODEL 3
REMARK VINA RESULT:     -10.8      1.614      2.228
REMARK SMILES N#CCOc1ccc2[nH]cc([C@H](C(=O)NCCCCCCNC(=O)c3ccc(-c4c5nc(c(-c6c(F)cc(S(=O)(=O)[O-])cc6F)c6ccc([nH]6)c(-c6c(F)cc(S(=O)(=O)[O-])cc6F)c6nc(c(-c7c(F)cc(S(=O)(=O)[O-])cc7F)c7ccc4[nH]7)C=C6)C=C5)cc3)[NH+]3CC[NH+]([C@@H]4CCS(=O)(=O)C4)CC3)c2c1
REMARK SMILES IDX 18 1 17 2 16 3 15 4 13 5 14 6 12 8 11 9 5 10 6 11 105 12
REMARK SMILES IDX 7 13 104 14 8 15 9 16 10 17 4 19 3 20 2 21 1 22 91 23 92 24
REMARK SMILES IDX 103 25 93 27 102 28 94 29 95 31 96 32 101 33 97 34 98 35
REMARK SMILES IDX 99 36 100 37 19 38 20 39 21 40 22 41 23 42 24 44 25 45 26 46
REMARK SMILES IDX 90 47 27 48 89 49 28 50 29 51 30 52 83 53 31 54 88 55 82 56
REMARK SMILES IDX 84 57 32 58 87 59 81 60 80 61 33 63 67 64 46 65 66 66 47 67
REMARK SMILES IDX 50 68 65 69 85 70 48 71 49 72 64 74 86 75 51 76 34 77 35 78
REMARK SMILES IDX 44 79 36 80 37 81 43 82 45 83 38 84 39 85 40 86 41 87 42 88
REMARK SMILES IDX 68 89 69 90 78 91 70 92 71 93 77 94 79 95 72 96 73 97 74 98
REMARK SMILES IDX 75 99 76 100 52 101 53 102 62 103 54 104 55 105 61 106
REMARK SMILES IDX 63 107 56 108 57 109 58 110 59 111 60 112
REMARK H PARENT 15 7 9 18 91 26 94 30 22 43 84 62 50 73
REMARK Flexibility Score: inf
ROOT
ATOM      1  C   UNL A   1      35.479  30.024  27.927  1.00  0.00     0.002 C 
ENDROOT
BRANCH   1   2
ATOM      2  C   UNL A   1      34.524  28.964  27.351  1.00  0.00     0.021 C 
BRANCH   2   3
ATOM      3  C   UNL A   1      33.868  29.339  26.024  1.00  0.00     0.116 C 
BRANCH   3   4
ATOM      4  N   UNL A   1      34.063  28.288  25.056  1.00  0.00    -0.351 N 
ATOM      5  C   UNL A   1      33.154  27.481  24.457  1.00  0.00     0.283 C 
ATOM      6  O   UNL A   1      33.581  26.939  23.433  1.00  0.00    -0.268 OA
ATOM      7  H   UNL A   1      34.998  28.132  24.791  1.00  0.00     0.163 HD
BRANCH   5   8
ATOM      8  C   UNL A   1      31.714  27.318  25.020  1.00  0.00     0.308 C 
BRANCH   8   9
ATOM      9  C   UNL A   1      30.660  27.846  24.080  1.00  0.00     0.045 A 
ATOM     10  C   UNL A   1      30.064  31.496  24.680  1.00  0.00     0.121 A 
ATOM     11  C   UNL A   1      28.813  31.501  24.050  1.00  0.00     0.048 A 
ATOM     12  C   UNL A   1      30.866  30.395  24.474  1.00  0.00     0.057 A 
ATOM     13  C   UNL A   1      28.346  30.438  23.253  1.00  0.00     0.030 A 
ATOM     14  C   UNL A   1      30.313  29.220  23.946  1.00  0.00     0.013 A 
ATOM     15  C   UNL A   1      29.097  29.275  23.284  1.00  0.00     0.046 A 
ATOM     16  N   UNL A   1      28.860  28.025  22.769  1.00  0.00    -0.361 N 
ATOM     17  C   UNL A   1      29.766  27.137  23.294  1.00  0.00     0.094 A 
ATOM     18  H   UNL A   1      28.150  27.800  22.124  1.00  0.00     0.166 HD
BRANCH  10  19
ATOM     19  O   UNL A   1      30.687  32.399  25.514  1.00  0.00    -0.479 OA
BRANCH  19  20
ATOM     20  C   UNL A   1      31.371  31.984  26.706  1.00  0.00     0.349 C 
BRANCH  20  21
ATOM     21  C   UNL A   1      31.971  33.246  27.306  1.00  0.00     0.104 C 
ATOM     22  N   UNL A   1      32.469  34.292  27.804  1.00  0.00    -0.195 NA
ENDBRANCH  20  21
ENDBRANCH  19  20
ENDBRANCH  10  19
ENDBRANCH   8   9
BRANCH   8  23
ATOM     23  N   UNL A   1      31.390  25.941  25.442  1.00  0.00    -0.312 N 
ATOM     24  C   UNL A   1      31.374  24.902  24.401  1.00  0.00     0.325 C 
ATOM     25  C   UNL A   1      32.144  25.551  26.640  1.00  0.00     0.325 C 
ATOM     26  H   UNL A   1      30.401  25.994  25.687  1.00  0.00     0.349 HD
ATOM     27  C   UNL A   1      32.610  23.987  24.255  1.00  0.00     0.324 C 
ATOM     28  C   UNL A   1      33.396  24.675  26.437  1.00  0.00     0.324 C 
ATOM     29  N   UNL A   1      33.243  23.557  25.510  1.00  0.00    -0.322 N 
ATOM     30  H   UNL A   1      34.207  23.295  25.301  1.00  0.00     0.348 HD
BRANCH  29  31
ATOM     31  C   UNL A   1      32.832  22.254  26.022  1.00  0.00     0.200 C 
ATOM     32  C   UNL A   1      33.899  21.199  26.356  1.00  0.00     0.082 C 
ATOM     33  C   UNL A   1      31.776  21.567  25.142  1.00  0.00     0.201 C 
ATOM     34  C   UNL A   1      34.128  20.287  25.164  1.00  0.00     0.143 C 
ATOM     35  S   UNL A   1      32.611  20.274  24.241  1.00  0.00     0.156 S 
ATOM     36  O   UNL A   1      32.893  20.714  22.892  1.00  0.00    -0.229 OA
ATOM     37  O   UNL A   1      31.928  19.021  24.500  1.00  0.00    -0.229 OA
ENDBRANCH  29  31
ENDBRANCH   8  23
ENDBRANCH   5   8
ENDBRANCH   3   4
ENDBRANCH   2   3
ENDBRANCH   1   2
BRANCH   1  38
ATOM     38  C   UNL A   1      34.829  31.362  28.286  1.00  0.00     0.002 C 
BRANCH  38  39
ATOM     39  C   UNL A   1      35.541  32.155  29.381  1.00  0.00     0.021 C 
BRANCH  39  40
ATOM     40  C   UNL A   1      36.001  31.315  30.562  1.00  0.00     0.116 C 
BRANCH  40  41
ATOM     41  N   UNL A   1      36.426  32.128  31.689  1.00  0.00    -0.352 N 
ATOM     42  C   UNL A   1      37.678  32.223  32.245  1.00  0.00     0.251 C 
ATOM     43  H   UNL A   1      35.728  32.681  32.107  1.00  0.00     0.163 HD
ATOM     44  O   UNL A   1      37.844  32.843  33.289  1.00  0.00    -0.269 OA
BRANCH  42  45
ATOM     45  C   UNL A   1      38.806  31.534  31.586  1.00  0.00     0.039 A 
ATOM     46  C   UNL A   1      39.085  31.831  30.252  1.00  0.00     0.014 A 
ATOM     47  C   UNL A   1      39.612  30.639  32.297  1.00  0.00     0.014 A 
ATOM     48  C   UNL A   1      40.209  31.269  29.648  1.00  0.00     0.010 A 
ATOM     49  C   UNL A   1      40.778  30.149  31.719  1.00  0.00     0.010 A 
ATOM     50  C   UNL A   1      41.086  30.456  30.387  1.00  0.00    -0.014 A 
BRANCH  50  51
ATOM     51  C   UNL A   1      42.336  29.943  29.774  1.00  0.00     0.031 A 
ATOM     52  C   UNL A   1      43.545  30.829  29.650  1.00  0.00     0.074 A 
ATOM     53  C   UNL A   1      42.364  28.682  29.299  1.00  0.00     0.049 A 
ATOM     54  N   UNL A   1      44.725  30.546  29.161  1.00  0.00    -0.248 NA
ATOM     55  C   UNL A   1      43.406  32.219  30.111  1.00  0.00     0.031 C 
ATOM     56  C   UNL A   1      41.230  27.753  29.302  1.00  0.00     0.029 A 
ATOM     57  N   UNL A   1      43.379  27.962  28.723  1.00  0.00    -0.354 N 
ATOM     58  C   UNL A   1      45.466  31.718  29.253  1.00  0.00     0.074 A 
ATOM     59  C   UNL A   1      44.583  32.734  29.785  1.00  0.00     0.031 C 
ATOM     60  C   UNL A   1      41.625  26.576  28.793  1.00  0.00     0.029 A 
ATOM     61  C   UNL A   1      43.024  26.675  28.392  1.00  0.00     0.049 A 
ATOM     62  H   UNL A   1      44.278  28.331  28.564  1.00  0.00     0.167 HD
ATOM     63  C   UNL A   1      46.769  31.923  28.946  1.00  0.00     0.037 A 
ATOM     64  C   UNL A   1      43.743  25.687  27.826  1.00  0.00     0.037 A 
ATOM     65  C   UNL A   1      47.642  30.900  28.428  1.00  0.00     0.049 A 
ATOM     66  C   UNL A   1      45.190  25.938  27.499  1.00  0.00     0.074 A 
ATOM     67  C   UNL A   1      48.993  30.985  28.143  1.00  0.00     0.029 A 
ATOM     68  N   UNL A   1      47.249  29.608  28.108  1.00  0.00    -0.354 N 
ATOM     69  N   UNL A   1      45.898  27.030  27.671  1.00  0.00    -0.248 NA
ATOM     70  C   UNL A   1      45.939  24.821  26.911  1.00  0.00     0.031 C 
ATOM     71  C   UNL A   1      49.404  29.765  27.597  1.00  0.00     0.029 A 
ATOM     72  C   UNL A   1      48.324  28.896  27.599  1.00  0.00     0.049 A 
ATOM     73  H   UNL A   1      46.339  29.249  28.225  1.00  0.00     0.167 HD
ATOM     74  C   UNL A   1      47.180  26.725  27.228  1.00  0.00     0.074 A 
ATOM     75  C   UNL A   1      47.155  25.338  26.808  1.00  0.00     0.031 C 
ATOM     76  C   UNL A   1      48.279  27.519  27.172  1.00  0.00     0.037 A 
BRANCH  63  77
ATOM     77  C   UNL A   1      47.331  33.302  29.162  1.00  0.00     0.058 A 
ATOM     78  C   UNL A   1      47.917  33.680  30.382  1.00  0.00     0.135 A 
ATOM     79  C   UNL A   1      47.319  34.249  28.125  1.00  0.00     0.135 A 
ATOM     80  F   UNL A   1      47.943  32.823  31.415  1.00  0.00    -0.206 F 
ATOM     81  C   UNL A   1      48.445  34.953  30.574  1.00  0.00     0.059 A 
ATOM     82  C   UNL A   1      47.869  35.518  28.285  1.00  0.00     0.059 A 
ATOM     83  F   UNL A   1      46.770  33.945  26.939  1.00  0.00    -0.206 F 
ATOM     84  C   UNL A   1      48.418  35.865  29.519  1.00  0.00     0.060 A 
BRANCH  84  85
ATOM     85  S   UNL A   1      49.116  37.509  29.782  1.00  0.00     0.124 S 
ATOM     86  O   UNL A   1      50.382  37.405  29.060  1.00  0.00    -0.237 OA
ATOM     87  O   UNL A   1      48.111  38.375  29.175  1.00  0.00    -0.237 OA
ATOM     88  O   UNL A   1      49.229  37.603  31.233  1.00  0.00    -0.744 OA
ENDBRANCH  84  85
ENDBRANCH  63  77
BRANCH  64  89
ATOM     89  C   UNL A   1      43.111  24.369  27.556  1.00  0.00     0.058 A 
ATOM     90  C   UNL A   1      42.421  24.127  26.358  1.00  0.00     0.135 A 
ATOM     91  C   UNL A   1      43.197  23.318  28.483  1.00  0.00     0.135 A 
ATOM     92  F   UNL A   1      42.306  25.101  25.442  1.00  0.00    -0.206 F 
ATOM     93  C   UNL A   1      41.820  22.899  26.097  1.00  0.00     0.059 A 
ATOM     94  C   UNL A   1      42.631  22.072  28.232  1.00  0.00     0.059 A 
ATOM     95  F   UNL A   1      43.862  23.491  29.636  1.00  0.00    -0.206 F 
ATOM     96  C   UNL A   1      41.934  21.876  27.041  1.00  0.00     0.060 A 
BRANCH  96  97
ATOM     97  S   UNL A   1      41.190  20.272  26.673  1.00  0.00     0.124 S 
ATOM     98  O   UNL A   1      40.957  19.743  28.011  1.00  0.00    -0.237 OA
ATOM     99  O   UNL A   1      40.000  20.654  25.919  1.00  0.00    -0.237 OA
ATOM    100  O   UNL A   1      42.225  19.595  25.896  1.00  0.00    -0.744 OA
ENDBRANCH  96  97
ENDBRANCH  64  89
BRANCH  76 101
ATOM    101  C   UNL A   1      49.546  26.898  26.649  1.00  0.00     0.058 A 
ATOM    102  C   UNL A   1      50.386  26.129  27.470  1.00  0.00     0.135 A 
ATOM    103  C   UNL A   1      49.920  27.064  25.305  1.00  0.00     0.135 A 
ATOM    104  F   UNL A   1      50.080  25.942  28.764  1.00  0.00    -0.206 F 
ATOM    105  C   UNL A   1      51.573  25.584  26.991  1.00  0.00     0.059 A 
ATOM    106  C   UNL A   1      51.083  26.498  24.794  1.00  0.00     0.059 A 
ATOM    107  F   UNL A   1      49.147  27.777  24.470  1.00  0.00    -0.206 F 
ATOM    108  C   UNL A   1      51.914  25.777  25.651  1.00  0.00     0.060 A 
BRANCH 108 109
ATOM    109  S   UNL A   1      53.458  25.067  25.042  1.00  0.00     0.124 S 
ATOM    110  O   UNL A   1      53.453  25.504  23.650  1.00  0.00    -0.237 OA
ATOM    111  O   UNL A   1      54.454  25.700  25.901  1.00  0.00    -0.237 OA
ATOM    112  O   UNL A   1      53.278  23.633  25.250  1.00  0.00    -0.744 OA
ENDBRANCH 108 109
ENDBRANCH  76 101
ENDBRANCH  50  51
ENDBRANCH  42  45
ENDBRANCH  40  41
ENDBRANCH  39  40
ENDBRANCH  38  39
ENDBRANCH   1  38
TORSDOF 22
ENDMDL
