MODEL 1
REMARK VINA RESULT:      -9.9      0.000      0.000
REMARK SMILES COCc1cc(-n2cnc(C(=O)NCCCCCCNC(=O)c3ccc(-c4c5nc(c(-c6c(F)cc(S(=O)(=O)[O-])cc6F)c6ccc([nH]6)c(-c6c(F)cc(S(=O)(=O)[O-])cc6F)c6nc(c(-c7c(F)cc(S(=O)(=O)[O-])cc7F)c7ccc4[nH]7)C=C6)C=C5)cc3)c2)nc(-c2cccnc2)n1
REMARK SMILES IDX 16 1 15 2 14 3 13 4 11 5 12 6 10 8 7 9 8 10 89 11 9 12 6 13
REMARK SMILES IDX 4 14 5 15 98 16 91 17 90 18 3 19 2 20 1 21 92 22 93 23 97 24
REMARK SMILES IDX 94 25 96 26 95 27 17 28 18 29 19 30 20 31 21 32 22 34 23 35
REMARK SMILES IDX 24 36 88 37 25 38 87 39 26 40 27 41 28 42 81 43 29 44 86 45
REMARK SMILES IDX 80 46 82 47 30 48 85 49 79 50 78 51 31 53 65 54 44 55 64 56
REMARK SMILES IDX 45 57 48 58 63 59 83 60 46 61 47 62 62 64 84 65 49 66 32 67
REMARK SMILES IDX 33 68 42 69 34 70 35 71 41 72 43 73 36 74 37 75 38 76 39 77
REMARK SMILES IDX 40 78 66 79 67 80 76 81 68 82 69 83 75 84 77 85 70 86 71 87
REMARK SMILES IDX 72 88 73 89 74 90 50 91 51 92 60 93 52 94 53 95 59 96 61 97
REMARK SMILES IDX 54 98 55 99 56 100 57 101 58 102
REMARK H PARENT 13 7 20 33 82 52 48 63
REMARK Flexibility Score: inf
ROOT
ATOM      1  C   UNL A   1      39.355  28.386  28.888  1.00  0.00     0.002 C 
ENDROOT
BRANCH   1   2
ATOM      2  C   UNL A   1      39.179  26.890  28.625  1.00  0.00     0.021 C 
BRANCH   2   3
ATOM      3  C   UNL A   1      40.083  26.288  27.550  1.00  0.00     0.116 C 
BRANCH   3   4
ATOM      4  N   UNL A   1      40.870  25.163  28.019  1.00  0.00    -0.351 N 
ATOM      5  C   UNL A   1      40.745  23.810  27.783  1.00  0.00     0.271 C 
ATOM      6  O   UNL A   1      41.527  23.060  28.368  1.00  0.00    -0.267 OA
ATOM      7  H   UNL A   1      41.621  25.407  28.606  1.00  0.00     0.163 HD
BRANCH   5   8
ATOM      8  C   UNL A   1      39.690  23.301  26.899  1.00  0.00     0.146 A 
ATOM      9  N   UNL A   1      37.748  22.907  25.953  1.00  0.00    -0.290 N 
ATOM     10  C   UNL A   1      38.592  21.847  25.750  1.00  0.00     0.206 A 
ATOM     11  C   UNL A   1      38.514  23.912  26.497  1.00  0.00     0.128 A 
ATOM     12  N   UNL A   1      39.766  22.050  26.305  1.00  0.00    -0.231 NA
BRANCH   9  13
ATOM     13  C   UNL A   1      36.354  22.974  25.728  1.00  0.00     0.142 A 
ATOM     14  C   UNL A   1      34.217  22.003  25.779  1.00  0.00     0.072 A 
ATOM     15  C   UNL A   1      35.580  21.858  25.962  1.00  0.00     0.074 A 
ATOM     16  N   UNL A   1      33.665  23.177  25.395  1.00  0.00    -0.230 NA
ATOM     17  C   UNL A   1      34.503  24.208  25.197  1.00  0.00     0.163 A 
ATOM     18  N   UNL A   1      35.836  24.163  25.358  1.00  0.00    -0.210 NA
BRANCH  14  19
ATOM     19  C   UNL A   1      33.291  20.829  26.021  1.00  0.00     0.216 C 
BRANCH  19  20
ATOM     20  O   UNL A   1      32.209  20.774  25.082  1.00  0.00    -0.378 OA
ATOM     21  C   UNL A   1      32.538  20.083  23.884  1.00  0.00     0.195 C 
ENDBRANCH  19  20
ENDBRANCH  14  19
BRANCH  17  22
ATOM     22  C   UNL A   1      33.951  25.452  24.679  1.00  0.00     0.038 A 
ATOM     23  C   UNL A   1      33.707  25.629  23.309  1.00  0.00     0.015 A 
ATOM     24  C   UNL A   1      33.654  26.529  25.508  1.00  0.00     0.123 A 
ATOM     25  C   UNL A   1      33.194  26.832  22.833  1.00  0.00     0.021 A 
ATOM     26  N   UNL A   1      33.171  27.722  25.072  1.00  0.00    -0.264 NA
ATOM     27  C   UNL A   1      32.950  27.842  23.747  1.00  0.00     0.111 A 
ENDBRANCH  17  22
ENDBRANCH   9  13
ENDBRANCH   5   8
ENDBRANCH   3   4
ENDBRANCH   2   3
ENDBRANCH   1   2
BRANCH   1  28
ATOM     28  C   UNL A   1      38.663  29.344  27.908  1.00  0.00     0.002 C 
BRANCH  28  29
ATOM     29  C   UNL A   1      37.269  29.859  28.296  1.00  0.00     0.021 C 
BRANCH  29  30
ATOM     30  C   UNL A   1      36.721  29.291  29.596  1.00  0.00     0.116 C 
BRANCH  30  31
ATOM     31  N   UNL A   1      36.366  30.333  30.559  1.00  0.00    -0.352 N 
ATOM     32  C   UNL A   1      36.793  30.481  31.867  1.00  0.00     0.251 C 
ATOM     33  H   UNL A   1      35.740  31.019  30.233  1.00  0.00     0.163 HD
ATOM     34  O   UNL A   1      36.156  31.154  32.657  1.00  0.00    -0.269 OA
BRANCH  32  35
ATOM     35  C   UNL A   1      38.036  29.802  32.284  1.00  0.00     0.039 A 
ATOM     36  C   UNL A   1      38.131  28.409  32.310  1.00  0.00     0.014 A 
ATOM     37  C   UNL A   1      39.127  30.595  32.624  1.00  0.00     0.014 A 
ATOM     38  C   UNL A   1      39.364  27.826  32.596  1.00  0.00     0.010 A 
ATOM     39  C   UNL A   1      40.370  30.028  32.737  1.00  0.00     0.010 A 
ATOM     40  C   UNL A   1      40.488  28.644  32.787  1.00  0.00    -0.014 A 
BRANCH  40  41
ATOM     41  C   UNL A   1      41.823  28.067  32.932  1.00  0.00     0.031 A 
ATOM     42  C   UNL A   1      42.102  27.512  34.284  1.00  0.00     0.074 A 
ATOM     43  C   UNL A   1      42.640  27.833  31.881  1.00  0.00     0.049 A 
ATOM     44  N   UNL A   1      42.901  27.979  35.185  1.00  0.00    -0.248 NA
ATOM     45  C   UNL A   1      41.273  26.390  34.759  1.00  0.00     0.031 C 
ATOM     46  C   UNL A   1      42.339  28.015  30.453  1.00  0.00     0.029 A 
ATOM     47  N   UNL A   1      43.880  27.268  31.849  1.00  0.00    -0.354 N 
ATOM     48  C   UNL A   1      42.872  27.056  36.230  1.00  0.00     0.074 A 
ATOM     49  C   UNL A   1      41.704  26.247  36.014  1.00  0.00     0.031 C 
ATOM     50  C   UNL A   1      43.245  27.352  29.706  1.00  0.00     0.029 A 
ATOM     51  C   UNL A   1      44.296  26.874  30.582  1.00  0.00     0.049 A 
ATOM     52  H   UNL A   1      44.434  27.149  32.655  1.00  0.00     0.167 HD
ATOM     53  C   UNL A   1      43.975  26.843  37.002  1.00  0.00     0.037 A 
ATOM     54  C   UNL A   1      45.430  26.207  30.259  1.00  0.00     0.037 A 
ATOM     55  C   UNL A   1      44.962  27.864  36.762  1.00  0.00     0.049 A 
ATOM     56  C   UNL A   1      46.391  26.423  31.366  1.00  0.00     0.074 A 
ATOM     57  C   UNL A   1      45.103  29.204  37.044  1.00  0.00     0.029 A 
ATOM     58  N   UNL A   1      45.841  27.562  35.753  1.00  0.00    -0.354 N 
ATOM     59  N   UNL A   1      46.883  27.592  31.675  1.00  0.00    -0.248 NA
ATOM     60  C   UNL A   1      46.542  25.396  32.390  1.00  0.00     0.031 C 
ATOM     61  C   UNL A   1      45.922  29.738  36.004  1.00  0.00     0.029 A 
ATOM     62  C   UNL A   1      46.295  28.702  35.147  1.00  0.00     0.049 A 
ATOM     63  H   UNL A   1      46.109  26.649  35.499  1.00  0.00     0.167 HD
ATOM     64  C   UNL A   1      47.005  27.565  33.051  1.00  0.00     0.074 A 
ATOM     65  C   UNL A   1      46.954  26.154  33.410  1.00  0.00     0.031 C 
ATOM     66  C   UNL A   1      46.814  28.694  33.793  1.00  0.00     0.037 A 
BRANCH  53  67
ATOM     67  C   UNL A   1      44.385  25.506  37.596  1.00  0.00     0.058 A 
ATOM     68  C   UNL A   1      44.697  25.434  38.973  1.00  0.00     0.135 A 
ATOM     69  C   UNL A   1      44.777  24.384  36.832  1.00  0.00     0.135 A 
ATOM     70  F   UNL A   1      44.381  26.446  39.799  1.00  0.00    -0.206 F 
ATOM     71  C   UNL A   1      45.403  24.365  39.530  1.00  0.00     0.059 A 
ATOM     72  C   UNL A   1      45.434  23.285  37.378  1.00  0.00     0.059 A 
ATOM     73  F   UNL A   1      44.637  24.337  35.503  1.00  0.00    -0.206 F 
ATOM     74  C   UNL A   1      45.780  23.301  38.718  1.00  0.00     0.060 A 
BRANCH  74  75
ATOM     75  S   UNL A   1      46.770  21.961  39.404  1.00  0.00     0.124 S 
ATOM     76  O   UNL A   1      45.838  21.369  40.357  1.00  0.00    -0.237 OA
ATOM     77  O   UNL A   1      47.068  21.165  38.218  1.00  0.00    -0.237 OA
ATOM     78  O   UNL A   1      47.914  22.655  39.989  1.00  0.00    -0.744 OA
ENDBRANCH  74  75
ENDBRANCH  53  67
BRANCH  54  79
ATOM     79  C   UNL A   1      45.650  25.213  29.181  1.00  0.00     0.058 A 
ATOM     80  C   UNL A   1      44.904  24.024  29.114  1.00  0.00     0.135 A 
ATOM     81  C   UNL A   1      46.399  25.547  28.034  1.00  0.00     0.135 A 
ATOM     82  F   UNL A   1      44.152  23.641  30.156  1.00  0.00    -0.206 F 
ATOM     83  C   UNL A   1      44.859  23.238  27.957  1.00  0.00     0.059 A 
ATOM     84  C   UNL A   1      46.374  24.777  26.872  1.00  0.00     0.059 A 
ATOM     85  F   UNL A   1      47.104  26.688  27.982  1.00  0.00    -0.206 F 
ATOM     86  C   UNL A   1      45.580  23.636  26.832  1.00  0.00     0.060 A 
BRANCH  86  87
ATOM     87  S   UNL A   1      45.382  22.723  25.282  1.00  0.00     0.124 S 
ATOM     88  O   UNL A   1      44.044  22.158  25.434  1.00  0.00    -0.237 OA
ATOM     89  O   UNL A   1      45.519  23.776  24.283  1.00  0.00    -0.237 OA
ATOM     90  O   UNL A   1      46.475  21.756  25.317  1.00  0.00    -0.744 OA
ENDBRANCH  86  87
ENDBRANCH  54  79
BRANCH  66  91
ATOM     91  C   UNL A   1      47.015  30.019  33.114  1.00  0.00     0.058 A 
ATOM     92  C   UNL A   1      46.008  30.775  32.493  1.00  0.00     0.135 A 
ATOM     93  C   UNL A   1      48.295  30.590  33.186  1.00  0.00     0.135 A 
ATOM     94  F   UNL A   1      44.741  30.339  32.453  1.00  0.00    -0.206 F 
ATOM     95  C   UNL A   1      46.272  32.029  31.937  1.00  0.00     0.059 A 
ATOM     96  C   UNL A   1      48.573  31.849  32.669  1.00  0.00     0.059 A 
ATOM     97  F   UNL A   1      49.289  29.935  33.811  1.00  0.00    -0.206 F 
ATOM     98  C   UNL A   1      47.560  32.558  32.032  1.00  0.00     0.060 A 
BRANCH  98  99
ATOM     99  S   UNL A   1      47.890  34.207  31.373  1.00  0.00     0.124 S 
ATOM    100  O   UNL A   1      47.293  35.069  32.387  1.00  0.00    -0.237 OA
ATOM    101  O   UNL A   1      49.348  34.231  31.297  1.00  0.00    -0.237 OA
ATOM    102  O   UNL A   1      47.209  34.200  30.080  1.00  0.00    -0.744 OA
ENDBRANCH  98  99
ENDBRANCH  66  91
ENDBRANCH  40  41
ENDBRANCH  32  35
ENDBRANCH  30  31
ENDBRANCH  29  30
ENDBRANCH  28  29
ENDBRANCH   1  28
TORSDOF 20
ENDMDL
MODEL 2
REMARK VINA RESULT:      -9.8      4.937     10.441
REMARK SMILES COCc1cc(-n2cnc(C(=O)NCCCCCCNC(=O)c3ccc(-c4c5nc(c(-c6c(F)cc(S(=O)(=O)[O-])cc6F)c6ccc([nH]6)c(-c6c(F)cc(S(=O)(=O)[O-])cc6F)c6nc(c(-c7c(F)cc(S(=O)(=O)[O-])cc7F)c7ccc4[nH]7)C=C6)C=C5)cc3)c2)nc(-c2cccnc2)n1
REMARK SMILES IDX 16 1 15 2 14 3 13 4 11 5 12 6 10 8 7 9 8 10 89 11 9 12 6 13
REMARK SMILES IDX 4 14 5 15 98 16 91 17 90 18 3 19 2 20 1 21 92 22 93 23 97 24
REMARK SMILES IDX 94 25 96 26 95 27 17 28 18 29 19 30 20 31 21 32 22 34 23 35
REMARK SMILES IDX 24 36 88 37 25 38 87 39 26 40 27 41 28 42 81 43 29 44 86 45
REMARK SMILES IDX 80 46 82 47 30 48 85 49 79 50 78 51 31 53 65 54 44 55 64 56
REMARK SMILES IDX 45 57 48 58 63 59 83 60 46 61 47 62 62 64 84 65 49 66 32 67
REMARK SMILES IDX 33 68 42 69 34 70 35 71 41 72 43 73 36 74 37 75 38 76 39 77
REMARK SMILES IDX 40 78 66 79 67 80 76 81 68 82 69 83 75 84 77 85 70 86 71 87
REMARK SMILES IDX 72 88 73 89 74 90 50 91 51 92 60 93 52 94 53 95 59 96 61 97
REMARK SMILES IDX 54 98 55 99 56 100 57 101 58 102
REMARK H PARENT 13 7 20 33 82 52 48 63
REMARK Flexibility Score: inf
ROOT
ATOM      1  C   UNL A   1      47.430  31.184  28.386  1.00  0.00     0.002 C 
ENDROOT
BRANCH   1   2
ATOM      2  C   UNL A   1      47.916  30.318  27.223  1.00  0.00     0.021 C 
BRANCH   2   3
ATOM      3  C   UNL A   1      46.971  29.203  26.779  1.00  0.00     0.116 C 
BRANCH   3   4
ATOM      4  N   UNL A   1      47.121  28.841  25.382  1.00  0.00    -0.351 N 
ATOM      5  C   UNL A   1      46.377  28.002  24.579  1.00  0.00     0.271 C 
ATOM      6  O   UNL A   1      46.772  27.826  23.425  1.00  0.00    -0.267 OA
ATOM      7  H   UNL A   1      47.884  29.267  24.929  1.00  0.00     0.163 HD
BRANCH   5   8
ATOM      8  C   UNL A   1      45.189  27.323  25.108  1.00  0.00     0.146 A 
ATOM      9  N   UNL A   1      43.724  25.792  25.685  1.00  0.00    -0.290 N 
ATOM     10  C   UNL A   1      43.094  26.992  25.487  1.00  0.00     0.206 A 
ATOM     11  C   UNL A   1      45.074  26.055  25.652  1.00  0.00     0.128 A 
ATOM     12  N   UNL A   1      43.942  27.933  25.138  1.00  0.00    -0.231 NA
BRANCH   9  13
ATOM     13  C   UNL A   1      43.145  24.511  25.832  1.00  0.00     0.142 A 
ATOM     14  C   UNL A   1      41.292  23.131  26.249  1.00  0.00     0.072 A 
ATOM     15  C   UNL A   1      41.815  24.410  26.177  1.00  0.00     0.074 A 
ATOM     16  N   UNL A   1      42.039  22.034  25.988  1.00  0.00    -0.230 NA
ATOM     17  C   UNL A   1      43.324  22.238  25.654  1.00  0.00     0.163 A 
ATOM     18  N   UNL A   1      43.915  23.440  25.552  1.00  0.00    -0.210 NA
BRANCH  14  19
ATOM     19  C   UNL A   1      39.836  22.928  26.615  1.00  0.00     0.216 C 
BRANCH  19  20
ATOM     20  O   UNL A   1      38.989  23.974  26.120  1.00  0.00    -0.378 OA
ATOM     21  C   UNL A   1      37.626  23.816  26.489  1.00  0.00     0.195 C 
ENDBRANCH  19  20
ENDBRANCH  14  19
BRANCH  17  22
ATOM     22  C   UNL A   1      44.181  21.074  25.475  1.00  0.00     0.038 A 
ATOM     23  C   UNL A   1      43.651  19.775  25.451  1.00  0.00     0.015 A 
ATOM     24  C   UNL A   1      45.559  21.187  25.334  1.00  0.00     0.123 A 
ATOM     25  C   UNL A   1      44.489  18.675  25.294  1.00  0.00     0.021 A 
ATOM     26  N   UNL A   1      46.405  20.132  25.199  1.00  0.00    -0.264 NA
ATOM     27  C   UNL A   1      45.849  18.903  25.179  1.00  0.00     0.111 A 
ENDBRANCH  17  22
ENDBRANCH   9  13
ENDBRANCH   5   8
ENDBRANCH   3   4
ENDBRANCH   2   3
ENDBRANCH   1   2
BRANCH   1  28
ATOM     28  C   UNL A   1      46.840  32.554  28.025  1.00  0.00     0.002 C 
BRANCH  28  29
ATOM     29  C   UNL A   1      47.762  33.550  27.307  1.00  0.00     0.021 C 
BRANCH  29  30
ATOM     30  C   UNL A   1      47.049  34.522  26.380  1.00  0.00     0.116 C 
BRANCH  30  31
ATOM     31  N   UNL A   1      47.145  35.908  26.838  1.00  0.00    -0.352 N 
ATOM     32  C   UNL A   1      46.234  36.635  27.584  1.00  0.00     0.251 C 
ATOM     33  H   UNL A   1      47.966  36.386  26.581  1.00  0.00     0.163 HD
ATOM     34  O   UNL A   1      46.259  37.853  27.581  1.00  0.00    -0.269 OA
BRANCH  32  35
ATOM     35  C   UNL A   1      45.230  35.903  28.380  1.00  0.00     0.039 A 
ATOM     36  C   UNL A   1      44.016  35.495  27.823  1.00  0.00     0.014 A 
ATOM     37  C   UNL A   1      45.542  35.601  29.702  1.00  0.00     0.014 A 
ATOM     38  C   UNL A   1      43.159  34.704  28.587  1.00  0.00     0.010 A 
ATOM     39  C   UNL A   1      44.783  34.689  30.387  1.00  0.00     0.010 A 
ATOM     40  C   UNL A   1      43.561  34.284  29.864  1.00  0.00    -0.014 A 
BRANCH  40  41
ATOM     41  C   UNL A   1      42.761  33.329  30.628  1.00  0.00     0.031 A 
ATOM     42  C   UNL A   1      43.116  31.904  30.382  1.00  0.00     0.074 A 
ATOM     43  C   UNL A   1      41.948  33.698  31.644  1.00  0.00     0.049 A 
ATOM     44  N   UNL A   1      42.425  31.011  29.755  1.00  0.00    -0.248 NA
ATOM     45  C   UNL A   1      44.475  31.457  30.734  1.00  0.00     0.031 C 
ATOM     46  C   UNL A   1      41.779  35.043  32.213  1.00  0.00     0.029 A 
ATOM     47  N   UNL A   1      41.181  32.931  32.469  1.00  0.00    -0.354 N 
ATOM     48  C   UNL A   1      43.148  29.825  29.874  1.00  0.00     0.074 A 
ATOM     49  C   UNL A   1      44.477  30.205  30.269  1.00  0.00     0.031 C 
ATOM     50  C   UNL A   1      41.175  34.958  33.416  1.00  0.00     0.029 A 
ATOM     51  C   UNL A   1      40.733  33.591  33.609  1.00  0.00     0.049 A 
ATOM     52  H   UNL A   1      40.963  31.991  32.275  1.00  0.00     0.167 HD
ATOM     53  C   UNL A   1      42.508  28.622  29.937  1.00  0.00     0.037 A 
ATOM     54  C   UNL A   1      40.038  33.063  34.644  1.00  0.00     0.037 A 
ATOM     55  C   UNL A   1      41.121  28.771  29.579  1.00  0.00     0.049 A 
ATOM     56  C   UNL A   1      39.383  31.831  34.145  1.00  0.00     0.074 A 
ATOM     57  C   UNL A   1      40.406  29.019  28.428  1.00  0.00     0.029 A 
ATOM     58  N   UNL A   1      40.300  29.051  30.641  1.00  0.00    -0.354 N 
ATOM     59  N   UNL A   1      38.465  31.829  33.217  1.00  0.00    -0.248 NA
ATOM     60  C   UNL A   1      40.002  30.538  34.409  1.00  0.00     0.031 C 
ATOM     61  C   UNL A   1      39.215  29.686  28.845  1.00  0.00     0.029 A 
ATOM     62  C   UNL A   1      39.215  29.782  30.237  1.00  0.00     0.049 A 
ATOM     63  H   UNL A   1      40.467  28.766  31.569  1.00  0.00     0.167 HD
ATOM     64  C   UNL A   1      38.696  30.669  32.502  1.00  0.00     0.074 A 
ATOM     65  C   UNL A   1      39.519  29.842  33.375  1.00  0.00     0.031 C 
ATOM     66  C   UNL A   1      38.470  30.618  31.158  1.00  0.00     0.037 A 
BRANCH  53  67
ATOM     67  C   UNL A   1      42.964  27.428  30.758  1.00  0.00     0.058 A 
ATOM     68  C   UNL A   1      43.015  27.543  32.166  1.00  0.00     0.135 A 
ATOM     69  C   UNL A   1      43.635  26.306  30.222  1.00  0.00     0.135 A 
ATOM     70  F   UNL A   1      42.421  28.574  32.789  1.00  0.00    -0.206 F 
ATOM     71  C   UNL A   1      43.732  26.652  32.968  1.00  0.00     0.059 A 
ATOM     72  C   UNL A   1      44.311  25.378  31.008  1.00  0.00     0.059 A 
ATOM     73  F   UNL A   1      43.758  26.105  28.906  1.00  0.00    -0.206 F 
ATOM     74  C   UNL A   1      44.391  25.579  32.375  1.00  0.00     0.060 A 
BRANCH  74  75
ATOM     75  S   UNL A   1      45.394  24.478  33.388  1.00  0.00     0.124 S 
ATOM     76  O   UNL A   1      44.960  24.841  34.732  1.00  0.00    -0.237 OA
ATOM     77  O   UNL A   1      44.978  23.164  32.911  1.00  0.00    -0.237 OA
ATOM     78  O   UNL A   1      46.761  24.859  33.042  1.00  0.00    -0.744 OA
ENDBRANCH  74  75
ENDBRANCH  53  67
BRANCH  54  79
ATOM     79  C   UNL A   1      40.095  33.422  36.082  1.00  0.00     0.058 A 
ATOM     80  C   UNL A   1      38.947  33.818  36.787  1.00  0.00     0.135 A 
ATOM     81  C   UNL A   1      41.229  33.108  36.858  1.00  0.00     0.135 A 
ATOM     82  F   UNL A   1      37.820  34.119  36.125  1.00  0.00    -0.206 F 
ATOM     83  C   UNL A   1      38.905  33.849  38.186  1.00  0.00     0.059 A 
ATOM     84  C   UNL A   1      41.213  33.136  38.253  1.00  0.00     0.059 A 
ATOM     85  F   UNL A   1      42.359  32.672  36.280  1.00  0.00    -0.206 F 
ATOM     86  C   UNL A   1      40.039  33.483  38.911  1.00  0.00     0.060 A 
BRANCH  86  87
ATOM     87  S   UNL A   1      39.934  33.348  40.712  1.00  0.00     0.124 S 
ATOM     88  O   UNL A   1      41.286  33.716  41.121  1.00  0.00    -0.237 OA
ATOM     89  O   UNL A   1      38.886  34.311  41.033  1.00  0.00    -0.237 OA
ATOM     90  O   UNL A   1      39.577  31.948  40.926  1.00  0.00    -0.744 OA
ENDBRANCH  86  87
ENDBRANCH  54  79
BRANCH  66  91
ATOM     91  C   UNL A   1      37.489  31.595  30.577  1.00  0.00     0.058 A 
ATOM     92  C   UNL A   1      37.826  32.771  29.885  1.00  0.00     0.135 A 
ATOM     93  C   UNL A   1      36.128  31.262  30.651  1.00  0.00     0.135 A 
ATOM     94  F   UNL A   1      39.106  33.120  29.697  1.00  0.00    -0.206 F 
ATOM     95  C   UNL A   1      36.848  33.595  29.322  1.00  0.00     0.059 A 
ATOM     96  C   UNL A   1      35.140  32.049  30.072  1.00  0.00     0.059 A 
ATOM     97  F   UNL A   1      35.747  30.125  31.259  1.00  0.00    -0.206 F 
ATOM     98  C   UNL A   1      35.506  33.223  29.420  1.00  0.00     0.060 A 
BRANCH  98  99
ATOM     99  S   UNL A   1      34.244  34.251  28.638  1.00  0.00     0.124 S 
ATOM    100  O   UNL A   1      33.247  34.371  29.697  1.00  0.00    -0.237 OA
ATOM    101  O   UNL A   1      34.980  35.470  28.319  1.00  0.00    -0.237 OA
ATOM    102  O   UNL A   1      33.831  33.462  27.479  1.00  0.00    -0.744 OA
ENDBRANCH  98  99
ENDBRANCH  66  91
ENDBRANCH  40  41
ENDBRANCH  32  35
ENDBRANCH  30  31
ENDBRANCH  29  30
ENDBRANCH  28  29
ENDBRANCH   1  28
TORSDOF 20
ENDMDL
MODEL 3
REMARK VINA RESULT:      -9.8      5.004     12.419
REMARK SMILES COCc1cc(-n2cnc(C(=O)NCCCCCCNC(=O)c3ccc(-c4c5nc(c(-c6c(F)cc(S(=O)(=O)[O-])cc6F)c6ccc([nH]6)c(-c6c(F)cc(S(=O)(=O)[O-])cc6F)c6nc(c(-c7c(F)cc(S(=O)(=O)[O-])cc7F)c7ccc4[nH]7)C=C6)C=C5)cc3)c2)nc(-c2cccnc2)n1
REMARK SMILES IDX 16 1 15 2 14 3 13 4 11 5 12 6 10 8 7 9 8 10 89 11 9 12 6 13
REMARK SMILES IDX 4 14 5 15 98 16 91 17 90 18 3 19 2 20 1 21 92 22 93 23 97 24
REMARK SMILES IDX 94 25 96 26 95 27 17 28 18 29 19 30 20 31 21 32 22 34 23 35
REMARK SMILES IDX 24 36 88 37 25 38 87 39 26 40 27 41 28 42 81 43 29 44 86 45
REMARK SMILES IDX 80 46 82 47 30 48 85 49 79 50 78 51 31 53 65 54 44 55 64 56
REMARK SMILES IDX 45 57 48 58 63 59 83 60 46 61 47 62 62 64 84 65 49 66 32 67
REMARK SMILES IDX 33 68 42 69 34 70 35 71 41 72 43 73 36 74 37 75 38 76 39 77
REMARK SMILES IDX 40 78 66 79 67 80 76 81 68 82 69 83 75 84 77 85 70 86 71 87
REMARK SMILES IDX 72 88 73 89 74 90 50 91 51 92 60 93 52 94 53 95 59 96 61 97
REMARK SMILES IDX 54 98 55 99 56 100 57 101 58 102
REMARK H PARENT 13 7 20 33 82 52 48 63
REMARK Flexibility Score: inf
ROOT
ATOM      1  C   UNL A   1      44.611  25.572  26.496  1.00  0.00     0.002 C 
ENDROOT
BRANCH   1   2
ATOM      2  C   UNL A   1      45.729  26.284  25.734  1.00  0.00     0.021 C 
BRANCH   2   3
ATOM      3  C   UNL A   1      46.433  27.415  26.482  1.00  0.00     0.116 C 
BRANCH   3   4
ATOM      4  N   UNL A   1      46.501  27.205  27.916  1.00  0.00    -0.351 N 
ATOM      5  C   UNL A   1      47.507  26.692  28.709  1.00  0.00     0.271 C 
ATOM      6  O   UNL A   1      47.270  26.567  29.912  1.00  0.00    -0.267 OA
ATOM      7  H   UNL A   1      45.692  27.474  28.407  1.00  0.00     0.163 HD
BRANCH   5   8
ATOM      8  C   UNL A   1      48.785  26.280  28.119  1.00  0.00     0.146 A 
ATOM      9  N   UNL A   1      50.598  26.189  26.884  1.00  0.00    -0.290 N 
ATOM     10  C   UNL A   1      50.254  24.931  27.304  1.00  0.00     0.206 A 
ATOM     11  C   UNL A   1      49.791  27.061  27.575  1.00  0.00     0.128 A 
ATOM     12  N   UNL A   1      49.170  24.949  28.046  1.00  0.00    -0.231 NA
BRANCH   9  13
ATOM     13  C   UNL A   1      51.539  26.555  25.894  1.00  0.00     0.142 A 
ATOM     14  C   UNL A   1      53.704  26.475  24.990  1.00  0.00     0.072 A 
ATOM     15  C   UNL A   1      52.845  26.133  26.018  1.00  0.00     0.074 A 
ATOM     16  N   UNL A   1      53.291  27.181  23.913  1.00  0.00    -0.230 NA
ATOM     17  C   UNL A   1      51.996  27.542  23.882  1.00  0.00     0.163 A 
ATOM     18  N   UNL A   1      51.090  27.249  24.829  1.00  0.00    -0.210 NA
BRANCH  14  19
ATOM     19  C   UNL A   1      55.156  26.046  25.041  1.00  0.00     0.216 C 
BRANCH  19  20
ATOM     20  O   UNL A   1      55.880  26.400  23.856  1.00  0.00    -0.378 OA
ATOM     21  C   UNL A   1      57.263  26.630  24.087  1.00  0.00     0.195 C 
ENDBRANCH  19  20
ENDBRANCH  14  19
BRANCH  17  22
ATOM     22  C   UNL A   1      51.546  28.395  22.791  1.00  0.00     0.038 A 
ATOM     23  C   UNL A   1      50.774  27.885  21.737  1.00  0.00     0.015 A 
ATOM     24  C   UNL A   1      51.870  29.746  22.728  1.00  0.00     0.123 A 
ATOM     25  C   UNL A   1      50.367  28.714  20.695  1.00  0.00     0.021 A 
ATOM     26  N   UNL A   1      51.505  30.575  21.716  1.00  0.00    -0.264 NA
ATOM     27  C   UNL A   1      50.761  30.040  20.727  1.00  0.00     0.111 A 
ENDBRANCH  17  22
ENDBRANCH   9  13
ENDBRANCH   5   8
ENDBRANCH   3   4
ENDBRANCH   2   3
ENDBRANCH   1   2
BRANCH   1  28
ATOM     28  C   UNL A   1      44.879  24.119  26.914  1.00  0.00     0.002 C 
BRANCH  28  29
ATOM     29  C   UNL A   1      44.318  23.013  26.009  1.00  0.00     0.021 C 
BRANCH  29  30
ATOM     30  C   UNL A   1      43.245  23.472  25.034  1.00  0.00     0.116 C 
BRANCH  30  31
ATOM     31  N   UNL A   1      42.011  22.696  25.149  1.00  0.00    -0.352 N 
ATOM     32  C   UNL A   1      41.052  22.744  26.146  1.00  0.00     0.251 C 
ATOM     33  H   UNL A   1      41.840  22.056  24.422  1.00  0.00     0.163 HD
ATOM     34  O   UNL A   1      40.285  21.813  26.317  1.00  0.00    -0.269 OA
BRANCH  32  35
ATOM     35  C   UNL A   1      40.983  23.945  27.001  1.00  0.00     0.039 A 
ATOM     36  C   UNL A   1      41.580  23.977  28.263  1.00  0.00     0.014 A 
ATOM     37  C   UNL A   1      40.327  25.064  26.498  1.00  0.00     0.014 A 
ATOM     38  C   UNL A   1      41.585  25.176  28.974  1.00  0.00     0.010 A 
ATOM     39  C   UNL A   1      40.479  26.277  27.118  1.00  0.00     0.010 A 
ATOM     40  C   UNL A   1      41.051  26.332  28.384  1.00  0.00    -0.014 A 
BRANCH  40  41
ATOM     41  C   UNL A   1      41.180  27.635  29.031  1.00  0.00     0.031 A 
ATOM     42  C   UNL A   1      42.269  28.485  28.477  1.00  0.00     0.074 A 
ATOM     43  C   UNL A   1      40.250  28.128  29.881  1.00  0.00     0.049 A 
ATOM     44  N   UNL A   1      43.387  28.808  29.037  1.00  0.00    -0.248 NA
ATOM     45  C   UNL A   1      42.178  28.896  27.065  1.00  0.00     0.031 C 
ATOM     46  C   UNL A   1      38.955  27.530  30.237  1.00  0.00     0.029 A 
ATOM     47  N   UNL A   1      40.206  29.330  30.522  1.00  0.00    -0.354 N 
ATOM     48  C   UNL A   1      44.014  29.682  28.150  1.00  0.00     0.074 A 
ATOM     49  C   UNL A   1      43.348  29.513  26.887  1.00  0.00     0.031 C 
ATOM     50  C   UNL A   1      38.166  28.460  30.814  1.00  0.00     0.029 A 
ATOM     51  C   UNL A   1      38.960  29.649  31.052  1.00  0.00     0.049 A 
ATOM     52  H   UNL A   1      40.989  29.921  30.605  1.00  0.00     0.167 HD
ATOM     53  C   UNL A   1      44.815  30.685  28.609  1.00  0.00     0.037 A 
ATOM     54  C   UNL A   1      38.595  30.805  31.656  1.00  0.00     0.037 A 
ATOM     55  C   UNL A   1      45.109  30.494  30.007  1.00  0.00     0.049 A 
ATOM     56  C   UNL A   1      39.837  31.458  32.130  1.00  0.00     0.074 A 
ATOM     57  C   UNL A   1      45.870  29.628  30.758  1.00  0.00     0.029 A 
ATOM     58  N   UNL A   1      44.204  31.085  30.850  1.00  0.00    -0.354 N 
ATOM     59  N   UNL A   1      40.615  30.948  33.046  1.00  0.00    -0.248 NA
ATOM     60  C   UNL A   1      40.435  32.520  31.329  1.00  0.00     0.031 C 
ATOM     61  C   UNL A   1      45.227  29.546  32.030  1.00  0.00     0.029 A 
ATOM     62  C   UNL A   1      44.123  30.398  32.032  1.00  0.00     0.049 A 
ATOM     63  H   UNL A   1      43.683  31.893  30.637  1.00  0.00     0.167 HD
ATOM     64  C   UNL A   1      41.892  31.305  32.656  1.00  0.00     0.074 A 
ATOM     65  C   UNL A   1      41.709  32.403  31.716  1.00  0.00     0.031 C 
ATOM     66  C   UNL A   1      42.951  30.476  32.883  1.00  0.00     0.037 A 
BRANCH  53  67
ATOM     67  C   UNL A   1      44.945  32.062  27.980  1.00  0.00     0.058 A 
ATOM     68  C   UNL A   1      46.190  32.451  27.433  1.00  0.00     0.135 A 
ATOM     69  C   UNL A   1      44.016  33.109  28.163  1.00  0.00     0.135 A 
ATOM     70  F   UNL A   1      47.157  31.543  27.222  1.00  0.00    -0.206 F 
ATOM     71  C   UNL A   1      46.506  33.783  27.156  1.00  0.00     0.059 A 
ATOM     72  C   UNL A   1      44.292  34.435  27.844  1.00  0.00     0.059 A 
ATOM     73  F   UNL A   1      42.830  32.922  28.753  1.00  0.00    -0.206 F 
ATOM     74  C   UNL A   1      45.552  34.771  27.380  1.00  0.00     0.060 A 
BRANCH  74  75
ATOM     75  S   UNL A   1      45.979  36.501  27.115  1.00  0.00     0.124 S 
ATOM     76  O   UNL A   1      44.670  37.087  26.852  1.00  0.00    -0.237 OA
ATOM     77  O   UNL A   1      46.600  36.859  28.385  1.00  0.00    -0.237 OA
ATOM     78  O   UNL A   1      46.888  36.450  25.973  1.00  0.00    -0.744 OA
ENDBRANCH  74  75
ENDBRANCH  53  67
BRANCH  54  79
ATOM     79  C   UNL A   1      37.278  31.487  31.640  1.00  0.00     0.058 A 
ATOM     80  C   UNL A   1      36.592  31.790  32.827  1.00  0.00     0.135 A 
ATOM     81  C   UNL A   1      36.803  32.109  30.467  1.00  0.00     0.135 A 
ATOM     82  F   UNL A   1      36.989  31.252  33.990  1.00  0.00    -0.206 F 
ATOM     83  C   UNL A   1      35.529  32.700  32.862  1.00  0.00     0.059 A 
ATOM     84  C   UNL A   1      35.744  33.015  30.476  1.00  0.00     0.059 A 
ATOM     85  F   UNL A   1      37.422  31.922  29.291  1.00  0.00    -0.206 F 
ATOM     86  C   UNL A   1      35.127  33.326  31.682  1.00  0.00     0.060 A 
BRANCH  86  87
ATOM     87  S   UNL A   1      33.878  34.633  31.754  1.00  0.00     0.124 S 
ATOM     88  O   UNL A   1      34.677  35.793  32.136  1.00  0.00    -0.237 OA
ATOM     89  O   UNL A   1      33.358  34.637  30.391  1.00  0.00    -0.237 OA
ATOM     90  O   UNL A   1      32.946  34.154  32.771  1.00  0.00    -0.744 OA
ENDBRANCH  86  87
ENDBRANCH  54  79
BRANCH  66  91
ATOM     91  C   UNL A   1      42.831  29.478  33.999  1.00  0.00     0.058 A 
ATOM     92  C   UNL A   1      42.944  29.773  35.368  1.00  0.00     0.135 A 
ATOM     93  C   UNL A   1      42.489  28.163  33.652  1.00  0.00     0.135 A 
ATOM     94  F   UNL A   1      43.187  31.022  35.788  1.00  0.00    -0.206 F 
ATOM     95  C   UNL A   1      42.758  28.792  36.345  1.00  0.00     0.059 A 
ATOM     96  C   UNL A   1      42.268  27.178  34.608  1.00  0.00     0.059 A 
ATOM     97  F   UNL A   1      42.320  27.830  32.360  1.00  0.00    -0.206 F 
ATOM     98  C   UNL A   1      42.419  27.497  35.954  1.00  0.00     0.060 A 
BRANCH  98  99
ATOM     99  S   UNL A   1      42.114  26.242  37.216  1.00  0.00     0.124 S 
ATOM    100  O   UNL A   1      43.147  26.540  38.202  1.00  0.00    -0.237 OA
ATOM    101  O   UNL A   1      40.743  26.531  37.626  1.00  0.00    -0.237 OA
ATOM    102  O   UNL A   1      42.285  24.983  36.494  1.00  0.00    -0.744 OA
ENDBRANCH  98  99
ENDBRANCH  66  91
ENDBRANCH  40  41
ENDBRANCH  32  35
ENDBRANCH  30  31
ENDBRANCH  29  30
ENDBRANCH  28  29
ENDBRANCH   1  28
TORSDOF 20
ENDMDL
