MODEL 1
REMARK VINA RESULT:     -13.5      0.000      0.000
REMARK SMILES Cc1ncc(CO)c([C@H]2[NH2+][C@@H](C(=O)NCCCCCCNC(=O)c3ccc(-c4c5nc(c(-c6c(F)cc(S(=O)(=O)[O-])cc6F)c6ccc([nH]6)c(-c6c(F)cc(S(=O)(=O)[O-])cc6F)c6nc(c(-c7c(F)cc(S(=O)(=O)[O-])cc7F)c7ccc4[nH]7)C=C6)C=C5)cc3)Cc3[nH]cnc32)c1O
REMARK SMILES IDX 17 1 16 2 15 3 14 4 12 5 13 6 11 8 9 9 10 10 95 11 91 14
REMARK SMILES IDX 94 15 90 16 92 17 93 18 8 20 1 21 2 22 3 23 96 24 4 25 5 26
REMARK SMILES IDX 97 27 6 29 7 30 18 32 19 33 20 34 21 35 22 36 23 38 24 39
REMARK SMILES IDX 25 40 89 41 26 42 88 43 27 44 28 45 29 46 82 47 30 48 87 49
REMARK SMILES IDX 81 50 83 51 31 52 86 53 80 54 79 55 32 57 66 58 45 59 65 60
REMARK SMILES IDX 46 61 49 62 64 63 84 64 47 65 48 66 63 68 85 69 50 70 33 71
REMARK SMILES IDX 34 72 43 73 35 74 36 75 42 76 44 77 37 78 38 79 39 80 40 81
REMARK SMILES IDX 41 82 67 83 68 84 77 85 69 86 70 87 76 88 78 89 71 90 72 91
REMARK SMILES IDX 73 92 74 93 75 94 51 95 52 96 61 97 53 98 54 99 60 100
REMARK SMILES IDX 62 101 55 102 56 103 57 104 58 105 59 106
REMARK H PARENT 14 7 10 12 10 13 92 19 97 28 7 31 21 37 83 56 49 67
REMARK Flexibility Score: inf
ROOT
ATOM      1  C   UNL A   1      34.551  23.221  24.019  1.00  0.00     0.002 C 
ENDROOT
BRANCH   1   2
ATOM      2  C   UNL A   1      33.361  22.429  23.474  1.00  0.00     0.021 C 
BRANCH   2   3
ATOM      3  C   UNL A   1      32.236  23.304  22.927  1.00  0.00     0.116 C 
BRANCH   3   4
ATOM      4  N   UNL A   1      32.587  23.924  21.656  1.00  0.00    -0.351 N 
ATOM      5  C   UNL A   1      32.760  25.244  21.334  1.00  0.00     0.278 C 
ATOM      6  O   UNL A   1      33.123  25.526  20.191  1.00  0.00    -0.268 OA
ATOM      7  H   UNL A   1      32.722  23.294  20.911  1.00  0.00     0.163 HD
BRANCH   5   8
ATOM      8  C   UNL A   1      32.469  26.290  22.405  1.00  0.00     0.279 C 
ATOM      9  C   UNL A   1      30.888  27.898  23.161  1.00  0.00     0.270 C 
ATOM     10  N   UNL A   1      31.466  27.282  21.931  1.00  0.00    -0.324 N 
ATOM     11  C   UNL A   1      31.991  28.645  23.859  1.00  0.00     0.124 A 
ATOM     12  H   UNL A   1      31.916  27.993  21.354  1.00  0.00     0.347 HD
ATOM     13  H   UNL A   1      30.745  26.841  21.358  1.00  0.00     0.347 HD
ATOM     14  C   UNL A   1      33.290  28.143  23.799  1.00  0.00     0.051 A 
ATOM     15  N   UNL A   1      31.902  29.562  24.877  1.00  0.00    -0.235 NA
ATOM     16  C   UNL A   1      33.735  26.989  22.948  1.00  0.00     0.131 C 
ATOM     17  N   UNL A   1      34.000  28.800  24.754  1.00  0.00    -0.348 N 
ATOM     18  C   UNL A   1      33.121  29.649  25.374  1.00  0.00     0.197 A 
ATOM     19  H   UNL A   1      34.956  28.690  24.960  1.00  0.00     0.167 HD
BRANCH   9  20
ATOM     20  C   UNL A   1      29.514  28.439  22.877  1.00  0.00     0.066 A 
ATOM     21  C   UNL A   1      28.507  31.807  21.294  1.00  0.00     0.071 C 
ATOM     22  C   UNL A   1      28.428  30.456  21.947  1.00  0.00     0.079 A 
ATOM     23  N   UNL A   1      27.223  30.044  22.376  1.00  0.00    -0.257 NA
ATOM     24  C   UNL A   1      29.556  29.673  22.155  1.00  0.00     0.146 A 
ATOM     25  C   UNL A   1      27.167  28.852  23.019  1.00  0.00     0.118 A 
ATOM     26  C   UNL A   1      28.259  28.022  23.327  1.00  0.00     0.009 A 
BRANCH  24  27
ATOM     27  O   UNL A   1      30.776  30.132  21.707  1.00  0.00    -0.505 OA
ATOM     28  H   UNL A   1      31.045  31.010  21.894  1.00  0.00     0.293 HD
ENDBRANCH  24  27
BRANCH  26  29
ATOM     29  C   UNL A   1      27.964  26.792  24.128  1.00  0.00     0.194 C 
BRANCH  29  30
ATOM     30  O   UNL A   1      28.402  25.631  23.420  1.00  0.00    -0.392 OA
ATOM     31  H   UNL A   1      27.648  25.041  23.268  1.00  0.00     0.211 HD
ENDBRANCH  29  30
ENDBRANCH  26  29
ENDBRANCH   9  20
ENDBRANCH   5   8
ENDBRANCH   3   4
ENDBRANCH   2   3
ENDBRANCH   1   2
BRANCH   1  32
ATOM     32  C   UNL A   1      35.725  22.376  24.538  1.00  0.00     0.002 C 
BRANCH  32  33
ATOM     33  C   UNL A   1      37.074  23.098  24.688  1.00  0.00     0.021 C 
BRANCH  33  34
ATOM     34  C   UNL A   1      37.539  23.215  26.127  1.00  0.00     0.116 C 
BRANCH  34  35
ATOM     35  N   UNL A   1      38.696  22.361  26.411  1.00  0.00    -0.352 N 
ATOM     36  C   UNL A   1      40.005  22.744  26.677  1.00  0.00     0.251 C 
ATOM     37  H   UNL A   1      38.525  21.392  26.412  1.00  0.00     0.163 HD
ATOM     38  O   UNL A   1      40.930  21.969  26.527  1.00  0.00    -0.269 OA
BRANCH  36  39
ATOM     39  C   UNL A   1      40.230  24.116  27.171  1.00  0.00     0.039 A 
ATOM     40  C   UNL A   1      39.413  25.196  26.822  1.00  0.00     0.014 A 
ATOM     41  C   UNL A   1      41.294  24.283  28.047  1.00  0.00     0.014 A 
ATOM     42  C   UNL A   1      39.658  26.433  27.418  1.00  0.00     0.010 A 
ATOM     43  C   UNL A   1      41.364  25.408  28.810  1.00  0.00     0.010 A 
ATOM     44  C   UNL A   1      40.639  26.521  28.417  1.00  0.00    -0.014 A 
BRANCH  44  45
ATOM     45  C   UNL A   1      40.915  27.738  29.163  1.00  0.00     0.031 A 
ATOM     46  C   UNL A   1      42.000  28.567  28.577  1.00  0.00     0.074 A 
ATOM     47  C   UNL A   1      40.041  28.194  30.092  1.00  0.00     0.049 A 
ATOM     48  N   UNL A   1      43.177  28.792  29.056  1.00  0.00    -0.248 NA
ATOM     49  C   UNL A   1      41.821  29.053  27.195  1.00  0.00     0.031 C 
ATOM     50  C   UNL A   1      38.751  27.609  30.496  1.00  0.00     0.029 A 
ATOM     51  N   UNL A   1      40.064  29.351  30.803  1.00  0.00    -0.354 N 
ATOM     52  C   UNL A   1      43.780  29.673  28.160  1.00  0.00     0.074 A 
ATOM     53  C   UNL A   1      43.019  29.585  26.944  1.00  0.00     0.031 C 
ATOM     54  C   UNL A   1      38.030  28.515  31.193  1.00  0.00     0.029 A 
ATOM     55  C   UNL A   1      38.865  29.672  31.441  1.00  0.00     0.049 A 
ATOM     56  H   UNL A   1      40.864  29.920  30.863  1.00  0.00     0.167 HD
ATOM     57  C   UNL A   1      44.665  30.615  28.590  1.00  0.00     0.037 A 
ATOM     58  C   UNL A   1      38.589  30.820  32.113  1.00  0.00     0.037 A 
ATOM     59  C   UNL A   1      45.105  30.325  29.934  1.00  0.00     0.049 A 
ATOM     60  C   UNL A   1      39.901  31.432  32.448  1.00  0.00     0.074 A 
ATOM     61  C   UNL A   1      45.778  29.281  30.537  1.00  0.00     0.029 A 
ATOM     62  N   UNL A   1      44.485  31.012  30.950  1.00  0.00    -0.354 N 
ATOM     63  N   UNL A   1      40.773  30.878  33.247  1.00  0.00    -0.248 NA
ATOM     64  C   UNL A   1      40.442  32.411  31.520  1.00  0.00     0.031 C 
ATOM     65  C   UNL A   1      45.156  29.126  31.813  1.00  0.00     0.029 A 
ATOM     66  C   UNL A   1      44.193  30.127  31.957  1.00  0.00     0.049 A 
ATOM     67  H   UNL A   1      44.284  31.976  30.954  1.00  0.00     0.167 HD
ATOM     68  C   UNL A   1      42.005  31.114  32.654  1.00  0.00     0.074 A 
ATOM     69  C   UNL A   1      41.743  32.134  31.639  1.00  0.00     0.031 C 
ATOM     70  C   UNL A   1      43.050  30.252  32.840  1.00  0.00     0.037 A 
BRANCH  57  71
ATOM     71  C   UNL A   1      44.820  31.994  27.978  1.00  0.00     0.058 A 
ATOM     72  C   UNL A   1      46.042  32.332  27.358  1.00  0.00     0.135 A 
ATOM     73  C   UNL A   1      43.943  33.078  28.204  1.00  0.00     0.135 A 
ATOM     74  F   UNL A   1      46.959  31.387  27.093  1.00  0.00    -0.206 F 
ATOM     75  C   UNL A   1      46.394  33.650  27.058  1.00  0.00     0.059 A 
ATOM     76  C   UNL A   1      44.250  34.390  27.863  1.00  0.00     0.059 A 
ATOM     77  F   UNL A   1      42.782  32.946  28.855  1.00  0.00    -0.206 F 
ATOM     78  C   UNL A   1      45.494  34.674  27.328  1.00  0.00     0.060 A 
BRANCH  78  79
ATOM     79  S   UNL A   1      45.974  36.382  27.030  1.00  0.00     0.124 S 
ATOM     80  O   UNL A   1      46.715  36.262  25.780  1.00  0.00    -0.237 OA
ATOM     81  O   UNL A   1      44.678  37.049  26.947  1.00  0.00    -0.237 OA
ATOM     82  O   UNL A   1      46.771  36.717  28.207  1.00  0.00    -0.744 OA
ENDBRANCH  78  79
ENDBRANCH  57  71
BRANCH  58  83
ATOM     83  C   UNL A   1      37.315  31.590  32.153  1.00  0.00     0.058 A 
ATOM     84  C   UNL A   1      36.806  32.104  33.361  1.00  0.00     0.135 A 
ATOM     85  C   UNL A   1      36.731  32.095  30.973  1.00  0.00     0.135 A 
ATOM     86  F   UNL A   1      37.316  31.696  34.533  1.00  0.00    -0.206 F 
ATOM     87  C   UNL A   1      35.819  33.098  33.398  1.00  0.00     0.059 A 
ATOM     88  C   UNL A   1      35.743  33.080  30.984  1.00  0.00     0.059 A 
ATOM     89  F   UNL A   1      37.176  31.714  29.766  1.00  0.00    -0.206 F 
ATOM     90  C   UNL A   1      35.310  33.598  32.200  1.00  0.00     0.060 A 
BRANCH  90  91
ATOM     91  S   UNL A   1      34.178  35.010  32.228  1.00  0.00     0.124 S 
ATOM     92  O   UNL A   1      32.984  34.427  32.828  1.00  0.00    -0.237 OA
ATOM     93  O   UNL A   1      34.904  35.970  33.053  1.00  0.00    -0.237 OA
ATOM     94  O   UNL A   1      34.061  35.369  30.817  1.00  0.00    -0.744 OA
ENDBRANCH  90  91
ENDBRANCH  58  83
BRANCH  70  95
ATOM     95  C   UNL A   1      42.924  29.211  33.930  1.00  0.00     0.058 A 
ATOM     96  C   UNL A   1      43.124  29.457  35.302  1.00  0.00     0.135 A 
ATOM     97  C   UNL A   1      42.423  27.950  33.580  1.00  0.00     0.135 A 
ATOM     98  F   UNL A   1      43.513  30.663  35.736  1.00  0.00    -0.206 F 
ATOM     99  C   UNL A   1      42.864  28.488  36.275  1.00  0.00     0.059 A 
ATOM    100  C   UNL A   1      42.130  26.978  34.534  1.00  0.00     0.059 A 
ATOM    101  F   UNL A   1      42.154  27.670  32.294  1.00  0.00    -0.206 F 
ATOM    102  C   UNL A   1      42.361  27.250  35.879  1.00  0.00     0.060 A 
BRANCH 102 103
ATOM    103  S   UNL A   1      41.941  26.025  37.139  1.00  0.00     0.124 S 
ATOM    104  O   UNL A   1      42.921  26.309  38.183  1.00  0.00    -0.237 OA
ATOM    105  O   UNL A   1      40.556  26.362  37.462  1.00  0.00    -0.237 OA
ATOM    106  O   UNL A   1      42.117  24.750  36.448  1.00  0.00    -0.744 OA
ENDBRANCH 102 103
ENDBRANCH  70  95
ENDBRANCH  44  45
ENDBRANCH  36  39
ENDBRANCH  34  35
ENDBRANCH  33  34
ENDBRANCH  32  33
ENDBRANCH   1  32
TORSDOF 20
ENDMDL
MODEL 2
REMARK VINA RESULT:     -13.2      3.609      5.397
REMARK SMILES Cc1ncc(CO)c([C@H]2[NH2+][C@@H](C(=O)NCCCCCCNC(=O)c3ccc(-c4c5nc(c(-c6c(F)cc(S(=O)(=O)[O-])cc6F)c6ccc([nH]6)c(-c6c(F)cc(S(=O)(=O)[O-])cc6F)c6nc(c(-c7c(F)cc(S(=O)(=O)[O-])cc7F)c7ccc4[nH]7)C=C6)C=C5)cc3)Cc3[nH]cnc32)c1O
REMARK SMILES IDX 17 1 16 2 15 3 14 4 12 5 13 6 11 8 9 9 10 10 95 11 91 14
REMARK SMILES IDX 94 15 90 16 92 17 93 18 8 20 1 21 2 22 3 23 96 24 4 25 5 26
REMARK SMILES IDX 97 27 6 29 7 30 18 32 19 33 20 34 21 35 22 36 23 38 24 39
REMARK SMILES IDX 25 40 89 41 26 42 88 43 27 44 28 45 29 46 82 47 30 48 87 49
REMARK SMILES IDX 81 50 83 51 31 52 86 53 80 54 79 55 32 57 66 58 45 59 65 60
REMARK SMILES IDX 46 61 49 62 64 63 84 64 47 65 48 66 63 68 85 69 50 70 33 71
REMARK SMILES IDX 34 72 43 73 35 74 36 75 42 76 44 77 37 78 38 79 39 80 40 81
REMARK SMILES IDX 41 82 67 83 68 84 77 85 69 86 70 87 76 88 78 89 71 90 72 91
REMARK SMILES IDX 73 92 74 93 75 94 51 95 52 96 61 97 53 98 54 99 60 100
REMARK SMILES IDX 62 101 55 102 56 103 57 104 58 105 59 106
REMARK H PARENT 14 7 10 12 10 13 92 19 97 28 7 31 21 37 83 56 49 67
REMARK Flexibility Score: inf
ROOT
ATOM      1  C   UNL A   1      39.947  21.774  26.438  1.00  0.00     0.002 C 
ENDROOT
BRANCH   1   2
ATOM      2  C   UNL A   1      39.258  23.137  26.533  1.00  0.00     0.021 C 
BRANCH   2   3
ATOM      3  C   UNL A   1      37.782  23.111  26.145  1.00  0.00     0.116 C 
BRANCH   3   4
ATOM      4  N   UNL A   1      37.586  23.260  24.710  1.00  0.00    -0.351 N 
ATOM      5  C   UNL A   1      36.433  23.273  23.971  1.00  0.00     0.278 C 
ATOM      6  O   UNL A   1      36.514  23.480  22.759  1.00  0.00    -0.268 OA
ATOM      7  H   UNL A   1      38.414  23.370  24.187  1.00  0.00     0.163 HD
BRANCH   5   8
ATOM      8  C   UNL A   1      35.115  23.007  24.690  1.00  0.00     0.279 C 
ATOM      9  C   UNL A   1      33.255  21.532  24.841  1.00  0.00     0.270 C 
ATOM     10  N   UNL A   1      34.225  22.133  23.878  1.00  0.00    -0.324 N 
ATOM     11  C   UNL A   1      32.423  22.649  25.407  1.00  0.00     0.124 A 
ATOM     12  H   UNL A   1      33.733  22.684  23.174  1.00  0.00     0.347 HD
ATOM     13  H   UNL A   1      34.755  21.416  23.383  1.00  0.00     0.347 HD
ATOM     14  C   UNL A   1      33.011  23.898  25.603  1.00  0.00     0.051 A 
ATOM     15  N   UNL A   1      31.257  22.575  26.129  1.00  0.00    -0.235 NA
ATOM     16  C   UNL A   1      34.382  24.293  25.136  1.00  0.00     0.131 C 
ATOM     17  N   UNL A   1      32.166  24.599  26.404  1.00  0.00    -0.348 N 
ATOM     18  C   UNL A   1      31.121  23.760  26.692  1.00  0.00     0.197 A 
ATOM     19  H   UNL A   1      32.282  25.525  26.718  1.00  0.00     0.167 HD
BRANCH   9  20
ATOM     20  C   UNL A   1      32.719  20.235  24.300  1.00  0.00     0.066 A 
ATOM     21  C   UNL A   1      32.886  16.705  25.840  1.00  0.00     0.071 C 
ATOM     22  C   UNL A   1      32.616  17.836  24.888  1.00  0.00     0.079 A 
ATOM     23  N   UNL A   1      32.173  17.521  23.660  1.00  0.00    -0.257 NA
ATOM     24  C   UNL A   1      32.860  19.159  25.231  1.00  0.00     0.146 A 
ATOM     25  C   UNL A   1      31.990  18.540  22.784  1.00  0.00     0.118 A 
ATOM     26  C   UNL A   1      32.266  19.898  23.022  1.00  0.00     0.009 A 
BRANCH  24  27
ATOM     27  O   UNL A   1      33.321  19.444  26.500  1.00  0.00    -0.505 OA
ATOM     28  H   UNL A   1      32.841  20.027  27.054  1.00  0.00     0.293 HD
ENDBRANCH  24  27
BRANCH  26  29
ATOM     29  C   UNL A   1      32.071  20.835  21.870  1.00  0.00     0.194 C 
BRANCH  29  30
ATOM     30  O   UNL A   1      31.421  22.027  22.315  1.00  0.00    -0.392 OA
ATOM     31  H   UNL A   1      30.508  22.039  21.988  1.00  0.00     0.211 HD
ENDBRANCH  29  30
ENDBRANCH  26  29
ENDBRANCH   9  20
ENDBRANCH   5   8
ENDBRANCH   3   4
ENDBRANCH   2   3
ENDBRANCH   1   2
BRANCH   1  32
ATOM     32  C   UNL A   1      40.896  21.431  27.597  1.00  0.00     0.002 C 
BRANCH  32  33
ATOM     33  C   UNL A   1      41.957  20.355  27.316  1.00  0.00     0.021 C 
BRANCH  33  34
ATOM     34  C   UNL A   1      42.044  19.959  25.854  1.00  0.00     0.116 C 
BRANCH  34  35
ATOM     35  N   UNL A   1      43.423  19.719  25.421  1.00  0.00    -0.352 N 
ATOM     36  C   UNL A   1      44.380  20.650  25.039  1.00  0.00     0.251 C 
ATOM     37  H   UNL A   1      43.708  18.778  25.397  1.00  0.00     0.163 HD
ATOM     38  O   UNL A   1      45.335  20.328  24.359  1.00  0.00    -0.269 OA
BRANCH  36  39
ATOM     39  C   UNL A   1      44.210  22.039  25.507  1.00  0.00     0.039 A 
ATOM     40  C   UNL A   1      43.317  22.939  24.918  1.00  0.00     0.014 A 
ATOM     41  C   UNL A   1      44.971  22.410  26.609  1.00  0.00     0.014 A 
ATOM     42  C   UNL A   1      43.166  24.200  25.497  1.00  0.00     0.010 A 
ATOM     43  C   UNL A   1      44.633  23.525  27.312  1.00  0.00     0.010 A 
ATOM     44  C   UNL A   1      43.831  24.476  26.700  1.00  0.00    -0.014 A 
BRANCH  44  45
ATOM     45  C   UNL A   1      43.676  25.723  27.433  1.00  0.00     0.031 A 
ATOM     46  C   UNL A   1      44.704  26.743  27.102  1.00  0.00     0.074 A 
ATOM     47  C   UNL A   1      42.523  26.002  28.086  1.00  0.00     0.049 A 
ATOM     48  N   UNL A   1      45.655  27.187  27.854  1.00  0.00    -0.248 NA
ATOM     49  C   UNL A   1      44.802  27.188  25.699  1.00  0.00     0.031 C 
ATOM     50  C   UNL A   1      41.303  25.182  28.176  1.00  0.00     0.029 A 
ATOM     51  N   UNL A   1      42.148  27.142  28.723  1.00  0.00    -0.354 N 
ATOM     52  C   UNL A   1      46.297  28.168  27.100  1.00  0.00     0.074 A 
ATOM     53  C   UNL A   1      45.905  27.938  25.735  1.00  0.00     0.031 C 
ATOM     54  C   UNL A   1      40.272  25.934  28.623  1.00  0.00     0.029 A 
ATOM     55  C   UNL A   1      40.787  27.228  29.019  1.00  0.00     0.049 A 
ATOM     56  H   UNL A   1      42.787  27.853  28.957  1.00  0.00     0.167 HD
ATOM     57  C   UNL A   1      46.851  29.261  27.694  1.00  0.00     0.037 A 
ATOM     58  C   UNL A   1      40.140  28.302  29.543  1.00  0.00     0.037 A 
ATOM     59  C   UNL A   1      46.974  29.058  29.118  1.00  0.00     0.049 A 
ATOM     60  C   UNL A   1      41.185  29.152  30.171  1.00  0.00     0.074 A 
ATOM     61  C   UNL A   1      47.648  28.160  29.922  1.00  0.00     0.029 A 
ATOM     62  N   UNL A   1      45.997  29.613  29.909  1.00  0.00    -0.354 N 
ATOM     63  N   UNL A   1      41.907  28.772  31.191  1.00  0.00    -0.248 NA
ATOM     64  C   UNL A   1      41.758  30.217  29.365  1.00  0.00     0.031 C 
ATOM     65  C   UNL A   1      46.756  27.888  31.004  1.00  0.00     0.029 A 
ATOM     66  C   UNL A   1      45.622  28.688  30.850  1.00  0.00     0.049 A 
ATOM     67  H   UNL A   1      45.628  30.522  29.816  1.00  0.00     0.167 HD
ATOM     68  C   UNL A   1      43.186  29.240  30.920  1.00  0.00     0.074 A 
ATOM     69  C   UNL A   1      43.011  30.192  29.824  1.00  0.00     0.031 C 
ATOM     70  C   UNL A   1      44.287  28.592  31.407  1.00  0.00     0.037 A 
BRANCH  57  71
ATOM     71  C   UNL A   1      46.903  30.645  27.076  1.00  0.00     0.058 A 
ATOM     72  C   UNL A   1      48.141  31.319  27.015  1.00  0.00     0.135 A 
ATOM     73  C   UNL A   1      45.771  31.442  26.793  1.00  0.00     0.135 A 
ATOM     74  F   UNL A   1      49.288  30.667  27.268  1.00  0.00    -0.206 F 
ATOM     75  C   UNL A   1      48.239  32.690  26.768  1.00  0.00     0.059 A 
ATOM     76  C   UNL A   1      45.851  32.796  26.490  1.00  0.00     0.059 A 
ATOM     77  F   UNL A   1      44.519  30.981  26.887  1.00  0.00    -0.206 F 
ATOM     78  C   UNL A   1      47.084  33.422  26.520  1.00  0.00     0.060 A 
BRANCH  78  79
ATOM     79  S   UNL A   1      47.191  35.204  26.291  1.00  0.00     0.124 S 
ATOM     80  O   UNL A   1      47.005  35.684  27.655  1.00  0.00    -0.237 OA
ATOM     81  O   UNL A   1      48.532  35.355  25.735  1.00  0.00    -0.237 OA
ATOM     82  O   UNL A   1      46.099  35.490  25.365  1.00  0.00    -0.744 OA
ENDBRANCH  78  79
ENDBRANCH  57  71
BRANCH  58  83
ATOM     83  C   UNL A   1      38.780  28.816  29.221  1.00  0.00     0.058 A 
ATOM     84  C   UNL A   1      37.824  29.045  30.229  1.00  0.00     0.135 A 
ATOM     85  C   UNL A   1      38.493  29.377  27.960  1.00  0.00     0.135 A 
ATOM     86  F   UNL A   1      38.025  28.566  31.467  1.00  0.00    -0.206 F 
ATOM     87  C   UNL A   1      36.682  29.829  30.018  1.00  0.00     0.059 A 
ATOM     88  C   UNL A   1      37.359  30.155  27.723  1.00  0.00     0.059 A 
ATOM     89  F   UNL A   1      39.359  29.265  26.941  1.00  0.00    -0.206 F 
ATOM     90  C   UNL A   1      36.470  30.400  28.764  1.00  0.00     0.060 A 
BRANCH  90  91
ATOM     91  S   UNL A   1      35.106  31.566  28.530  1.00  0.00     0.124 S 
ATOM     92  O   UNL A   1      34.079  30.713  27.944  1.00  0.00    -0.237 OA
ATOM     93  O   UNL A   1      34.855  32.023  29.893  1.00  0.00    -0.237 OA
ATOM     94  O   UNL A   1      35.676  32.569  27.635  1.00  0.00    -0.744 OA
ENDBRANCH  90  91
ENDBRANCH  58  83
BRANCH  70  95
ATOM     95  C   UNL A   1      44.077  27.544  32.477  1.00  0.00     0.058 A 
ATOM     96  C   UNL A   1      43.743  27.822  33.817  1.00  0.00     0.135 A 
ATOM     97  C   UNL A   1      44.057  26.199  32.087  1.00  0.00     0.135 A 
ATOM     98  F   UNL A   1      43.648  29.083  34.256  1.00  0.00    -0.206 F 
ATOM     99  C   UNL A   1      43.432  26.810  34.729  1.00  0.00     0.059 A 
ATOM    100  C   UNL A   1      43.722  25.175  32.969  1.00  0.00     0.059 A 
ATOM    101  F   UNL A   1      44.308  25.870  30.808  1.00  0.00    -0.206 F 
ATOM    102  C   UNL A   1      43.420  25.486  34.292  1.00  0.00     0.060 A 
BRANCH 102 103
ATOM    103  S   UNL A   1      42.933  24.181  35.444  1.00  0.00     0.124 S 
ATOM    104  O   UNL A   1      41.487  24.367  35.525  1.00  0.00    -0.237 OA
ATOM    105  O   UNL A   1      43.378  22.970  34.759  1.00  0.00    -0.237 OA
ATOM    106  O   UNL A   1      43.673  24.506  36.661  1.00  0.00    -0.744 OA
ENDBRANCH 102 103
ENDBRANCH  70  95
ENDBRANCH  44  45
ENDBRANCH  36  39
ENDBRANCH  34  35
ENDBRANCH  33  34
ENDBRANCH  32  33
ENDBRANCH   1  32
TORSDOF 20
ENDMDL
MODEL 3
REMARK VINA RESULT:     -13.2      3.499      9.902
REMARK SMILES Cc1ncc(CO)c([C@H]2[NH2+][C@@H](C(=O)NCCCCCCNC(=O)c3ccc(-c4c5nc(c(-c6c(F)cc(S(=O)(=O)[O-])cc6F)c6ccc([nH]6)c(-c6c(F)cc(S(=O)(=O)[O-])cc6F)c6nc(c(-c7c(F)cc(S(=O)(=O)[O-])cc7F)c7ccc4[nH]7)C=C6)C=C5)cc3)Cc3[nH]cnc32)c1O
REMARK SMILES IDX 17 1 16 2 15 3 14 4 12 5 13 6 11 8 9 9 10 10 95 11 91 14
REMARK SMILES IDX 94 15 90 16 92 17 93 18 8 20 1 21 2 22 3 23 96 24 4 25 5 26
REMARK SMILES IDX 97 27 6 29 7 30 18 32 19 33 20 34 21 35 22 36 23 38 24 39
REMARK SMILES IDX 25 40 89 41 26 42 88 43 27 44 28 45 29 46 82 47 30 48 87 49
REMARK SMILES IDX 81 50 83 51 31 52 86 53 80 54 79 55 32 57 66 58 45 59 65 60
REMARK SMILES IDX 46 61 49 62 64 63 84 64 47 65 48 66 63 68 85 69 50 70 33 71
REMARK SMILES IDX 34 72 43 73 35 74 36 75 42 76 44 77 37 78 38 79 39 80 40 81
REMARK SMILES IDX 41 82 67 83 68 84 77 85 69 86 70 87 76 88 78 89 71 90 72 91
REMARK SMILES IDX 73 92 74 93 75 94 51 95 52 96 61 97 53 98 54 99 60 100
REMARK SMILES IDX 62 101 55 102 56 103 57 104 58 105 59 106
REMARK H PARENT 14 7 10 12 10 13 92 19 97 28 7 31 21 37 83 56 49 67
REMARK Flexibility Score: inf
ROOT
ATOM      1  C   UNL A   1      32.564  26.537  25.806  1.00  0.00     0.002 C 
ENDROOT
BRANCH   1   2
ATOM      2  C   UNL A   1      31.098  26.565  26.243  1.00  0.00     0.021 C 
BRANCH   2   3
ATOM      3  C   UNL A   1      30.227  25.523  25.547  1.00  0.00     0.116 C 
BRANCH   3   4
ATOM      4  N   UNL A   1      29.669  24.556  26.483  1.00  0.00    -0.351 N 
ATOM      5  C   UNL A   1      30.209  23.405  26.993  1.00  0.00     0.278 C 
ATOM      6  O   UNL A   1      29.563  22.774  27.831  1.00  0.00    -0.268 OA
ATOM      7  H   UNL A   1      28.759  24.762  26.799  1.00  0.00     0.163 HD
BRANCH   5   8
ATOM      8  C   UNL A   1      31.573  22.960  26.476  1.00  0.00     0.279 C 
ATOM      9  C   UNL A   1      32.715  21.303  25.207  1.00  0.00     0.270 C 
ATOM     10  N   UNL A   1      31.578  21.507  26.153  1.00  0.00    -0.324 N 
ATOM     11  C   UNL A   1      33.985  21.622  25.946  1.00  0.00     0.124 A 
ATOM     12  H   UNL A   1      31.716  20.956  27.000  1.00  0.00     0.347 HD
ATOM     13  H   UNL A   1      30.692  21.212  25.742  1.00  0.00     0.347 HD
ATOM     14  C   UNL A   1      33.971  22.628  26.912  1.00  0.00     0.051 A 
ATOM     15  N   UNL A   1      35.283  21.351  25.588  1.00  0.00    -0.235 NA
ATOM     16  C   UNL A   1      32.743  23.328  27.416  1.00  0.00     0.131 C 
ATOM     17  N   UNL A   1      35.271  22.927  27.174  1.00  0.00    -0.348 N 
ATOM     18  C   UNL A   1      36.025  22.127  26.354  1.00  0.00     0.197 A 
ATOM     19  H   UNL A   1      35.606  23.586  27.823  1.00  0.00     0.167 HD
BRANCH   9  20
ATOM     20  C   UNL A   1      32.481  20.079  24.366  1.00  0.00     0.066 A 
ATOM     21  C   UNL A   1      32.980  16.368  25.283  1.00  0.00     0.071 C 
ATOM     22  C   UNL A   1      32.678  17.618  24.507  1.00  0.00     0.079 A 
ATOM     23  N   UNL A   1      32.480  17.495  23.184  1.00  0.00    -0.257 NA
ATOM     24  C   UNL A   1      32.652  18.869  25.110  1.00  0.00     0.146 A 
ATOM     25  C   UNL A   1      32.268  18.633  22.479  1.00  0.00     0.118 A 
ATOM     26  C   UNL A   1      32.284  19.942  22.991  1.00  0.00     0.009 A 
BRANCH  24  27
ATOM     27  O   UNL A   1      32.867  18.957  26.469  1.00  0.00    -0.505 OA
ATOM     28  H   UNL A   1      33.077  19.783  26.859  1.00  0.00     0.293 HD
ENDBRANCH  24  27
BRANCH  26  29
ATOM     29  C   UNL A   1      32.115  21.053  22.000  1.00  0.00     0.194 C 
BRANCH  29  30
ATOM     30  O   UNL A   1      31.363  20.594  20.875  1.00  0.00    -0.392 OA
ATOM     31  H   UNL A   1      30.464  20.952  20.920  1.00  0.00     0.211 HD
ENDBRANCH  29  30
ENDBRANCH  26  29
ENDBRANCH   9  20
ENDBRANCH   5   8
ENDBRANCH   3   4
ENDBRANCH   2   3
ENDBRANCH   1   2
BRANCH   1  32
ATOM     32  C   UNL A   1      33.135  27.880  25.323  1.00  0.00     0.002 C 
BRANCH  32  33
ATOM     33  C   UNL A   1      33.041  29.057  26.308  1.00  0.00     0.021 C 
BRANCH  33  34
ATOM     34  C   UNL A   1      34.391  29.529  26.814  1.00  0.00     0.116 C 
BRANCH  34  35
ATOM     35  N   UNL A   1      34.353  30.912  27.299  1.00  0.00    -0.352 N 
ATOM     36  C   UNL A   1      35.072  31.479  28.343  1.00  0.00     0.251 C 
ATOM     37  H   UNL A   1      33.738  31.517  26.824  1.00  0.00     0.163 HD
ATOM     38  O   UNL A   1      34.695  32.500  28.885  1.00  0.00    -0.269 OA
BRANCH  36  39
ATOM     39  C   UNL A   1      36.321  30.811  28.756  1.00  0.00     0.039 A 
ATOM     40  C   UNL A   1      36.391  29.450  29.068  1.00  0.00     0.014 A 
ATOM     41  C   UNL A   1      37.458  31.608  28.788  1.00  0.00     0.014 A 
ATOM     42  C   UNL A   1      37.640  28.899  29.357  1.00  0.00     0.010 A 
ATOM     43  C   UNL A   1      38.686  31.022  28.813  1.00  0.00     0.010 A 
ATOM     44  C   UNL A   1      38.782  29.701  29.221  1.00  0.00    -0.014 A 
BRANCH  44  45
ATOM     45  C   UNL A   1      40.136  29.206  29.412  1.00  0.00     0.031 A 
ATOM     46  C   UNL A   1      40.518  29.042  30.837  1.00  0.00     0.074 A 
ATOM     47  C   UNL A   1      40.823  28.656  28.382  1.00  0.00     0.049 A 
ATOM     48  N   UNL A   1      41.379  29.724  31.515  1.00  0.00    -0.248 NA
ATOM     49  C   UNL A   1      39.707  28.127  31.664  1.00  0.00     0.031 C 
ATOM     50  C   UNL A   1      40.380  28.460  26.991  1.00  0.00     0.029 A 
ATOM     51  N   UNL A   1      42.036  28.044  28.384  1.00  0.00    -0.354 N 
ATOM     52  C   UNL A   1      41.408  29.137  32.778  1.00  0.00     0.074 A 
ATOM     53  C   UNL A   1      40.204  28.358  32.881  1.00  0.00     0.031 C 
ATOM     54  C   UNL A   1      41.204  27.592  26.362  1.00  0.00     0.029 A 
ATOM     55  C   UNL A   1      42.325  27.308  27.234  1.00  0.00     0.049 A 
ATOM     56  H   UNL A   1      42.663  28.115  29.139  1.00  0.00     0.167 HD
ATOM     57  C   UNL A   1      42.556  29.101  33.510  1.00  0.00     0.037 A 
ATOM     58  C   UNL A   1      43.409  26.514  27.033  1.00  0.00     0.037 A 
ATOM     59  C   UNL A   1      43.535  30.012  32.966  1.00  0.00     0.049 A 
ATOM     60  C   UNL A   1      44.428  26.944  28.025  1.00  0.00     0.074 A 
ATOM     61  C   UNL A   1      43.594  31.377  32.765  1.00  0.00     0.029 A 
ATOM     62  N   UNL A   1      44.502  29.469  32.154  1.00  0.00    -0.354 N 
ATOM     63  N   UNL A   1      44.981  28.128  28.026  1.00  0.00    -0.248 NA
ATOM     64  C   UNL A   1      44.470  26.236  29.294  1.00  0.00     0.031 C 
ATOM     65  C   UNL A   1      44.266  31.539  31.516  1.00  0.00     0.029 A 
ATOM     66  C   UNL A   1      44.652  30.278  31.058  1.00  0.00     0.049 A 
ATOM     67  H   UNL A   1      45.002  28.639  32.331  1.00  0.00     0.167 HD
ATOM     68  C   UNL A   1      45.060  28.486  29.364  1.00  0.00     0.074 A 
ATOM     69  C   UNL A   1      44.808  27.247  30.099  1.00  0.00     0.031 C 
ATOM     70  C   UNL A   1      45.028  29.800  29.741  1.00  0.00     0.037 A 
BRANCH  57  71
ATOM     71  C   UNL A   1      42.946  27.974  34.447  1.00  0.00     0.058 A 
ATOM     72  C   UNL A   1      43.119  28.255  35.819  1.00  0.00     0.135 A 
ATOM     73  C   UNL A   1      43.417  26.708  34.030  1.00  0.00     0.135 A 
ATOM     74  F   UNL A   1      42.713  29.428  36.333  1.00  0.00    -0.206 F 
ATOM     75  C   UNL A   1      43.775  27.382  36.689  1.00  0.00     0.059 A 
ATOM     76  C   UNL A   1      44.023  25.801  34.891  1.00  0.00     0.059 A 
ATOM     77  F   UNL A   1      43.405  26.318  32.751  1.00  0.00    -0.206 F 
ATOM     78  C   UNL A   1      44.236  26.161  36.209  1.00  0.00     0.060 A 
BRANCH  78  79
ATOM     79  S   UNL A   1      45.162  25.069  37.299  1.00  0.00     0.124 S 
ATOM     80  O   UNL A   1      44.840  23.761  36.743  1.00  0.00    -0.237 OA
ATOM     81  O   UNL A   1      46.531  25.533  37.097  1.00  0.00    -0.237 OA
ATOM     82  O   UNL A   1      44.599  25.353  38.616  1.00  0.00    -0.744 OA
ENDBRANCH  78  79
ENDBRANCH  57  71
BRANCH  58  83
ATOM     83  C   UNL A   1      43.485  25.207  26.324  1.00  0.00     0.058 A 
ATOM     84  C   UNL A   1      44.410  24.989  25.285  1.00  0.00     0.135 A 
ATOM     85  C   UNL A   1      42.865  24.055  26.850  1.00  0.00     0.135 A 
ATOM     86  F   UNL A   1      45.064  26.025  24.739  1.00  0.00    -0.206 F 
ATOM     87  C   UNL A   1      44.743  23.705  24.834  1.00  0.00     0.059 A 
ATOM     88  C   UNL A   1      43.175  22.768  26.413  1.00  0.00     0.059 A 
ATOM     89  F   UNL A   1      42.006  24.143  27.878  1.00  0.00    -0.206 F 
ATOM     90  C   UNL A   1      44.136  22.596  25.422  1.00  0.00     0.060 A 
BRANCH  90  91
ATOM     91  S   UNL A   1      44.693  20.931  24.983  1.00  0.00     0.124 S 
ATOM     92  O   UNL A   1      46.057  20.926  25.499  1.00  0.00    -0.237 OA
ATOM     93  O   UNL A   1      43.738  20.089  25.695  1.00  0.00    -0.237 OA
ATOM     94  O   UNL A   1      44.571  20.913  23.528  1.00  0.00    -0.744 OA
ENDBRANCH  90  91
ENDBRANCH  58  83
BRANCH  70  95
ATOM     95  C   UNL A   1      45.203  30.850  28.667  1.00  0.00     0.058 A 
ATOM     96  C   UNL A   1      44.151  31.416  27.920  1.00  0.00     0.135 A 
ATOM     97  C   UNL A   1      46.472  31.418  28.502  1.00  0.00     0.135 A 
ATOM     98  F   UNL A   1      42.889  30.998  28.081  1.00  0.00    -0.206 F 
ATOM     99  C   UNL A   1      44.358  32.477  27.034  1.00  0.00     0.059 A 
ATOM    100  C   UNL A   1      46.699  32.493  27.647  1.00  0.00     0.059 A 
ATOM    101  F   UNL A   1      47.508  30.963  29.228  1.00  0.00    -0.206 F 
ATOM    102  C   UNL A   1      45.639  33.012  26.908  1.00  0.00     0.060 A 
BRANCH 102 103
ATOM    103  S   UNL A   1      45.896  34.440  25.830  1.00  0.00     0.124 S 
ATOM    104  O   UNL A   1      47.311  34.319  25.493  1.00  0.00    -0.237 OA
ATOM    105  O   UNL A   1      44.960  34.187  24.738  1.00  0.00    -0.237 OA
ATOM    106  O   UNL A   1      45.553  35.577  26.682  1.00  0.00    -0.744 OA
ENDBRANCH 102 103
ENDBRANCH  70  95
ENDBRANCH  44  45
ENDBRANCH  36  39
ENDBRANCH  34  35
ENDBRANCH  33  34
ENDBRANCH  32  33
ENDBRANCH   1  32
TORSDOF 20
ENDMDL
