MODEL 1
REMARK VINA RESULT:     -11.8      0.000      0.000
REMARK SMILES CC(=O)c1nnn(-c2ccc(C(=O)NCCCCCCNC(=O)c3ccc(-c4c5nc(c(-c6c(F)cc(S(=O)(=O)[O-])cc6F)c6ccc([nH]6)c(-c6c(F)cc(S(=O)(=O)[O-])cc6F)c6nc(c(-c7c(F)cc(S(=O)(=O)[O-])cc7F)c7ccc4[nH]7)C=C6)C=C5)cc3)cc2)c1C
REMARK SMILES IDX 18 1 17 2 16 3 15 4 14 5 12 6 13 7 11 9 8 10 9 11 91 12
REMARK SMILES IDX 10 13 90 14 7 15 4 16 5 17 92 18 6 19 93 20 2 21 1 22 3 23
REMARK SMILES IDX 19 24 20 25 21 26 22 27 23 29 24 30 25 31 89 32 26 33 88 34
REMARK SMILES IDX 27 35 28 36 29 37 82 38 30 39 87 40 81 41 83 42 31 43 86 44
REMARK SMILES IDX 80 45 79 46 32 48 66 49 45 50 65 51 46 52 49 53 64 54 84 55
REMARK SMILES IDX 47 56 48 57 63 59 85 60 50 61 33 62 34 63 43 64 35 65 36 66
REMARK SMILES IDX 42 67 44 68 37 69 38 70 39 71 40 72 41 73 67 74 68 75 77 76
REMARK SMILES IDX 69 77 70 78 76 79 78 80 71 81 72 82 73 83 74 84 75 85 51 86
REMARK SMILES IDX 52 87 61 88 53 89 54 90 60 91 62 92 55 93 56 94 57 95 58 96
REMARK SMILES IDX 59 97
REMARK H PARENT 14 8 21 28 83 47 49 58
REMARK Flexibility Score: inf
ROOT
ATOM      1  C   UNL A   1      40.674  21.372  27.188  1.00  0.00     0.002 C 
ENDROOT
BRANCH   1   2
ATOM      2  C   UNL A   1      39.559  22.178  26.501  1.00  0.00     0.002 C 
BRANCH   2   3
ATOM      3  C   UNL A   1      38.635  21.361  25.585  1.00  0.00     0.021 C 
BRANCH   3   4
ATOM      4  C   UNL A   1      37.278  22.029  25.353  1.00  0.00     0.116 C 
BRANCH   4   5
ATOM      5  N   UNL A   1      36.242  21.022  25.206  1.00  0.00    -0.352 N 
ATOM      6  C   UNL A   1      34.913  21.085  24.871  1.00  0.00     0.251 C 
ATOM      7  O   UNL A   1      34.293  20.021  24.822  1.00  0.00    -0.269 OA
ATOM      8  H   UNL A   1      36.558  20.107  25.383  1.00  0.00     0.163 HD
BRANCH   6   9
ATOM      9  C   UNL A   1      34.224  22.346  24.474  1.00  0.00     0.039 A 
ATOM     10  C   UNL A   1      32.601  24.559  23.941  1.00  0.00     0.067 A 
ATOM     11  C   UNL A   1      33.034  24.336  25.247  1.00  0.00     0.029 A 
ATOM     12  C   UNL A   1      33.082  23.776  22.888  1.00  0.00     0.029 A 
ATOM     13  C   UNL A   1      33.816  23.207  25.510  1.00  0.00     0.016 A 
ATOM     14  C   UNL A   1      33.941  22.710  23.156  1.00  0.00     0.016 A 
BRANCH  10  15
ATOM     15  N   UNL A   1      31.628  25.540  23.683  1.00  0.00    -0.217 N 
ATOM     16  C   UNL A   1      30.560  27.391  23.279  1.00  0.00     0.151 A 
ATOM     17  N   UNL A   1      29.652  26.392  23.516  1.00  0.00    -0.126 NA
ATOM     18  C   UNL A   1      31.838  26.858  23.309  1.00  0.00     0.073 A 
ATOM     19  N   UNL A   1      30.313  25.249  23.638  1.00  0.00    -0.061 NA
ATOM     20  C   UNL A   1      33.170  27.409  22.956  1.00  0.00     0.069 C 
BRANCH  16  21
ATOM     21  C   UNL A   1      30.138  28.745  22.955  1.00  0.00     0.181 C 
ATOM     22  C   UNL A   1      30.360  29.811  23.999  1.00  0.00     0.095 C 
ATOM     23  O   UNL A   1      29.654  29.033  21.862  1.00  0.00    -0.293 OA
ENDBRANCH  16  21
ENDBRANCH  10  15
ENDBRANCH   6   9
ENDBRANCH   4   5
ENDBRANCH   3   4
ENDBRANCH   2   3
ENDBRANCH   1   2
BRANCH   1  24
ATOM     24  C   UNL A   1      41.114  20.095  26.456  1.00  0.00     0.021 C 
BRANCH  24  25
ATOM     25  C   UNL A   1      42.429  19.528  26.977  1.00  0.00     0.116 C 
BRANCH  25  26
ATOM     26  N   UNL A   1      43.416  19.420  25.910  1.00  0.00    -0.352 N 
ATOM     27  C   UNL A   1      43.964  20.422  25.150  1.00  0.00     0.251 C 
ATOM     28  H   UNL A   1      43.731  18.510  25.708  1.00  0.00     0.163 HD
ATOM     29  O   UNL A   1      44.470  20.149  24.058  1.00  0.00    -0.269 OA
BRANCH  27  30
ATOM     30  C   UNL A   1      43.946  21.815  25.631  1.00  0.00     0.039 A 
ATOM     31  C   UNL A   1      43.117  22.754  25.009  1.00  0.00     0.014 A 
ATOM     32  C   UNL A   1      44.786  22.198  26.681  1.00  0.00     0.014 A 
ATOM     33  C   UNL A   1      43.087  24.057  25.494  1.00  0.00     0.010 A 
ATOM     34  C   UNL A   1      44.701  23.471  27.210  1.00  0.00     0.010 A 
ATOM     35  C   UNL A   1      43.865  24.409  26.611  1.00  0.00    -0.014 A 
BRANCH  35  36
ATOM     36  C   UNL A   1      43.618  25.687  27.283  1.00  0.00     0.031 A 
ATOM     37  C   UNL A   1      44.665  26.705  26.972  1.00  0.00     0.074 A 
ATOM     38  C   UNL A   1      42.476  26.008  27.931  1.00  0.00     0.049 A 
ATOM     39  N   UNL A   1      45.556  27.191  27.770  1.00  0.00    -0.248 NA
ATOM     40  C   UNL A   1      44.874  27.079  25.561  1.00  0.00     0.031 C 
ATOM     41  C   UNL A   1      41.252  25.205  28.025  1.00  0.00     0.029 A 
ATOM     42  N   UNL A   1      42.118  27.166  28.561  1.00  0.00    -0.354 N 
ATOM     43  C   UNL A   1      46.260  28.134  27.022  1.00  0.00     0.074 A 
ATOM     44  C   UNL A   1      45.960  27.851  25.646  1.00  0.00     0.031 C 
ATOM     45  C   UNL A   1      40.233  25.980  28.461  1.00  0.00     0.029 A 
ATOM     46  C   UNL A   1      40.751  27.288  28.821  1.00  0.00     0.049 A 
ATOM     47  H   UNL A   1      42.771  27.859  28.810  1.00  0.00     0.167 HD
ATOM     48  C   UNL A   1      46.788  29.240  27.619  1.00  0.00     0.037 A 
ATOM     49  C   UNL A   1      40.090  28.387  29.275  1.00  0.00     0.037 A 
ATOM     50  C   UNL A   1      46.843  29.053  29.050  1.00  0.00     0.049 A 
ATOM     51  C   UNL A   1      41.104  29.271  29.899  1.00  0.00     0.074 A 
ATOM     52  C   UNL A   1      47.463  28.167  29.907  1.00  0.00     0.029 A 
ATOM     53  N   UNL A   1      45.842  29.655  29.769  1.00  0.00    -0.354 N 
ATOM     54  N   UNL A   1      41.754  28.978  30.991  1.00  0.00    -0.248 NA
ATOM     55  C   UNL A   1      41.699  30.313  29.079  1.00  0.00     0.031 C 
ATOM     56  C   UNL A   1      46.542  27.979  30.980  1.00  0.00     0.029 A 
ATOM     57  C   UNL A   1      45.445  28.818  30.772  1.00  0.00     0.049 A 
ATOM     58  H   UNL A   1      45.470  30.549  29.591  1.00  0.00     0.167 HD
ATOM     59  C   UNL A   1      43.035  29.452  30.770  1.00  0.00     0.074 A 
ATOM     60  C   UNL A   1      42.908  30.372  29.644  1.00  0.00     0.031 C 
ATOM     61  C   UNL A   1      44.111  28.824  31.331  1.00  0.00     0.037 A 
BRANCH  48  62
ATOM     62  C   UNL A   1      46.809  30.633  27.006  1.00  0.00     0.058 A 
ATOM     63  C   UNL A   1      48.015  31.371  27.043  1.00  0.00     0.135 A 
ATOM     64  C   UNL A   1      45.662  31.386  26.670  1.00  0.00     0.135 A 
ATOM     65  F   UNL A   1      49.179  30.768  27.339  1.00  0.00    -0.206 F 
ATOM     66  C   UNL A   1      48.060  32.755  26.872  1.00  0.00     0.059 A 
ATOM     67  C   UNL A   1      45.692  32.759  26.446  1.00  0.00     0.059 A 
ATOM     68  F   UNL A   1      44.435  30.858  26.621  1.00  0.00    -0.206 F 
ATOM     69  C   UNL A   1      46.886  33.442  26.589  1.00  0.00     0.060 A 
BRANCH  69  70
ATOM     70  S   UNL A   1      46.923  35.235  26.434  1.00  0.00     0.124 S 
ATOM     71  O   UNL A   1      47.367  35.632  27.765  1.00  0.00    -0.237 OA
ATOM     72  O   UNL A   1      47.884  35.422  25.353  1.00  0.00    -0.237 OA
ATOM     73  O   UNL A   1      45.541  35.569  26.102  1.00  0.00    -0.744 OA
ENDBRANCH  69  70
ENDBRANCH  48  62
BRANCH  49  74
ATOM     74  C   UNL A   1      38.709  28.875  28.983  1.00  0.00     0.058 A 
ATOM     75  C   UNL A   1      37.757  29.032  30.013  1.00  0.00     0.135 A 
ATOM     76  C   UNL A   1      38.393  29.487  27.757  1.00  0.00     0.135 A 
ATOM     77  F   UNL A   1      37.975  28.494  31.222  1.00  0.00    -0.206 F 
ATOM     78  C   UNL A   1      36.601  29.807  29.856  1.00  0.00     0.059 A 
ATOM     79  C   UNL A   1      37.242  30.256  27.574  1.00  0.00     0.059 A 
ATOM     80  F   UNL A   1      39.245  29.439  26.721  1.00  0.00    -0.206 F 
ATOM     81  C   UNL A   1      36.365  30.440  28.637  1.00  0.00     0.060 A 
BRANCH  81  82
ATOM     82  S   UNL A   1      34.983  31.601  28.487  1.00  0.00     0.124 S 
ATOM     83  O   UNL A   1      33.933  30.755  27.934  1.00  0.00    -0.237 OA
ATOM     84  O   UNL A   1      34.792  32.035  29.867  1.00  0.00    -0.237 OA
ATOM     85  O   UNL A   1      35.501  32.625  27.583  1.00  0.00    -0.744 OA
ENDBRANCH  81  82
ENDBRANCH  49  74
BRANCH  61  86
ATOM     86  C   UNL A   1      43.875  27.936  32.523  1.00  0.00     0.058 A 
ATOM     87  C   UNL A   1      43.768  26.535  32.497  1.00  0.00     0.135 A 
ATOM     88  C   UNL A   1      43.891  28.555  33.784  1.00  0.00     0.135 A 
ATOM     89  F   UNL A   1      43.838  25.856  31.342  1.00  0.00    -0.206 F 
ATOM     90  C   UNL A   1      43.645  25.789  33.672  1.00  0.00     0.059 A 
ATOM     91  C   UNL A   1      43.808  27.831  34.966  1.00  0.00     0.059 A 
ATOM     92  F   UNL A   1      44.041  29.888  33.877  1.00  0.00    -0.206 F 
ATOM     93  C   UNL A   1      43.670  26.448  34.904  1.00  0.00     0.060 A 
BRANCH  93  94
ATOM     94  S   UNL A   1      43.581  25.487  36.429  1.00  0.00     0.124 S 
ATOM     95  O   UNL A   1      42.426  24.631  36.185  1.00  0.00    -0.237 OA
ATOM     96  O   UNL A   1      44.877  24.814  36.456  1.00  0.00    -0.237 OA
ATOM     97  O   UNL A   1      43.396  26.503  37.463  1.00  0.00    -0.744 OA
ENDBRANCH  93  94
ENDBRANCH  61  86
ENDBRANCH  35  36
ENDBRANCH  27  30
ENDBRANCH  25  26
ENDBRANCH  24  25
ENDBRANCH   1  24
TORSDOF 18
ENDMDL
MODEL 2
REMARK VINA RESULT:     -11.7      2.640      8.879
REMARK SMILES CC(=O)c1nnn(-c2ccc(C(=O)NCCCCCCNC(=O)c3ccc(-c4c5nc(c(-c6c(F)cc(S(=O)(=O)[O-])cc6F)c6ccc([nH]6)c(-c6c(F)cc(S(=O)(=O)[O-])cc6F)c6nc(c(-c7c(F)cc(S(=O)(=O)[O-])cc7F)c7ccc4[nH]7)C=C6)C=C5)cc3)cc2)c1C
REMARK SMILES IDX 18 1 17 2 16 3 15 4 14 5 12 6 13 7 11 9 8 10 9 11 91 12
REMARK SMILES IDX 10 13 90 14 7 15 4 16 5 17 92 18 6 19 93 20 2 21 1 22 3 23
REMARK SMILES IDX 19 24 20 25 21 26 22 27 23 29 24 30 25 31 89 32 26 33 88 34
REMARK SMILES IDX 27 35 28 36 29 37 82 38 30 39 87 40 81 41 83 42 31 43 86 44
REMARK SMILES IDX 80 45 79 46 32 48 66 49 45 50 65 51 46 52 49 53 64 54 84 55
REMARK SMILES IDX 47 56 48 57 63 59 85 60 50 61 33 62 34 63 43 64 35 65 36 66
REMARK SMILES IDX 42 67 44 68 37 69 38 70 39 71 40 72 41 73 67 74 68 75 77 76
REMARK SMILES IDX 69 77 70 78 76 79 78 80 71 81 72 82 73 83 74 84 75 85 51 86
REMARK SMILES IDX 52 87 61 88 53 89 54 90 60 91 62 92 55 93 56 94 57 95 58 96
REMARK SMILES IDX 59 97
REMARK H PARENT 14 8 21 28 83 47 49 58
REMARK Flexibility Score: inf
ROOT
ATOM      1  C   UNL A   1      33.470  27.231  26.116  1.00  0.00     0.002 C 
ENDROOT
BRANCH   1   2
ATOM      2  C   UNL A   1      33.906  26.370  24.919  1.00  0.00     0.002 C 
BRANCH   2   3
ATOM      3  C   UNL A   1      34.715  25.115  25.281  1.00  0.00     0.021 C 
BRANCH   3   4
ATOM      4  C   UNL A   1      34.465  23.945  24.327  1.00  0.00     0.116 C 
BRANCH   4   5
ATOM      5  N   UNL A   1      33.693  22.911  24.993  1.00  0.00    -0.352 N 
ATOM      6  C   UNL A   1      32.373  22.809  25.350  1.00  0.00     0.251 C 
ATOM      7  O   UNL A   1      32.017  21.769  25.908  1.00  0.00    -0.269 OA
ATOM      8  H   UNL A   1      34.227  22.121  25.238  1.00  0.00     0.163 HD
BRANCH   6   9
ATOM      9  C   UNL A   1      31.347  23.836  25.008  1.00  0.00     0.039 A 
ATOM     10  C   UNL A   1      29.726  25.938  24.132  1.00  0.00     0.067 A 
ATOM     11  C   UNL A   1      30.129  24.968  23.217  1.00  0.00     0.029 A 
ATOM     12  C   UNL A   1      30.005  25.793  25.494  1.00  0.00     0.029 A 
ATOM     13  C   UNL A   1      30.969  23.940  23.656  1.00  0.00     0.016 A 
ATOM     14  C   UNL A   1      30.764  24.707  25.931  1.00  0.00     0.016 A 
BRANCH  10  15
ATOM     15  N   UNL A   1      29.085  27.104  23.680  1.00  0.00    -0.217 N 
ATOM     16  C   UNL A   1      28.607  29.102  22.963  1.00  0.00     0.151 A 
ATOM     17  N   UNL A   1      27.443  28.444  23.268  1.00  0.00    -0.126 NA
ATOM     18  C   UNL A   1      29.676  28.241  23.151  1.00  0.00     0.073 A 
ATOM     19  N   UNL A   1      27.744  27.192  23.585  1.00  0.00    -0.061 NA
ATOM     20  C   UNL A   1      31.119  28.338  22.819  1.00  0.00     0.069 C 
BRANCH  16  21
ATOM     21  C   UNL A   1      28.601  30.456  22.434  1.00  0.00     0.181 C 
ATOM     22  C   UNL A   1      27.931  31.524  23.264  1.00  0.00     0.095 C 
ATOM     23  O   UNL A   1      29.152  30.745  21.374  1.00  0.00    -0.293 OA
ENDBRANCH  16  21
ENDBRANCH  10  15
ENDBRANCH   6   9
ENDBRANCH   4   5
ENDBRANCH   3   4
ENDBRANCH   2   3
ENDBRANCH   1   2
BRANCH   1  24
ATOM     24  C   UNL A   1      33.699  28.743  25.960  1.00  0.00     0.021 C 
BRANCH  24  25
ATOM     25  C   UNL A   1      33.760  29.481  27.292  1.00  0.00     0.116 C 
BRANCH  25  26
ATOM     26  N   UNL A   1      34.038  30.898  27.098  1.00  0.00    -0.352 N 
ATOM     27  C   UNL A   1      35.066  31.644  27.615  1.00  0.00     0.251 C 
ATOM     28  H   UNL A   1      33.407  31.383  26.519  1.00  0.00     0.163 HD
ATOM     29  O   UNL A   1      34.953  32.871  27.683  1.00  0.00    -0.269 OA
BRANCH  27  30
ATOM     30  C   UNL A   1      36.297  30.987  28.089  1.00  0.00     0.039 A 
ATOM     31  C   UNL A   1      36.514  29.634  27.807  1.00  0.00     0.014 A 
ATOM     32  C   UNL A   1      37.221  31.707  28.850  1.00  0.00     0.014 A 
ATOM     33  C   UNL A   1      37.694  29.033  28.233  1.00  0.00     0.010 A 
ATOM     34  C   UNL A   1      38.426  31.133  29.209  1.00  0.00     0.010 A 
ATOM     35  C   UNL A   1      38.661  29.792  28.916  1.00  0.00    -0.014 A 
BRANCH  35  36
ATOM     36  C   UNL A   1      40.003  29.238  29.109  1.00  0.00     0.031 A 
ATOM     37  C   UNL A   1      40.337  29.045  30.551  1.00  0.00     0.074 A 
ATOM     38  C   UNL A   1      40.780  28.742  28.120  1.00  0.00     0.049 A 
ATOM     39  N   UNL A   1      41.203  29.695  31.256  1.00  0.00    -0.248 NA
ATOM     40  C   UNL A   1      39.469  28.166  31.356  1.00  0.00     0.031 C 
ATOM     41  C   UNL A   1      40.425  28.582  26.707  1.00  0.00     0.029 A 
ATOM     42  N   UNL A   1      42.021  28.173  28.179  1.00  0.00    -0.354 N 
ATOM     43  C   UNL A   1      41.174  29.114  32.522  1.00  0.00     0.074 A 
ATOM     44  C   UNL A   1      39.951  28.362  32.584  1.00  0.00     0.031 C 
ATOM     45  C   UNL A   1      41.317  27.763  26.104  1.00  0.00     0.029 A 
ATOM     46  C   UNL A   1      42.387  27.458  27.036  1.00  0.00     0.049 A 
ATOM     47  H   UNL A   1      42.609  28.260  28.964  1.00  0.00     0.167 HD
ATOM     48  C   UNL A   1      42.300  29.067  33.290  1.00  0.00     0.037 A 
ATOM     49  C   UNL A   1      43.475  26.657  26.876  1.00  0.00     0.037 A 
ATOM     50  C   UNL A   1      43.284  29.995  32.785  1.00  0.00     0.049 A 
ATOM     51  C   UNL A   1      44.449  27.038  27.926  1.00  0.00     0.074 A 
ATOM     52  C   UNL A   1      43.347  31.359  32.591  1.00  0.00     0.029 A 
ATOM     53  N   UNL A   1      44.285  29.447  32.023  1.00  0.00    -0.354 N 
ATOM     54  N   UNL A   1      45.066  28.186  27.965  1.00  0.00    -0.248 NA
ATOM     55  C   UNL A   1      44.435  26.295  29.175  1.00  0.00     0.031 C 
ATOM     56  C   UNL A   1      44.117  31.534  31.404  1.00  0.00     0.029 A 
ATOM     57  C   UNL A   1      44.557  30.279  30.976  1.00  0.00     0.049 A 
ATOM     58  H   UNL A   1      44.735  28.590  32.204  1.00  0.00     0.167 HD
ATOM     59  C   UNL A   1      45.112  28.510  29.310  1.00  0.00     0.074 A 
ATOM     60  C   UNL A   1      44.830  27.260  30.009  1.00  0.00     0.031 C 
ATOM     61  C   UNL A   1      45.079  29.816  29.708  1.00  0.00     0.037 A 
BRANCH  48  62
ATOM     62  C   UNL A   1      42.704  27.893  34.170  1.00  0.00     0.058 A 
ATOM     63  C   UNL A   1      42.791  28.094  35.568  1.00  0.00     0.135 A 
ATOM     64  C   UNL A   1      43.294  26.697  33.704  1.00  0.00     0.135 A 
ATOM     65  F   UNL A   1      42.258  29.186  36.138  1.00  0.00    -0.206 F 
ATOM     66  C   UNL A   1      43.500  27.237  36.411  1.00  0.00     0.059 A 
ATOM     67  C   UNL A   1      43.963  25.805  34.535  1.00  0.00     0.059 A 
ATOM     68  F   UNL A   1      43.333  26.364  32.410  1.00  0.00    -0.206 F 
ATOM     69  C   UNL A   1      44.097  26.101  35.879  1.00  0.00     0.060 A 
BRANCH  69  70
ATOM     70  S   UNL A   1      45.072  25.028  36.947  1.00  0.00     0.124 S 
ATOM     71  O   UNL A   1      46.425  25.493  36.668  1.00  0.00    -0.237 OA
ATOM     72  O   UNL A   1      44.539  25.355  38.265  1.00  0.00    -0.237 OA
ATOM     73  O   UNL A   1      44.748  23.692  36.460  1.00  0.00    -0.744 OA
ENDBRANCH  69  70
ENDBRANCH  48  62
BRANCH  49  74
ATOM     74  C   UNL A   1      43.646  25.408  26.075  1.00  0.00     0.058 A 
ATOM     75  C   UNL A   1      44.795  25.201  25.282  1.00  0.00     0.135 A 
ATOM     76  C   UNL A   1      42.850  24.272  26.309  1.00  0.00     0.135 A 
ATOM     77  F   UNL A   1      45.623  26.221  25.012  1.00  0.00    -0.206 F 
ATOM     78  C   UNL A   1      45.167  23.934  24.814  1.00  0.00     0.059 A 
ATOM     79  C   UNL A   1      43.196  23.001  25.845  1.00  0.00     0.059 A 
ATOM     80  F   UNL A   1      41.757  24.343  27.084  1.00  0.00    -0.206 F 
ATOM     81  C   UNL A   1      44.372  22.832  25.124  1.00  0.00     0.060 A 
BRANCH  81  82
ATOM     82  S   UNL A   1      44.946  21.169  24.697  1.00  0.00     0.124 S 
ATOM     83  O   UNL A   1      44.194  20.338  25.629  1.00  0.00    -0.237 OA
ATOM     84  O   UNL A   1      44.563  21.060  23.293  1.00  0.00    -0.237 OA
ATOM     85  O   UNL A   1      46.386  21.236  24.942  1.00  0.00    -0.744 OA
ENDBRANCH  81  82
ENDBRANCH  49  74
BRANCH  61  86
ATOM     86  C   UNL A   1      45.456  30.875  28.707  1.00  0.00     0.058 A 
ATOM     87  C   UNL A   1      44.602  31.433  27.740  1.00  0.00     0.135 A 
ATOM     88  C   UNL A   1      46.735  31.441  28.838  1.00  0.00     0.135 A 
ATOM     89  F   UNL A   1      43.334  31.015  27.610  1.00  0.00    -0.206 F 
ATOM     90  C   UNL A   1      45.019  32.483  26.917  1.00  0.00     0.059 A 
ATOM     91  C   UNL A   1      47.156  32.509  28.057  1.00  0.00     0.059 A 
ATOM     92  F   UNL A   1      47.579  30.985  29.779  1.00  0.00    -0.206 F 
ATOM     93  C   UNL A   1      46.299  33.017  27.086  1.00  0.00     0.060 A 
BRANCH  93  94
ATOM     94  S   UNL A   1      46.819  34.417  26.074  1.00  0.00     0.124 S 
ATOM     95  O   UNL A   1      48.154  34.010  25.649  1.00  0.00    -0.237 OA
ATOM     96  O   UNL A   1      45.801  34.450  25.028  1.00  0.00    -0.237 OA
ATOM     97  O   UNL A   1      46.779  35.544  27.004  1.00  0.00    -0.744 OA
ENDBRANCH  93  94
ENDBRANCH  61  86
ENDBRANCH  35  36
ENDBRANCH  27  30
ENDBRANCH  25  26
ENDBRANCH  24  25
ENDBRANCH   1  24
TORSDOF 18
ENDMDL
MODEL 3
REMARK VINA RESULT:     -11.5      2.744      8.916
REMARK SMILES CC(=O)c1nnn(-c2ccc(C(=O)NCCCCCCNC(=O)c3ccc(-c4c5nc(c(-c6c(F)cc(S(=O)(=O)[O-])cc6F)c6ccc([nH]6)c(-c6c(F)cc(S(=O)(=O)[O-])cc6F)c6nc(c(-c7c(F)cc(S(=O)(=O)[O-])cc7F)c7ccc4[nH]7)C=C6)C=C5)cc3)cc2)c1C
REMARK SMILES IDX 18 1 17 2 16 3 15 4 14 5 12 6 13 7 11 9 8 10 9 11 91 12
REMARK SMILES IDX 10 13 90 14 7 15 4 16 5 17 92 18 6 19 93 20 2 21 1 22 3 23
REMARK SMILES IDX 19 24 20 25 21 26 22 27 23 29 24 30 25 31 89 32 26 33 88 34
REMARK SMILES IDX 27 35 28 36 29 37 82 38 30 39 87 40 81 41 83 42 31 43 86 44
REMARK SMILES IDX 80 45 79 46 32 48 66 49 45 50 65 51 46 52 49 53 64 54 84 55
REMARK SMILES IDX 47 56 48 57 63 59 85 60 50 61 33 62 34 63 43 64 35 65 36 66
REMARK SMILES IDX 42 67 44 68 37 69 38 70 39 71 40 72 41 73 67 74 68 75 77 76
REMARK SMILES IDX 69 77 70 78 76 79 78 80 71 81 72 82 73 83 74 84 75 85 51 86
REMARK SMILES IDX 52 87 61 88 53 89 54 90 60 91 62 92 55 93 56 94 57 95 58 96
REMARK SMILES IDX 59 97
REMARK H PARENT 14 8 21 28 83 47 49 58
REMARK Flexibility Score: inf
ROOT
ATOM      1  C   UNL A   1      33.858  26.410  24.700  1.00  0.00     0.002 C 
ENDROOT
BRANCH   1   2
ATOM      2  C   UNL A   1      34.076  25.456  25.885  1.00  0.00     0.002 C 
BRANCH   2   3
ATOM      3  C   UNL A   1      34.776  24.134  25.535  1.00  0.00     0.021 C 
BRANCH   3   4
ATOM      4  C   UNL A   1      34.085  23.371  24.403  1.00  0.00     0.116 C 
BRANCH   4   5
ATOM      5  N   UNL A   1      33.022  22.537  24.935  1.00  0.00    -0.352 N 
ATOM      6  C   UNL A   1      31.691  22.757  25.181  1.00  0.00     0.251 C 
ATOM      7  O   UNL A   1      31.038  21.817  25.637  1.00  0.00    -0.269 OA
ATOM      8  H   UNL A   1      33.317  21.627  25.166  1.00  0.00     0.163 HD
BRANCH   6   9
ATOM      9  C   UNL A   1      30.989  24.026  24.833  1.00  0.00     0.039 A 
ATOM     10  C   UNL A   1      30.042  26.523  24.008  1.00  0.00     0.067 A 
ATOM     11  C   UNL A   1      30.350  25.565  23.044  1.00  0.00     0.029 A 
ATOM     12  C   UNL A   1      30.067  26.201  25.367  1.00  0.00     0.029 A 
ATOM     13  C   UNL A   1      30.858  24.331  23.465  1.00  0.00     0.016 A 
ATOM     14  C   UNL A   1      30.484  24.932  25.768  1.00  0.00     0.016 A 
BRANCH  10  15
ATOM     15  N   UNL A   1      29.758  27.843  23.617  1.00  0.00    -0.217 N 
ATOM     16  C   UNL A   1      28.820  29.676  22.914  1.00  0.00     0.151 A 
ATOM     17  N   UNL A   1      30.165  29.892  23.072  1.00  0.00    -0.126 NA
ATOM     18  C   UNL A   1      28.517  28.388  23.324  1.00  0.00     0.073 A 
ATOM     19  N   UNL A   1      30.699  28.807  23.616  1.00  0.00    -0.061 NA
ATOM     20  C   UNL A   1      27.235  27.674  23.542  1.00  0.00     0.069 C 
BRANCH  16  21
ATOM     21  C   UNL A   1      27.924  30.733  22.473  1.00  0.00     0.181 C 
ATOM     22  C   UNL A   1      27.938  31.091  21.008  1.00  0.00     0.095 C 
ATOM     23  O   UNL A   1      27.150  31.296  23.246  1.00  0.00    -0.293 OA
ENDBRANCH  16  21
ENDBRANCH  10  15
ENDBRANCH   6   9
ENDBRANCH   4   5
ENDBRANCH   3   4
ENDBRANCH   2   3
ENDBRANCH   1   2
BRANCH   1  24
ATOM     24  C   UNL A   1      33.644  27.886  25.070  1.00  0.00     0.021 C 
BRANCH  24  25
ATOM     25  C   UNL A   1      33.851  28.169  26.554  1.00  0.00     0.116 C 
BRANCH  25  26
ATOM     26  N   UNL A   1      33.575  29.565  26.868  1.00  0.00    -0.352 N 
ATOM     27  C   UNL A   1      34.344  30.446  27.584  1.00  0.00     0.251 C 
ATOM     28  H   UNL A   1      32.727  29.923  26.520  1.00  0.00     0.163 HD
ATOM     29  O   UNL A   1      33.818  31.442  28.088  1.00  0.00    -0.269 OA
BRANCH  27  30
ATOM     30  C   UNL A   1      35.788  30.206  27.754  1.00  0.00     0.039 A 
ATOM     31  C   UNL A   1      36.615  31.238  28.209  1.00  0.00     0.014 A 
ATOM     32  C   UNL A   1      36.329  28.960  27.423  1.00  0.00     0.014 A 
ATOM     33  C   UNL A   1      37.971  30.988  28.394  1.00  0.00     0.010 A 
ATOM     34  C   UNL A   1      37.659  28.689  27.679  1.00  0.00     0.010 A 
ATOM     35  C   UNL A   1      38.488  29.704  28.149  1.00  0.00    -0.014 A 
BRANCH  35  36
ATOM     36  C   UNL A   1      39.839  29.374  28.611  1.00  0.00     0.031 A 
ATOM     37  C   UNL A   1      39.974  29.477  30.094  1.00  0.00     0.074 A 
ATOM     38  C   UNL A   1      40.802  28.824  27.840  1.00  0.00     0.049 A 
ATOM     39  N   UNL A   1      40.650  30.348  30.767  1.00  0.00    -0.248 NA
ATOM     40  C   UNL A   1      39.096  28.641  30.933  1.00  0.00     0.031 C 
ATOM     41  C   UNL A   1      40.681  28.379  26.448  1.00  0.00     0.029 A 
ATOM     42  N   UNL A   1      42.075  28.444  28.160  1.00  0.00    -0.354 N 
ATOM     43  C   UNL A   1      40.497  29.993  32.107  1.00  0.00     0.074 A 
ATOM     44  C   UNL A   1      39.366  29.107  32.154  1.00  0.00     0.031 C 
ATOM     45  C   UNL A   1      41.735  27.595  26.127  1.00  0.00     0.029 A 
ATOM     46  C   UNL A   1      42.682  27.599  27.228  1.00  0.00     0.049 A 
ATOM     47  H   UNL A   1      42.527  28.742  28.983  1.00  0.00     0.167 HD
ATOM     48  C   UNL A   1      41.494  30.228  33.006  1.00  0.00     0.037 A 
ATOM     49  C   UNL A   1      43.862  26.934  27.360  1.00  0.00     0.037 A 
ATOM     50  C   UNL A   1      42.437  31.179  32.464  1.00  0.00     0.049 A 
ATOM     51  C   UNL A   1      44.622  27.616  28.434  1.00  0.00     0.074 A 
ATOM     52  C   UNL A   1      42.380  32.486  32.027  1.00  0.00     0.029 A 
ATOM     53  N   UNL A   1      43.593  30.647  31.952  1.00  0.00    -0.354 N 
ATOM     54  N   UNL A   1      45.099  28.825  28.335  1.00  0.00    -0.248 NA
ATOM     55  C   UNL A   1      44.503  27.102  29.789  1.00  0.00     0.031 C 
ATOM     56  C   UNL A   1      43.295  32.556  30.935  1.00  0.00     0.029 A 
ATOM     57  C   UNL A   1      43.926  31.316  30.809  1.00  0.00     0.049 A 
ATOM     58  H   UNL A   1      44.101  29.901  32.345  1.00  0.00     0.167 HD
ATOM     59  C   UNL A   1      44.910  29.378  29.590  1.00  0.00     0.074 A 
ATOM     60  C   UNL A   1      44.664  28.239  30.470  1.00  0.00     0.031 C 
ATOM     61  C   UNL A   1      44.677  30.717  29.727  1.00  0.00     0.037 A 
BRANCH  48  62
ATOM     62  C   UNL A   1      41.887  29.287  34.135  1.00  0.00     0.058 A 
ATOM     63  C   UNL A   1      42.233  27.953  33.814  1.00  0.00     0.135 A 
ATOM     64  C   UNL A   1      41.650  29.525  35.507  1.00  0.00     0.135 A 
ATOM     65  F   UNL A   1      42.495  27.599  32.545  1.00  0.00    -0.206 F 
ATOM     66  C   UNL A   1      42.235  26.925  34.758  1.00  0.00     0.059 A 
ATOM     67  C   UNL A   1      41.695  28.524  36.472  1.00  0.00     0.059 A 
ATOM     68  F   UNL A   1      41.281  30.718  35.983  1.00  0.00    -0.206 F 
ATOM     69  C   UNL A   1      41.947  27.221  36.084  1.00  0.00     0.060 A 
BRANCH  69  70
ATOM     70  S   UNL A   1      41.878  25.890  37.295  1.00  0.00     0.124 S 
ATOM     71  O   UNL A   1      42.883  26.322  38.258  1.00  0.00    -0.237 OA
ATOM     72  O   UNL A   1      40.490  25.962  37.739  1.00  0.00    -0.237 OA
ATOM     73  O   UNL A   1      42.219  24.708  36.510  1.00  0.00    -0.744 OA
ENDBRANCH  69  70
ENDBRANCH  48  62
BRANCH  49  74
ATOM     74  C   UNL A   1      44.284  25.601  26.837  1.00  0.00     0.058 A 
ATOM     75  C   UNL A   1      43.675  24.412  27.291  1.00  0.00     0.135 A 
ATOM     76  C   UNL A   1      45.061  25.484  25.670  1.00  0.00     0.135 A 
ATOM     77  F   UNL A   1      42.906  24.423  28.390  1.00  0.00    -0.206 F 
ATOM     78  C   UNL A   1      43.773  23.202  26.591  1.00  0.00     0.059 A 
ATOM     79  C   UNL A   1      45.181  24.287  24.960  1.00  0.00     0.059 A 
ATOM     80  F   UNL A   1      45.651  26.559  25.124  1.00  0.00    -0.206 F 
ATOM     81  C   UNL A   1      44.508  23.156  25.408  1.00  0.00     0.060 A 
BRANCH  81  82
ATOM     82  S   UNL A   1      44.476  21.656  24.395  1.00  0.00     0.124 S 
ATOM     83  O   UNL A   1      44.214  22.192  23.065  1.00  0.00    -0.237 OA
ATOM     84  O   UNL A   1      45.811  21.108  24.611  1.00  0.00    -0.237 OA
ATOM     85  O   UNL A   1      43.386  20.878  24.980  1.00  0.00    -0.744 OA
ENDBRANCH  81  82
ENDBRANCH  49  74
BRANCH  61  86
ATOM     86  C   UNL A   1      45.082  31.629  28.601  1.00  0.00     0.058 A 
ATOM     87  C   UNL A   1      44.389  31.797  27.390  1.00  0.00     0.135 A 
ATOM     88  C   UNL A   1      46.176  32.477  28.838  1.00  0.00     0.135 A 
ATOM     89  F   UNL A   1      43.278  31.094  27.123  1.00  0.00    -0.206 F 
ATOM     90  C   UNL A   1      44.792  32.743  26.442  1.00  0.00     0.059 A 
ATOM     91  C   UNL A   1      46.571  33.448  27.928  1.00  0.00     0.059 A 
ATOM     92  F   UNL A   1      46.849  32.400  29.999  1.00  0.00    -0.206 F 
ATOM     93  C   UNL A   1      45.885  33.567  26.723  1.00  0.00     0.060 A 
BRANCH  93  94
ATOM     94  S   UNL A   1      46.370  34.836  25.536  1.00  0.00     0.124 S 
ATOM     95  O   UNL A   1      47.774  34.520  25.305  1.00  0.00    -0.237 OA
ATOM     96  O   UNL A   1      45.468  34.584  24.415  1.00  0.00    -0.237 OA
ATOM     97  O   UNL A   1      46.122  36.086  26.252  1.00  0.00    -0.744 OA
ENDBRANCH  93  94
ENDBRANCH  61  86
ENDBRANCH  35  36
ENDBRANCH  27  30
ENDBRANCH  25  26
ENDBRANCH  24  25
ENDBRANCH   1  24
TORSDOF 18
ENDMDL
