MODEL 1
REMARK VINA RESULT:     -12.6      0.000      0.000
REMARK SMILES O=C(NCCCCCCNC(=O)[C@@H]1CC=CC[C@H]1C(=O)N1CC[NH+](Cc2ccc3c(c2)OCO3)CC1)c1ccc(-c2c3nc(c(-c4c(F)cc(S(=O)(=O)[O-])cc4F)c4ccc([nH]4)c(-c4c(F)cc(S(=O)(=O)[O-])cc4F)c4nc(c(-c5c(F)cc(S(=O)(=O)[O-])cc5F)c5ccc2[nH]5)C=C4)C=C3)cc1
REMARK SMILES IDX 6 1 5 2 4 3 3 4 1 5 2 6 37 8 38 9 102 10 39 11 101 12 40 13
REMARK SMILES IDX 41 14 42 15 95 16 43 17 100 18 94 19 96 20 44 21 99 22 93 23
REMARK SMILES IDX 92 24 45 26 79 27 58 28 78 29 59 30 62 31 77 32 97 33 60 34
REMARK SMILES IDX 61 35 76 37 98 38 63 39 46 40 47 41 56 42 48 43 49 44 55 45
REMARK SMILES IDX 57 46 50 47 51 48 52 49 53 50 54 51 80 52 81 53 90 54 82 55
REMARK SMILES IDX 83 56 89 57 91 58 84 59 85 60 86 61 87 62 88 63 64 64 65 65
REMARK SMILES IDX 74 66 66 67 67 68 73 69 75 70 68 71 69 72 70 73 71 74 72 75
REMARK SMILES IDX 7 76 8 77 9 78 10 79 11 80 12 82 13 83 14 84 18 85 15 86
REMARK SMILES IDX 17 87 16 88 19 89 20 90 21 91 22 92 36 93 23 94 35 95 24 96
REMARK SMILES IDX 25 98 26 99 27 100 31 101 28 102 30 103 29 104 32 105 34 106
REMARK SMILES IDX 33 107
REMARK H PARENT 3 7 96 25 62 36 10 81 24 97
REMARK Flexibility Score: inf
ROOT
ATOM      1  C   UNL A   1      31.998  29.554  26.883  1.00  0.00     0.002 C 
ENDROOT
BRANCH   1   2
ATOM      2  C   UNL A   1      32.179  31.032  26.501  1.00  0.00     0.021 C 
BRANCH   2   3
ATOM      3  C   UNL A   1      32.977  32.072  27.312  1.00  0.00     0.116 C 
BRANCH   3   4
ATOM      4  N   UNL A   1      32.488  33.407  27.525  1.00  0.00    -0.352 N 
ATOM      5  O   UNL A   1      32.582  35.450  28.514  1.00  0.00    -0.269 OA
ATOM      6  C   UNL A   1      33.072  34.335  28.380  1.00  0.00     0.251 C 
ATOM      7  H   UNL A   1      31.683  33.684  27.031  1.00  0.00     0.163 HD
BRANCH   6   8
ATOM      8  C   UNL A   1      34.300  33.974  29.156  1.00  0.00     0.039 A 
ATOM      9  C   UNL A   1      34.205  33.260  30.354  1.00  0.00     0.014 A 
ATOM     10  C   UNL A   1      35.566  34.259  28.638  1.00  0.00     0.014 A 
ATOM     11  C   UNL A   1      35.359  32.897  31.068  1.00  0.00     0.010 A 
ATOM     12  C   UNL A   1      36.724  33.849  29.329  1.00  0.00     0.010 A 
ATOM     13  C   UNL A   1      36.638  33.164  30.555  1.00  0.00    -0.014 A 
BRANCH  13  14
ATOM     14  C   UNL A   1      37.870  32.626  31.217  1.00  0.00     0.031 A 
ATOM     15  C   UNL A   1      38.560  31.381  30.711  1.00  0.00     0.074 A 
ATOM     16  C   UNL A   1      38.334  33.222  32.337  1.00  0.00     0.049 A 
ATOM     17  N   UNL A   1      39.556  30.713  31.241  1.00  0.00    -0.248 NA
ATOM     18  C   UNL A   1      38.066  30.808  29.450  1.00  0.00     0.031 C 
ATOM     19  C   UNL A   1      37.760  34.421  32.950  1.00  0.00     0.029 A 
ATOM     20  N   UNL A   1      39.371  32.889  33.180  1.00  0.00    -0.354 N 
ATOM     21  C   UNL A   1      39.791  29.630  30.400  1.00  0.00     0.074 A 
ATOM     22  C   UNL A   1      38.830  29.729  29.321  1.00  0.00     0.031 C 
ATOM     23  C   UNL A   1      38.435  34.713  34.073  1.00  0.00     0.029 A 
ATOM     24  C   UNL A   1      39.455  33.693  34.296  1.00  0.00     0.049 A 
ATOM     25  H   UNL A   1      39.992  32.146  33.004  1.00  0.00     0.167 HD
ATOM     26  C   UNL A   1      40.716  28.645  30.520  1.00  0.00     0.037 A 
ATOM     27  C   UNL A   1      40.224  33.603  35.402  1.00  0.00     0.037 A 
ATOM     28  C   UNL A   1      41.688  28.562  31.585  1.00  0.00     0.049 A 
ATOM     29  C   UNL A   1      41.214  32.475  35.527  1.00  0.00     0.074 A 
ATOM     30  C   UNL A   1      42.722  27.650  31.733  1.00  0.00     0.029 A 
ATOM     31  N   UNL A   1      41.738  29.397  32.690  1.00  0.00    -0.354 N 
ATOM     32  N   UNL A   1      41.476  31.511  34.677  1.00  0.00    -0.248 NA
ATOM     33  C   UNL A   1      42.006  32.413  36.764  1.00  0.00     0.031 C 
ATOM     34  C   UNL A   1      43.352  27.892  32.957  1.00  0.00     0.029 A 
ATOM     35  C   UNL A   1      42.750  28.990  33.546  1.00  0.00     0.049 A 
ATOM     36  H   UNL A   1      41.142  30.166  32.844  1.00  0.00     0.167 HD
ATOM     37  C   UNL A   1      42.469  30.740  35.271  1.00  0.00     0.074 A 
ATOM     38  C   UNL A   1      42.781  31.360  36.539  1.00  0.00     0.031 C 
ATOM     39  C   UNL A   1      43.060  29.612  34.809  1.00  0.00     0.037 A 
BRANCH  26  40
ATOM     40  C   UNL A   1      40.740  27.542  29.493  1.00  0.00     0.058 A 
ATOM     41  C   UNL A   1      41.787  27.412  28.569  1.00  0.00     0.135 A 
ATOM     42  C   UNL A   1      39.769  26.526  29.526  1.00  0.00     0.135 A 
ATOM     43  F   UNL A   1      42.740  28.353  28.488  1.00  0.00    -0.206 F 
ATOM     44  C   UNL A   1      41.871  26.315  27.714  1.00  0.00     0.059 A 
ATOM     45  C   UNL A   1      39.844  25.409  28.697  1.00  0.00     0.059 A 
ATOM     46  F   UNL A   1      38.748  26.597  30.395  1.00  0.00    -0.206 F 
ATOM     47  C   UNL A   1      40.899  25.315  27.792  1.00  0.00     0.060 A 
BRANCH  47  48
ATOM     48  S   UNL A   1      41.054  23.875  26.710  1.00  0.00     0.124 S 
ATOM     49  O   UNL A   1      39.692  23.749  26.199  1.00  0.00    -0.237 OA
ATOM     50  O   UNL A   1      42.053  24.318  25.744  1.00  0.00    -0.237 OA
ATOM     51  O   UNL A   1      41.485  22.812  27.613  1.00  0.00    -0.744 OA
ENDBRANCH  47  48
ENDBRANCH  26  40
BRANCH  27  52
ATOM     52  C   UNL A   1      40.051  34.577  36.516  1.00  0.00     0.058 A 
ATOM     53  C   UNL A   1      40.833  35.738  36.598  1.00  0.00     0.135 A 
ATOM     54  C   UNL A   1      39.116  34.348  37.539  1.00  0.00     0.135 A 
ATOM     55  F   UNL A   1      41.750  35.997  35.653  1.00  0.00    -0.206 F 
ATOM     56  C   UNL A   1      40.714  36.624  37.664  1.00  0.00     0.059 A 
ATOM     57  C   UNL A   1      38.956  35.235  38.598  1.00  0.00     0.059 A 
ATOM     58  F   UNL A   1      38.335  33.257  37.505  1.00  0.00    -0.206 F 
ATOM     59  C   UNL A   1      39.773  36.361  38.662  1.00  0.00     0.060 A 
BRANCH  59  60
ATOM     60  S   UNL A   1      39.616  37.525  40.034  1.00  0.00     0.124 S 
ATOM     61  O   UNL A   1      38.521  38.372  39.575  1.00  0.00    -0.237 OA
ATOM     62  O   UNL A   1      39.313  36.641  41.155  1.00  0.00    -0.237 OA
ATOM     63  O   UNL A   1      40.929  38.162  40.085  1.00  0.00    -0.744 OA
ENDBRANCH  59  60
ENDBRANCH  27  52
BRANCH  39  64
ATOM     64  C   UNL A   1      44.117  28.973  35.669  1.00  0.00     0.058 A 
ATOM     65  C   UNL A   1      45.460  29.376  35.602  1.00  0.00     0.135 A 
ATOM     66  C   UNL A   1      43.775  27.994  36.615  1.00  0.00     0.135 A 
ATOM     67  F   UNL A   1      45.844  30.300  34.706  1.00  0.00    -0.206 F 
ATOM     68  C   UNL A   1      46.427  28.824  36.435  1.00  0.00     0.059 A 
ATOM     69  C   UNL A   1      44.721  27.448  37.478  1.00  0.00     0.059 A 
ATOM     70  F   UNL A   1      42.504  27.574  36.726  1.00  0.00    -0.206 F 
ATOM     71  C   UNL A   1      46.047  27.865  37.376  1.00  0.00     0.060 A 
BRANCH  71  72
ATOM     72  S   UNL A   1      47.304  27.200  38.488  1.00  0.00     0.124 S 
ATOM     73  O   UNL A   1      48.476  27.984  38.113  1.00  0.00    -0.237 OA
ATOM     74  O   UNL A   1      46.741  27.490  39.803  1.00  0.00    -0.237 OA
ATOM     75  O   UNL A   1      47.358  25.785  38.133  1.00  0.00    -0.744 OA
ENDBRANCH  71  72
ENDBRANCH  39  64
ENDBRANCH  13  14
ENDBRANCH   6   8
ENDBRANCH   3   4
ENDBRANCH   2   3
ENDBRANCH   1   2
BRANCH   1  76
ATOM     76  C   UNL A   1      33.158  28.547  26.891  1.00  0.00     0.002 C 
BRANCH  76  77
ATOM     77  C   UNL A   1      33.495  27.749  25.628  1.00  0.00     0.021 C 
BRANCH  77  78
ATOM     78  C   UNL A   1      33.776  26.249  25.712  1.00  0.00     0.116 C 
BRANCH  78  79
ATOM     79  N   UNL A   1      34.399  25.628  24.563  1.00  0.00    -0.356 N 
ATOM     80  C   UNL A   1      34.344  24.353  24.076  1.00  0.00     0.224 C 
ATOM     81  H   UNL A   1      34.968  26.236  24.037  1.00  0.00     0.163 HD
ATOM     82  O   UNL A   1      34.849  24.218  22.952  1.00  0.00    -0.275 OA
BRANCH  80  83
ATOM     83  C   UNL A   1      33.846  23.105  24.875  1.00  0.00     0.095 C 
ATOM     84  C   UNL A   1      34.908  21.978  24.622  1.00  0.00     0.041 C 
ATOM     85  C   UNL A   1      32.420  22.581  24.577  1.00  0.00     0.095 C 
ATOM     86  C   UNL A   1      34.529  20.575  24.976  1.00  0.00    -0.030 C 
ATOM     87  C   UNL A   1      32.115  21.109  24.975  1.00  0.00     0.041 C 
ATOM     88  C   UNL A   1      33.265  20.181  25.117  1.00  0.00    -0.030 C 
BRANCH  85  89
ATOM     89  C   UNL A   1      31.173  23.311  25.102  1.00  0.00     0.227 C 
ATOM     90  O   UNL A   1      30.589  22.822  26.078  1.00  0.00    -0.275 OA
ATOM     91  N   UNL A   1      30.809  24.567  24.620  1.00  0.00    -0.331 N 
ATOM     92  C   UNL A   1      30.017  25.407  25.515  1.00  0.00     0.181 C 
ATOM     93  C   UNL A   1      30.679  24.936  23.208  1.00  0.00     0.181 C 
ATOM     94  C   UNL A   1      30.125  26.920  25.202  1.00  0.00     0.284 C 
ATOM     95  C   UNL A   1      30.865  26.436  22.933  1.00  0.00     0.284 C 
ATOM     96  N   UNL A   1      30.098  27.332  23.793  1.00  0.00    -0.328 N 
ATOM     97  H   UNL A   1      30.604  28.218  23.791  1.00  0.00     0.348 HD
BRANCH  96  98
ATOM     98  C   UNL A   1      28.823  27.809  23.251  1.00  0.00     0.299 C 
BRANCH  98  99
ATOM     99  C   UNL A   1      28.765  29.264  22.866  1.00  0.00     0.010 A 
ATOM    100  C   UNL A   1      29.262  30.221  23.765  1.00  0.00     0.013 A 
ATOM    101  C   UNL A   1      28.203  29.685  21.645  1.00  0.00     0.060 A 
ATOM    102  C   UNL A   1      29.096  31.574  23.522  1.00  0.00     0.051 A 
ATOM    103  C   UNL A   1      28.093  31.038  21.406  1.00  0.00     0.166 A 
ATOM    104  C   UNL A   1      28.506  31.955  22.336  1.00  0.00     0.165 A 
ATOM    105  O   UNL A   1      27.556  31.625  20.302  1.00  0.00    -0.454 OA
ATOM    106  O   UNL A   1      28.238  33.231  21.950  1.00  0.00    -0.454 OA
ATOM    107  C   UNL A   1      27.716  33.022  20.625  1.00  0.00     0.468 C 
ENDBRANCH  98  99
ENDBRANCH  96  98
ENDBRANCH  85  89
ENDBRANCH  80  83
ENDBRANCH  78  79
ENDBRANCH  77  78
ENDBRANCH  76  77
ENDBRANCH   1  76
TORSDOF 19
ENDMDL
MODEL 2
REMARK VINA RESULT:     -12.4      5.828      7.953
REMARK SMILES O=C(NCCCCCCNC(=O)[C@@H]1CC=CC[C@H]1C(=O)N1CC[NH+](Cc2ccc3c(c2)OCO3)CC1)c1ccc(-c2c3nc(c(-c4c(F)cc(S(=O)(=O)[O-])cc4F)c4ccc([nH]4)c(-c4c(F)cc(S(=O)(=O)[O-])cc4F)c4nc(c(-c5c(F)cc(S(=O)(=O)[O-])cc5F)c5ccc2[nH]5)C=C4)C=C3)cc1
REMARK SMILES IDX 6 1 5 2 4 3 3 4 1 5 2 6 37 8 38 9 102 10 39 11 101 12 40 13
REMARK SMILES IDX 41 14 42 15 95 16 43 17 100 18 94 19 96 20 44 21 99 22 93 23
REMARK SMILES IDX 92 24 45 26 79 27 58 28 78 29 59 30 62 31 77 32 97 33 60 34
REMARK SMILES IDX 61 35 76 37 98 38 63 39 46 40 47 41 56 42 48 43 49 44 55 45
REMARK SMILES IDX 57 46 50 47 51 48 52 49 53 50 54 51 80 52 81 53 90 54 82 55
REMARK SMILES IDX 83 56 89 57 91 58 84 59 85 60 86 61 87 62 88 63 64 64 65 65
REMARK SMILES IDX 74 66 66 67 67 68 73 69 75 70 68 71 69 72 70 73 71 74 72 75
REMARK SMILES IDX 7 76 8 77 9 78 10 79 11 80 12 82 13 83 14 84 18 85 15 86
REMARK SMILES IDX 17 87 16 88 19 89 20 90 21 91 22 92 36 93 23 94 35 95 24 96
REMARK SMILES IDX 25 98 26 99 27 100 31 101 28 102 30 103 29 104 32 105 34 106
REMARK SMILES IDX 33 107
REMARK H PARENT 3 7 96 25 62 36 10 81 24 97
REMARK Flexibility Score: inf
ROOT
ATOM      1  C   UNL A   1      33.115  29.970  27.037  1.00  0.00     0.002 C 
ENDROOT
BRANCH   1   2
ATOM      2  C   UNL A   1      34.427  30.742  27.250  1.00  0.00     0.021 C 
BRANCH   2   3
ATOM      3  C   UNL A   1      35.607  30.272  28.124  1.00  0.00     0.116 C 
BRANCH   3   4
ATOM      4  N   UNL A   1      35.483  30.119  29.548  1.00  0.00    -0.352 N 
ATOM      5  O   UNL A   1      36.344  29.701  31.608  1.00  0.00    -0.269 OA
ATOM      6  C   UNL A   1      36.539  29.829  30.406  1.00  0.00     0.251 C 
ATOM      7  H   UNL A   1      34.589  30.226  29.943  1.00  0.00     0.163 HD
BRANCH   6   8
ATOM      8  C   UNL A   1      37.923  29.658  29.864  1.00  0.00     0.039 A 
ATOM      9  C   UNL A   1      38.987  29.331  30.709  1.00  0.00     0.014 A 
ATOM     10  C   UNL A   1      38.151  29.724  28.487  1.00  0.00     0.014 A 
ATOM     11  C   UNL A   1      40.282  29.142  30.196  1.00  0.00     0.010 A 
ATOM     12  C   UNL A   1      39.439  29.484  27.968  1.00  0.00     0.010 A 
ATOM     13  C   UNL A   1      40.523  29.192  28.814  1.00  0.00    -0.014 A 
BRANCH  13  14
ATOM     14  C   UNL A   1      41.857  28.818  28.244  1.00  0.00     0.031 A 
ATOM     15  C   UNL A   1      42.163  27.404  27.807  1.00  0.00     0.074 A 
ATOM     16  C   UNL A   1      42.838  29.747  28.187  1.00  0.00     0.049 A 
ATOM     17  N   UNL A   1      43.302  26.888  27.413  1.00  0.00    -0.248 NA
ATOM     18  C   UNL A   1      41.048  26.446  27.818  1.00  0.00     0.031 C 
ATOM     19  C   UNL A   1      42.692  31.147  28.589  1.00  0.00     0.029 A 
ATOM     20  N   UNL A   1      44.156  29.653  27.802  1.00  0.00    -0.354 N 
ATOM     21  C   UNL A   1      43.052  25.543  27.158  1.00  0.00     0.074 A 
ATOM     22  C   UNL A   1      41.649  25.322  27.442  1.00  0.00     0.031 C 
ATOM     23  C   UNL A   1      43.870  31.775  28.447  1.00  0.00     0.029 A 
ATOM     24  C   UNL A   1      44.873  30.813  27.998  1.00  0.00     0.049 A 
ATOM     25  H   UNL A   1      44.550  28.834  27.422  1.00  0.00     0.167 HD
ATOM     26  C   UNL A   1      43.913  24.585  26.731  1.00  0.00     0.037 A 
ATOM     27  C   UNL A   1      46.192  31.075  27.885  1.00  0.00     0.037 A 
ATOM     28  C   UNL A   1      45.305  24.813  26.426  1.00  0.00     0.049 A 
ATOM     29  C   UNL A   1      47.130  29.980  27.449  1.00  0.00     0.074 A 
ATOM     30  C   UNL A   1      46.225  23.920  25.899  1.00  0.00     0.029 A 
ATOM     31  N   UNL A   1      45.986  26.002  26.638  1.00  0.00    -0.354 N 
ATOM     32  N   UNL A   1      46.854  28.738  27.130  1.00  0.00    -0.248 NA
ATOM     33  C   UNL A   1      48.560  30.316  27.367  1.00  0.00     0.031 C 
ATOM     34  C   UNL A   1      47.474  24.547  25.856  1.00  0.00     0.029 A 
ATOM     35  C   UNL A   1      47.323  25.849  26.301  1.00  0.00     0.049 A 
ATOM     36  H   UNL A   1      45.580  26.832  26.978  1.00  0.00     0.167 HD
ATOM     37  C   UNL A   1      48.072  28.152  26.800  1.00  0.00     0.074 A 
ATOM     38  C   UNL A   1      49.082  29.178  26.930  1.00  0.00     0.031 C 
ATOM     39  C   UNL A   1      48.327  26.874  26.430  1.00  0.00     0.037 A 
BRANCH  26  40
ATOM     40  C   UNL A   1      43.406  23.173  26.573  1.00  0.00     0.058 A 
ATOM     41  C   UNL A   1      43.275  22.569  25.314  1.00  0.00     0.135 A 
ATOM     42  C   UNL A   1      43.181  22.373  27.707  1.00  0.00     0.135 A 
ATOM     43  F   UNL A   1      43.473  23.285  24.196  1.00  0.00    -0.206 F 
ATOM     44  C   UNL A   1      42.937  21.224  25.184  1.00  0.00     0.059 A 
ATOM     45  C   UNL A   1      42.864  21.021  27.602  1.00  0.00     0.059 A 
ATOM     46  F   UNL A   1      43.298  22.899  28.937  1.00  0.00    -0.206 F 
ATOM     47  C   UNL A   1      42.742  20.456  26.335  1.00  0.00     0.060 A 
BRANCH  47  48
ATOM     48  S   UNL A   1      42.355  18.701  26.145  1.00  0.00     0.124 S 
ATOM     49  O   UNL A   1      40.951  18.755  25.750  1.00  0.00    -0.237 OA
ATOM     50  O   UNL A   1      43.290  18.287  25.105  1.00  0.00    -0.237 OA
ATOM     51  O   UNL A   1      42.611  18.149  27.472  1.00  0.00    -0.744 OA
ENDBRANCH  47  48
ENDBRANCH  26  40
BRANCH  27  52
ATOM     52  C   UNL A   1      46.724  32.419  28.246  1.00  0.00     0.058 A 
ATOM     53  C   UNL A   1      47.116  32.720  29.558  1.00  0.00     0.135 A 
ATOM     54  C   UNL A   1      46.825  33.439  27.286  1.00  0.00     0.135 A 
ATOM     55  F   UNL A   1      47.026  31.785  30.516  1.00  0.00    -0.206 F 
ATOM     56  C   UNL A   1      47.561  33.990  29.913  1.00  0.00     0.059 A 
ATOM     57  C   UNL A   1      47.299  34.706  27.609  1.00  0.00     0.059 A 
ATOM     58  F   UNL A   1      46.474  33.202  26.012  1.00  0.00    -0.206 F 
ATOM     59  C   UNL A   1      47.648  34.977  28.930  1.00  0.00     0.060 A 
BRANCH  59  60
ATOM     60  S   UNL A   1      48.244  36.617  29.397  1.00  0.00     0.124 S 
ATOM     61  O   UNL A   1      46.992  37.351  29.545  1.00  0.00    -0.237 OA
ATOM     62  O   UNL A   1      48.972  36.340  30.631  1.00  0.00    -0.237 OA
ATOM     63  O   UNL A   1      49.075  37.007  28.261  1.00  0.00    -0.744 OA
ENDBRANCH  59  60
ENDBRANCH  27  52
BRANCH  39  64
ATOM     64  C   UNL A   1      49.754  26.505  26.127  1.00  0.00     0.058 A 
ATOM     65  C   UNL A   1      50.337  26.791  24.883  1.00  0.00     0.135 A 
ATOM     66  C   UNL A   1      50.568  25.919  27.111  1.00  0.00     0.135 A 
ATOM     67  F   UNL A   1      49.602  27.339  23.902  1.00  0.00    -0.206 F 
ATOM     68  C   UNL A   1      51.672  26.499  24.621  1.00  0.00     0.059 A 
ATOM     69  C   UNL A   1      51.912  25.645  26.880  1.00  0.00     0.059 A 
ATOM     70  F   UNL A   1      50.063  25.629  28.321  1.00  0.00    -0.206 F 
ATOM     71  C   UNL A   1      52.454  25.933  25.629  1.00  0.00     0.060 A 
BRANCH  71  72
ATOM     72  S   UNL A   1      54.199  25.613  25.291  1.00  0.00     0.124 S 
ATOM     73  O   UNL A   1      54.295  25.953  23.876  1.00  0.00    -0.237 OA
ATOM     74  O   UNL A   1      54.867  26.530  26.210  1.00  0.00    -0.237 OA
ATOM     75  O   UNL A   1      54.353  24.196  25.607  1.00  0.00    -0.744 OA
ENDBRANCH  71  72
ENDBRANCH  39  64
ENDBRANCH  13  14
ENDBRANCH   6   8
ENDBRANCH   3   4
ENDBRANCH   2   3
ENDBRANCH   1   2
BRANCH   1  76
ATOM     76  C   UNL A   1      33.053  28.437  26.954  1.00  0.00     0.002 C 
BRANCH  76  77
ATOM     77  C   UNL A   1      33.681  27.704  25.764  1.00  0.00     0.021 C 
BRANCH  77  78
ATOM     78  C   UNL A   1      33.758  26.177  25.750  1.00  0.00     0.116 C 
BRANCH  78  79
ATOM     79  N   UNL A   1      34.408  25.559  24.615  1.00  0.00    -0.356 N 
ATOM     80  C   UNL A   1      34.352  24.289  24.115  1.00  0.00     0.224 C 
ATOM     81  H   UNL A   1      34.998  26.164  24.111  1.00  0.00     0.163 HD
ATOM     82  O   UNL A   1      34.889  24.157  23.005  1.00  0.00    -0.275 OA
BRANCH  80  83
ATOM     83  C   UNL A   1      33.816  23.040  24.887  1.00  0.00     0.095 C 
ATOM     84  C   UNL A   1      34.853  21.892  24.624  1.00  0.00     0.041 C 
ATOM     85  C   UNL A   1      32.381  22.556  24.567  1.00  0.00     0.095 C 
ATOM     86  C   UNL A   1      34.437  20.493  24.950  1.00  0.00    -0.030 C 
ATOM     87  C   UNL A   1      32.036  21.085  24.936  1.00  0.00     0.041 C 
ATOM     88  C   UNL A   1      33.162  20.128  25.072  1.00  0.00    -0.030 C 
BRANCH  85  89
ATOM     89  C   UNL A   1      31.147  23.307  25.093  1.00  0.00     0.227 C 
ATOM     90  O   UNL A   1      30.568  22.841  26.083  1.00  0.00    -0.275 OA
ATOM     91  N   UNL A   1      30.791  24.560  24.595  1.00  0.00    -0.331 N 
ATOM     92  C   UNL A   1      30.017  25.422  25.485  1.00  0.00     0.181 C 
ATOM     93  C   UNL A   1      30.651  24.908  23.179  1.00  0.00     0.181 C 
ATOM     94  C   UNL A   1      30.138  26.928  25.147  1.00  0.00     0.284 C 
ATOM     95  C   UNL A   1      30.849  26.402  22.879  1.00  0.00     0.284 C 
ATOM     96  N   UNL A   1      30.100  27.319  23.732  1.00  0.00    -0.328 N 
ATOM     97  H   UNL A   1      30.616  28.199  23.711  1.00  0.00     0.348 HD
BRANCH  96  98
ATOM     98  C   UNL A   1      28.825  27.801  23.196  1.00  0.00     0.299 C 
BRANCH  98  99
ATOM     99  C   UNL A   1      28.764  29.262  22.834  1.00  0.00     0.010 A 
ATOM    100  C   UNL A   1      29.272  30.205  23.742  1.00  0.00     0.013 A 
ATOM    101  C   UNL A   1      28.187  29.702  21.626  1.00  0.00     0.060 A 
ATOM    102  C   UNL A   1      29.104  31.561  23.522  1.00  0.00     0.051 A 
ATOM    103  C   UNL A   1      28.075  31.058  21.410  1.00  0.00     0.166 A 
ATOM    104  C   UNL A   1      28.500  31.961  22.349  1.00  0.00     0.165 A 
ATOM    105  O   UNL A   1      27.525  31.662  20.322  1.00  0.00    -0.454 OA
ATOM    106  O   UNL A   1      28.228  33.243  21.986  1.00  0.00    -0.454 OA
ATOM    107  C   UNL A   1      27.690  33.054  20.665  1.00  0.00     0.468 C 
ENDBRANCH  98  99
ENDBRANCH  96  98
ENDBRANCH  85  89
ENDBRANCH  80  83
ENDBRANCH  78  79
ENDBRANCH  77  78
ENDBRANCH  76  77
ENDBRANCH   1  76
TORSDOF 19
ENDMDL
MODEL 3
REMARK VINA RESULT:     -12.3      5.700     10.207
REMARK SMILES O=C(NCCCCCCNC(=O)[C@@H]1CC=CC[C@H]1C(=O)N1CC[NH+](Cc2ccc3c(c2)OCO3)CC1)c1ccc(-c2c3nc(c(-c4c(F)cc(S(=O)(=O)[O-])cc4F)c4ccc([nH]4)c(-c4c(F)cc(S(=O)(=O)[O-])cc4F)c4nc(c(-c5c(F)cc(S(=O)(=O)[O-])cc5F)c5ccc2[nH]5)C=C4)C=C3)cc1
REMARK SMILES IDX 6 1 5 2 4 3 3 4 1 5 2 6 37 8 38 9 102 10 39 11 101 12 40 13
REMARK SMILES IDX 41 14 42 15 95 16 43 17 100 18 94 19 96 20 44 21 99 22 93 23
REMARK SMILES IDX 92 24 45 26 79 27 58 28 78 29 59 30 62 31 77 32 97 33 60 34
REMARK SMILES IDX 61 35 76 37 98 38 63 39 46 40 47 41 56 42 48 43 49 44 55 45
REMARK SMILES IDX 57 46 50 47 51 48 52 49 53 50 54 51 80 52 81 53 90 54 82 55
REMARK SMILES IDX 83 56 89 57 91 58 84 59 85 60 86 61 87 62 88 63 64 64 65 65
REMARK SMILES IDX 74 66 66 67 67 68 73 69 75 70 68 71 69 72 70 73 71 74 72 75
REMARK SMILES IDX 7 76 8 77 9 78 10 79 11 80 12 82 13 83 14 84 18 85 15 86
REMARK SMILES IDX 17 87 16 88 19 89 20 90 21 91 22 92 36 93 23 94 35 95 24 96
REMARK SMILES IDX 25 98 26 99 27 100 31 101 28 102 30 103 29 104 32 105 34 106
REMARK SMILES IDX 33 107
REMARK H PARENT 3 7 96 25 62 36 10 81 24 97
REMARK Flexibility Score: inf
ROOT
ATOM      1  C   UNL A   1      33.724  29.917  26.466  1.00  0.00     0.002 C 
ENDROOT
BRANCH   1   2
ATOM      2  C   UNL A   1      34.536  30.922  27.299  1.00  0.00     0.021 C 
BRANCH   2   3
ATOM      3  C   UNL A   1      35.615  30.555  28.337  1.00  0.00     0.116 C 
BRANCH   3   4
ATOM      4  N   UNL A   1      35.403  30.730  29.748  1.00  0.00    -0.352 N 
ATOM      5  O   UNL A   1      36.138  30.833  31.895  1.00  0.00    -0.269 OA
ATOM      6  C   UNL A   1      36.407  30.687  30.709  1.00  0.00     0.251 C 
ATOM      7  H   UNL A   1      34.482  30.893  30.055  1.00  0.00     0.163 HD
BRANCH   6   8
ATOM      8  C   UNL A   1      37.827  30.447  30.303  1.00  0.00     0.039 A 
ATOM      9  C   UNL A   1      38.858  30.489  31.246  1.00  0.00     0.014 A 
ATOM     10  C   UNL A   1      38.128  30.076  28.990  1.00  0.00     0.014 A 
ATOM     11  C   UNL A   1      40.188  30.236  30.870  1.00  0.00     0.010 A 
ATOM     12  C   UNL A   1      39.455  29.772  28.625  1.00  0.00     0.010 A 
ATOM     13  C   UNL A   1      40.504  29.849  29.558  1.00  0.00    -0.014 A 
BRANCH  13  14
ATOM     14  C   UNL A   1      41.887  29.405  29.190  1.00  0.00     0.031 A 
ATOM     15  C   UNL A   1      43.027  30.388  29.065  1.00  0.00     0.074 A 
ATOM     16  C   UNL A   1      42.108  28.106  28.889  1.00  0.00     0.049 A 
ATOM     17  N   UNL A   1      44.249  30.188  28.634  1.00  0.00    -0.248 NA
ATOM     18  C   UNL A   1      42.760  31.776  29.472  1.00  0.00     0.031 C 
ATOM     19  C   UNL A   1      41.099  27.047  28.949  1.00  0.00     0.029 A 
ATOM     20  N   UNL A   1      43.236  27.456  28.442  1.00  0.00    -0.354 N 
ATOM     21  C   UNL A   1      44.889  31.423  28.689  1.00  0.00     0.074 A 
ATOM     22  C   UNL A   1      43.916  32.370  29.196  1.00  0.00     0.031 C 
ATOM     23  C   UNL A   1      41.643  25.890  28.541  1.00  0.00     0.029 A 
ATOM     24  C   UNL A   1      43.025  26.130  28.134  1.00  0.00     0.049 A 
ATOM     25  H   UNL A   1      44.112  27.898  28.350  1.00  0.00     0.167 HD
ATOM     26  C   UNL A   1      46.163  31.737  28.344  1.00  0.00     0.037 A 
ATOM     27  C   UNL A   1      43.823  25.215  27.546  1.00  0.00     0.037 A 
ATOM     28  C   UNL A   1      47.137  30.787  27.861  1.00  0.00     0.049 A 
ATOM     29  C   UNL A   1      45.219  25.603  27.136  1.00  0.00     0.074 A 
ATOM     30  C   UNL A   1      48.476  31.001  27.577  1.00  0.00     0.029 A 
ATOM     31  N   UNL A   1      46.879  29.457  27.567  1.00  0.00    -0.354 N 
ATOM     32  N   UNL A   1      45.829  26.755  27.277  1.00  0.00    -0.248 NA
ATOM     33  C   UNL A   1      46.035  24.571  26.476  1.00  0.00     0.031 C 
ATOM     34  C   UNL A   1      49.010  29.822  27.050  1.00  0.00     0.029 A 
ATOM     35  C   UNL A   1      48.020  28.855  27.059  1.00  0.00     0.049 A 
ATOM     36  H   UNL A   1      46.013  29.007  27.700  1.00  0.00     0.167 HD
ATOM     37  C   UNL A   1      47.099  26.582  26.737  1.00  0.00     0.074 A 
ATOM     38  C   UNL A   1      47.183  25.210  26.290  1.00  0.00     0.031 C 
ATOM     39  C   UNL A   1      48.101  27.486  26.615  1.00  0.00     0.037 A 
BRANCH  26  40
ATOM     40  C   UNL A   1      46.610  33.173  28.450  1.00  0.00     0.058 A 
ATOM     41  C   UNL A   1      46.450  34.079  27.391  1.00  0.00     0.135 A 
ATOM     42  C   UNL A   1      47.080  33.677  29.676  1.00  0.00     0.135 A 
ATOM     43  F   UNL A   1      46.010  33.653  26.197  1.00  0.00    -0.206 F 
ATOM     44  C   UNL A   1      46.741  35.433  27.542  1.00  0.00     0.059 A 
ATOM     45  C   UNL A   1      47.355  35.030  29.857  1.00  0.00     0.059 A 
ATOM     46  F   UNL A   1      47.246  32.855  30.724  1.00  0.00    -0.206 F 
ATOM     47  C   UNL A   1      47.184  35.900  28.782  1.00  0.00     0.060 A 
BRANCH  47  48
ATOM     48  S   UNL A   1      47.506  37.668  28.972  1.00  0.00     0.124 S 
ATOM     49  O   UNL A   1      47.870  37.747  30.384  1.00  0.00    -0.237 OA
ATOM     50  O   UNL A   1      48.594  37.891  28.025  1.00  0.00    -0.237 OA
ATOM     51  O   UNL A   1      46.233  38.289  28.619  1.00  0.00    -0.744 OA
ENDBRANCH  47  48
ENDBRANCH  26  40
BRANCH  27  52
ATOM     52  C   UNL A   1      43.306  23.849  27.249  1.00  0.00     0.058 A 
ATOM     53  C   UNL A   1      43.231  22.865  28.245  1.00  0.00     0.135 A 
ATOM     54  C   UNL A   1      42.902  23.494  25.952  1.00  0.00     0.135 A 
ATOM     55  F   UNL A   1      43.618  23.149  29.499  1.00  0.00    -0.206 F 
ATOM     56  C   UNL A   1      42.801  21.572  27.963  1.00  0.00     0.059 A 
ATOM     57  C   UNL A   1      42.437  22.218  25.651  1.00  0.00     0.059 A 
ATOM     58  F   UNL A   1      42.944  24.400  24.962  1.00  0.00    -0.206 F 
ATOM     59  C   UNL A   1      42.408  21.259  26.660  1.00  0.00     0.060 A 
BRANCH  59  60
ATOM     60  S   UNL A   1      41.835  19.582  26.307  1.00  0.00     0.124 S 
ATOM     61  O   UNL A   1      42.286  18.863  27.493  1.00  0.00    -0.237 OA
ATOM     62  O   UNL A   1      40.393  19.769  26.183  1.00  0.00    -0.237 OA
ATOM     63  O   UNL A   1      42.525  19.248  25.064  1.00  0.00    -0.744 OA
ENDBRANCH  59  60
ENDBRANCH  27  52
BRANCH  39  64
ATOM     64  C   UNL A   1      49.386  27.024  25.982  1.00  0.00     0.058 A 
ATOM     65  C   UNL A   1      49.639  27.212  24.614  1.00  0.00     0.135 A 
ATOM     66  C   UNL A   1      50.402  26.447  26.761  1.00  0.00     0.135 A 
ATOM     67  F   UNL A   1      48.697  27.748  23.821  1.00  0.00    -0.206 F 
ATOM     68  C   UNL A   1      50.848  26.834  24.039  1.00  0.00     0.059 A 
ATOM     69  C   UNL A   1      51.629  26.087  26.212  1.00  0.00     0.059 A 
ATOM     70  F   UNL A   1      50.215  26.248  28.076  1.00  0.00    -0.206 F 
ATOM     71  C   UNL A   1      51.840  26.279  24.849  1.00  0.00     0.060 A 
BRANCH  71  72
ATOM     72  S   UNL A   1      53.425  25.846  24.098  1.00  0.00     0.124 S 
ATOM     73  O   UNL A   1      53.649  24.506  24.631  1.00  0.00    -0.237 OA
ATOM     74  O   UNL A   1      53.123  25.918  22.671  1.00  0.00    -0.237 OA
ATOM     75  O   UNL A   1      54.330  26.877  24.595  1.00  0.00    -0.744 OA
ENDBRANCH  71  72
ENDBRANCH  39  64
ENDBRANCH  13  14
ENDBRANCH   6   8
ENDBRANCH   3   4
ENDBRANCH   2   3
ENDBRANCH   1   2
BRANCH   1  76
ATOM     76  C   UNL A   1      33.878  28.395  26.612  1.00  0.00     0.002 C 
BRANCH  76  77
ATOM     77  C   UNL A   1      33.742  27.486  25.387  1.00  0.00     0.021 C 
BRANCH  77  78
ATOM     78  C   UNL A   1      34.023  25.988  25.501  1.00  0.00     0.116 C 
BRANCH  78  79
ATOM     79  N   UNL A   1      34.485  25.309  24.309  1.00  0.00    -0.356 N 
ATOM     80  C   UNL A   1      34.310  24.030  23.864  1.00  0.00     0.224 C 
ATOM     81  H   UNL A   1      35.026  25.874  23.710  1.00  0.00     0.163 HD
ATOM     82  O   UNL A   1      34.685  23.844  22.696  1.00  0.00    -0.275 OA
BRANCH  80  83
ATOM     83  C   UNL A   1      33.835  22.828  24.744  1.00  0.00     0.095 C 
ATOM     84  C   UNL A   1      34.843  21.659  24.460  1.00  0.00     0.041 C 
ATOM     85  C   UNL A   1      32.377  22.339  24.568  1.00  0.00     0.095 C 
ATOM     86  C   UNL A   1      34.450  20.283  24.893  1.00  0.00    -0.030 C 
ATOM     87  C   UNL A   1      32.059  20.893  25.043  1.00  0.00     0.041 C 
ATOM     88  C   UNL A   1      33.188  19.935  25.138  1.00  0.00    -0.030 C 
BRANCH  85  89
ATOM     89  C   UNL A   1      31.193  23.127  25.151  1.00  0.00     0.227 C 
ATOM     90  O   UNL A   1      30.654  22.682  26.174  1.00  0.00    -0.275 OA
ATOM     91  N   UNL A   1      30.845  24.385  24.663  1.00  0.00    -0.331 N 
ATOM     92  C   UNL A   1      30.142  25.274  25.585  1.00  0.00     0.181 C 
ATOM     93  C   UNL A   1      30.641  24.729  23.254  1.00  0.00     0.181 C 
ATOM     94  C   UNL A   1      30.285  26.774  25.230  1.00  0.00     0.284 C 
ATOM     95  C   UNL A   1      30.863  26.214  22.932  1.00  0.00     0.284 C 
ATOM     96  N   UNL A   1      30.184  27.157  23.816  1.00  0.00    -0.328 N 
ATOM     97  H   UNL A   1      30.722  28.022  23.761  1.00  0.00     0.348 HD
BRANCH  96  98
ATOM     98  C   UNL A   1      28.896  27.670  23.343  1.00  0.00     0.299 C 
BRANCH  98  99
ATOM     99  C   UNL A   1      28.865  29.120  22.936  1.00  0.00     0.010 A 
ATOM    100  C   UNL A   1      29.475  30.070  23.772  1.00  0.00     0.013 A 
ATOM    101  C   UNL A   1      28.219  29.545  21.758  1.00  0.00     0.060 A 
ATOM    102  C   UNL A   1      29.343  31.424  23.518  1.00  0.00     0.051 A 
ATOM    103  C   UNL A   1      28.145  30.897  21.504  1.00  0.00     0.166 A 
ATOM    104  C   UNL A   1      28.672  31.811  22.378  1.00  0.00     0.165 A 
ATOM    105  O   UNL A   1      27.541  31.489  20.437  1.00  0.00    -0.454 OA
ATOM    106  O   UNL A   1      28.423  33.091  21.991  1.00  0.00    -0.454 OA
ATOM    107  C   UNL A   1      27.784  32.883  20.719  1.00  0.00     0.468 C 
ENDBRANCH  98  99
ENDBRANCH  96  98
ENDBRANCH  85  89
ENDBRANCH  80  83
ENDBRANCH  78  79
ENDBRANCH  77  78
ENDBRANCH  76  77
ENDBRANCH   1  76
TORSDOF 19
ENDMDL
