MODEL 1
REMARK VINA RESULT:     -11.4      0.000      0.000
REMARK SMILES O=C(NCCCCCCNC(=O)c1nn2cc(Br)cnc2c1Br)c1ccc(-c2c3nc(c(-c4c(F)cc(S(=O)(=O)[O-])cc4F)c4ccc([nH]4)c(-c4c(F)cc(S(=O)(=O)[O-])cc4F)c4nc(c(-c5c(F)cc(S(=O)(=O)[O-])cc5F)c5ccc2[nH]5)C=C4)C=C3)cc1
REMARK SMILES IDX 5 1 4 2 3 3 1 4 2 5 24 7 25 8 89 9 26 10 88 11 27 12 28 13
REMARK SMILES IDX 29 14 82 15 30 16 87 17 81 18 83 19 31 20 86 21 80 22 79 23
REMARK SMILES IDX 32 25 66 26 45 27 65 28 46 29 49 30 64 31 84 32 47 33 48 34
REMARK SMILES IDX 63 36 85 37 50 38 33 39 34 40 43 41 35 42 36 43 42 44 44 45
REMARK SMILES IDX 37 46 38 47 39 48 40 49 41 50 67 51 68 52 77 53 69 54 70 55
REMARK SMILES IDX 76 56 78 57 71 58 72 59 73 60 74 61 75 62 51 63 52 64 61 65
REMARK SMILES IDX 53 66 54 67 60 68 62 69 55 70 56 71 57 72 58 73 59 74 6 75
REMARK SMILES IDX 7 76 8 77 9 78 10 79 11 80 12 82 13 83 14 84 22 85 15 86
REMARK SMILES IDX 21 87 23 88 16 89 20 90 17 91 19 92 18 93
REMARK H PARENT 3 6 83 24 49 35 10 81
REMARK Flexibility Score: inf
ROOT
ATOM      1  C   UNL A   1      41.231  19.837  26.141  1.00  0.00     0.021 C 
ENDROOT
BRANCH   1   2
ATOM      2  C   UNL A   1      42.638  19.244  26.176  1.00  0.00     0.116 C 
BRANCH   2   3
ATOM      3  N   UNL A   1      43.499  19.679  25.097  1.00  0.00    -0.352 N 
ATOM      4  O   UNL A   1      44.851  20.851  23.795  1.00  0.00    -0.269 OA
ATOM      5  C   UNL A   1      44.086  20.868  24.761  1.00  0.00     0.251 C 
ATOM      6  H   UNL A   1      43.711  18.957  24.463  1.00  0.00     0.163 HD
BRANCH   5   7
ATOM      7  C   UNL A   1      43.797  22.164  25.425  1.00  0.00     0.039 A 
ATOM      8  C   UNL A   1      42.954  23.160  24.931  1.00  0.00     0.014 A 
ATOM      9  C   UNL A   1      44.438  22.369  26.660  1.00  0.00     0.014 A 
ATOM     10  C   UNL A   1      42.845  24.381  25.595  1.00  0.00     0.010 A 
ATOM     11  C   UNL A   1      44.308  23.571  27.342  1.00  0.00     0.010 A 
ATOM     12  C   UNL A   1      43.547  24.594  26.783  1.00  0.00    -0.014 A 
BRANCH  12  13
ATOM     13  C   UNL A   1      43.343  25.852  27.502  1.00  0.00     0.031 A 
ATOM     14  C   UNL A   1      44.385  26.896  27.243  1.00  0.00     0.074 A 
ATOM     15  C   UNL A   1      42.217  26.115  28.198  1.00  0.00     0.049 A 
ATOM     16  N   UNL A   1      45.167  27.488  28.086  1.00  0.00    -0.248 NA
ATOM     17  C   UNL A   1      44.665  27.243  25.837  1.00  0.00     0.031 C 
ATOM     18  C   UNL A   1      40.996  25.310  28.287  1.00  0.00     0.029 A 
ATOM     19  N   UNL A   1      41.885  27.234  28.902  1.00  0.00    -0.354 N 
ATOM     20  C   UNL A   1      45.911  28.413  27.349  1.00  0.00     0.074 A 
ATOM     21  C   UNL A   1      45.658  28.124  25.962  1.00  0.00     0.031 C 
ATOM     22  C   UNL A   1      39.994  26.067  28.790  1.00  0.00     0.029 A 
ATOM     23  C   UNL A   1      40.529  27.358  29.185  1.00  0.00     0.049 A 
ATOM     24  H   UNL A   1      42.552  27.900  29.186  1.00  0.00     0.167 HD
ATOM     25  C   UNL A   1      46.553  29.467  27.927  1.00  0.00     0.037 A 
ATOM     26  C   UNL A   1      39.895  28.471  29.642  1.00  0.00     0.037 A 
ATOM     27  C   UNL A   1      46.679  29.300  29.347  1.00  0.00     0.049 A 
ATOM     28  C   UNL A   1      40.938  29.352  30.230  1.00  0.00     0.074 A 
ATOM     29  C   UNL A   1      47.351  28.413  30.163  1.00  0.00     0.029 A 
ATOM     30  N   UNL A   1      45.755  29.921  30.150  1.00  0.00    -0.354 N 
ATOM     31  N   UNL A   1      41.630  29.053  31.297  1.00  0.00    -0.248 NA
ATOM     32  C   UNL A   1      41.537  30.353  29.360  1.00  0.00     0.031 C 
ATOM     33  C   UNL A   1      46.473  28.191  31.263  1.00  0.00     0.029 A 
ATOM     34  C   UNL A   1      45.350  29.000  31.083  1.00  0.00     0.049 A 
ATOM     35  H   UNL A   1      45.442  30.851  30.071  1.00  0.00     0.167 HD
ATOM     36  C   UNL A   1      42.916  29.499  31.026  1.00  0.00     0.074 A 
ATOM     37  C   UNL A   1      42.781  30.348  29.844  1.00  0.00     0.031 C 
ATOM     38  C   UNL A   1      44.006  28.923  31.611  1.00  0.00     0.037 A 
BRANCH  25  39
ATOM     39  C   UNL A   1      46.806  30.792  27.252  1.00  0.00     0.058 A 
ATOM     40  C   UNL A   1      48.108  31.329  27.211  1.00  0.00     0.135 A 
ATOM     41  C   UNL A   1      45.766  31.675  26.886  1.00  0.00     0.135 A 
ATOM     42  F   UNL A   1      49.168  30.582  27.558  1.00  0.00    -0.206 F 
ATOM     43  C   UNL A   1      48.355  32.662  26.877  1.00  0.00     0.059 A 
ATOM     44  C   UNL A   1      45.995  32.993  26.500  1.00  0.00     0.059 A 
ATOM     45  F   UNL A   1      44.478  31.322  26.975  1.00  0.00    -0.206 F 
ATOM     46  C   UNL A   1      47.288  33.489  26.533  1.00  0.00     0.060 A 
BRANCH  46  47
ATOM     47  S   UNL A   1      47.598  35.232  26.190  1.00  0.00     0.124 S 
ATOM     48  O   UNL A   1      48.310  35.160  24.919  1.00  0.00    -0.237 OA
ATOM     49  O   UNL A   1      46.244  35.773  26.134  1.00  0.00    -0.237 OA
ATOM     50  O   UNL A   1      48.393  35.665  27.334  1.00  0.00    -0.744 OA
ENDBRANCH  46  47
ENDBRANCH  25  39
BRANCH  26  51
ATOM     51  C   UNL A   1      38.556  28.992  29.238  1.00  0.00     0.058 A 
ATOM     52  C   UNL A   1      37.554  29.252  30.192  1.00  0.00     0.135 A 
ATOM     53  C   UNL A   1      38.336  29.529  27.953  1.00  0.00     0.135 A 
ATOM     54  F   UNL A   1      37.686  28.800  31.449  1.00  0.00    -0.206 F 
ATOM     55  C   UNL A   1      36.429  30.038  29.904  1.00  0.00     0.059 A 
ATOM     56  C   UNL A   1      37.221  30.307  27.641  1.00  0.00     0.059 A 
ATOM     57  F   UNL A   1      39.249  29.393  26.980  1.00  0.00    -0.206 F 
ATOM     58  C   UNL A   1      36.285  30.583  28.629  1.00  0.00     0.060 A 
BRANCH  58  59
ATOM     59  S   UNL A   1      34.937  31.746  28.301  1.00  0.00     0.124 S 
ATOM     60  O   UNL A   1      35.615  32.789  27.539  1.00  0.00    -0.237 OA
ATOM     61  O   UNL A   1      33.995  30.919  27.553  1.00  0.00    -0.237 OA
ATOM     62  O   UNL A   1      34.494  32.137  29.637  1.00  0.00    -0.744 OA
ENDBRANCH  58  59
ENDBRANCH  26  51
BRANCH  38  63
ATOM     63  C   UNL A   1      43.784  27.956  32.748  1.00  0.00     0.058 A 
ATOM     64  C   UNL A   1      43.732  26.558  32.600  1.00  0.00     0.135 A 
ATOM     65  C   UNL A   1      43.805  28.460  34.056  1.00  0.00     0.135 A 
ATOM     66  F   UNL A   1      43.810  25.989  31.390  1.00  0.00    -0.206 F 
ATOM     67  C   UNL A   1      43.670  25.703  33.703  1.00  0.00     0.059 A 
ATOM     68  C   UNL A   1      43.776  27.625  35.170  1.00  0.00     0.059 A 
ATOM     69  F   UNL A   1      43.918  29.782  34.266  1.00  0.00    -0.206 F 
ATOM     70  C   UNL A   1      43.699  26.247  34.987  1.00  0.00     0.060 A 
BRANCH  70  71
ATOM     71  S   UNL A   1      43.708  25.138  36.411  1.00  0.00     0.124 S 
ATOM     72  O   UNL A   1      43.522  26.063  37.525  1.00  0.00    -0.237 OA
ATOM     73  O   UNL A   1      42.583  24.252  36.129  1.00  0.00    -0.237 OA
ATOM     74  O   UNL A   1      45.022  24.501  36.342  1.00  0.00    -0.744 OA
ENDBRANCH  70  71
ENDBRANCH  38  63
ENDBRANCH  12  13
ENDBRANCH   5   7
ENDBRANCH   2   3
ENDBRANCH   1   2
BRANCH   1  75
ATOM     75  C   UNL A   1      40.959  20.913  27.199  1.00  0.00     0.002 C 
BRANCH  75  76
ATOM     76  C   UNL A   1      39.965  22.011  26.799  1.00  0.00     0.002 C 
BRANCH  76  77
ATOM     77  C   UNL A   1      38.701  21.535  26.078  1.00  0.00     0.021 C 
BRANCH  77  78
ATOM     78  C   UNL A   1      37.729  22.643  25.683  1.00  0.00     0.116 C 
BRANCH  78  79
ATOM     79  N   UNL A   1      37.496  22.681  24.251  1.00  0.00    -0.351 N 
ATOM     80  C   UNL A   1      36.365  23.075  23.563  1.00  0.00     0.273 C 
ATOM     81  H   UNL A   1      38.249  22.386  23.690  1.00  0.00     0.163 HD
ATOM     82  O   UNL A   1      36.329  22.926  22.349  1.00  0.00    -0.267 OA
BRANCH  80  83
ATOM     83  C   UNL A   1      35.241  23.627  24.328  1.00  0.00     0.167 A 
ATOM     84  N   UNL A   1      35.170  24.948  24.592  1.00  0.00    -0.160 NA
ATOM     85  C   UNL A   1      34.138  22.948  24.887  1.00  0.00     0.095 A 
ATOM     86  N   UNL A   1      34.014  25.106  25.277  1.00  0.00    -0.219 N 
ATOM     87  C   UNL A   1      33.317  23.906  25.425  1.00  0.00     0.170 A 
ATOM     88  Br  UNL A   1      33.842  21.096  24.888  1.00  0.00    -0.044 Br
ATOM     89  C   UNL A   1      33.508  26.289  25.802  1.00  0.00     0.132 A 
ATOM     90  N   UNL A   1      32.086  23.850  26.023  1.00  0.00    -0.235 NA
ATOM     91  C   UNL A   1      32.322  26.298  26.424  1.00  0.00     0.054 A 
ATOM     92  C   UNL A   1      31.625  24.977  26.478  1.00  0.00     0.131 A 
ATOM     93  Br  UNL A   1      31.529  27.784  27.184  1.00  0.00    -0.047 Br
ENDBRANCH  80  83
ENDBRANCH  78  79
ENDBRANCH  77  78
ENDBRANCH  76  77
ENDBRANCH  75  76
ENDBRANCH   1  75
TORSDOF 16
ENDMDL
MODEL 2
REMARK VINA RESULT:     -11.4      2.429      3.544
REMARK SMILES O=C(NCCCCCCNC(=O)c1nn2cc(Br)cnc2c1Br)c1ccc(-c2c3nc(c(-c4c(F)cc(S(=O)(=O)[O-])cc4F)c4ccc([nH]4)c(-c4c(F)cc(S(=O)(=O)[O-])cc4F)c4nc(c(-c5c(F)cc(S(=O)(=O)[O-])cc5F)c5ccc2[nH]5)C=C4)C=C3)cc1
REMARK SMILES IDX 5 1 4 2 3 3 1 4 2 5 24 7 25 8 89 9 26 10 88 11 27 12 28 13
REMARK SMILES IDX 29 14 82 15 30 16 87 17 81 18 83 19 31 20 86 21 80 22 79 23
REMARK SMILES IDX 32 25 66 26 45 27 65 28 46 29 49 30 64 31 84 32 47 33 48 34
REMARK SMILES IDX 63 36 85 37 50 38 33 39 34 40 43 41 35 42 36 43 42 44 44 45
REMARK SMILES IDX 37 46 38 47 39 48 40 49 41 50 67 51 68 52 77 53 69 54 70 55
REMARK SMILES IDX 76 56 78 57 71 58 72 59 73 60 74 61 75 62 51 63 52 64 61 65
REMARK SMILES IDX 53 66 54 67 60 68 62 69 55 70 56 71 57 72 58 73 59 74 6 75
REMARK SMILES IDX 7 76 8 77 9 78 10 79 11 80 12 82 13 83 14 84 22 85 15 86
REMARK SMILES IDX 21 87 23 88 16 89 20 90 17 91 19 92 18 93
REMARK H PARENT 3 6 83 24 49 35 10 81
REMARK Flexibility Score: inf
ROOT
ATOM      1  C   UNL A   1      39.943  22.128  26.209  1.00  0.00     0.021 C 
ENDROOT
BRANCH   1   2
ATOM      2  C   UNL A   1      41.370  21.587  26.274  1.00  0.00     0.116 C 
BRANCH   2   3
ATOM      3  N   UNL A   1      42.265  22.133  25.276  1.00  0.00    -0.352 N 
ATOM      4  O   UNL A   1      43.730  23.387  24.190  1.00  0.00    -0.269 OA
ATOM      5  C   UNL A   1      42.980  23.293  25.165  1.00  0.00     0.251 C 
ATOM      6  H   UNL A   1      42.387  21.535  24.505  1.00  0.00     0.163 HD
BRANCH   5   7
ATOM      7  C   UNL A   1      42.848  24.453  26.083  1.00  0.00     0.039 A 
ATOM      8  C   UNL A   1      43.501  24.599  27.307  1.00  0.00     0.014 A 
ATOM      9  C   UNL A   1      41.989  25.477  25.646  1.00  0.00     0.014 A 
ATOM     10  C   UNL A   1      43.214  25.686  28.131  1.00  0.00     0.010 A 
ATOM     11  C   UNL A   1      41.723  26.578  26.448  1.00  0.00     0.010 A 
ATOM     12  C   UNL A   1      42.302  26.658  27.712  1.00  0.00    -0.014 A 
BRANCH  12  13
ATOM     13  C   UNL A   1      42.088  27.830  28.559  1.00  0.00     0.031 A 
ATOM     14  C   UNL A   1      43.189  28.844  28.514  1.00  0.00     0.074 A 
ATOM     15  C   UNL A   1      40.917  28.066  29.188  1.00  0.00     0.049 A 
ATOM     16  N   UNL A   1      43.918  29.294  29.483  1.00  0.00    -0.248 NA
ATOM     17  C   UNL A   1      43.603  29.340  27.188  1.00  0.00     0.031 C 
ATOM     18  C   UNL A   1      39.661  27.318  29.079  1.00  0.00     0.029 A 
ATOM     19  N   UNL A   1      40.570  29.109  29.993  1.00  0.00    -0.354 N 
ATOM     20  C   UNL A   1      44.759  30.260  28.926  1.00  0.00     0.074 A 
ATOM     21  C   UNL A   1      44.616  30.149  27.499  1.00  0.00     0.031 C 
ATOM     22  C   UNL A   1      38.651  28.059  29.587  1.00  0.00     0.029 A 
ATOM     23  C   UNL A   1      39.200  29.267  30.179  1.00  0.00     0.049 A 
ATOM     24  H   UNL A   1      41.235  29.703  30.409  1.00  0.00     0.167 HD
ATOM     25  C   UNL A   1      45.390  31.206  29.678  1.00  0.00     0.037 A 
ATOM     26  C   UNL A   1      38.574  30.349  30.713  1.00  0.00     0.037 A 
ATOM     27  C   UNL A   1      45.386  30.867  31.074  1.00  0.00     0.049 A 
ATOM     28  C   UNL A   1      39.597  31.102  31.487  1.00  0.00     0.074 A 
ATOM     29  C   UNL A   1      45.948  29.858  31.828  1.00  0.00     0.029 A 
ATOM     30  N   UNL A   1      44.421  31.435  31.868  1.00  0.00    -0.354 N 
ATOM     31  N   UNL A   1      40.181  30.645  32.562  1.00  0.00    -0.248 NA
ATOM     32  C   UNL A   1      40.308  32.167  30.796  1.00  0.00     0.031 C 
ATOM     33  C   UNL A   1      44.971  29.552  32.818  1.00  0.00     0.029 A 
ATOM     34  C   UNL A   1      43.901  30.432  32.646  1.00  0.00     0.049 A 
ATOM     35  H   UNL A   1      44.154  32.383  31.877  1.00  0.00     0.167 HD
ATOM     36  C   UNL A   1      41.502  31.055  32.453  1.00  0.00     0.074 A 
ATOM     37  C   UNL A   1      41.505  32.043  31.376  1.00  0.00     0.031 C 
ATOM     38  C   UNL A   1      42.514  30.361  33.051  1.00  0.00     0.037 A 
BRANCH  25  39
ATOM     39  C   UNL A   1      45.753  32.587  29.192  1.00  0.00     0.058 A 
ATOM     40  C   UNL A   1      44.741  33.507  28.852  1.00  0.00     0.135 A 
ATOM     41  C   UNL A   1      47.061  32.938  28.792  1.00  0.00     0.135 A 
ATOM     42  F   UNL A   1      43.460  33.263  29.168  1.00  0.00    -0.206 F 
ATOM     43  C   UNL A   1      45.004  34.670  28.125  1.00  0.00     0.059 A 
ATOM     44  C   UNL A   1      47.352  34.116  28.110  1.00  0.00     0.059 A 
ATOM     45  F   UNL A   1      48.098  32.108  28.965  1.00  0.00    -0.206 F 
ATOM     46  C   UNL A   1      46.314  34.960  27.750  1.00  0.00     0.060 A 
BRANCH  46  47
ATOM     47  S   UNL A   1      46.639  36.413  26.734  1.00  0.00     0.124 S 
ATOM     48  O   UNL A   1      47.620  37.126  27.544  1.00  0.00    -0.237 OA
ATOM     49  O   UNL A   1      47.142  35.813  25.502  1.00  0.00    -0.237 OA
ATOM     50  O   UNL A   1      45.330  37.049  26.625  1.00  0.00    -0.744 OA
ENDBRANCH  46  47
ENDBRANCH  25  39
BRANCH  26  51
ATOM     51  C   UNL A   1      37.297  30.980  30.269  1.00  0.00     0.058 A 
ATOM     52  C   UNL A   1      36.381  31.511  31.197  1.00  0.00     0.135 A 
ATOM     53  C   UNL A   1      37.090  31.345  28.923  1.00  0.00     0.135 A 
ATOM     54  F   UNL A   1      36.511  31.238  32.504  1.00  0.00    -0.206 F 
ATOM     55  C   UNL A   1      35.356  32.390  30.820  1.00  0.00     0.059 A 
ATOM     56  C   UNL A   1      36.072  32.211  28.523  1.00  0.00     0.059 A 
ATOM     57  F   UNL A   1      37.933  30.945  27.959  1.00  0.00    -0.206 F 
ATOM     58  C   UNL A   1      35.226  32.754  29.481  1.00  0.00     0.060 A 
BRANCH  58  59
ATOM     59  S   UNL A   1      34.026  34.027  29.013  1.00  0.00     0.124 S 
ATOM     60  O   UNL A   1      33.400  34.339  30.293  1.00  0.00    -0.237 OA
ATOM     61  O   UNL A   1      34.884  35.065  28.452  1.00  0.00    -0.237 OA
ATOM     62  O   UNL A   1      33.167  33.344  28.048  1.00  0.00    -0.744 OA
ENDBRANCH  58  59
ENDBRANCH  26  51
BRANCH  38  63
ATOM     63  C   UNL A   1      42.157  29.280  34.039  1.00  0.00     0.058 A 
ATOM     64  C   UNL A   1      41.814  27.962  33.684  1.00  0.00     0.135 A 
ATOM     65  C   UNL A   1      42.343  29.545  35.404  1.00  0.00     0.135 A 
ATOM     66  F   UNL A   1      41.716  27.598  32.399  1.00  0.00    -0.206 F 
ATOM     67  C   UNL A   1      41.633  26.964  34.644  1.00  0.00     0.059 A 
ATOM     68  C   UNL A   1      42.200  28.558  36.375  1.00  0.00     0.059 A 
ATOM     69  F   UNL A   1      42.732  30.767  35.804  1.00  0.00    -0.206 F 
ATOM     70  C   UNL A   1      41.836  27.270  35.990  1.00  0.00     0.060 A 
BRANCH  70  71
ATOM     71  S   UNL A   1      41.689  25.959  37.222  1.00  0.00     0.124 S 
ATOM     72  O   UNL A   1      41.979  24.763  36.437  1.00  0.00    -0.237 OA
ATOM     73  O   UNL A   1      42.702  26.333  38.204  1.00  0.00    -0.237 OA
ATOM     74  O   UNL A   1      40.309  26.079  37.688  1.00  0.00    -0.744 OA
ENDBRANCH  70  71
ENDBRANCH  38  63
ENDBRANCH  12  13
ENDBRANCH   5   7
ENDBRANCH   2   3
ENDBRANCH   1   2
BRANCH   1  75
ATOM     75  C   UNL A   1      39.648  23.282  27.175  1.00  0.00     0.002 C 
BRANCH  75  76
ATOM     76  C   UNL A   1      38.450  24.169  26.816  1.00  0.00     0.002 C 
BRANCH  76  77
ATOM     77  C   UNL A   1      37.629  23.721  25.602  1.00  0.00     0.021 C 
BRANCH  77  78
ATOM     78  C   UNL A   1      36.408  22.866  25.930  1.00  0.00     0.116 C 
BRANCH  78  79
ATOM     79  N   UNL A   1      35.229  23.672  26.184  1.00  0.00    -0.351 N 
ATOM     80  C   UNL A   1      33.902  23.371  25.952  1.00  0.00     0.273 C 
ATOM     81  H   UNL A   1      35.397  24.559  26.578  1.00  0.00     0.163 HD
ATOM     82  O   UNL A   1      33.057  24.237  26.133  1.00  0.00    -0.267 OA
BRANCH  80  83
ATOM     83  C   UNL A   1      33.567  22.027  25.465  1.00  0.00     0.167 A 
ATOM     84  N   UNL A   1      33.597  20.966  26.297  1.00  0.00    -0.160 NA
ATOM     85  C   UNL A   1      33.199  21.629  24.163  1.00  0.00     0.095 A 
ATOM     86  N   UNL A   1      33.214  19.915  25.537  1.00  0.00    -0.219 N 
ATOM     87  C   UNL A   1      32.899  20.291  24.231  1.00  0.00     0.170 A 
ATOM     88  Br  UNL A   1      33.123  22.714  22.636  1.00  0.00    -0.044 Br
ATOM     89  C   UNL A   1      33.118  18.586  25.934  1.00  0.00     0.132 A 
ATOM     90  N   UNL A   1      32.417  19.397  23.312  1.00  0.00    -0.235 NA
ATOM     91  C   UNL A   1      32.681  17.656  25.075  1.00  0.00     0.054 A 
ATOM     92  C   UNL A   1      32.310  18.168  23.721  1.00  0.00     0.131 A 
ATOM     93  Br  UNL A   1      32.514  15.854  25.451  1.00  0.00    -0.047 Br
ENDBRANCH  80  83
ENDBRANCH  78  79
ENDBRANCH  77  78
ENDBRANCH  76  77
ENDBRANCH  75  76
ENDBRANCH   1  75
TORSDOF 16
ENDMDL
MODEL 3
REMARK VINA RESULT:     -11.3      2.056      2.754
REMARK SMILES O=C(NCCCCCCNC(=O)c1nn2cc(Br)cnc2c1Br)c1ccc(-c2c3nc(c(-c4c(F)cc(S(=O)(=O)[O-])cc4F)c4ccc([nH]4)c(-c4c(F)cc(S(=O)(=O)[O-])cc4F)c4nc(c(-c5c(F)cc(S(=O)(=O)[O-])cc5F)c5ccc2[nH]5)C=C4)C=C3)cc1
REMARK SMILES IDX 5 1 4 2 3 3 1 4 2 5 24 7 25 8 89 9 26 10 88 11 27 12 28 13
REMARK SMILES IDX 29 14 82 15 30 16 87 17 81 18 83 19 31 20 86 21 80 22 79 23
REMARK SMILES IDX 32 25 66 26 45 27 65 28 46 29 49 30 64 31 84 32 47 33 48 34
REMARK SMILES IDX 63 36 85 37 50 38 33 39 34 40 43 41 35 42 36 43 42 44 44 45
REMARK SMILES IDX 37 46 38 47 39 48 40 49 41 50 67 51 68 52 77 53 69 54 70 55
REMARK SMILES IDX 76 56 78 57 71 58 72 59 73 60 74 61 75 62 51 63 52 64 61 65
REMARK SMILES IDX 53 66 54 67 60 68 62 69 55 70 56 71 57 72 58 73 59 74 6 75
REMARK SMILES IDX 7 76 8 77 9 78 10 79 11 80 12 82 13 83 14 84 22 85 15 86
REMARK SMILES IDX 21 87 23 88 16 89 20 90 17 91 19 92 18 93
REMARK H PARENT 3 6 83 24 49 35 10 81
REMARK Flexibility Score: inf
ROOT
ATOM      1  C   UNL A   1      39.622  21.811  26.202  1.00  0.00     0.021 C 
ENDROOT
BRANCH   1   2
ATOM      2  C   UNL A   1      41.066  21.344  26.366  1.00  0.00     0.116 C 
BRANCH   2   3
ATOM      3  N   UNL A   1      41.979  21.852  25.363  1.00  0.00    -0.352 N 
ATOM      4  O   UNL A   1      43.480  23.051  24.264  1.00  0.00    -0.269 OA
ATOM      5  C   UNL A   1      42.725  22.990  25.238  1.00  0.00     0.251 C 
ATOM      6  H   UNL A   1      42.087  21.239  24.601  1.00  0.00     0.163 HD
BRANCH   5   7
ATOM      7  C   UNL A   1      42.621  24.166  26.139  1.00  0.00     0.039 A 
ATOM      8  C   UNL A   1      43.128  24.242  27.437  1.00  0.00     0.014 A 
ATOM      9  C   UNL A   1      41.956  25.283  25.604  1.00  0.00     0.014 A 
ATOM     10  C   UNL A   1      42.875  25.364  28.225  1.00  0.00     0.010 A 
ATOM     11  C   UNL A   1      41.728  26.416  26.373  1.00  0.00     0.010 A 
ATOM     12  C   UNL A   1      42.149  26.436  27.701  1.00  0.00    -0.014 A 
BRANCH  12  13
ATOM     13  C   UNL A   1      41.975  27.634  28.521  1.00  0.00     0.031 A 
ATOM     14  C   UNL A   1      43.097  28.622  28.431  1.00  0.00     0.074 A 
ATOM     15  C   UNL A   1      40.821  27.911  29.164  1.00  0.00     0.049 A 
ATOM     16  N   UNL A   1      43.852  29.079  29.377  1.00  0.00    -0.248 NA
ATOM     17  C   UNL A   1      43.498  29.074  27.087  1.00  0.00     0.031 C 
ATOM     18  C   UNL A   1      39.547  27.188  29.095  1.00  0.00     0.029 A 
ATOM     19  N   UNL A   1      40.511  28.981  29.948  1.00  0.00    -0.354 N 
ATOM     20  C   UNL A   1      44.704  30.012  28.782  1.00  0.00     0.074 A 
ATOM     21  C   UNL A   1      44.534  29.869  27.360  1.00  0.00     0.031 C 
ATOM     22  C   UNL A   1      38.562  27.964  29.601  1.00  0.00     0.029 A 
ATOM     23  C   UNL A   1      39.148  29.174  30.152  1.00  0.00     0.049 A 
ATOM     24  H   UNL A   1      41.196  29.571  30.337  1.00  0.00     0.167 HD
ATOM     25  C   UNL A   1      45.369  30.963  29.498  1.00  0.00     0.037 A 
ATOM     26  C   UNL A   1      38.555  30.282  30.670  1.00  0.00     0.037 A 
ATOM     27  C   UNL A   1      45.382  30.659  30.902  1.00  0.00     0.049 A 
ATOM     28  C   UNL A   1      39.607  31.031  31.408  1.00  0.00     0.074 A 
ATOM     29  C   UNL A   1      45.935  29.656  31.671  1.00  0.00     0.029 A 
ATOM     30  N   UNL A   1      44.443  31.268  31.698  1.00  0.00    -0.354 N 
ATOM     31  N   UNL A   1      40.200  30.589  32.484  1.00  0.00    -0.248 NA
ATOM     32  C   UNL A   1      40.329  32.063  30.677  1.00  0.00     0.031 C 
ATOM     33  C   UNL A   1      44.969  29.397  32.685  1.00  0.00     0.029 A 
ATOM     34  C   UNL A   1      43.915  30.296  32.510  1.00  0.00     0.049 A 
ATOM     35  H   UNL A   1      44.197  32.220  31.687  1.00  0.00     0.167 HD
ATOM     36  C   UNL A   1      41.528  30.967  32.341  1.00  0.00     0.074 A 
ATOM     37  C   UNL A   1      41.532  31.927  31.240  1.00  0.00     0.031 C 
ATOM     38  C   UNL A   1      42.535  30.265  32.939  1.00  0.00     0.037 A 
BRANCH  25  39
ATOM     39  C   UNL A   1      45.753  32.322  28.971  1.00  0.00     0.058 A 
ATOM     40  C   UNL A   1      44.764  33.195  28.475  1.00  0.00     0.135 A 
ATOM     41  C   UNL A   1      47.088  32.684  28.689  1.00  0.00     0.135 A 
ATOM     42  F   UNL A   1      43.462  32.936  28.670  1.00  0.00    -0.206 F 
ATOM     43  C   UNL A   1      45.078  34.321  27.711  1.00  0.00     0.059 A 
ATOM     44  C   UNL A   1      47.425  33.829  27.973  1.00  0.00     0.059 A 
ATOM     45  F   UNL A   1      48.117  31.893  29.017  1.00  0.00    -0.206 F 
ATOM     46  C   UNL A   1      46.414  34.623  27.457  1.00  0.00     0.060 A 
BRANCH  46  47
ATOM     47  S   UNL A   1      46.815  36.024  26.395  1.00  0.00     0.124 S 
ATOM     48  O   UNL A   1      46.648  35.445  25.067  1.00  0.00    -0.237 OA
ATOM     49  O   UNL A   1      45.810  37.003  26.797  1.00  0.00    -0.237 OA
ATOM     50  O   UNL A   1      48.186  36.352  26.773  1.00  0.00    -0.744 OA
ENDBRANCH  46  47
ENDBRANCH  25  39
BRANCH  26  51
ATOM     51  C   UNL A   1      37.284  30.931  30.231  1.00  0.00     0.058 A 
ATOM     52  C   UNL A   1      36.375  31.464  31.164  1.00  0.00     0.135 A 
ATOM     53  C   UNL A   1      37.080  31.307  28.889  1.00  0.00     0.135 A 
ATOM     54  F   UNL A   1      36.503  31.179  32.469  1.00  0.00    -0.206 F 
ATOM     55  C   UNL A   1      35.359  32.357  30.795  1.00  0.00     0.059 A 
ATOM     56  C   UNL A   1      36.071  32.188  28.496  1.00  0.00     0.059 A 
ATOM     57  F   UNL A   1      37.918  30.906  27.921  1.00  0.00    -0.206 F 
ATOM     58  C   UNL A   1      35.231  32.732  29.459  1.00  0.00     0.060 A 
BRANCH  58  59
ATOM     59  S   UNL A   1      34.045  34.021  29.001  1.00  0.00     0.124 S 
ATOM     60  O   UNL A   1      33.196  33.324  28.041  1.00  0.00    -0.237 OA
ATOM     61  O   UNL A   1      33.428  34.338  30.285  1.00  0.00    -0.237 OA
ATOM     62  O   UNL A   1      34.887  35.074  28.440  1.00  0.00    -0.744 OA
ENDBRANCH  58  59
ENDBRANCH  26  51
BRANCH  38  63
ATOM     63  C   UNL A   1      42.171  29.217  33.961  1.00  0.00     0.058 A 
ATOM     64  C   UNL A   1      41.857  27.882  33.650  1.00  0.00     0.135 A 
ATOM     65  C   UNL A   1      42.322  29.538  35.318  1.00  0.00     0.135 A 
ATOM     66  F   UNL A   1      41.794  27.467  32.377  1.00  0.00    -0.206 F 
ATOM     67  C   UNL A   1      41.670  26.918  34.643  1.00  0.00     0.059 A 
ATOM     68  C   UNL A   1      42.171  28.586  36.324  1.00  0.00     0.059 A 
ATOM     69  F   UNL A   1      42.683  30.780  35.679  1.00  0.00    -0.206 F 
ATOM     70  C   UNL A   1      41.836  27.279  35.980  1.00  0.00     0.060 A 
BRANCH  70  71
ATOM     71  S   UNL A   1      41.681  26.014  37.259  1.00  0.00     0.124 S 
ATOM     72  O   UNL A   1      41.941  24.787  36.513  1.00  0.00    -0.237 OA
ATOM     73  O   UNL A   1      42.712  26.404  38.216  1.00  0.00    -0.237 OA
ATOM     74  O   UNL A   1      40.309  26.175  37.736  1.00  0.00    -0.744 OA
ENDBRANCH  70  71
ENDBRANCH  38  63
ENDBRANCH  12  13
ENDBRANCH   5   7
ENDBRANCH   2   3
ENDBRANCH   1   2
BRANCH   1  75
ATOM     75  C   UNL A   1      39.318  23.185  26.810  1.00  0.00     0.002 C 
BRANCH  75  76
ATOM     76  C   UNL A   1      38.195  23.984  26.136  1.00  0.00     0.002 C 
BRANCH  76  77
ATOM     77  C   UNL A   1      36.829  23.295  26.076  1.00  0.00     0.021 C 
BRANCH  77  78
ATOM     78  C   UNL A   1      36.281  23.071  24.670  1.00  0.00     0.116 C 
BRANCH  78  79
ATOM     79  N   UNL A   1      35.698  21.751  24.514  1.00  0.00    -0.351 N 
ATOM     80  C   UNL A   1      34.381  21.360  24.650  1.00  0.00     0.273 C 
ATOM     81  H   UNL A   1      36.329  21.034  24.277  1.00  0.00     0.163 HD
ATOM     82  O   UNL A   1      34.108  20.168  24.587  1.00  0.00    -0.267 OA
BRANCH  80  83
ATOM     83  C   UNL A   1      33.369  22.393  24.897  1.00  0.00     0.167 A 
ATOM     84  N   UNL A   1      32.781  23.041  23.872  1.00  0.00    -0.160 NA
ATOM     85  C   UNL A   1      32.876  22.865  26.133  1.00  0.00     0.095 A 
ATOM     86  N   UNL A   1      31.899  23.887  24.452  1.00  0.00    -0.219 N 
ATOM     87  C   UNL A   1      31.881  23.764  25.842  1.00  0.00     0.170 A 
ATOM     88  Br  UNL A   1      33.458  22.358  27.842  1.00  0.00    -0.044 Br
ATOM     89  C   UNL A   1      31.069  24.798  23.810  1.00  0.00     0.132 A 
ATOM     90  N   UNL A   1      31.008  24.473  26.623  1.00  0.00    -0.235 NA
ATOM     91  C   UNL A   1      30.211  25.545  24.520  1.00  0.00     0.054 A 
ATOM     92  C   UNL A   1      30.224  25.297  25.993  1.00  0.00     0.131 A 
ATOM     93  Br  UNL A   1      29.060  26.806  23.813  1.00  0.00    -0.047 Br
ENDBRANCH  80  83
ENDBRANCH  78  79
ENDBRANCH  77  78
ENDBRANCH  76  77
ENDBRANCH  75  76
ENDBRANCH   1  75
TORSDOF 16
ENDMDL
