MODEL 1
REMARK VINA RESULT:     -11.1      0.000      0.000
REMARK SMILES C[C@H](NC1=[NH+]S(=O)(=O)c2ccccc21)C(=O)NCCCCCCNC(=O)c1ccc(-c2c3nc(c(-c4c(F)cc(S(=O)(=O)[O-])cc4F)c4ccc([nH]4)c(-c4c(F)cc(S(=O)(=O)[O-])cc4F)c4nc(c(-c5c(F)cc(S(=O)(=O)[O-])cc5F)c5ccc2[nH]5)C=C4)C=C3)cc1
REMARK SMILES IDX 21 1 20 2 19 3 18 4 17 5 15 6 16 7 2 9 1 10 3 11 4 12 5 14
REMARK SMILES IDX 14 15 6 16 9 18 13 19 7 20 8 21 10 22 12 23 11 24 22 25
REMARK SMILES IDX 23 26 24 27 25 28 26 30 27 31 28 32 92 33 29 34 91 35 30 36
REMARK SMILES IDX 31 37 32 38 85 39 33 40 90 41 84 42 86 43 34 44 89 45 83 46
REMARK SMILES IDX 82 47 35 49 69 50 48 51 68 52 49 53 52 54 67 55 87 56 50 57
REMARK SMILES IDX 51 58 66 60 88 61 53 62 36 63 37 64 46 65 38 66 39 67 45 68
REMARK SMILES IDX 47 69 40 70 41 71 42 72 43 73 44 74 70 75 71 76 80 77 72 78
REMARK SMILES IDX 73 79 79 80 81 81 74 82 75 83 76 84 77 85 78 86 54 87 55 88
REMARK SMILES IDX 64 89 56 90 57 91 63 92 65 93 58 94 59 95 60 96 61 97 62 98
REMARK H PARENT 17 8 3 13 5 17 24 29 86 48 52 59
REMARK Flexibility Score: inf
ROOT
ATOM      1  C   UNL A   1      34.473  33.616  28.004  1.00  0.00     0.002 C 
ENDROOT
BRANCH   1   2
ATOM      2  C   UNL A   1      33.426  34.461  28.737  1.00  0.00     0.002 C 
BRANCH   2   3
ATOM      3  C   UNL A   1      33.518  35.969  28.490  1.00  0.00     0.021 C 
BRANCH   3   4
ATOM      4  C   UNL A   1      33.386  36.827  29.747  1.00  0.00     0.116 C 
BRANCH   4   5
ATOM      5  N   UNL A   1      32.379  36.283  30.642  1.00  0.00    -0.352 N 
ATOM      6  C   UNL A   1      32.500  35.773  31.905  1.00  0.00     0.264 C 
ATOM      7  O   UNL A   1      31.485  35.324  32.442  1.00  0.00    -0.270 OA
ATOM      8  H   UNL A   1      31.462  36.281  30.281  1.00  0.00     0.163 HD
BRANCH   6   9
ATOM      9  C   UNL A   1      33.862  35.773  32.638  1.00  0.00     0.258 C 
ATOM     10  C   UNL A   1      34.316  37.220  32.839  1.00  0.00     0.069 C 
BRANCH   9  11
ATOM     11  N   UNL A   1      34.818  34.927  31.911  1.00  0.00    -0.262 N 
ATOM     12  C   UNL A   1      36.008  34.463  32.406  1.00  0.00     0.292 C 
ATOM     13  H   UNL A   1      34.584  34.672  30.990  1.00  0.00     0.306 HD
ATOM     14  N   UNL A   1      36.271  34.316  33.671  1.00  0.00    -0.162 N 
ATOM     15  C   UNL A   1      37.142  34.194  31.489  1.00  0.00     0.087 A 
ATOM     16  S   UNL A   1      37.842  33.900  33.904  1.00  0.00     0.329 S 
ATOM     17  H   UNL A   1      35.615  34.440  34.394  1.00  0.00     0.327 HD
ATOM     18  C   UNL A   1      38.285  33.955  32.225  1.00  0.00     0.124 A 
ATOM     19  C   UNL A   1      37.203  34.277  30.108  1.00  0.00     0.018 A 
ATOM     20  O   UNL A   1      37.937  32.523  34.329  1.00  0.00    -0.179 OA
ATOM     21  O   UNL A   1      38.541  34.980  34.571  1.00  0.00    -0.179 OA
ATOM     22  C   UNL A   1      39.541  33.861  31.661  1.00  0.00     0.025 A 
ATOM     23  C   UNL A   1      38.460  34.170  29.499  1.00  0.00     0.001 A 
ATOM     24  C   UNL A   1      39.621  33.981  30.272  1.00  0.00     0.002 A 
ENDBRANCH   9  11
ENDBRANCH   6   9
ENDBRANCH   4   5
ENDBRANCH   3   4
ENDBRANCH   2   3
ENDBRANCH   1   2
BRANCH   1  25
ATOM     25  C   UNL A   1      34.217  32.106  27.997  1.00  0.00     0.021 C 
BRANCH  25  26
ATOM     26  C   UNL A   1      35.336  31.255  28.591  1.00  0.00     0.116 C 
BRANCH  26  27
ATOM     27  N   UNL A   1      35.312  31.247  30.043  1.00  0.00    -0.352 N 
ATOM     28  C   UNL A   1      36.278  30.842  30.932  1.00  0.00     0.251 C 
ATOM     29  H   UNL A   1      34.481  31.579  30.451  1.00  0.00     0.163 HD
ATOM     30  O   UNL A   1      36.001  30.735  32.122  1.00  0.00    -0.269 OA
BRANCH  28  31
ATOM     31  C   UNL A   1      37.642  30.521  30.456  1.00  0.00     0.039 A 
ATOM     32  C   UNL A   1      38.637  30.241  31.397  1.00  0.00     0.014 A 
ATOM     33  C   UNL A   1      37.947  30.517  29.092  1.00  0.00     0.014 A 
ATOM     34  C   UNL A   1      39.923  29.904  30.968  1.00  0.00     0.010 A 
ATOM     35  C   UNL A   1      39.212  30.116  28.664  1.00  0.00     0.010 A 
ATOM     36  C   UNL A   1      40.214  29.809  29.597  1.00  0.00    -0.014 A 
BRANCH  36  37
ATOM     37  C   UNL A   1      41.559  29.392  29.124  1.00  0.00     0.031 A 
ATOM     38  C   UNL A   1      42.682  30.391  29.050  1.00  0.00     0.074 A 
ATOM     39  C   UNL A   1      41.753  28.126  28.704  1.00  0.00     0.049 A 
ATOM     40  N   UNL A   1      43.905  30.229  28.616  1.00  0.00    -0.248 NA
ATOM     41  C   UNL A   1      42.381  31.759  29.499  1.00  0.00     0.031 C 
ATOM     42  C   UNL A   1      40.734  27.075  28.686  1.00  0.00     0.029 A 
ATOM     43  N   UNL A   1      42.873  27.510  28.204  1.00  0.00    -0.354 N 
ATOM     44  C   UNL A   1      44.514  31.474  28.722  1.00  0.00     0.074 A 
ATOM     45  C   UNL A   1      43.510  32.391  29.215  1.00  0.00     0.031 C 
ATOM     46  C   UNL A   1      41.284  25.937  28.231  1.00  0.00     0.029 A 
ATOM     47  C   UNL A   1      42.681  26.185  27.889  1.00  0.00     0.049 A 
ATOM     48  H   UNL A   1      43.733  27.974  28.082  1.00  0.00     0.167 HD
ATOM     49  C   UNL A   1      45.797  31.817  28.451  1.00  0.00     0.037 A 
ATOM     50  C   UNL A   1      43.534  25.274  27.384  1.00  0.00     0.037 A 
ATOM     51  C   UNL A   1      46.799  30.891  27.989  1.00  0.00     0.049 A 
ATOM     52  C   UNL A   1      44.952  25.679  27.089  1.00  0.00     0.074 A 
ATOM     53  C   UNL A   1      48.144  31.125  27.754  1.00  0.00     0.029 A 
ATOM     54  N   UNL A   1      46.567  29.558  27.686  1.00  0.00    -0.354 N 
ATOM     55  N   UNL A   1      45.528  26.844  27.257  1.00  0.00    -0.248 NA
ATOM     56  C   UNL A   1      45.836  24.642  26.538  1.00  0.00     0.031 C 
ATOM     57  C   UNL A   1      48.714  29.942  27.270  1.00  0.00     0.029 A 
ATOM     58  C   UNL A   1      47.737  28.960  27.244  1.00  0.00     0.049 A 
ATOM     59  H   UNL A   1      45.699  29.102  27.773  1.00  0.00     0.167 HD
ATOM     60  C   UNL A   1      46.851  26.674  26.861  1.00  0.00     0.074 A 
ATOM     61  C   UNL A   1      46.990  25.291  26.451  1.00  0.00     0.031 C 
ATOM     62  C   UNL A   1      47.860  27.581  26.844  1.00  0.00     0.037 A 
BRANCH  49  63
ATOM     63  C   UNL A   1      46.184  33.258  28.643  1.00  0.00     0.058 A 
ATOM     64  C   UNL A   1      46.655  33.739  29.876  1.00  0.00     0.135 A 
ATOM     65  C   UNL A   1      46.087  34.170  27.580  1.00  0.00     0.135 A 
ATOM     66  F   UNL A   1      46.755  32.913  30.930  1.00  0.00    -0.206 F 
ATOM     67  C   UNL A   1      46.972  35.081  30.060  1.00  0.00     0.059 A 
ATOM     68  C   UNL A   1      46.427  35.511  27.734  1.00  0.00     0.059 A 
ATOM     69  F   UNL A   1      45.645  33.764  26.379  1.00  0.00    -0.206 F 
ATOM     70  C   UNL A   1      46.847  35.961  28.985  1.00  0.00     0.060 A 
BRANCH  70  71
ATOM     71  S   UNL A   1      47.232  37.706  29.246  1.00  0.00     0.124 S 
ATOM     72  O   UNL A   1      45.970  38.201  29.788  1.00  0.00    -0.237 OA
ATOM     73  O   UNL A   1      48.345  37.645  30.188  1.00  0.00    -0.237 OA
ATOM     74  O   UNL A   1      47.571  38.182  27.909  1.00  0.00    -0.744 OA
ENDBRANCH  70  71
ENDBRANCH  49  63
BRANCH  50  75
ATOM     75  C   UNL A   1      43.079  23.875  27.164  1.00  0.00     0.058 A 
ATOM     76  C   UNL A   1      42.693  23.443  25.888  1.00  0.00     0.135 A 
ATOM     77  C   UNL A   1      43.040  22.942  28.212  1.00  0.00     0.135 A 
ATOM     78  F   UNL A   1      42.707  24.301  24.857  1.00  0.00    -0.206 F 
ATOM     79  C   UNL A   1      42.276  22.137  25.656  1.00  0.00     0.059 A 
ATOM     80  C   UNL A   1      42.647  21.625  28.001  1.00  0.00     0.059 A 
ATOM     81  F   UNL A   1      43.415  23.305  29.448  1.00  0.00    -0.206 F 
ATOM     82  C   UNL A   1      42.260  21.233  26.720  1.00  0.00     0.060 A 
BRANCH  82  83
ATOM     83  S   UNL A   1      41.773  19.525  26.395  1.00  0.00     0.124 S 
ATOM     84  O   UNL A   1      40.333  19.661  26.207  1.00  0.00    -0.237 OA
ATOM     85  O   UNL A   1      42.546  19.208  25.198  1.00  0.00    -0.237 OA
ATOM     86  O   UNL A   1      42.190  18.822  27.605  1.00  0.00    -0.744 OA
ENDBRANCH  82  83
ENDBRANCH  50  75
BRANCH  62  87
ATOM     87  C   UNL A   1      49.212  27.098  26.397  1.00  0.00     0.058 A 
ATOM     88  C   UNL A   1      50.151  26.587  27.306  1.00  0.00     0.135 A 
ATOM     89  C   UNL A   1      49.555  27.109  25.034  1.00  0.00     0.135 A 
ATOM     90  F   UNL A   1      49.876  26.562  28.620  1.00  0.00    -0.206 F 
ATOM     91  C   UNL A   1      51.393  26.125  26.883  1.00  0.00     0.059 A 
ATOM     92  C   UNL A   1      50.781  26.628  24.588  1.00  0.00     0.059 A 
ATOM     93  F   UNL A   1      48.689  27.578  24.123  1.00  0.00    -0.206 F 
ATOM     94  C   UNL A   1      51.700  26.149  25.521  1.00  0.00     0.060 A 
BRANCH  94  95
ATOM     95  S   UNL A   1      53.301  25.517  24.981  1.00  0.00     0.124 S 
ATOM     96  O   UNL A   1      53.326  25.937  23.583  1.00  0.00    -0.237 OA
ATOM     97  O   UNL A   1      54.229  26.212  25.867  1.00  0.00    -0.237 OA
ATOM     98  O   UNL A   1      53.191  24.079  25.203  1.00  0.00    -0.744 OA
ENDBRANCH  94  95
ENDBRANCH  62  87
ENDBRANCH  36  37
ENDBRANCH  28  31
ENDBRANCH  26  27
ENDBRANCH  25  26
ENDBRANCH   1  25
TORSDOF 17
ENDMDL
MODEL 2
REMARK VINA RESULT:     -10.5      6.705     13.431
REMARK SMILES C[C@H](NC1=[NH+]S(=O)(=O)c2ccccc21)C(=O)NCCCCCCNC(=O)c1ccc(-c2c3nc(c(-c4c(F)cc(S(=O)(=O)[O-])cc4F)c4ccc([nH]4)c(-c4c(F)cc(S(=O)(=O)[O-])cc4F)c4nc(c(-c5c(F)cc(S(=O)(=O)[O-])cc5F)c5ccc2[nH]5)C=C4)C=C3)cc1
REMARK SMILES IDX 21 1 20 2 19 3 18 4 17 5 15 6 16 7 2 9 1 10 3 11 4 12 5 14
REMARK SMILES IDX 14 15 6 16 9 18 13 19 7 20 8 21 10 22 12 23 11 24 22 25
REMARK SMILES IDX 23 26 24 27 25 28 26 30 27 31 28 32 92 33 29 34 91 35 30 36
REMARK SMILES IDX 31 37 32 38 85 39 33 40 90 41 84 42 86 43 34 44 89 45 83 46
REMARK SMILES IDX 82 47 35 49 69 50 48 51 68 52 49 53 52 54 67 55 87 56 50 57
REMARK SMILES IDX 51 58 66 60 88 61 53 62 36 63 37 64 46 65 38 66 39 67 45 68
REMARK SMILES IDX 47 69 40 70 41 71 42 72 43 73 44 74 70 75 71 76 80 77 72 78
REMARK SMILES IDX 73 79 79 80 81 81 74 82 75 83 76 84 77 85 78 86 54 87 55 88
REMARK SMILES IDX 64 89 56 90 57 91 63 92 65 93 58 94 59 95 60 96 61 97 62 98
REMARK H PARENT 17 8 3 13 5 17 24 29 86 48 52 59
REMARK Flexibility Score: inf
ROOT
ATOM      1  C   UNL A   1      37.011  23.498  24.613  1.00  0.00     0.002 C 
ENDROOT
BRANCH   1   2
ATOM      2  C   UNL A   1      36.097  22.405  24.050  1.00  0.00     0.002 C 
BRANCH   2   3
ATOM      3  C   UNL A   1      35.988  21.143  24.909  1.00  0.00     0.021 C 
BRANCH   3   4
ATOM      4  C   UNL A   1      34.829  21.152  25.906  1.00  0.00     0.116 C 
BRANCH   4   5
ATOM      5  N   UNL A   1      33.934  20.033  25.669  1.00  0.00    -0.352 N 
ATOM      6  C   UNL A   1      32.689  20.001  25.104  1.00  0.00     0.264 C 
ATOM      7  O   UNL A   1      32.108  18.914  25.059  1.00  0.00    -0.270 OA
ATOM      8  H   UNL A   1      34.279  19.158  25.961  1.00  0.00     0.163 HD
BRANCH   6   9
ATOM      9  C   UNL A   1      32.040  21.282  24.528  1.00  0.00     0.258 C 
ATOM     10  C   UNL A   1      32.341  21.359  23.031  1.00  0.00     0.069 C 
BRANCH   9  11
ATOM     11  N   UNL A   1      32.478  22.451  25.301  1.00  0.00    -0.262 N 
ATOM     12  C   UNL A   1      31.782  23.624  25.436  1.00  0.00     0.292 C 
ATOM     13  H   UNL A   1      33.345  22.387  25.763  1.00  0.00     0.306 HD
ATOM     14  N   UNL A   1      30.494  23.734  25.294  1.00  0.00    -0.162 N 
ATOM     15  C   UNL A   1      32.507  24.898  25.656  1.00  0.00     0.087 A 
ATOM     16  S   UNL A   1      30.026  25.306  25.360  1.00  0.00     0.329 S 
ATOM     17  H   UNL A   1      29.881  22.975  25.162  1.00  0.00     0.327 HD
ATOM     18  C   UNL A   1      31.627  25.956  25.537  1.00  0.00     0.124 A 
ATOM     19  C   UNL A   1      33.861  25.130  25.821  1.00  0.00     0.018 A 
ATOM     20  O   UNL A   1      29.318  25.566  26.592  1.00  0.00    -0.179 OA
ATOM     21  O   UNL A   1      29.530  25.725  24.064  1.00  0.00    -0.179 OA
ATOM     22  C   UNL A   1      32.032  27.275  25.499  1.00  0.00     0.025 A 
ATOM     23  C   UNL A   1      34.307  26.458  25.803  1.00  0.00     0.001 A 
ATOM     24  C   UNL A   1      33.401  27.520  25.626  1.00  0.00     0.002 A 
ENDBRANCH   9  11
ENDBRANCH   6   9
ENDBRANCH   4   5
ENDBRANCH   3   4
ENDBRANCH   2   3
ENDBRANCH   1   2
BRANCH   1  25
ATOM     25  C   UNL A   1      37.658  23.187  25.966  1.00  0.00     0.021 C 
BRANCH  25  26
ATOM     26  C   UNL A   1      38.517  24.306  26.549  1.00  0.00     0.116 C 
BRANCH  26  27
ATOM     27  N   UNL A   1      39.869  24.297  26.020  1.00  0.00    -0.352 N 
ATOM     28  C   UNL A   1      40.940  25.096  26.341  1.00  0.00     0.251 C 
ATOM     29  H   UNL A   1      40.045  23.619  25.329  1.00  0.00     0.163 HD
ATOM     30  O   UNL A   1      41.953  25.059  25.649  1.00  0.00    -0.269 OA
BRANCH  28  31
ATOM     31  C   UNL A   1      40.868  26.007  27.504  1.00  0.00     0.039 A 
ATOM     32  C   UNL A   1      41.806  27.038  27.612  1.00  0.00     0.014 A 
ATOM     33  C   UNL A   1      39.898  25.836  28.496  1.00  0.00     0.014 A 
ATOM     34  C   UNL A   1      41.736  27.930  28.685  1.00  0.00     0.010 A 
ATOM     35  C   UNL A   1      39.789  26.765  29.530  1.00  0.00     0.010 A 
ATOM     36  C   UNL A   1      40.709  27.819  29.637  1.00  0.00    -0.014 A 
BRANCH  36  37
ATOM     37  C   UNL A   1      40.583  28.795  30.750  1.00  0.00     0.031 A 
ATOM     38  C   UNL A   1      41.474  28.689  31.958  1.00  0.00     0.074 A 
ATOM     39  C   UNL A   1      39.626  29.743  30.699  1.00  0.00     0.049 A 
ATOM     40  N   UNL A   1      41.479  29.412  33.048  1.00  0.00    -0.248 NA
ATOM     41  C   UNL A   1      42.473  27.609  31.951  1.00  0.00     0.031 C 
ATOM     42  C   UNL A   1      38.673  29.924  29.602  1.00  0.00     0.029 A 
ATOM     43  N   UNL A   1      39.292  30.727  31.594  1.00  0.00    -0.354 N 
ATOM     44  C   UNL A   1      42.465  28.867  33.862  1.00  0.00     0.074 A 
ATOM     45  C   UNL A   1      43.003  27.722  33.160  1.00  0.00     0.031 C 
ATOM     46  C   UNL A   1      37.884  30.976  29.875  1.00  0.00     0.029 A 
ATOM     47  C   UNL A   1      38.247  31.520  31.180  1.00  0.00     0.049 A 
ATOM     48  H   UNL A   1      39.756  30.854  32.453  1.00  0.00     0.167 HD
ATOM     49  C   UNL A   1      42.895  29.292  35.075  1.00  0.00     0.037 A 
ATOM     50  C   UNL A   1      37.651  32.567  31.782  1.00  0.00     0.037 A 
ATOM     51  C   UNL A   1      42.376  30.450  35.755  1.00  0.00     0.049 A 
ATOM     52  C   UNL A   1      38.145  33.019  33.128  1.00  0.00     0.074 A 
ATOM     53  C   UNL A   1      42.794  31.005  36.952  1.00  0.00     0.029 A 
ATOM     54  N   UNL A   1      41.322  31.230  35.301  1.00  0.00    -0.354 N 
ATOM     55  N   UNL A   1      39.123  32.532  33.854  1.00  0.00    -0.248 NA
ATOM     56  C   UNL A   1      37.456  34.166  33.736  1.00  0.00     0.031 C 
ATOM     57  C   UNL A   1      41.964  32.095  37.242  1.00  0.00     0.029 A 
ATOM     58  C   UNL A   1      41.059  32.246  36.205  1.00  0.00     0.049 A 
ATOM     59  H   UNL A   1      40.833  31.082  34.459  1.00  0.00     0.167 HD
ATOM     60  C   UNL A   1      39.186  33.332  34.991  1.00  0.00     0.074 A 
ATOM     61  C   UNL A   1      38.152  34.337  34.853  1.00  0.00     0.031 C 
ATOM     62  C   UNL A   1      40.028  33.242  36.051  1.00  0.00     0.037 A 
BRANCH  49  63
ATOM     63  C   UNL A   1      43.980  28.492  35.744  1.00  0.00     0.058 A 
ATOM     64  C   UNL A   1      43.686  27.423  36.607  1.00  0.00     0.135 A 
ATOM     65  C   UNL A   1      45.333  28.795  35.517  1.00  0.00     0.135 A 
ATOM     66  F   UNL A   1      42.410  27.099  36.869  1.00  0.00    -0.206 F 
ATOM     67  C   UNL A   1      44.691  26.713  37.255  1.00  0.00     0.059 A 
ATOM     68  C   UNL A   1      46.355  28.079  36.131  1.00  0.00     0.059 A 
ATOM     69  F   UNL A   1      45.671  29.805  34.699  1.00  0.00    -0.206 F 
ATOM     70  C   UNL A   1      46.023  27.054  37.017  1.00  0.00     0.060 A 
BRANCH  70  71
ATOM     71  S   UNL A   1      47.318  26.145  37.889  1.00  0.00     0.124 S 
ATOM     72  O   UNL A   1      48.217  25.801  36.791  1.00  0.00    -0.237 OA
ATOM     73  O   UNL A   1      47.820  27.140  38.831  1.00  0.00    -0.237 OA
ATOM     74  O   UNL A   1      46.600  25.024  38.488  1.00  0.00    -0.744 OA
ENDBRANCH  70  71
ENDBRANCH  49  63
BRANCH  50  75
ATOM     75  C   UNL A   1      36.547  33.287  31.094  1.00  0.00     0.058 A 
ATOM     76  C   UNL A   1      36.812  34.108  29.989  1.00  0.00     0.135 A 
ATOM     77  C   UNL A   1      35.213  33.155  31.508  1.00  0.00     0.135 A 
ATOM     78  F   UNL A   1      38.072  34.270  29.560  1.00  0.00    -0.206 F 
ATOM     79  C   UNL A   1      35.794  34.781  29.322  1.00  0.00     0.059 A 
ATOM     80  C   UNL A   1      34.176  33.801  30.844  1.00  0.00     0.059 A 
ATOM     81  F   UNL A   1      34.909  32.367  32.551  1.00  0.00    -0.206 F 
ATOM     82  C   UNL A   1      34.477  34.618  29.755  1.00  0.00     0.060 A 
BRANCH  82  83
ATOM     83  S   UNL A   1      33.159  35.450  28.845  1.00  0.00     0.124 S 
ATOM     84  O   UNL A   1      32.373  36.028  29.928  1.00  0.00    -0.237 OA
ATOM     85  O   UNL A   1      33.904  36.397  28.021  1.00  0.00    -0.237 OA
ATOM     86  O   UNL A   1      32.520  34.362  28.110  1.00  0.00    -0.744 OA
ENDBRANCH  82  83
ENDBRANCH  50  75
BRANCH  62  87
ATOM     87  C   UNL A   1      39.889  34.280  37.130  1.00  0.00     0.058 A 
ATOM     88  C   UNL A   1      40.572  35.504  37.071  1.00  0.00     0.135 A 
ATOM     89  C   UNL A   1      39.025  34.062  38.217  1.00  0.00     0.135 A 
ATOM     90  F   UNL A   1      41.416  35.758  36.058  1.00  0.00    -0.206 F 
ATOM     91  C   UNL A   1      40.425  36.467  38.064  1.00  0.00     0.059 A 
ATOM     92  C   UNL A   1      38.843  35.021  39.207  1.00  0.00     0.059 A 
ATOM     93  F   UNL A   1      38.341  32.912  38.316  1.00  0.00    -0.206 F 
ATOM     94  C   UNL A   1      39.557  36.216  39.129  1.00  0.00     0.060 A 
BRANCH  94  95
ATOM     95  S   UNL A   1      39.347  37.486  40.395  1.00  0.00     0.124 S 
ATOM     96  O   UNL A   1      39.186  36.677  41.598  1.00  0.00    -0.237 OA
ATOM     97  O   UNL A   1      40.595  38.235  40.298  1.00  0.00    -0.237 OA
ATOM     98  O   UNL A   1      38.156  38.207  39.958  1.00  0.00    -0.744 OA
ENDBRANCH  94  95
ENDBRANCH  62  87
ENDBRANCH  36  37
ENDBRANCH  28  31
ENDBRANCH  26  27
ENDBRANCH  25  26
ENDBRANCH   1  25
TORSDOF 17
ENDMDL
MODEL 3
REMARK VINA RESULT:     -10.5      6.713     13.391
REMARK SMILES C[C@H](NC1=[NH+]S(=O)(=O)c2ccccc21)C(=O)NCCCCCCNC(=O)c1ccc(-c2c3nc(c(-c4c(F)cc(S(=O)(=O)[O-])cc4F)c4ccc([nH]4)c(-c4c(F)cc(S(=O)(=O)[O-])cc4F)c4nc(c(-c5c(F)cc(S(=O)(=O)[O-])cc5F)c5ccc2[nH]5)C=C4)C=C3)cc1
REMARK SMILES IDX 21 1 20 2 19 3 18 4 17 5 15 6 16 7 2 9 1 10 3 11 4 12 5 14
REMARK SMILES IDX 14 15 6 16 9 18 13 19 7 20 8 21 10 22 12 23 11 24 22 25
REMARK SMILES IDX 23 26 24 27 25 28 26 30 27 31 28 32 92 33 29 34 91 35 30 36
REMARK SMILES IDX 31 37 32 38 85 39 33 40 90 41 84 42 86 43 34 44 89 45 83 46
REMARK SMILES IDX 82 47 35 49 69 50 48 51 68 52 49 53 52 54 67 55 87 56 50 57
REMARK SMILES IDX 51 58 66 60 88 61 53 62 36 63 37 64 46 65 38 66 39 67 45 68
REMARK SMILES IDX 47 69 40 70 41 71 42 72 43 73 44 74 70 75 71 76 80 77 72 78
REMARK SMILES IDX 73 79 79 80 81 81 74 82 75 83 76 84 77 85 78 86 54 87 55 88
REMARK SMILES IDX 64 89 56 90 57 91 63 92 65 93 58 94 59 95 60 96 61 97 62 98
REMARK H PARENT 17 8 3 13 5 17 24 29 86 48 52 59
REMARK Flexibility Score: inf
ROOT
ATOM      1  C   UNL A   1      36.092  23.651  25.794  1.00  0.00     0.002 C 
ENDROOT
BRANCH   1   2
ATOM      2  C   UNL A   1      35.539  22.260  26.122  1.00  0.00     0.002 C 
BRANCH   2   3
ATOM      3  C   UNL A   1      35.372  21.326  24.921  1.00  0.00     0.021 C 
BRANCH   3   4
ATOM      4  C   UNL A   1      34.206  21.681  23.999  1.00  0.00     0.116 C 
BRANCH   4   5
ATOM      5  N   UNL A   1      32.945  21.233  24.564  1.00  0.00    -0.352 N 
ATOM      6  C   UNL A   1      32.003  21.919  25.281  1.00  0.00     0.264 C 
ATOM      7  O   UNL A   1      31.027  21.289  25.693  1.00  0.00    -0.270 OA
ATOM      8  H   UNL A   1      32.735  20.284  24.405  1.00  0.00     0.163 HD
BRANCH   6   9
ATOM      9  C   UNL A   1      32.154  23.434  25.551  1.00  0.00     0.258 C 
ATOM     10  C   UNL A   1      31.865  23.704  27.029  1.00  0.00     0.069 C 
BRANCH   9  11
ATOM     11  N   UNL A   1      31.313  24.193  24.615  1.00  0.00    -0.262 N 
ATOM     12  C   UNL A   1      31.751  25.172  23.763  1.00  0.00     0.292 C 
ATOM     13  H   UNL A   1      30.352  23.979  24.599  1.00  0.00     0.306 HD
ATOM     14  N   UNL A   1      32.973  25.277  23.332  1.00  0.00    -0.162 N 
ATOM     15  C   UNL A   1      30.839  26.268  23.358  1.00  0.00     0.087 A 
ATOM     16  S   UNL A   1      33.177  26.658  22.467  1.00  0.00     0.329 S 
ATOM     17  H   UNL A   1      33.684  24.617  23.504  1.00  0.00     0.327 HD
ATOM     18  C   UNL A   1      31.556  27.241  22.690  1.00  0.00     0.124 A 
ATOM     19  C   UNL A   1      29.503  26.466  23.659  1.00  0.00     0.018 A 
ATOM     20  O   UNL A   1      33.335  26.350  21.065  1.00  0.00    -0.179 OA
ATOM     21  O   UNL A   1      34.062  27.557  23.180  1.00  0.00    -0.179 OA
ATOM     22  C   UNL A   1      31.028  28.471  22.354  1.00  0.00     0.025 A 
ATOM     23  C   UNL A   1      28.929  27.698  23.319  1.00  0.00     0.001 A 
ATOM     24  C   UNL A   1      29.691  28.699  22.688  1.00  0.00     0.002 A 
ENDBRANCH   9  11
ENDBRANCH   6   9
ENDBRANCH   4   5
ENDBRANCH   3   4
ENDBRANCH   2   3
ENDBRANCH   1   2
BRANCH   1  25
ATOM     25  C   UNL A   1      37.575  23.701  25.418  1.00  0.00     0.021 C 
BRANCH  25  26
ATOM     26  C   UNL A   1      38.519  24.103  26.547  1.00  0.00     0.116 C 
BRANCH  26  27
ATOM     27  N   UNL A   1      39.915  24.022  26.155  1.00  0.00    -0.352 N 
ATOM     28  C   UNL A   1      40.968  24.838  26.492  1.00  0.00     0.251 C 
ATOM     29  H   UNL A   1      40.141  23.272  25.559  1.00  0.00     0.163 HD
ATOM     30  O   UNL A   1      42.041  24.716  25.909  1.00  0.00    -0.269 OA
BRANCH  28  31
ATOM     31  C   UNL A   1      40.806  25.869  27.541  1.00  0.00     0.039 A 
ATOM     32  C   UNL A   1      39.812  25.695  28.509  1.00  0.00     0.014 A 
ATOM     33  C   UNL A   1      41.611  27.012  27.560  1.00  0.00     0.014 A 
ATOM     34  C   UNL A   1      39.664  26.640  29.527  1.00  0.00     0.010 A 
ATOM     35  C   UNL A   1      41.505  27.919  28.613  1.00  0.00     0.010 A 
ATOM     36  C   UNL A   1      40.528  27.745  29.605  1.00  0.00    -0.014 A 
BRANCH  36  37
ATOM     37  C   UNL A   1      40.423  28.727  30.716  1.00  0.00     0.031 A 
ATOM     38  C   UNL A   1      41.318  28.610  31.919  1.00  0.00     0.074 A 
ATOM     39  C   UNL A   1      39.480  29.688  30.667  1.00  0.00     0.049 A 
ATOM     40  N   UNL A   1      41.340  29.335  33.007  1.00  0.00    -0.248 NA
ATOM     41  C   UNL A   1      42.301  27.515  31.909  1.00  0.00     0.031 C 
ATOM     42  C   UNL A   1      38.523  29.881  29.575  1.00  0.00     0.029 A 
ATOM     43  N   UNL A   1      39.164  30.680  31.562  1.00  0.00    -0.354 N 
ATOM     44  C   UNL A   1      42.322  28.778  33.817  1.00  0.00     0.074 A 
ATOM     45  C   UNL A   1      42.839  27.623  33.115  1.00  0.00     0.031 C 
ATOM     46  C   UNL A   1      37.751  30.945  29.849  1.00  0.00     0.029 A 
ATOM     47  C   UNL A   1      38.129  31.487  31.151  1.00  0.00     0.049 A 
ATOM     48  H   UNL A   1      39.635  30.801  32.418  1.00  0.00     0.167 HD
ATOM     49  C   UNL A   1      42.765  29.199  35.026  1.00  0.00     0.037 A 
ATOM     50  C   UNL A   1      37.553  32.544  31.753  1.00  0.00     0.037 A 
ATOM     51  C   UNL A   1      42.267  30.367  35.706  1.00  0.00     0.049 A 
ATOM     52  C   UNL A   1      38.060  32.992  33.096  1.00  0.00     0.074 A 
ATOM     53  C   UNL A   1      42.699  30.919  36.900  1.00  0.00     0.029 A 
ATOM     54  N   UNL A   1      41.222  31.161  35.256  1.00  0.00    -0.354 N 
ATOM     55  N   UNL A   1      39.034  32.492  33.818  1.00  0.00    -0.248 NA
ATOM     56  C   UNL A   1      37.392  34.151  33.705  1.00  0.00     0.031 C 
ATOM     57  C   UNL A   1      41.888  32.021  37.191  1.00  0.00     0.029 A 
ATOM     58  C   UNL A   1      40.979  32.184  36.159  1.00  0.00     0.049 A 
ATOM     59  H   UNL A   1      40.726  31.018  34.417  1.00  0.00     0.167 HD
ATOM     60  C   UNL A   1      39.116  33.294  34.952  1.00  0.00     0.074 A 
ATOM     61  C   UNL A   1      38.096  34.314  34.817  1.00  0.00     0.031 C 
ATOM     62  C   UNL A   1      39.962  33.195  36.007  1.00  0.00     0.037 A 
BRANCH  49  63
ATOM     63  C   UNL A   1      43.841  28.385  35.692  1.00  0.00     0.058 A 
ATOM     64  C   UNL A   1      45.204  28.610  35.437  1.00  0.00     0.135 A 
ATOM     65  C   UNL A   1      43.506  27.368  36.601  1.00  0.00     0.135 A 
ATOM     66  F   UNL A   1      45.580  29.561  34.567  1.00  0.00    -0.206 F 
ATOM     67  C   UNL A   1      46.193  27.828  36.023  1.00  0.00     0.059 A 
ATOM     68  C   UNL A   1      44.481  26.592  37.221  1.00  0.00     0.059 A 
ATOM     69  F   UNL A   1      42.219  27.111  36.883  1.00  0.00    -0.206 F 
ATOM     70  C   UNL A   1      45.821  26.816  36.908  1.00  0.00     0.060 A 
BRANCH  70  71
ATOM     71  S   UNL A   1      47.113  25.787  37.638  1.00  0.00     0.124 S 
ATOM     72  O   UNL A   1      48.260  26.688  37.591  1.00  0.00    -0.237 OA
ATOM     73  O   UNL A   1      46.580  25.508  38.968  1.00  0.00    -0.237 OA
ATOM     74  O   UNL A   1      47.180  24.638  36.739  1.00  0.00    -0.744 OA
ENDBRANCH  70  71
ENDBRANCH  49  63
BRANCH  50  75
ATOM     75  C   UNL A   1      36.456  33.278  31.069  1.00  0.00     0.058 A 
ATOM     76  C   UNL A   1      36.731  34.118  29.980  1.00  0.00     0.135 A 
ATOM     77  C   UNL A   1      35.118  33.142  31.471  1.00  0.00     0.135 A 
ATOM     78  F   UNL A   1      37.995  34.284  29.565  1.00  0.00    -0.206 F 
ATOM     79  C   UNL A   1      35.720  34.805  29.317  1.00  0.00     0.059 A 
ATOM     80  C   UNL A   1      34.087  33.803  30.810  1.00  0.00     0.059 A 
ATOM     81  F   UNL A   1      34.804  32.338  32.498  1.00  0.00    -0.206 F 
ATOM     82  C   UNL A   1      34.399  34.638  29.738  1.00  0.00     0.060 A 
BRANCH  82  83
ATOM     83  S   UNL A   1      33.090  35.489  28.832  1.00  0.00     0.124 S 
ATOM     84  O   UNL A   1      32.305  36.062  29.919  1.00  0.00    -0.237 OA
ATOM     85  O   UNL A   1      33.845  36.438  28.020  1.00  0.00    -0.237 OA
ATOM     86  O   UNL A   1      32.446  34.413  28.085  1.00  0.00    -0.744 OA
ENDBRANCH  82  83
ENDBRANCH  50  75
BRANCH  62  87
ATOM     87  C   UNL A   1      39.844  34.237  37.085  1.00  0.00     0.058 A 
ATOM     88  C   UNL A   1      40.544  35.452  37.018  1.00  0.00     0.135 A 
ATOM     89  C   UNL A   1      38.985  34.033  38.178  1.00  0.00     0.135 A 
ATOM     90  F   UNL A   1      41.383  35.692  35.998  1.00  0.00    -0.206 F 
ATOM     91  C   UNL A   1      40.416  36.419  38.009  1.00  0.00     0.059 A 
ATOM     92  C   UNL A   1      38.822  34.998  39.167  1.00  0.00     0.059 A 
ATOM     93  F   UNL A   1      38.286  32.893  38.285  1.00  0.00    -0.206 F 
ATOM     94  C   UNL A   1      39.552  36.183  39.080  1.00  0.00     0.060 A 
BRANCH  94  95
ATOM     95  S   UNL A   1      39.368  37.459  40.344  1.00  0.00     0.124 S 
ATOM     96  O   UNL A   1      38.999  36.664  41.512  1.00  0.00    -0.237 OA
ATOM     97  O   UNL A   1      40.697  38.058  40.381  1.00  0.00    -0.237 OA
ATOM     98  O   UNL A   1      38.315  38.316  39.809  1.00  0.00    -0.744 OA
ENDBRANCH  94  95
ENDBRANCH  62  87
ENDBRANCH  36  37
ENDBRANCH  28  31
ENDBRANCH  26  27
ENDBRANCH  25  26
ENDBRANCH   1  25
TORSDOF 17
ENDMDL
