MODEL 1
REMARK VINA RESULT:     -12.1      0.000      0.000
REMARK SMILES O=C(/C=C/c1ccc(O)cc1)NC[C@@H]1CC[C@H](C(=O)NCCCCCCNC(=O)c2ccc(-c3c4nc(c(-c5c(F)cc(S(=O)(=O)[O-])cc5F)c5ccc([nH]5)c(-c5c(F)cc(S(=O)(=O)[O-])cc5F)c5nc(c(-c6c(F)cc(S(=O)(=O)[O-])cc6F)c6ccc3[nH]6)C=C5)C=C4)cc2)O1
REMARK SMILES IDX 22 1 21 2 20 3 18 4 19 5 17 7 14 8 15 9 96 10 16 11 13 12
REMARK SMILES IDX 12 13 1 14 2 15 3 17 4 18 5 19 6 20 11 21 7 22 10 23 8 24
REMARK SMILES IDX 9 25 23 27 24 28 25 29 26 30 27 31 28 32 29 34 30 35 31 36
REMARK SMILES IDX 95 37 32 38 94 39 33 40 34 41 35 42 88 43 36 44 93 45 87 46
REMARK SMILES IDX 89 47 37 48 92 49 86 50 85 51 38 53 72 54 51 55 71 56 52 57
REMARK SMILES IDX 55 58 70 59 90 60 53 61 54 62 69 64 91 65 56 66 39 67 40 68
REMARK SMILES IDX 49 69 41 70 42 71 48 72 50 73 43 74 44 75 45 76 46 77 47 78
REMARK SMILES IDX 73 79 74 80 83 81 75 82 76 83 82 84 84 85 77 86 78 87 79 88
REMARK SMILES IDX 80 89 81 90 57 91 58 92 67 93 59 94 60 95 66 96 68 97 61 98
REMARK SMILES IDX 62 99 63 100 64 101 65 102
REMARK H PARENT 20 6 12 16 9 26 27 33 89 52 55 63
REMARK Flexibility Score: inf
ROOT
ATOM      1  C   UNL A   1      37.526  20.537  24.802  1.00  0.00     0.021 C 
ENDROOT
BRANCH   1   2
ATOM      2  C   UNL A   1      36.472  21.463  25.410  1.00  0.00     0.116 C 
BRANCH   2   3
ATOM      3  N   UNL A   1      35.222  20.764  25.633  1.00  0.00    -0.354 N 
ATOM      4  C   UNL A   1      34.009  20.926  25.030  1.00  0.00     0.249 C 
ATOM      5  O   UNL A   1      33.079  20.212  25.421  1.00  0.00    -0.272 OA
ATOM      6  H   UNL A   1      35.253  20.064  26.323  1.00  0.00     0.163 HD
BRANCH   4   7
ATOM      7  C   UNL A   1      33.768  21.997  23.940  1.00  0.00     0.207 C 
ATOM      8  C   UNL A   1      32.727  24.089  23.805  1.00  0.00     0.138 C 
ATOM      9  C   UNL A   1      31.661  23.053  23.478  1.00  0.00     0.037 C 
ATOM     10  O   UNL A   1      33.829  23.355  24.375  1.00  0.00    -0.363 OA
ATOM     11  C   UNL A   1      32.461  21.805  23.186  1.00  0.00     0.045 C 
BRANCH   8  12
ATOM     12  C   UNL A   1      32.324  25.222  24.770  1.00  0.00     0.148 C 
BRANCH  12  13
ATOM     13  N   UNL A   1      31.822  26.427  24.130  1.00  0.00    -0.350 N 
ATOM     14  O   UNL A   1      31.385  27.526  26.088  1.00  0.00    -0.270 OA
ATOM     15  C   UNL A   1      31.388  27.501  24.867  1.00  0.00     0.244 C 
ATOM     16  H   UNL A   1      31.791  26.474  23.147  1.00  0.00     0.163 HD
BRANCH  15  17
ATOM     17  C   UNL A   1      30.868  28.680  24.120  1.00  0.00     0.072 C 
ATOM     18  C   UNL A   1      29.649  28.811  23.581  1.00  0.00     0.014 C 
BRANCH  18  19
ATOM     19  C   UNL A   1      29.164  30.034  22.920  1.00  0.00    -0.025 A 
ATOM     20  C   UNL A   1      28.831  30.094  21.559  1.00  0.00     0.012 A 
ATOM     21  C   UNL A   1      28.974  31.177  23.713  1.00  0.00     0.012 A 
ATOM     22  C   UNL A   1      28.327  31.275  20.998  1.00  0.00     0.047 A 
ATOM     23  C   UNL A   1      28.475  32.354  23.154  1.00  0.00     0.047 A 
ATOM     24  C   UNL A   1      28.153  32.394  21.804  1.00  0.00     0.115 A 
BRANCH  24  25
ATOM     25  O   UNL A   1      27.655  33.562  21.312  1.00  0.00    -0.508 OA
ATOM     26  H   UNL A   1      27.570  33.682  20.387  1.00  0.00     0.293 HD
ENDBRANCH  24  25
ENDBRANCH  18  19
ENDBRANCH  15  17
ENDBRANCH  12  13
ENDBRANCH   8  12
ENDBRANCH   4   7
ENDBRANCH   2   3
ENDBRANCH   1   2
BRANCH   1  27
ATOM     27  C   UNL A   1      38.828  20.471  25.608  1.00  0.00     0.002 C 
BRANCH  27  28
ATOM     28  C   UNL A   1      39.336  21.817  26.141  1.00  0.00     0.002 C 
BRANCH  28  29
ATOM     29  C   UNL A   1      40.472  21.735  27.163  1.00  0.00     0.021 C 
BRANCH  29  30
ATOM     30  C   UNL A   1      41.108  23.071  27.532  1.00  0.00     0.116 C 
BRANCH  30  31
ATOM     31  N   UNL A   1      41.554  23.796  26.352  1.00  0.00    -0.352 N 
ATOM     32  C   UNL A   1      41.581  25.146  26.112  1.00  0.00     0.251 C 
ATOM     33  H   UNL A   1      41.887  23.233  25.617  1.00  0.00     0.163 HD
ATOM     34  O   UNL A   1      41.771  25.554  24.968  1.00  0.00    -0.269 OA
BRANCH  32  35
ATOM     35  C   UNL A   1      41.376  26.110  27.215  1.00  0.00     0.039 A 
ATOM     36  C   UNL A   1      40.168  26.076  27.921  1.00  0.00     0.014 A 
ATOM     37  C   UNL A   1      42.343  27.070  27.531  1.00  0.00     0.014 A 
ATOM     38  C   UNL A   1      39.953  26.973  28.969  1.00  0.00     0.010 A 
ATOM     39  C   UNL A   1      42.154  27.919  28.619  1.00  0.00     0.010 A 
ATOM     40  C   UNL A   1      40.954  27.885  29.344  1.00  0.00    -0.014 A 
BRANCH  40  41
ATOM     41  C   UNL A   1      40.754  28.799  30.497  1.00  0.00     0.031 A 
ATOM     42  C   UNL A   1      41.587  28.656  31.740  1.00  0.00     0.074 A 
ATOM     43  C   UNL A   1      39.783  29.729  30.442  1.00  0.00     0.049 A 
ATOM     44  N   UNL A   1      41.536  29.349  32.850  1.00  0.00    -0.248 NA
ATOM     45  C   UNL A   1      42.582  27.573  31.752  1.00  0.00     0.031 C 
ATOM     46  C   UNL A   1      38.866  29.922  29.317  1.00  0.00     0.029 A 
ATOM     47  N   UNL A   1      39.401  30.682  31.352  1.00  0.00    -0.354 N 
ATOM     48  C   UNL A   1      42.491  28.788  33.690  1.00  0.00     0.074 A 
ATOM     49  C   UNL A   1      43.055  27.656  32.987  1.00  0.00     0.031 C 
ATOM     50  C   UNL A   1      38.043  30.945  29.594  1.00  0.00     0.029 A 
ATOM     51  C   UNL A   1      38.354  31.462  30.924  1.00  0.00     0.049 A 
ATOM     52  H   UNL A   1      39.835  30.795  32.228  1.00  0.00     0.167 HD
ATOM     53  C   UNL A   1      42.882  29.196  34.922  1.00  0.00     0.037 A 
ATOM     54  C   UNL A   1      37.716  32.481  31.531  1.00  0.00     0.037 A 
ATOM     55  C   UNL A   1      42.333  30.338  35.607  1.00  0.00     0.049 A 
ATOM     56  C   UNL A   1      38.177  32.934  32.887  1.00  0.00     0.074 A 
ATOM     57  C   UNL A   1      42.704  30.870  36.830  1.00  0.00     0.029 A 
ATOM     58  N   UNL A   1      41.295  31.126  35.129  1.00  0.00    -0.354 N 
ATOM     59  N   UNL A   1      39.129  32.436  33.639  1.00  0.00    -0.248 NA
ATOM     60  C   UNL A   1      37.486  34.090  33.471  1.00  0.00     0.031 C 
ATOM     61  C   UNL A   1      41.856  31.948  37.114  1.00  0.00     0.029 A 
ATOM     62  C   UNL A   1      40.988  32.117  36.048  1.00  0.00     0.049 A 
ATOM     63  H   UNL A   1      40.844  31.000  34.264  1.00  0.00     0.167 HD
ATOM     64  C   UNL A   1      39.159  33.224  34.784  1.00  0.00     0.074 A 
ATOM     65  C   UNL A   1      38.142  34.243  34.615  1.00  0.00     0.031 C 
ATOM     66  C   UNL A   1      39.957  33.113  35.876  1.00  0.00     0.037 A 
BRANCH  53  67
ATOM     67  C   UNL A   1      43.945  28.380  35.609  1.00  0.00     0.058 A 
ATOM     68  C   UNL A   1      45.314  28.619  35.397  1.00  0.00     0.135 A 
ATOM     69  C   UNL A   1      43.592  27.337  36.479  1.00  0.00     0.135 A 
ATOM     70  F   UNL A   1      45.708  29.598  34.567  1.00  0.00    -0.206 F 
ATOM     71  C   UNL A   1      46.291  27.817  35.978  1.00  0.00     0.059 A 
ATOM     72  C   UNL A   1      44.553  26.541  37.095  1.00  0.00     0.059 A 
ATOM     73  F   UNL A   1      42.299  27.069  36.723  1.00  0.00    -0.206 F 
ATOM     74  C   UNL A   1      45.899  26.773  36.817  1.00  0.00     0.060 A 
BRANCH  74  75
ATOM     75  S   UNL A   1      47.175  25.711  37.529  1.00  0.00     0.124 S 
ATOM     76  O   UNL A   1      47.399  24.762  36.443  1.00  0.00    -0.237 OA
ATOM     77  O   UNL A   1      48.262  26.651  37.782  1.00  0.00    -0.237 OA
ATOM     78  O   UNL A   1      46.534  25.163  38.720  1.00  0.00    -0.744 OA
ENDBRANCH  74  75
ENDBRANCH  53  67
BRANCH  54  79
ATOM     79  C   UNL A   1      36.591  33.150  30.828  1.00  0.00     0.058 A 
ATOM     80  C   UNL A   1      35.266  32.971  31.248  1.00  0.00     0.135 A 
ATOM     81  C   UNL A   1      36.830  34.043  29.773  1.00  0.00     0.135 A 
ATOM     82  F   UNL A   1      34.988  32.121  32.248  1.00  0.00    -0.206 F 
ATOM     83  C   UNL A   1      34.215  33.662  30.653  1.00  0.00     0.059 A 
ATOM     84  C   UNL A   1      35.800  34.762  29.176  1.00  0.00     0.059 A 
ATOM     85  F   UNL A   1      38.085  34.260  29.347  1.00  0.00    -0.206 F 
ATOM     86  C   UNL A   1      34.494  34.564  29.625  1.00  0.00     0.060 A 
BRANCH  86  87
ATOM     87  S   UNL A   1      33.137  35.533  28.930  1.00  0.00     0.124 S 
ATOM     88  O   UNL A   1      33.859  36.565  28.196  1.00  0.00    -0.237 OA
ATOM     89  O   UNL A   1      32.436  34.541  28.120  1.00  0.00    -0.237 OA
ATOM     90  O   UNL A   1      32.412  35.989  30.113  1.00  0.00    -0.744 OA
ENDBRANCH  86  87
ENDBRANCH  54  79
BRANCH  66  91
ATOM     91  C   UNL A   1      39.754  34.115  36.979  1.00  0.00     0.058 A 
ATOM     92  C   UNL A   1      40.274  35.416  36.892  1.00  0.00     0.135 A 
ATOM     93  C   UNL A   1      39.002  33.784  38.118  1.00  0.00     0.135 A 
ATOM     94  F   UNL A   1      41.004  35.782  35.825  1.00  0.00    -0.206 F 
ATOM     95  C   UNL A   1      40.080  36.346  37.908  1.00  0.00     0.059 A 
ATOM     96  C   UNL A   1      38.775  34.706  39.135  1.00  0.00     0.059 A 
ATOM     97  F   UNL A   1      38.475  32.557  38.246  1.00  0.00    -0.206 F 
ATOM     98  C   UNL A   1      39.330  35.980  39.027  1.00  0.00     0.060 A 
BRANCH  98  99
ATOM     99  S   UNL A   1      39.069  37.201  40.332  1.00  0.00     0.124 S 
ATOM    100  O   UNL A   1      40.428  37.400  40.822  1.00  0.00    -0.237 OA
ATOM    101  O   UNL A   1      38.488  38.323  39.601  1.00  0.00    -0.237 OA
ATOM    102  O   UNL A   1      38.160  36.524  41.253  1.00  0.00    -0.744 OA
ENDBRANCH  98  99
ENDBRANCH  66  91
ENDBRANCH  40  41
ENDBRANCH  32  35
ENDBRANCH  30  31
ENDBRANCH  29  30
ENDBRANCH  28  29
ENDBRANCH  27  28
ENDBRANCH   1  27
TORSDOF 21
ENDMDL
MODEL 2
REMARK VINA RESULT:     -11.6      2.040      8.401
REMARK SMILES O=C(/C=C/c1ccc(O)cc1)NC[C@@H]1CC[C@H](C(=O)NCCCCCCNC(=O)c2ccc(-c3c4nc(c(-c5c(F)cc(S(=O)(=O)[O-])cc5F)c5ccc([nH]5)c(-c5c(F)cc(S(=O)(=O)[O-])cc5F)c5nc(c(-c6c(F)cc(S(=O)(=O)[O-])cc6F)c6ccc3[nH]6)C=C5)C=C4)cc2)O1
REMARK SMILES IDX 22 1 21 2 20 3 18 4 19 5 17 7 14 8 15 9 96 10 16 11 13 12
REMARK SMILES IDX 12 13 1 14 2 15 3 17 4 18 5 19 6 20 11 21 7 22 10 23 8 24
REMARK SMILES IDX 9 25 23 27 24 28 25 29 26 30 27 31 28 32 29 34 30 35 31 36
REMARK SMILES IDX 95 37 32 38 94 39 33 40 34 41 35 42 88 43 36 44 93 45 87 46
REMARK SMILES IDX 89 47 37 48 92 49 86 50 85 51 38 53 72 54 51 55 71 56 52 57
REMARK SMILES IDX 55 58 70 59 90 60 53 61 54 62 69 64 91 65 56 66 39 67 40 68
REMARK SMILES IDX 49 69 41 70 42 71 48 72 50 73 43 74 44 75 45 76 46 77 47 78
REMARK SMILES IDX 73 79 74 80 83 81 75 82 76 83 82 84 84 85 77 86 78 87 79 88
REMARK SMILES IDX 80 89 81 90 57 91 58 92 67 93 59 94 60 95 66 96 68 97 61 98
REMARK SMILES IDX 62 99 63 100 64 101 65 102
REMARK H PARENT 20 6 12 16 9 26 27 33 89 52 55 63
REMARK Flexibility Score: inf
ROOT
ATOM      1  C   UNL A   1      38.318  19.855  25.356  1.00  0.00     0.021 C 
ENDROOT
BRANCH   1   2
ATOM      2  C   UNL A   1      37.937  21.314  25.106  1.00  0.00     0.116 C 
BRANCH   2   3
ATOM      3  N   UNL A   1      36.905  21.753  26.024  1.00  0.00    -0.354 N 
ATOM      4  C   UNL A   1      35.547  21.675  25.917  1.00  0.00     0.249 C 
ATOM      5  O   UNL A   1      34.875  22.152  26.838  1.00  0.00    -0.272 OA
ATOM      6  H   UNL A   1      37.233  22.171  26.851  1.00  0.00     0.163 HD
BRANCH   4   7
ATOM      7  C   UNL A   1      34.852  21.074  24.672  1.00  0.00     0.207 C 
ATOM      8  C   UNL A   1      32.849  21.408  23.508  1.00  0.00     0.138 C 
ATOM      9  C   UNL A   1      32.562  20.360  24.574  1.00  0.00     0.037 C 
ATOM     10  O   UNL A   1      34.119  21.991  23.862  1.00  0.00    -0.363 OA
ATOM     11  C   UNL A   1      33.937  19.903  25.001  1.00  0.00     0.045 C 
BRANCH   8  12
ATOM     12  C   UNL A   1      31.809  22.532  23.338  1.00  0.00     0.148 C 
BRANCH  12  13
ATOM     13  N   UNL A   1      32.244  23.847  23.780  1.00  0.00    -0.350 N 
ATOM     14  O   UNL A   1      30.666  24.036  25.426  1.00  0.00    -0.270 OA
ATOM     15  C   UNL A   1      31.618  24.497  24.815  1.00  0.00     0.244 C 
ATOM     16  H   UNL A   1      33.003  24.280  23.328  1.00  0.00     0.163 HD
BRANCH  15  17
ATOM     17  C   UNL A   1      32.122  25.850  25.178  1.00  0.00     0.072 C 
ATOM     18  C   UNL A   1      31.979  26.466  26.360  1.00  0.00     0.014 C 
BRANCH  18  19
ATOM     19  C   UNL A   1      32.568  27.775  26.686  1.00  0.00    -0.025 A 
ATOM     20  C   UNL A   1      33.946  28.034  26.638  1.00  0.00     0.012 A 
ATOM     21  C   UNL A   1      31.694  28.826  27.004  1.00  0.00     0.012 A 
ATOM     22  C   UNL A   1      34.442  29.316  26.911  1.00  0.00     0.047 A 
ATOM     23  C   UNL A   1      32.188  30.102  27.278  1.00  0.00     0.047 A 
ATOM     24  C   UNL A   1      33.555  30.338  27.227  1.00  0.00     0.115 A 
BRANCH  24  25
ATOM     25  O   UNL A   1      33.984  31.604  27.489  1.00  0.00    -0.508 OA
ATOM     26  H   UNL A   1      33.986  32.248  26.809  1.00  0.00     0.293 HD
ENDBRANCH  24  25
ENDBRANCH  18  19
ENDBRANCH  15  17
ENDBRANCH  12  13
ENDBRANCH   8  12
ENDBRANCH   4   7
ENDBRANCH   2   3
ENDBRANCH   1   2
BRANCH   1  27
ATOM     27  C   UNL A   1      39.740  19.672  25.898  1.00  0.00     0.002 C 
BRANCH  27  28
ATOM     28  C   UNL A   1      40.567  20.959  26.012  1.00  0.00     0.002 C 
BRANCH  28  29
ATOM     29  C   UNL A   1      40.689  21.543  27.422  1.00  0.00     0.021 C 
BRANCH  29  30
ATOM     30  C   UNL A   1      40.335  23.021  27.543  1.00  0.00     0.116 C 
BRANCH  30  31
ATOM     31  N   UNL A   1      40.867  23.792  26.430  1.00  0.00    -0.352 N 
ATOM     32  C   UNL A   1      41.041  25.147  26.308  1.00  0.00     0.251 C 
ATOM     33  H   UNL A   1      41.144  23.262  25.649  1.00  0.00     0.163 HD
ATOM     34  O   UNL A   1      41.284  25.630  25.204  1.00  0.00    -0.269 OA
BRANCH  32  35
ATOM     35  C   UNL A   1      40.930  26.029  27.491  1.00  0.00     0.039 A 
ATOM     36  C   UNL A   1      41.927  26.986  27.710  1.00  0.00     0.014 A 
ATOM     37  C   UNL A   1      39.880  25.892  28.404  1.00  0.00     0.014 A 
ATOM     38  C   UNL A   1      41.843  27.832  28.818  1.00  0.00     0.010 A 
ATOM     39  C   UNL A   1      39.762  26.781  29.470  1.00  0.00     0.010 A 
ATOM     40  C   UNL A   1      40.747  27.754  29.693  1.00  0.00    -0.014 A 
BRANCH  40  41
ATOM     41  C   UNL A   1      40.621  28.693  30.836  1.00  0.00     0.031 A 
ATOM     42  C   UNL A   1      39.581  29.778  30.825  1.00  0.00     0.074 A 
ATOM     43  C   UNL A   1      41.482  28.598  31.866  1.00  0.00     0.049 A 
ATOM     44  N   UNL A   1      39.341  30.699  31.724  1.00  0.00    -0.248 NA
ATOM     45  C   UNL A   1      38.720  29.861  29.635  1.00  0.00     0.031 C 
ATOM     46  C   UNL A   1      42.576  27.630  31.961  1.00  0.00     0.029 A 
ATOM     47  N   UNL A   1      41.577  29.326  33.025  1.00  0.00    -0.354 N 
ATOM     48  C   UNL A   1      38.304  31.468  31.211  1.00  0.00     0.074 A 
ATOM     49  C   UNL A   1      38.009  30.948  29.893  1.00  0.00     0.031 C 
ATOM     50  C   UNL A   1      43.218  27.809  33.126  1.00  0.00     0.029 A 
ATOM     51  C   UNL A   1      42.601  28.918  33.847  1.00  0.00     0.049 A 
ATOM     52  H   UNL A   1      40.972  30.069  33.247  1.00  0.00     0.167 HD
ATOM     53  C   UNL A   1      37.640  32.496  31.795  1.00  0.00     0.037 A 
ATOM     54  C   UNL A   1      42.999  29.383  35.047  1.00  0.00     0.037 A 
ATOM     55  C   UNL A   1      37.922  32.992  33.117  1.00  0.00     0.049 A 
ATOM     56  C   UNL A   1      42.237  30.507  35.689  1.00  0.00     0.074 A 
ATOM     57  C   UNL A   1      37.266  33.987  33.822  1.00  0.00     0.029 A 
ATOM     58  N   UNL A   1      38.946  32.534  33.935  1.00  0.00    -0.354 N 
ATOM     59  N   UNL A   1      41.213  31.180  35.219  1.00  0.00    -0.248 NA
ATOM     60  C   UNL A   1      42.676  30.930  37.024  1.00  0.00     0.031 C 
ATOM     61  C   UNL A   1      37.925  34.164  35.046  1.00  0.00     0.029 A 
ATOM     62  C   UNL A   1      38.963  33.249  35.122  1.00  0.00     0.049 A 
ATOM     63  H   UNL A   1      39.568  31.808  33.705  1.00  0.00     0.167 HD
ATOM     64  C   UNL A   1      40.878  32.099  36.206  1.00  0.00     0.074 A 
ATOM     65  C   UNL A   1      41.797  31.882  37.306  1.00  0.00     0.031 C 
ATOM     66  C   UNL A   1      39.898  33.038  36.201  1.00  0.00     0.037 A 
BRANCH  53  67
ATOM     67  C   UNL A   1      36.554  33.157  30.989  1.00  0.00     0.058 A 
ATOM     68  C   UNL A   1      36.846  34.056  29.948  1.00  0.00     0.135 A 
ATOM     69  C   UNL A   1      35.203  32.901  31.269  1.00  0.00     0.135 A 
ATOM     70  F   UNL A   1      38.122  34.345  29.644  1.00  0.00    -0.206 F 
ATOM     71  C   UNL A   1      35.839  34.718  29.254  1.00  0.00     0.059 A 
ATOM     72  C   UNL A   1      34.178  33.529  30.567  1.00  0.00     0.059 A 
ATOM     73  F   UNL A   1      34.866  32.047  32.248  1.00  0.00    -0.206 F 
ATOM     74  C   UNL A   1      34.508  34.456  29.579  1.00  0.00     0.060 A 
BRANCH  74  75
ATOM     75  S   UNL A   1      33.210  35.356  28.702  1.00  0.00     0.124 S 
ATOM     76  O   UNL A   1      33.997  36.268  27.879  1.00  0.00    -0.237 OA
ATOM     77  O   UNL A   1      32.520  34.290  27.982  1.00  0.00    -0.237 OA
ATOM     78  O   UNL A   1      32.444  35.979  29.776  1.00  0.00    -0.744 OA
ENDBRANCH  74  75
ENDBRANCH  53  67
BRANCH  54  79
ATOM     79  C   UNL A   1      44.164  28.750  35.716  1.00  0.00     0.058 A 
ATOM     80  C   UNL A   1      45.465  29.229  35.512  1.00  0.00     0.135 A 
ATOM     81  C   UNL A   1      43.986  27.705  36.635  1.00  0.00     0.135 A 
ATOM     82  F   UNL A   1      45.685  30.223  34.638  1.00  0.00    -0.206 F 
ATOM     83  C   UNL A   1      46.551  28.700  36.203  1.00  0.00     0.059 A 
ATOM     84  C   UNL A   1      45.052  27.174  37.354  1.00  0.00     0.059 A 
ATOM     85  F   UNL A   1      42.755  27.224  36.877  1.00  0.00    -0.206 F 
ATOM     86  C   UNL A   1      46.332  27.681  37.131  1.00  0.00     0.060 A 
BRANCH  86  87
ATOM     87  S   UNL A   1      47.732  27.073  38.098  1.00  0.00     0.124 S 
ATOM     88  O   UNL A   1      47.164  27.030  39.440  1.00  0.00    -0.237 OA
ATOM     89  O   UNL A   1      47.998  25.781  37.473  1.00  0.00    -0.237 OA
ATOM     90  O   UNL A   1      48.757  28.090  37.877  1.00  0.00    -0.744 OA
ENDBRANCH  86  87
ENDBRANCH  54  79
BRANCH  66  91
ATOM     91  C   UNL A   1      39.776  33.909  37.421  1.00  0.00     0.058 A 
ATOM     92  C   UNL A   1      38.945  33.555  38.495  1.00  0.00     0.135 A 
ATOM     93  C   UNL A   1      40.526  35.091  37.534  1.00  0.00     0.135 A 
ATOM     94  F   UNL A   1      38.204  32.437  38.434  1.00  0.00    -0.206 F 
ATOM     95  C   UNL A   1      38.838  34.357  39.626  1.00  0.00     0.059 A 
ATOM     96  C   UNL A   1      40.453  35.896  38.666  1.00  0.00     0.059 A 
ATOM     97  F   UNL A   1      41.344  35.471  36.540  1.00  0.00    -0.206 F 
ATOM     98  C   UNL A   1      39.595  35.527  39.702  1.00  0.00     0.060 A 
BRANCH  98  99
ATOM     99  S   UNL A   1      39.462  36.551  41.184  1.00  0.00     0.124 S 
ATOM    100  O   UNL A   1      40.863  36.700  41.562  1.00  0.00    -0.237 OA
ATOM    101  O   UNL A   1      38.810  37.754  40.677  1.00  0.00    -0.237 OA
ATOM    102  O   UNL A   1      38.651  35.737  42.085  1.00  0.00    -0.744 OA
ENDBRANCH  98  99
ENDBRANCH  66  91
ENDBRANCH  40  41
ENDBRANCH  32  35
ENDBRANCH  30  31
ENDBRANCH  29  30
ENDBRANCH  28  29
ENDBRANCH  27  28
ENDBRANCH   1  27
TORSDOF 21
ENDMDL
MODEL 3
REMARK VINA RESULT:     -11.5      6.292     12.846
REMARK SMILES O=C(/C=C/c1ccc(O)cc1)NC[C@@H]1CC[C@H](C(=O)NCCCCCCNC(=O)c2ccc(-c3c4nc(c(-c5c(F)cc(S(=O)(=O)[O-])cc5F)c5ccc([nH]5)c(-c5c(F)cc(S(=O)(=O)[O-])cc5F)c5nc(c(-c6c(F)cc(S(=O)(=O)[O-])cc6F)c6ccc3[nH]6)C=C5)C=C4)cc2)O1
REMARK SMILES IDX 22 1 21 2 20 3 18 4 19 5 17 7 14 8 15 9 96 10 16 11 13 12
REMARK SMILES IDX 12 13 1 14 2 15 3 17 4 18 5 19 6 20 11 21 7 22 10 23 8 24
REMARK SMILES IDX 9 25 23 27 24 28 25 29 26 30 27 31 28 32 29 34 30 35 31 36
REMARK SMILES IDX 95 37 32 38 94 39 33 40 34 41 35 42 88 43 36 44 93 45 87 46
REMARK SMILES IDX 89 47 37 48 92 49 86 50 85 51 38 53 72 54 51 55 71 56 52 57
REMARK SMILES IDX 55 58 70 59 90 60 53 61 54 62 69 64 91 65 56 66 39 67 40 68
REMARK SMILES IDX 49 69 41 70 42 71 48 72 50 73 43 74 44 75 45 76 46 77 47 78
REMARK SMILES IDX 73 79 74 80 83 81 75 82 76 83 82 84 84 85 77 86 78 87 79 88
REMARK SMILES IDX 80 89 81 90 57 91 58 92 67 93 59 94 60 95 66 96 68 97 61 98
REMARK SMILES IDX 62 99 63 100 64 101 65 102
REMARK H PARENT 20 6 12 16 9 26 27 33 89 52 55 63
REMARK Flexibility Score: inf
ROOT
ATOM      1  C   UNL A   1      32.886  36.301  29.533  1.00  0.00     0.021 C 
ENDROOT
BRANCH   1   2
ATOM      2  C   UNL A   1      33.285  36.350  31.008  1.00  0.00     0.116 C 
BRANCH   2   3
ATOM      3  N   UNL A   1      33.076  35.069  31.653  1.00  0.00    -0.354 N 
ATOM      4  C   UNL A   1      33.801  34.452  32.629  1.00  0.00     0.249 C 
ATOM      5  O   UNL A   1      33.424  33.334  32.999  1.00  0.00    -0.272 OA
ATOM      6  H   UNL A   1      32.290  34.568  31.338  1.00  0.00     0.163 HD
BRANCH   4   7
ATOM      7  C   UNL A   1      35.083  35.081  33.224  1.00  0.00     0.207 C 
ATOM      8  C   UNL A   1      37.339  34.490  33.424  1.00  0.00     0.138 C 
ATOM      9  C   UNL A   1      36.639  33.954  34.664  1.00  0.00     0.037 C 
ATOM     10  O   UNL A   1      36.290  34.842  32.500  1.00  0.00    -0.363 OA
ATOM     11  C   UNL A   1      35.324  34.697  34.677  1.00  0.00     0.045 C 
BRANCH   8  12
ATOM     12  C   UNL A   1      38.332  33.544  32.719  1.00  0.00     0.148 C 
BRANCH  12  13
ATOM     13  N   UNL A   1      39.232  34.187  31.776  1.00  0.00    -0.350 N 
ATOM     14  O   UNL A   1      38.806  32.727  30.066  1.00  0.00    -0.270 OA
ATOM     15  C   UNL A   1      39.390  33.709  30.498  1.00  0.00     0.244 C 
ATOM     16  H   UNL A   1      39.739  34.982  32.059  1.00  0.00     0.163 HD
BRANCH  15  17
ATOM     17  C   UNL A   1      40.352  34.422  29.614  1.00  0.00     0.072 C 
ATOM     18  C   UNL A   1      41.541  34.928  29.969  1.00  0.00     0.014 C 
BRANCH  18  19
ATOM     19  C   UNL A   1      42.486  35.555  29.030  1.00  0.00    -0.025 A 
ATOM     20  C   UNL A   1      42.819  34.999  27.785  1.00  0.00     0.012 A 
ATOM     21  C   UNL A   1      43.031  36.799  29.382  1.00  0.00     0.012 A 
ATOM     22  C   UNL A   1      43.688  35.670  26.914  1.00  0.00     0.047 A 
ATOM     23  C   UNL A   1      43.898  37.466  28.515  1.00  0.00     0.047 A 
ATOM     24  C   UNL A   1      44.217  36.899  27.289  1.00  0.00     0.115 A 
BRANCH  24  25
ATOM     25  O   UNL A   1      45.056  37.598  26.473  1.00  0.00    -0.508 OA
ATOM     26  H   UNL A   1      45.174  38.518  26.601  1.00  0.00     0.293 HD
ENDBRANCH  24  25
ENDBRANCH  18  19
ENDBRANCH  15  17
ENDBRANCH  12  13
ENDBRANCH   8  12
ENDBRANCH   4   7
ENDBRANCH   2   3
ENDBRANCH   1   2
BRANCH   1  27
ATOM     27  C   UNL A   1      33.204  34.965  28.851  1.00  0.00     0.002 C 
BRANCH  27  28
ATOM     28  C   UNL A   1      34.685  34.735  28.521  1.00  0.00     0.002 C 
BRANCH  28  29
ATOM     29  C   UNL A   1      35.350  33.565  29.249  1.00  0.00     0.021 C 
BRANCH  29  30
ATOM     30  C   UNL A   1      35.958  32.501  28.342  1.00  0.00     0.116 C 
BRANCH  30  31
ATOM     31  N   UNL A   1      35.160  31.285  28.334  1.00  0.00    -0.352 N 
ATOM     32  C   UNL A   1      35.556  29.980  28.183  1.00  0.00     0.251 C 
ATOM     33  H   UNL A   1      34.193  31.418  28.453  1.00  0.00     0.163 HD
ATOM     34  O   UNL A   1      34.712  29.112  27.967  1.00  0.00    -0.269 OA
BRANCH  32  35
ATOM     35  C   UNL A   1      36.986  29.612  28.274  1.00  0.00     0.039 A 
ATOM     36  C   UNL A   1      37.782  29.725  27.129  1.00  0.00     0.014 A 
ATOM     37  C   UNL A   1      37.536  29.120  29.461  1.00  0.00     0.014 A 
ATOM     38  C   UNL A   1      39.135  29.388  27.190  1.00  0.00     0.010 A 
ATOM     39  C   UNL A   1      38.901  28.849  29.538  1.00  0.00     0.010 A 
ATOM     40  C   UNL A   1      39.712  28.972  28.401  1.00  0.00    -0.014 A 
BRANCH  40  41
ATOM     41  C   UNL A   1      41.164  28.672  28.487  1.00  0.00     0.031 A 
ATOM     42  C   UNL A   1      41.687  27.307  28.140  1.00  0.00     0.074 A 
ATOM     43  C   UNL A   1      42.009  29.623  28.928  1.00  0.00     0.049 A 
ATOM     44  N   UNL A   1      42.916  26.861  28.177  1.00  0.00    -0.248 NA
ATOM     45  C   UNL A   1      40.694  26.301  27.731  1.00  0.00     0.031 C 
ATOM     46  C   UNL A   1      41.614  30.966  29.357  1.00  0.00     0.029 A 
ATOM     47  N   UNL A   1      43.371  29.605  29.093  1.00  0.00    -0.354 N 
ATOM     48  C   UNL A   1      42.847  25.526  27.795  1.00  0.00     0.074 A 
ATOM     49  C   UNL A   1      41.446  25.218  27.600  1.00  0.00     0.031 C 
ATOM     50  C   UNL A   1      42.711  31.651  29.715  1.00  0.00     0.029 A 
ATOM     51  C   UNL A   1      43.882  30.790  29.568  1.00  0.00     0.049 A 
ATOM     52  H   UNL A   1      43.928  28.820  28.892  1.00  0.00     0.167 HD
ATOM     53  C   UNL A   1      43.859  24.646  27.600  1.00  0.00     0.037 A 
ATOM     54  C   UNL A   1      45.149  31.146  29.850  1.00  0.00     0.037 A 
ATOM     55  C   UNL A   1      45.253  24.966  27.773  1.00  0.00     0.049 A 
ATOM     56  C   UNL A   1      46.260  30.165  29.606  1.00  0.00     0.074 A 
ATOM     57  C   UNL A   1      46.357  24.162  27.540  1.00  0.00     0.029 A 
ATOM     58  N   UNL A   1      45.737  26.186  28.223  1.00  0.00    -0.354 N 
ATOM     59  N   UNL A   1      46.184  28.927  29.178  1.00  0.00    -0.248 NA
ATOM     60  C   UNL A   1      47.627  30.630  29.872  1.00  0.00     0.031 C 
ATOM     61  C   UNL A   1      47.505  24.881  27.898  1.00  0.00     0.029 A 
ATOM     62  C   UNL A   1      47.120  26.147  28.310  1.00  0.00     0.049 A 
ATOM     63  H   UNL A   1      45.180  26.964  28.449  1.00  0.00     0.167 HD
ATOM     64  C   UNL A   1      47.494  28.467  29.114  1.00  0.00     0.074 A 
ATOM     65  C   UNL A   1      48.342  29.566  29.528  1.00  0.00     0.031 C 
ATOM     66  C   UNL A   1      47.952  27.243  28.745  1.00  0.00     0.037 A 
BRANCH  53  67
ATOM     67  C   UNL A   1      43.482  23.246  27.192  1.00  0.00     0.058 A 
ATOM     68  C   UNL A   1      42.969  22.319  28.116  1.00  0.00     0.135 A 
ATOM     69  C   UNL A   1      43.649  22.821  25.866  1.00  0.00     0.135 A 
ATOM     70  F   UNL A   1      42.798  22.669  29.401  1.00  0.00    -0.206 F 
ATOM     71  C   UNL A   1      42.688  21.006  27.750  1.00  0.00     0.059 A 
ATOM     72  C   UNL A   1      43.346  21.521  25.470  1.00  0.00     0.059 A 
ATOM     73  F   UNL A   1      44.129  23.667  24.941  1.00  0.00    -0.206 F 
ATOM     74  C   UNL A   1      42.892  20.614  26.426  1.00  0.00     0.060 A 
BRANCH  74  75
ATOM     75  S   UNL A   1      42.568  18.896  25.974  1.00  0.00     0.124 S 
ATOM     76  O   UNL A   1      41.159  18.957  25.601  1.00  0.00    -0.237 OA
ATOM     77  O   UNL A   1      43.504  18.678  24.876  1.00  0.00    -0.237 OA
ATOM     78  O   UNL A   1      42.863  18.161  27.200  1.00  0.00    -0.744 OA
ENDBRANCH  74  75
ENDBRANCH  53  67
BRANCH  54  79
ATOM     79  C   UNL A   1      45.417  32.512  30.369  1.00  0.00     0.058 A 
ATOM     80  C   UNL A   1      45.405  32.779  31.745  1.00  0.00     0.135 A 
ATOM     81  C   UNL A   1      45.770  33.556  29.501  1.00  0.00     0.135 A 
ATOM     82  F   UNL A   1      45.067  31.813  32.613  1.00  0.00    -0.206 F 
ATOM     83  C   UNL A   1      45.741  34.033  32.245  1.00  0.00     0.059 A 
ATOM     84  C   UNL A   1      46.131  34.812  29.976  1.00  0.00     0.059 A 
ATOM     85  F   UNL A   1      45.812  33.342  28.175  1.00  0.00    -0.206 F 
ATOM     86  C   UNL A   1      46.115  35.040  31.353  1.00  0.00     0.060 A 
BRANCH  86  87
ATOM     87  S   UNL A   1      46.651  36.632  32.017  1.00  0.00     0.124 S 
ATOM     88  O   UNL A   1      48.033  36.347  32.382  1.00  0.00    -0.237 OA
ATOM     89  O   UNL A   1      46.461  37.520  30.874  1.00  0.00    -0.237 OA
ATOM     90  O   UNL A   1      45.734  36.854  33.132  1.00  0.00    -0.744 OA
ENDBRANCH  86  87
ENDBRANCH  54  79
BRANCH  66  91
ATOM     91  C   UNL A   1      49.439  27.027  28.783  1.00  0.00     0.058 A 
ATOM     92  C   UNL A   1      50.235  27.201  27.640  1.00  0.00     0.135 A 
ATOM     93  C   UNL A   1      50.082  26.679  29.982  1.00  0.00     0.135 A 
ATOM     94  F   UNL A   1      49.669  27.529  26.467  1.00  0.00    -0.206 F 
ATOM     95  C   UNL A   1      51.612  27.008  27.677  1.00  0.00     0.059 A 
ATOM     96  C   UNL A   1      51.461  26.506  30.048  1.00  0.00     0.059 A 
ATOM     97  F   UNL A   1      49.369  26.511  31.107  1.00  0.00    -0.206 F 
ATOM     98  C   UNL A   1      52.216  26.659  28.886  1.00  0.00     0.060 A 
BRANCH  98  99
ATOM     99  S   UNL A   1      54.007  26.430  28.926  1.00  0.00     0.124 S 
ATOM    100  O   UNL A   1      54.231  25.668  27.702  1.00  0.00    -0.237 OA
ATOM    101  O   UNL A   1      54.499  27.804  28.916  1.00  0.00    -0.237 OA
ATOM    102  O   UNL A   1      54.227  25.700  30.171  1.00  0.00    -0.744 OA
ENDBRANCH  98  99
ENDBRANCH  66  91
ENDBRANCH  40  41
ENDBRANCH  32  35
ENDBRANCH  30  31
ENDBRANCH  29  30
ENDBRANCH  28  29
ENDBRANCH  27  28
ENDBRANCH   1  27
TORSDOF 21
ENDMDL
