MODEL 1
REMARK VINA RESULT:      -9.1      0.000      0.000
REMARK SMILES Cc1cc(CS(=O)(=O)N[C@@H]2C=C[C@H](C(=O)NCCCCCCNC(=O)c3ccc(-c4c5nc(c(-c6c(F)cc(S(=O)(=O)[O-])cc6F)c6ccc([nH]6)c(-c6c(F)cc(S(=O)(=O)[O-])cc6F)c6nc(c(-c7c(F)cc(S(=O)(=O)[O-])cc7F)c7ccc4[nH]7)C=C6)C=C5)cc3)C2)no1
REMARK SMILES IDX 19 1 18 2 17 3 16 4 14 5 15 6 13 8 10 9 11 10 92 11 12 12
REMARK SMILES IDX 9 13 6 15 7 16 8 17 5 18 4 19 1 20 2 21 3 22 94 23 93 24
REMARK SMILES IDX 20 25 21 26 22 27 23 28 24 29 25 31 26 32 27 33 91 34 28 35
REMARK SMILES IDX 90 36 29 37 30 38 31 39 84 40 32 41 89 42 83 43 85 44 33 45
REMARK SMILES IDX 88 46 82 47 81 48 34 50 68 51 47 52 67 53 48 54 51 55 66 56
REMARK SMILES IDX 86 57 49 58 50 59 65 61 87 62 52 63 35 64 36 65 45 66 37 67
REMARK SMILES IDX 38 68 44 69 46 70 39 71 40 72 41 73 42 74 43 75 69 76 70 77
REMARK SMILES IDX 79 78 71 79 72 80 78 81 80 82 73 83 74 84 75 85 76 86 77 87
REMARK SMILES IDX 53 88 54 89 63 90 55 91 56 92 62 93 64 94 57 95 58 96 59 97
REMARK SMILES IDX 60 98 61 99
REMARK H PARENT 16 7 9 14 23 30 85 49 51 60
REMARK Flexibility Score: inf
ROOT
ATOM      1  C   UNL A   1      36.927  33.076  31.365  1.00  0.00     0.002 C 
ENDROOT
BRANCH   1   2
ATOM      2  C   UNL A   1      36.216  32.093  32.301  1.00  0.00     0.021 C 
BRANCH   2   3
ATOM      3  C   UNL A   1      37.123  31.543  33.402  1.00  0.00     0.116 C 
BRANCH   3   4
ATOM      4  N   UNL A   1      37.160  30.090  33.362  1.00  0.00    -0.356 N 
ATOM      5  C   UNL A   1      38.128  29.176  33.108  1.00  0.00     0.226 C 
ATOM      6  O   UNL A   1      37.755  27.998  33.025  1.00  0.00    -0.274 OA
ATOM      7  H   UNL A   1      36.288  29.679  33.565  1.00  0.00     0.163 HD
BRANCH   5   8
ATOM      8  C   UNL A   1      39.627  29.483  33.002  1.00  0.00     0.103 C 
ATOM      9  C   UNL A   1      41.326  27.945  33.948  1.00  0.00     0.093 C 
ATOM     10  C   UNL A   1      41.148  29.192  34.745  1.00  0.00    -0.011 C 
ATOM     11  C   UNL A   1      40.399  28.166  32.750  1.00  0.00     0.042 C 
ATOM     12  C   UNL A   1      40.316  30.067  34.180  1.00  0.00    -0.016 C 
BRANCH   9  13
ATOM     13  N   UNL A   1      40.938  26.818  34.794  1.00  0.00    -0.208 NA
ATOM     14  H   UNL A   1      40.360  27.191  35.548  1.00  0.00     0.141 HD
BRANCH  13  15
ATOM     15  S   UNL A   1      42.158  25.900  35.508  1.00  0.00     0.218 S 
ATOM     16  O   UNL A   1      41.572  24.656  35.948  1.00  0.00    -0.212 OA
ATOM     17  O   UNL A   1      42.748  26.796  36.487  1.00  0.00    -0.212 OA
BRANCH  15  18
ATOM     18  C   UNL A   1      43.399  25.633  34.208  1.00  0.00     0.213 C 
BRANCH  18  19
ATOM     19  C   UNL A   1      44.322  24.501  34.462  1.00  0.00     0.100 A 
ATOM     20  C   UNL A   1      45.405  21.035  34.897  1.00  0.00     0.091 C 
ATOM     21  C   UNL A   1      45.146  22.473  34.696  1.00  0.00     0.133 A 
ATOM     22  C   UNL A   1      44.262  23.189  33.925  1.00  0.00     0.073 A 
ATOM     23  O   UNL A   1      45.835  23.331  35.494  1.00  0.00    -0.361 OA
ATOM     24  N   UNL A   1      45.349  24.614  35.314  1.00  0.00    -0.084 NA
ENDBRANCH  18  19
ENDBRANCH  15  18
ENDBRANCH  13  15
ENDBRANCH   9  13
ENDBRANCH   5   8
ENDBRANCH   3   4
ENDBRANCH   2   3
ENDBRANCH   1   2
BRANCH   1  25
ATOM     25  C   UNL A   1      36.038  33.663  30.261  1.00  0.00     0.002 C 
BRANCH  25  26
ATOM     26  C   UNL A   1      34.812  32.818  29.905  1.00  0.00     0.021 C 
BRANCH  26  27
ATOM     27  C   UNL A   1      34.597  32.626  28.409  1.00  0.00     0.116 C 
BRANCH  27  28
ATOM     28  N   UNL A   1      33.841  31.417  28.126  1.00  0.00    -0.352 N 
ATOM     29  C   UNL A   1      34.298  30.148  27.873  1.00  0.00     0.251 C 
ATOM     30  H   UNL A   1      32.862  31.523  28.115  1.00  0.00     0.163 HD
ATOM     31  O   UNL A   1      33.534  29.301  27.420  1.00  0.00    -0.269 OA
BRANCH  29  32
ATOM     32  C   UNL A   1      35.712  29.813  28.137  1.00  0.00     0.039 A 
ATOM     33  C   UNL A   1      36.640  29.923  27.100  1.00  0.00     0.014 A 
ATOM     34  C   UNL A   1      36.118  29.384  29.404  1.00  0.00     0.014 A 
ATOM     35  C   UNL A   1      37.987  29.653  27.349  1.00  0.00     0.010 A 
ATOM     36  C   UNL A   1      37.470  29.192  29.670  1.00  0.00     0.010 A 
ATOM     37  C   UNL A   1      38.418  29.317  28.643  1.00  0.00    -0.014 A 
BRANCH  37  38
ATOM     38  C   UNL A   1      39.856  29.090  28.940  1.00  0.00     0.031 A 
ATOM     39  C   UNL A   1      40.495  27.767  28.618  1.00  0.00     0.074 A 
ATOM     40  C   UNL A   1      40.566  30.055  29.558  1.00  0.00     0.049 A 
ATOM     41  N   UNL A   1      41.715  27.360  28.859  1.00  0.00    -0.248 NA
ATOM     42  C   UNL A   1      39.644  26.759  27.966  1.00  0.00     0.031 C 
ATOM     43  C   UNL A   1      40.041  31.359  29.968  1.00  0.00     0.029 A 
ATOM     44  N   UNL A   1      41.877  30.084  29.960  1.00  0.00    -0.354 N 
ATOM     45  C   UNL A   1      41.775  26.050  28.398  1.00  0.00     0.074 A 
ATOM     46  C   UNL A   1      40.452  25.710  27.921  1.00  0.00     0.031 C 
ATOM     47  C   UNL A   1      41.024  32.067  30.547  1.00  0.00     0.029 A 
ATOM     48  C   UNL A   1      42.236  31.254  30.589  1.00  0.00     0.049 A 
ATOM     49  H   UNL A   1      42.503  29.338  29.814  1.00  0.00     0.167 HD
ATOM     50  C   UNL A   1      42.841  25.214  28.354  1.00  0.00     0.037 A 
ATOM     51  C   UNL A   1      43.404  31.626  31.147  1.00  0.00     0.037 A 
ATOM     52  C   UNL A   1      44.158  25.569  28.820  1.00  0.00     0.049 A 
ATOM     53  C   UNL A   1      44.573  30.680  31.095  1.00  0.00     0.074 A 
ATOM     54  C   UNL A   1      45.318  24.817  28.770  1.00  0.00     0.029 A 
ATOM     55  N   UNL A   1      44.488  26.771  29.430  1.00  0.00    -0.354 N 
ATOM     56  N   UNL A   1      44.632  29.470  30.591  1.00  0.00    -0.248 NA
ATOM     57  C   UNL A   1      45.837  31.151  31.677  1.00  0.00     0.031 C 
ATOM     58  C   UNL A   1      46.336  25.542  29.399  1.00  0.00     0.029 A 
ATOM     59  C   UNL A   1      45.826  26.772  29.786  1.00  0.00     0.049 A 
ATOM     60  H   UNL A   1      43.862  27.515  29.587  1.00  0.00     0.167 HD
ATOM     61  C   UNL A   1      45.944  29.047  30.771  1.00  0.00     0.074 A 
ATOM     62  C   UNL A   1      46.647  30.134  31.419  1.00  0.00     0.031 C 
ATOM     63  C   UNL A   1      46.514  27.863  30.430  1.00  0.00     0.037 A 
BRANCH  50  64
ATOM     64  C   UNL A   1      42.624  23.836  27.789  1.00  0.00     0.058 A 
ATOM     65  C   UNL A   1      42.541  23.608  26.404  1.00  0.00     0.135 A 
ATOM     66  C   UNL A   1      42.517  22.723  28.639  1.00  0.00     0.135 A 
ATOM     67  F   UNL A   1      42.624  24.636  25.544  1.00  0.00    -0.206 F 
ATOM     68  C   UNL A   1      42.320  22.336  25.887  1.00  0.00     0.059 A 
ATOM     69  C   UNL A   1      42.330  21.437  28.141  1.00  0.00     0.059 A 
ATOM     70  F   UNL A   1      42.591  22.880  29.970  1.00  0.00    -0.206 F 
ATOM     71  C   UNL A   1      42.213  21.257  26.764  1.00  0.00     0.060 A 
BRANCH  71  72
ATOM     72  S   UNL A   1      41.912  19.615  26.077  1.00  0.00     0.124 S 
ATOM     73  O   UNL A   1      42.240  18.760  27.214  1.00  0.00    -0.237 OA
ATOM     74  O   UNL A   1      40.498  19.681  25.722  1.00  0.00    -0.237 OA
ATOM     75  O   UNL A   1      42.837  19.542  24.951  1.00  0.00    -0.744 OA
ENDBRANCH  71  72
ENDBRANCH  50  64
BRANCH  51  76
ATOM     76  C   UNL A   1      43.520  32.960  31.797  1.00  0.00     0.058 A 
ATOM     77  C   UNL A   1      43.323  33.115  33.177  1.00  0.00     0.135 A 
ATOM     78  C   UNL A   1      43.857  34.102  31.053  1.00  0.00     0.135 A 
ATOM     79  F   UNL A   1      42.993  32.054  33.931  1.00  0.00    -0.206 F 
ATOM     80  C   UNL A   1      43.442  34.355  33.796  1.00  0.00     0.059 A 
ATOM     81  C   UNL A   1      44.011  35.347  31.654  1.00  0.00     0.059 A 
ATOM     82  F   UNL A   1      44.076  34.004  29.732  1.00  0.00    -0.206 F 
ATOM     83  C   UNL A   1      43.793  35.465  33.025  1.00  0.00     0.060 A 
BRANCH  83  84
ATOM     84  S   UNL A   1      44.003  37.060  33.846  1.00  0.00     0.124 S 
ATOM     85  O   UNL A   1      42.626  37.397  34.187  1.00  0.00    -0.237 OA
ATOM     86  O   UNL A   1      44.873  36.713  34.965  1.00  0.00    -0.237 OA
ATOM     87  O   UNL A   1      44.621  37.888  32.814  1.00  0.00    -0.744 OA
ENDBRANCH  83  84
ENDBRANCH  51  76
BRANCH  63  88
ATOM     88  C   UNL A   1      47.981  27.691  30.721  1.00  0.00     0.058 A 
ATOM     89  C   UNL A   1      48.969  28.044  29.788  1.00  0.00     0.135 A 
ATOM     90  C   UNL A   1      48.403  27.216  31.974  1.00  0.00     0.135 A 
ATOM     91  F   UNL A   1      48.620  28.496  28.573  1.00  0.00    -0.206 F 
ATOM     92  C   UNL A   1      50.322  27.910  30.078  1.00  0.00     0.059 A 
ATOM     93  C   UNL A   1      49.753  27.104  32.297  1.00  0.00     0.059 A 
ATOM     94  F   UNL A   1      47.502  26.873  32.907  1.00  0.00    -0.206 F 
ATOM     95  C   UNL A   1      50.705  27.443  31.337  1.00  0.00     0.060 A 
BRANCH  95  96
ATOM     96  S   UNL A   1      52.465  27.309  31.712  1.00  0.00     0.124 S 
ATOM     97  O   UNL A   1      52.969  26.632  30.520  1.00  0.00    -0.237 OA
ATOM     98  O   UNL A   1      52.858  28.707  31.861  1.00  0.00    -0.237 OA
ATOM     99  O   UNL A   1      52.494  26.521  32.940  1.00  0.00    -0.744 OA
ENDBRANCH  95  96
ENDBRANCH  63  88
ENDBRANCH  37  38
ENDBRANCH  29  32
ENDBRANCH  27  28
ENDBRANCH  26  27
ENDBRANCH  25  26
ENDBRANCH   1  25
TORSDOF 20
ENDMDL
MODEL 2
REMARK VINA RESULT:      -9.0      4.175     10.528
REMARK SMILES Cc1cc(CS(=O)(=O)N[C@@H]2C=C[C@H](C(=O)NCCCCCCNC(=O)c3ccc(-c4c5nc(c(-c6c(F)cc(S(=O)(=O)[O-])cc6F)c6ccc([nH]6)c(-c6c(F)cc(S(=O)(=O)[O-])cc6F)c6nc(c(-c7c(F)cc(S(=O)(=O)[O-])cc7F)c7ccc4[nH]7)C=C6)C=C5)cc3)C2)no1
REMARK SMILES IDX 19 1 18 2 17 3 16 4 14 5 15 6 13 8 10 9 11 10 92 11 12 12
REMARK SMILES IDX 9 13 6 15 7 16 8 17 5 18 4 19 1 20 2 21 3 22 94 23 93 24
REMARK SMILES IDX 20 25 21 26 22 27 23 28 24 29 25 31 26 32 27 33 91 34 28 35
REMARK SMILES IDX 90 36 29 37 30 38 31 39 84 40 32 41 89 42 83 43 85 44 33 45
REMARK SMILES IDX 88 46 82 47 81 48 34 50 68 51 47 52 67 53 48 54 51 55 66 56
REMARK SMILES IDX 86 57 49 58 50 59 65 61 87 62 52 63 35 64 36 65 45 66 37 67
REMARK SMILES IDX 38 68 44 69 46 70 39 71 40 72 41 73 42 74 43 75 69 76 70 77
REMARK SMILES IDX 79 78 71 79 72 80 78 81 80 82 73 83 74 84 75 85 76 86 77 87
REMARK SMILES IDX 53 88 54 89 63 90 55 91 56 92 62 93 64 94 57 95 58 96 59 97
REMARK SMILES IDX 60 98 61 99
REMARK H PARENT 16 7 9 14 23 30 85 49 51 60
REMARK Flexibility Score: inf
ROOT
ATOM      1  C   UNL A   1      30.874  27.624  25.297  1.00  0.00     0.002 C 
ENDROOT
BRANCH   1   2
ATOM      2  C   UNL A   1      30.917  28.588  24.106  1.00  0.00     0.021 C 
BRANCH   2   3
ATOM      3  C   UNL A   1      31.262  27.901  22.784  1.00  0.00     0.116 C 
BRANCH   3   4
ATOM      4  N   UNL A   1      32.568  27.268  22.858  1.00  0.00    -0.356 N 
ATOM      5  C   UNL A   1      32.998  25.982  22.835  1.00  0.00     0.226 C 
ATOM      6  O   UNL A   1      34.202  25.807  23.066  1.00  0.00    -0.274 OA
ATOM      7  H   UNL A   1      33.305  27.916  22.944  1.00  0.00     0.163 HD
BRANCH   5   8
ATOM      8  C   UNL A   1      32.135  24.768  22.469  1.00  0.00     0.103 C 
ATOM      9  C   UNL A   1      31.963  22.809  23.978  1.00  0.00     0.093 C 
ATOM     10  C   UNL A   1      32.797  22.554  22.770  1.00  0.00    -0.011 C 
ATOM     11  C   UNL A   1      31.446  24.232  23.746  1.00  0.00     0.042 C 
ATOM     12  C   UNL A   1      32.801  23.568  21.905  1.00  0.00    -0.016 C 
BRANCH   9  13
ATOM     13  N   UNL A   1      32.828  22.680  25.150  1.00  0.00    -0.208 NA
ATOM     14  H   UNL A   1      33.688  23.192  24.949  1.00  0.00     0.141 HD
BRANCH  13  15
ATOM     15  S   UNL A   1      33.273  21.131  25.645  1.00  0.00     0.218 S 
ATOM     16  O   UNL A   1      32.198  20.233  25.296  1.00  0.00    -0.212 OA
ATOM     17  O   UNL A   1      33.638  21.298  27.041  1.00  0.00    -0.212 OA
BRANCH  15  18
ATOM     18  C   UNL A   1      34.796  20.740  24.735  1.00  0.00     0.213 C 
BRANCH  18  19
ATOM     19  C   UNL A   1      35.857  21.770  24.840  1.00  0.00     0.100 A 
ATOM     20  C   UNL A   1      38.356  23.921  26.421  1.00  0.00     0.091 C 
ATOM     21  C   UNL A   1      37.433  23.091  25.624  1.00  0.00     0.133 A 
ATOM     22  C   UNL A   1      36.945  21.812  25.749  1.00  0.00     0.073 A 
ATOM     23  O   UNL A   1      36.821  23.700  24.575  1.00  0.00    -0.361 OA
ATOM     24  N   UNL A   1      35.860  22.853  24.052  1.00  0.00    -0.084 NA
ENDBRANCH  18  19
ENDBRANCH  15  18
ENDBRANCH  13  15
ENDBRANCH   9  13
ENDBRANCH   5   8
ENDBRANCH   3   4
ENDBRANCH   2   3
ENDBRANCH   1   2
BRANCH   1  25
ATOM     25  C   UNL A   1      31.701  28.069  26.509  1.00  0.00     0.002 C 
BRANCH  25  26
ATOM     26  C   UNL A   1      33.164  27.620  26.490  1.00  0.00     0.021 C 
BRANCH  26  27
ATOM     27  C   UNL A   1      34.117  28.622  25.850  1.00  0.00     0.116 C 
BRANCH  27  28
ATOM     28  N   UNL A   1      33.824  29.983  26.268  1.00  0.00    -0.352 N 
ATOM     29  C   UNL A   1      34.385  30.719  27.281  1.00  0.00     0.251 C 
ATOM     30  H   UNL A   1      33.123  30.443  25.751  1.00  0.00     0.163 HD
ATOM     31  O   UNL A   1      33.853  31.763  27.647  1.00  0.00    -0.269 OA
BRANCH  29  32
ATOM     32  C   UNL A   1      35.621  30.242  27.933  1.00  0.00     0.039 A 
ATOM     33  C   UNL A   1      36.841  30.401  27.273  1.00  0.00     0.014 A 
ATOM     34  C   UNL A   1      35.574  29.633  29.191  1.00  0.00     0.014 A 
ATOM     35  C   UNL A   1      38.021  29.995  27.899  1.00  0.00     0.010 A 
ATOM     36  C   UNL A   1      36.756  29.302  29.845  1.00  0.00     0.010 A 
ATOM     37  C   UNL A   1      37.992  29.472  29.203  1.00  0.00    -0.014 A 
BRANCH  37  38
ATOM     38  C   UNL A   1      39.244  29.097  29.909  1.00  0.00     0.031 A 
ATOM     39  C   UNL A   1      39.678  29.855  31.134  1.00  0.00     0.074 A 
ATOM     40  C   UNL A   1      40.019  28.116  29.408  1.00  0.00     0.049 A 
ATOM     41  N   UNL A   1      40.767  29.718  31.846  1.00  0.00    -0.248 NA
ATOM     42  C   UNL A   1      38.786  30.928  31.602  1.00  0.00     0.031 C 
ATOM     43  C   UNL A   1      39.730  27.345  28.196  1.00  0.00     0.029 A 
ATOM     44  N   UNL A   1      41.216  27.607  29.847  1.00  0.00    -0.354 N 
ATOM     45  C   UNL A   1      40.695  30.689  32.838  1.00  0.00     0.074 A 
ATOM     46  C   UNL A   1      39.488  31.449  32.598  1.00  0.00     0.031 C 
ATOM     47  C   UNL A   1      40.712  26.450  27.999  1.00  0.00     0.029 A 
ATOM     48  C   UNL A   1      41.720  26.611  29.042  1.00  0.00     0.049 A 
ATOM     49  H   UNL A   1      41.671  27.924  30.659  1.00  0.00     0.167 HD
ATOM     50  C   UNL A   1      41.545  30.911  33.870  1.00  0.00     0.037 A 
ATOM     51  C   UNL A   1      42.870  25.914  29.127  1.00  0.00     0.037 A 
ATOM     52  C   UNL A   1      42.738  30.139  34.108  1.00  0.00     0.049 A 
ATOM     53  C   UNL A   1      43.803  26.182  30.276  1.00  0.00     0.074 A 
ATOM     54  C   UNL A   1      43.637  30.246  35.154  1.00  0.00     0.029 A 
ATOM     55  N   UNL A   1      43.204  29.123  33.284  1.00  0.00    -0.354 N 
ATOM     56  N   UNL A   1      43.686  27.057  31.247  1.00  0.00    -0.248 NA
ATOM     57  C   UNL A   1      45.022  25.364  30.348  1.00  0.00     0.031 C 
ATOM     58  C   UNL A   1      44.675  29.334  34.934  1.00  0.00     0.029 A 
ATOM     59  C   UNL A   1      44.391  28.614  33.783  1.00  0.00     0.049 A 
ATOM     60  H   UNL A   1      42.755  28.810  32.465  1.00  0.00     0.167 HD
ATOM     61  C   UNL A   1      44.799  26.876  32.059  1.00  0.00     0.074 A 
ATOM     62  C   UNL A   1      45.572  25.801  31.472  1.00  0.00     0.031 C 
ATOM     63  C   UNL A   1      45.150  27.541  33.189  1.00  0.00     0.037 A 
BRANCH  50  64
ATOM     64  C   UNL A   1      41.217  32.038  34.813  1.00  0.00     0.058 A 
ATOM     65  C   UNL A   1      40.370  31.855  35.920  1.00  0.00     0.135 A 
ATOM     66  C   UNL A   1      41.771  33.315  34.623  1.00  0.00     0.135 A 
ATOM     67  F   UNL A   1      39.801  30.660  36.145  1.00  0.00    -0.206 F 
ATOM     68  C   UNL A   1      40.054  32.904  36.777  1.00  0.00     0.059 A 
ATOM     69  C   UNL A   1      41.495  34.370  35.487  1.00  0.00     0.059 A 
ATOM     70  F   UNL A   1      42.589  33.548  33.583  1.00  0.00    -0.206 F 
ATOM     71  C   UNL A   1      40.619  34.159  36.550  1.00  0.00     0.060 A 
BRANCH  71  72
ATOM     72  S   UNL A   1      40.187  35.512  37.664  1.00  0.00     0.124 S 
ATOM     73  O   UNL A   1      39.855  36.573  36.716  1.00  0.00    -0.237 OA
ATOM     74  O   UNL A   1      39.063  34.955  38.409  1.00  0.00    -0.237 OA
ATOM     75  O   UNL A   1      41.406  35.721  38.436  1.00  0.00    -0.744 OA
ENDBRANCH  71  72
ENDBRANCH  50  64
BRANCH  51  76
ATOM     76  C   UNL A   1      43.192  24.893  28.094  1.00  0.00     0.058 A 
ATOM     77  C   UNL A   1      43.895  25.235  26.930  1.00  0.00     0.135 A 
ATOM     78  C   UNL A   1      42.826  23.548  28.264  1.00  0.00     0.135 A 
ATOM     79  F   UNL A   1      44.262  26.508  26.717  1.00  0.00    -0.206 F 
ATOM     80  C   UNL A   1      44.213  24.285  25.964  1.00  0.00     0.059 A 
ATOM     81  C   UNL A   1      43.158  22.575  27.327  1.00  0.00     0.059 A 
ATOM     82  F   UNL A   1      42.169  23.164  29.370  1.00  0.00    -0.206 F 
ATOM     83  C   UNL A   1      43.844  22.956  26.176  1.00  0.00     0.060 A 
BRANCH  83  84
ATOM     84  S   UNL A   1      44.312  21.719  24.945  1.00  0.00     0.124 S 
ATOM     85  O   UNL A   1      45.713  21.490  25.277  1.00  0.00    -0.237 OA
ATOM     86  O   UNL A   1      43.395  20.625  25.250  1.00  0.00    -0.237 OA
ATOM     87  O   UNL A   1      44.065  22.399  23.677  1.00  0.00    -0.744 OA
ENDBRANCH  83  84
ENDBRANCH  51  76
BRANCH  63  88
ATOM     88  C   UNL A   1      46.410  27.105  33.888  1.00  0.00     0.058 A 
ATOM     89  C   UNL A   1      46.406  26.091  34.859  1.00  0.00     0.135 A 
ATOM     90  C   UNL A   1      47.646  27.675  33.540  1.00  0.00     0.135 A 
ATOM     91  F   UNL A   1      45.251  25.518  35.233  1.00  0.00    -0.206 F 
ATOM     92  C   UNL A   1      47.580  25.673  35.476  1.00  0.00     0.059 A 
ATOM     93  C   UNL A   1      48.837  27.250  34.123  1.00  0.00     0.059 A 
ATOM     94  F   UNL A   1      47.709  28.642  32.611  1.00  0.00    -0.206 F 
ATOM     95  C   UNL A   1      48.791  26.256  35.099  1.00  0.00     0.060 A 
BRANCH  95  96
ATOM     96  S   UNL A   1      50.311  25.679  35.883  1.00  0.00     0.124 S 
ATOM     97  O   UNL A   1      50.870  26.926  36.395  1.00  0.00    -0.237 OA
ATOM     98  O   UNL A   1      49.807  24.750  36.890  1.00  0.00    -0.237 OA
ATOM     99  O   UNL A   1      51.050  25.064  34.784  1.00  0.00    -0.744 OA
ENDBRANCH  95  96
ENDBRANCH  63  88
ENDBRANCH  37  38
ENDBRANCH  29  32
ENDBRANCH  27  28
ENDBRANCH  26  27
ENDBRANCH  25  26
ENDBRANCH   1  25
TORSDOF 20
ENDMDL
MODEL 3
REMARK VINA RESULT:      -9.0      4.170     11.548
REMARK SMILES Cc1cc(CS(=O)(=O)N[C@@H]2C=C[C@H](C(=O)NCCCCCCNC(=O)c3ccc(-c4c5nc(c(-c6c(F)cc(S(=O)(=O)[O-])cc6F)c6ccc([nH]6)c(-c6c(F)cc(S(=O)(=O)[O-])cc6F)c6nc(c(-c7c(F)cc(S(=O)(=O)[O-])cc7F)c7ccc4[nH]7)C=C6)C=C5)cc3)C2)no1
REMARK SMILES IDX 19 1 18 2 17 3 16 4 14 5 15 6 13 8 10 9 11 10 92 11 12 12
REMARK SMILES IDX 9 13 6 15 7 16 8 17 5 18 4 19 1 20 2 21 3 22 94 23 93 24
REMARK SMILES IDX 20 25 21 26 22 27 23 28 24 29 25 31 26 32 27 33 91 34 28 35
REMARK SMILES IDX 90 36 29 37 30 38 31 39 84 40 32 41 89 42 83 43 85 44 33 45
REMARK SMILES IDX 88 46 82 47 81 48 34 50 68 51 47 52 67 53 48 54 51 55 66 56
REMARK SMILES IDX 86 57 49 58 50 59 65 61 87 62 52 63 35 64 36 65 45 66 37 67
REMARK SMILES IDX 38 68 44 69 46 70 39 71 40 72 41 73 42 74 43 75 69 76 70 77
REMARK SMILES IDX 79 78 71 79 72 80 78 81 80 82 73 83 74 84 75 85 76 86 77 87
REMARK SMILES IDX 53 88 54 89 63 90 55 91 56 92 62 93 64 94 57 95 58 96 59 97
REMARK SMILES IDX 60 98 61 99
REMARK H PARENT 16 7 9 14 23 30 85 49 51 60
REMARK Flexibility Score: inf
ROOT
ATOM      1  C   UNL A   1      34.946  33.611  28.733  1.00  0.00     0.002 C 
ENDROOT
BRANCH   1   2
ATOM      2  C   UNL A   1      33.995  32.503  28.267  1.00  0.00     0.021 C 
BRANCH   2   3
ATOM      3  C   UNL A   1      34.721  31.266  27.739  1.00  0.00     0.116 C 
BRANCH   3   4
ATOM      4  N   UNL A   1      33.938  30.066  27.983  1.00  0.00    -0.356 N 
ATOM      5  C   UNL A   1      33.472  29.064  27.196  1.00  0.00     0.226 C 
ATOM      6  O   UNL A   1      32.703  28.260  27.739  1.00  0.00    -0.274 OA
ATOM      7  H   UNL A   1      33.691  29.955  28.930  1.00  0.00     0.163 HD
BRANCH   5   8
ATOM      8  C   UNL A   1      33.886  28.819  25.740  1.00  0.00     0.103 C 
ATOM      9  C   UNL A   1      32.209  28.266  24.000  1.00  0.00     0.093 C 
ATOM     10  C   UNL A   1      33.041  27.100  24.412  1.00  0.00    -0.011 C 
ATOM     11  C   UNL A   1      32.818  29.423  24.799  1.00  0.00     0.042 C 
ATOM     12  C   UNL A   1      34.014  27.419  25.265  1.00  0.00    -0.016 C 
BRANCH   9  13
ATOM     13  N   UNL A   1      30.823  27.969  24.354  1.00  0.00    -0.208 NA
ATOM     14  H   UNL A   1      30.843  27.368  25.179  1.00  0.00     0.141 HD
BRANCH  13  15
ATOM     15  S   UNL A   1      29.852  27.209  23.205  1.00  0.00     0.218 S 
ATOM     16  O   UNL A   1      29.579  25.872  23.676  1.00  0.00    -0.212 OA
ATOM     17  O   UNL A   1      30.573  27.392  21.957  1.00  0.00    -0.212 OA
BRANCH  15  18
ATOM     18  C   UNL A   1      28.337  28.206  23.100  1.00  0.00     0.213 C 
BRANCH  18  19
ATOM     19  C   UNL A   1      28.550  29.603  22.651  1.00  0.00     0.100 A 
ATOM     20  C   UNL A   1      28.792  33.244  22.880  1.00  0.00     0.091 C 
ATOM     21  C   UNL A   1      28.789  31.791  22.630  1.00  0.00     0.133 A 
ATOM     22  C   UNL A   1      29.084  30.687  23.394  1.00  0.00     0.073 A 
ATOM     23  O   UNL A   1      28.303  31.383  21.429  1.00  0.00    -0.361 OA
ATOM     24  N   UNL A   1      28.195  30.004  21.423  1.00  0.00    -0.084 NA
ENDBRANCH  18  19
ENDBRANCH  15  18
ENDBRANCH  13  15
ENDBRANCH   9  13
ENDBRANCH   5   8
ENDBRANCH   3   4
ENDBRANCH   2   3
ENDBRANCH   1   2
BRANCH   1  25
ATOM     25  C   UNL A   1      36.357  33.535  28.135  1.00  0.00     0.002 C 
BRANCH  25  26
ATOM     26  C   UNL A   1      37.445  33.077  29.110  1.00  0.00     0.021 C 
BRANCH  26  27
ATOM     27  C   UNL A   1      37.007  33.048  30.568  1.00  0.00     0.116 C 
BRANCH  27  28
ATOM     28  N   UNL A   1      36.309  31.815  30.894  1.00  0.00    -0.352 N 
ATOM     29  C   UNL A   1      36.673  30.517  30.634  1.00  0.00     0.251 C 
ATOM     30  H   UNL A   1      35.454  31.926  31.370  1.00  0.00     0.163 HD
ATOM     31  O   UNL A   1      35.854  29.613  30.767  1.00  0.00    -0.269 OA
BRANCH  29  32
ATOM     32  C   UNL A   1      38.048  30.220  30.184  1.00  0.00     0.039 A 
ATOM     33  C   UNL A   1      39.073  30.154  31.130  1.00  0.00     0.014 A 
ATOM     34  C   UNL A   1      38.325  30.014  28.829  1.00  0.00     0.014 A 
ATOM     35  C   UNL A   1      40.367  29.829  30.723  1.00  0.00     0.010 A 
ATOM     36  C   UNL A   1      39.598  29.614  28.436  1.00  0.00     0.010 A 
ATOM     37  C   UNL A   1      40.635  29.524  29.377  1.00  0.00    -0.014 A 
BRANCH  37  38
ATOM     38  C   UNL A   1      41.992  29.113  28.937  1.00  0.00     0.031 A 
ATOM     39  C   UNL A   1      43.099  30.128  28.850  1.00  0.00     0.074 A 
ATOM     40  C   UNL A   1      42.208  27.839  28.556  1.00  0.00     0.049 A 
ATOM     41  N   UNL A   1      44.328  29.975  28.429  1.00  0.00    -0.248 NA
ATOM     42  C   UNL A   1      42.773  31.503  29.261  1.00  0.00     0.031 C 
ATOM     43  C   UNL A   1      41.200  26.777  28.546  1.00  0.00     0.029 A 
ATOM     44  N   UNL A   1      43.343  27.223  28.092  1.00  0.00    -0.354 N 
ATOM     45  C   UNL A   1      44.918  31.230  28.517  1.00  0.00     0.074 A 
ATOM     46  C   UNL A   1      43.894  32.146  28.970  1.00  0.00     0.031 C 
ATOM     47  C   UNL A   1      41.765  25.638  28.115  1.00  0.00     0.029 A 
ATOM     48  C   UNL A   1      43.161  25.896  27.778  1.00  0.00     0.049 A 
ATOM     49  H   UNL A   1      44.205  27.686  27.992  1.00  0.00     0.167 HD
ATOM     50  C   UNL A   1      46.202  31.583  28.265  1.00  0.00     0.037 A 
ATOM     51  C   UNL A   1      44.018  24.991  27.265  1.00  0.00     0.037 A 
ATOM     52  C   UNL A   1      47.217  30.659  27.827  1.00  0.00     0.049 A 
ATOM     53  C   UNL A   1      45.437  25.406  26.985  1.00  0.00     0.074 A 
ATOM     54  C   UNL A   1      48.560  30.903  27.598  1.00  0.00     0.029 A 
ATOM     55  N   UNL A   1      47.000  29.318  27.542  1.00  0.00    -0.354 N 
ATOM     56  N   UNL A   1      45.998  26.582  27.141  1.00  0.00    -0.248 NA
ATOM     57  C   UNL A   1      46.343  24.371  26.469  1.00  0.00     0.031 C 
ATOM     58  C   UNL A   1      49.142  29.723  27.121  1.00  0.00     0.029 A 
ATOM     59  C   UNL A   1      48.178  28.728  27.112  1.00  0.00     0.049 A 
ATOM     60  H   UNL A   1      46.137  28.854  27.632  1.00  0.00     0.167 HD
ATOM     61  C   UNL A   1      47.328  26.421  26.768  1.00  0.00     0.074 A 
ATOM     62  C   UNL A   1      47.489  25.032  26.391  1.00  0.00     0.031 C 
ATOM     63  C   UNL A   1      48.324  27.342  26.741  1.00  0.00     0.037 A 
BRANCH  50  64
ATOM     64  C   UNL A   1      46.577  33.029  28.453  1.00  0.00     0.058 A 
ATOM     65  C   UNL A   1      47.040  33.521  29.686  1.00  0.00     0.135 A 
ATOM     66  C   UNL A   1      46.495  33.934  27.382  1.00  0.00     0.135 A 
ATOM     67  F   UNL A   1      47.128  32.704  30.749  1.00  0.00    -0.206 F 
ATOM     68  C   UNL A   1      47.365  34.862  29.860  1.00  0.00     0.059 A 
ATOM     69  C   UNL A   1      46.848  35.273  27.525  1.00  0.00     0.059 A 
ATOM     70  F   UNL A   1      46.062  33.521  26.180  1.00  0.00    -0.206 F 
ATOM     71  C   UNL A   1      47.264  35.731  28.774  1.00  0.00     0.060 A 
BRANCH  71  72
ATOM     72  S   UNL A   1      47.677  37.470  29.021  1.00  0.00     0.124 S 
ATOM     73  O   UNL A   1      47.547  37.597  30.470  1.00  0.00    -0.237 OA
ATOM     74  O   UNL A   1      49.037  37.544  28.499  1.00  0.00    -0.237 OA
ATOM     75  O   UNL A   1      46.668  38.175  28.238  1.00  0.00    -0.744 OA
ENDBRANCH  71  72
ENDBRANCH  50  64
BRANCH  51  76
ATOM     76  C   UNL A   1      43.552  23.605  26.991  1.00  0.00     0.058 A 
ATOM     77  C   UNL A   1      43.438  22.660  28.021  1.00  0.00     0.135 A 
ATOM     78  C   UNL A   1      43.185  23.206  25.696  1.00  0.00     0.135 A 
ATOM     79  F   UNL A   1      43.782  22.991  29.276  1.00  0.00    -0.206 F 
ATOM     80  C   UNL A   1      42.990  21.366  27.778  1.00  0.00     0.059 A 
ATOM     81  C   UNL A   1      42.706  21.927  25.432  1.00  0.00     0.059 A 
ATOM     82  F   UNL A   1      43.257  24.078  24.677  1.00  0.00    -0.206 F 
ATOM     83  C   UNL A   1      42.621  21.011  26.479  1.00  0.00     0.060 A 
BRANCH  83  84
ATOM     84  S   UNL A   1      41.986  19.347  26.182  1.00  0.00     0.124 S 
ATOM     85  O   UNL A   1      42.846  18.894  25.095  1.00  0.00    -0.237 OA
ATOM     86  O   UNL A   1      42.197  18.705  27.475  1.00  0.00    -0.237 OA
ATOM     87  O   UNL A   1      40.588  19.580  25.827  1.00  0.00    -0.744 OA
ENDBRANCH  83  84
ENDBRANCH  51  76
BRANCH  63  88
ATOM     88  C   UNL A   1      49.691  26.872  26.319  1.00  0.00     0.058 A 
ATOM     89  C   UNL A   1      50.589  26.292  27.229  1.00  0.00     0.135 A 
ATOM     90  C   UNL A   1      50.085  26.956  24.973  1.00  0.00     0.135 A 
ATOM     91  F   UNL A   1      50.266  26.193  28.528  1.00  0.00    -0.206 F 
ATOM     92  C   UNL A   1      51.837  25.832  26.824  1.00  0.00     0.059 A 
ATOM     93  C   UNL A   1      51.317  26.474  24.540  1.00  0.00     0.059 A 
ATOM     94  F   UNL A   1      49.261  27.494  24.059  1.00  0.00    -0.206 F 
ATOM     95  C   UNL A   1      52.191  25.924  25.476  1.00  0.00     0.060 A 
BRANCH  95  96
ATOM     96  S   UNL A   1      53.800  25.290  24.958  1.00  0.00     0.124 S 
ATOM     97  O   UNL A   1      53.514  23.869  24.784  1.00  0.00    -0.237 OA
ATOM     98  O   UNL A   1      54.049  26.041  23.731  1.00  0.00    -0.237 OA
ATOM     99  O   UNL A   1      54.674  25.622  26.079  1.00  0.00    -0.744 OA
ENDBRANCH  95  96
ENDBRANCH  63  88
ENDBRANCH  37  38
ENDBRANCH  29  32
ENDBRANCH  27  28
ENDBRANCH  26  27
ENDBRANCH  25  26
ENDBRANCH   1  25
TORSDOF 20
ENDMDL
