MODEL 1
REMARK VINA RESULT:     -12.3      0.000      0.000
REMARK SMILES O=C(NCCCCCCNC(=O)c1ccc2c(=O)[nH]c(N3CC[NH2+]CC3)nc2c1)c1ccc(-c2c3nc(c(-c4c(F)cc(S(=O)(=O)[O-])cc4F)c4ccc([nH]4)c(-c4c(F)cc(S(=O)(=O)[O-])cc4F)c4nc(c(-c5c(F)cc(S(=O)(=O)[O-])cc5F)c5ccc2[nH]5)C=C4)C=C3)cc1
REMARK SMILES IDX 5 1 4 2 3 3 1 4 2 5 30 7 31 8 95 9 32 10 94 11 33 12 34 13
REMARK SMILES IDX 35 14 88 15 36 16 93 17 87 18 89 19 37 20 92 21 86 22 85 23
REMARK SMILES IDX 38 25 72 26 51 27 71 28 52 29 55 30 70 31 90 32 53 33 54 34
REMARK SMILES IDX 69 36 91 37 56 38 39 39 40 40 49 41 41 42 42 43 48 44 50 45
REMARK SMILES IDX 43 46 44 47 45 48 46 49 47 50 73 51 74 52 83 53 75 54 76 55
REMARK SMILES IDX 82 56 84 57 77 58 78 59 79 60 80 61 81 62 57 63 58 64 67 65
REMARK SMILES IDX 59 66 60 67 66 68 68 69 61 70 62 71 63 72 64 73 65 74 6 75
REMARK SMILES IDX 7 76 8 77 9 78 10 79 11 80 12 82 13 83 14 84 29 85 15 86
REMARK SMILES IDX 28 87 16 88 27 89 17 90 20 91 18 92 19 93 21 95 22 96 26 97
REMARK SMILES IDX 23 98 25 99 24 100
REMARK H PARENT 3 6 89 24 55 35 10 81 19 94 24 101 24 102
REMARK Flexibility Score: inf
ROOT
ATOM      1  C   UNL A   1      32.632  28.052  26.187  1.00  0.00     0.021 C 
ENDROOT
BRANCH   1   2
ATOM      2  C   UNL A   1      33.807  28.509  27.041  1.00  0.00     0.116 C 
BRANCH   2   3
ATOM      3  N   UNL A   1      33.632  29.859  27.544  1.00  0.00    -0.352 N 
ATOM      4  O   UNL A   1      34.147  31.683  28.764  1.00  0.00    -0.269 OA
ATOM      5  C   UNL A   1      34.518  30.629  28.255  1.00  0.00     0.251 C 
ATOM      6  H   UNL A   1      32.762  30.277  27.350  1.00  0.00     0.163 HD
BRANCH   5   7
ATOM      7  C   UNL A   1      35.916  30.172  28.417  1.00  0.00     0.039 A 
ATOM      8  C   UNL A   1      36.808  30.230  27.342  1.00  0.00     0.014 A 
ATOM      9  C   UNL A   1      36.343  29.702  29.661  1.00  0.00     0.014 A 
ATOM     10  C   UNL A   1      38.096  29.725  27.484  1.00  0.00     0.010 A 
ATOM     11  C   UNL A   1      37.661  29.269  29.825  1.00  0.00     0.010 A 
ATOM     12  C   UNL A   1      38.546  29.273  28.734  1.00  0.00    -0.014 A 
BRANCH  12  13
ATOM     13  C   UNL A   1      39.982  28.944  28.910  1.00  0.00     0.031 A 
ATOM     14  C   UNL A   1      40.536  27.602  28.526  1.00  0.00     0.074 A 
ATOM     15  C   UNL A   1      40.784  29.893  29.433  1.00  0.00     0.049 A 
ATOM     16  N   UNL A   1      41.764  27.163  28.634  1.00  0.00    -0.248 NA
ATOM     17  C   UNL A   1      39.598  26.622  27.955  1.00  0.00     0.031 C 
ATOM     18  C   UNL A   1      40.341  31.223  29.868  1.00  0.00     0.029 A 
ATOM     19  N   UNL A   1      42.130  29.896  29.693  1.00  0.00    -0.354 N 
ATOM     20  C   UNL A   1      41.747  25.855  28.167  1.00  0.00     0.074 A 
ATOM     21  C   UNL A   1      40.383  25.564  27.781  1.00  0.00     0.031 C 
ATOM     22  C   UNL A   1      41.396  31.917  30.315  1.00  0.00     0.029 A 
ATOM     23  C   UNL A   1      42.577  31.066  30.260  1.00  0.00     0.049 A 
ATOM     24  H   UNL A   1      42.720  29.134  29.492  1.00  0.00     0.167 HD
ATOM     25  C   UNL A   1      42.781  24.985  28.070  1.00  0.00     0.037 A 
ATOM     26  C   UNL A   1      43.794  31.407  30.722  1.00  0.00     0.037 A 
ATOM     27  C   UNL A   1      44.139  25.301  28.437  1.00  0.00     0.049 A 
ATOM     28  C   UNL A   1      44.912  30.412  30.618  1.00  0.00     0.074 A 
ATOM     29  C   UNL A   1      45.270  24.513  28.299  1.00  0.00     0.029 A 
ATOM     30  N   UNL A   1      44.551  26.488  29.024  1.00  0.00    -0.354 N 
ATOM     31  N   UNL A   1      44.892  29.205  30.103  1.00  0.00    -0.248 NA
ATOM     32  C   UNL A   1      46.214  30.815  31.162  1.00  0.00     0.031 C 
ATOM     33  C   UNL A   1      46.355  25.202  28.854  1.00  0.00     0.029 A 
ATOM     34  C   UNL A   1      45.910  26.439  29.291  1.00  0.00     0.049 A 
ATOM     35  H   UNL A   1      43.964  27.254  29.221  1.00  0.00     0.167 HD
ATOM     36  C   UNL A   1      46.178  28.707  30.259  1.00  0.00     0.074 A 
ATOM     37  C   UNL A   1      46.959  29.754  30.885  1.00  0.00     0.031 C 
ATOM     38  C   UNL A   1      46.668  27.489  29.922  1.00  0.00     0.037 A 
BRANCH  25  39
ATOM     39  C   UNL A   1      42.508  23.598  27.557  1.00  0.00     0.058 A 
ATOM     40  C   UNL A   1      42.543  23.295  26.189  1.00  0.00     0.135 A 
ATOM     41  C   UNL A   1      42.327  22.535  28.459  1.00  0.00     0.135 A 
ATOM     42  F   UNL A   1      42.700  24.274  25.283  1.00  0.00    -0.206 F 
ATOM     43  C   UNL A   1      42.413  21.987  25.730  1.00  0.00     0.059 A 
ATOM     44  C   UNL A   1      42.215  21.217  28.025  1.00  0.00     0.059 A 
ATOM     45  F   UNL A   1      42.284  22.771  29.780  1.00  0.00    -0.206 F 
ATOM     46  C   UNL A   1      42.259  20.954  26.657  1.00  0.00     0.060 A 
BRANCH  46  47
ATOM     47  S   UNL A   1      42.152  19.257  26.047  1.00  0.00     0.124 S 
ATOM     48  O   UNL A   1      43.033  19.310  24.884  1.00  0.00    -0.237 OA
ATOM     49  O   UNL A   1      42.648  18.487  27.182  1.00  0.00    -0.237 OA
ATOM     50  O   UNL A   1      40.733  19.089  25.751  1.00  0.00    -0.744 OA
ENDBRANCH  46  47
ENDBRANCH  25  39
BRANCH  26  51
ATOM     51  C   UNL A   1      44.003  32.730  31.366  1.00  0.00     0.058 A 
ATOM     52  C   UNL A   1      44.444  33.837  30.628  1.00  0.00     0.135 A 
ATOM     53  C   UNL A   1      43.768  32.909  32.739  1.00  0.00     0.135 A 
ATOM     54  F   UNL A   1      44.683  33.716  29.313  1.00  0.00    -0.206 F 
ATOM     55  C   UNL A   1      44.676  35.069  31.233  1.00  0.00     0.059 A 
ATOM     56  C   UNL A   1      43.963  34.136  33.360  1.00  0.00     0.059 A 
ATOM     57  F   UNL A   1      43.325  31.886  33.486  1.00  0.00    -0.206 F 
ATOM     58  C   UNL A   1      44.437  35.206  32.603  1.00  0.00     0.060 A 
BRANCH  58  59
ATOM     59  S   UNL A   1      44.728  36.808  33.380  1.00  0.00     0.124 S 
ATOM     60  O   UNL A   1      45.328  36.411  34.649  1.00  0.00    -0.237 OA
ATOM     61  O   UNL A   1      45.623  37.457  32.426  1.00  0.00    -0.237 OA
ATOM     62  O   UNL A   1      43.392  37.386  33.466  1.00  0.00    -0.744 OA
ENDBRANCH  58  59
ENDBRANCH  26  51
BRANCH  38  63
ATOM     63  C   UNL A   1      48.117  27.229  30.224  1.00  0.00     0.058 A 
ATOM     64  C   UNL A   1      48.511  26.566  31.398  1.00  0.00     0.135 A 
ATOM     65  C   UNL A   1      49.117  27.612  29.316  1.00  0.00     0.135 A 
ATOM     66  F   UNL A   1      47.593  26.190  32.302  1.00  0.00    -0.206 F 
ATOM     67  C   UNL A   1      49.850  26.311  31.671  1.00  0.00     0.059 A 
ATOM     68  C   UNL A   1      50.460  27.343  29.558  1.00  0.00     0.059 A 
ATOM     69  F   UNL A   1      48.791  28.242  28.177  1.00  0.00    -0.206 F 
ATOM     70  C   UNL A   1      50.817  26.702  30.744  1.00  0.00     0.060 A 
BRANCH  70  71
ATOM     71  S   UNL A   1      52.549  26.337  31.096  1.00  0.00     0.124 S 
ATOM     72  O   UNL A   1      52.917  27.456  31.955  1.00  0.00    -0.237 OA
ATOM     73  O   UNL A   1      52.467  25.034  31.751  1.00  0.00    -0.237 OA
ATOM     74  O   UNL A   1      53.169  26.328  29.774  1.00  0.00    -0.744 OA
ENDBRANCH  70  71
ENDBRANCH  38  63
ENDBRANCH  12  13
ENDBRANCH   5   7
ENDBRANCH   2   3
ENDBRANCH   1   2
BRANCH   1  75
ATOM     75  C   UNL A   1      31.687  27.064  26.872  1.00  0.00     0.002 C 
BRANCH  75  76
ATOM     76  C   UNL A   1      30.789  26.256  25.931  1.00  0.00     0.002 C 
BRANCH  76  77
ATOM     77  C   UNL A   1      30.598  26.845  24.530  1.00  0.00     0.021 C 
BRANCH  77  78
ATOM     78  C   UNL A   1      30.535  25.819  23.402  1.00  0.00     0.116 C 
BRANCH  78  79
ATOM     79  N   UNL A   1      31.561  26.052  22.400  1.00  0.00    -0.352 N 
ATOM     80  C   UNL A   1      32.855  25.601  22.376  1.00  0.00     0.251 C 
ATOM     81  H   UNL A   1      31.290  26.609  21.635  1.00  0.00     0.163 HD
ATOM     82  O   UNL A   1      33.653  26.022  21.547  1.00  0.00    -0.269 OA
BRANCH  80  83
ATOM     83  C   UNL A   1      33.287  24.593  23.364  1.00  0.00     0.041 A 
ATOM     84  C   UNL A   1      33.978  24.991  24.516  1.00  0.00     0.015 A 
ATOM     85  C   UNL A   1      32.968  23.249  23.143  1.00  0.00     0.043 A 
ATOM     86  C   UNL A   1      34.396  24.029  25.430  1.00  0.00     0.017 A 
ATOM     87  C   UNL A   1      33.374  22.278  24.057  1.00  0.00     0.081 A 
ATOM     88  C   UNL A   1      34.086  22.688  25.191  1.00  0.00     0.066 A 
ATOM     89  N   UNL A   1      33.041  20.932  23.822  1.00  0.00    -0.214 NA
ATOM     90  C   UNL A   1      34.479  21.649  26.149  1.00  0.00     0.260 A 
ATOM     91  C   UNL A   1      33.342  20.052  24.725  1.00  0.00     0.206 A 
ATOM     92  O   UNL A   1      35.155  21.892  27.141  1.00  0.00    -0.269 OA
ATOM     93  N   UNL A   1      34.033  20.390  25.856  1.00  0.00    -0.292 N 
ATOM     94  H   UNL A   1      34.224  19.675  26.507  1.00  0.00     0.173 HD
BRANCH  91  95
ATOM     95  N   UNL A   1      33.028  18.728  24.610  1.00  0.00    -0.331 N 
ATOM     96  C   UNL A   1      32.904  18.075  23.306  1.00  0.00     0.181 C 
ATOM     97  C   UNL A   1      32.528  17.934  25.734  1.00  0.00     0.181 C 
ATOM     98  C   UNL A   1      33.595  16.692  23.371  1.00  0.00     0.282 C 
ATOM     99  C   UNL A   1      33.217  16.555  25.750  1.00  0.00     0.282 C 
ATOM    100  N   UNL A   1      33.101  15.827  24.470  1.00  0.00    -0.343 N 
ATOM    101  H   UNL A   1      33.660  14.975  24.510  1.00  0.00     0.346 HD
ATOM    102  H   UNL A   1      32.126  15.583  24.301  1.00  0.00     0.346 HD
ENDBRANCH  91  95
ENDBRANCH  80  83
ENDBRANCH  78  79
ENDBRANCH  77  78
ENDBRANCH  76  77
ENDBRANCH  75  76
ENDBRANCH   1  75
TORSDOF 17
ENDMDL
MODEL 2
REMARK VINA RESULT:     -11.9      0.507      8.144
REMARK SMILES O=C(NCCCCCCNC(=O)c1ccc2c(=O)[nH]c(N3CC[NH2+]CC3)nc2c1)c1ccc(-c2c3nc(c(-c4c(F)cc(S(=O)(=O)[O-])cc4F)c4ccc([nH]4)c(-c4c(F)cc(S(=O)(=O)[O-])cc4F)c4nc(c(-c5c(F)cc(S(=O)(=O)[O-])cc5F)c5ccc2[nH]5)C=C4)C=C3)cc1
REMARK SMILES IDX 5 1 4 2 3 3 1 4 2 5 30 7 31 8 95 9 32 10 94 11 33 12 34 13
REMARK SMILES IDX 35 14 88 15 36 16 93 17 87 18 89 19 37 20 92 21 86 22 85 23
REMARK SMILES IDX 38 25 72 26 51 27 71 28 52 29 55 30 70 31 90 32 53 33 54 34
REMARK SMILES IDX 69 36 91 37 56 38 39 39 40 40 49 41 41 42 42 43 48 44 50 45
REMARK SMILES IDX 43 46 44 47 45 48 46 49 47 50 73 51 74 52 83 53 75 54 76 55
REMARK SMILES IDX 82 56 84 57 77 58 78 59 79 60 80 61 81 62 57 63 58 64 67 65
REMARK SMILES IDX 59 66 60 67 66 68 68 69 61 70 62 71 63 72 64 73 65 74 6 75
REMARK SMILES IDX 7 76 8 77 9 78 10 79 11 80 12 82 13 83 14 84 29 85 15 86
REMARK SMILES IDX 28 87 16 88 27 89 17 90 20 91 18 92 19 93 21 95 22 96 26 97
REMARK SMILES IDX 23 98 25 99 24 100
REMARK H PARENT 3 6 89 24 55 35 10 81 19 94 24 101 24 102
REMARK Flexibility Score: inf
ROOT
ATOM      1  C   UNL A   1      32.849  27.488  26.637  1.00  0.00     0.021 C 
ENDROOT
BRANCH   1   2
ATOM      2  C   UNL A   1      34.126  28.313  26.714  1.00  0.00     0.116 C 
BRANCH   2   3
ATOM      3  N   UNL A   1      33.877  29.675  27.151  1.00  0.00    -0.352 N 
ATOM      4  O   UNL A   1      34.240  31.550  28.349  1.00  0.00    -0.269 OA
ATOM      5  C   UNL A   1      34.678  30.488  27.915  1.00  0.00     0.251 C 
ATOM      6  H   UNL A   1      33.022  30.066  26.862  1.00  0.00     0.163 HD
BRANCH   5   7
ATOM      7  C   UNL A   1      36.063  30.069  28.222  1.00  0.00     0.039 A 
ATOM      8  C   UNL A   1      37.072  30.200  27.263  1.00  0.00     0.014 A 
ATOM      9  C   UNL A   1      36.359  29.560  29.489  1.00  0.00     0.014 A 
ATOM     10  C   UNL A   1      38.352  29.731  27.535  1.00  0.00     0.010 A 
ATOM     11  C   UNL A   1      37.664  29.162  29.789  1.00  0.00     0.010 A 
ATOM     12  C   UNL A   1      38.669  29.240  28.811  1.00  0.00    -0.014 A 
BRANCH  12  13
ATOM     13  C   UNL A   1      40.087  28.949  29.141  1.00  0.00     0.031 A 
ATOM     14  C   UNL A   1      40.969  29.972  29.798  1.00  0.00     0.074 A 
ATOM     15  C   UNL A   1      40.567  27.729  28.828  1.00  0.00     0.049 A 
ATOM     16  N   UNL A   1      42.228  29.870  30.134  1.00  0.00    -0.248 NA
ATOM     17  C   UNL A   1      40.369  31.278  30.114  1.00  0.00     0.031 C 
ATOM     18  C   UNL A   1      39.801  26.670  28.161  1.00  0.00     0.029 A 
ATOM     19  N   UNL A   1      41.802  27.167  29.021  1.00  0.00    -0.354 N 
ATOM     20  C   UNL A   1      42.582  31.097  30.681  1.00  0.00     0.074 A 
ATOM     21  C   UNL A   1      41.404  31.936  30.624  1.00  0.00     0.031 C 
ATOM     22  C   UNL A   1      40.573  25.584  28.023  1.00  0.00     0.029 A 
ATOM     23  C   UNL A   1      41.905  25.886  28.532  1.00  0.00     0.049 A 
ATOM     24  H   UNL A   1      42.544  27.635  29.468  1.00  0.00     0.167 HD
ATOM     25  C   UNL A   1      43.781  31.478  31.183  1.00  0.00     0.037 A 
ATOM     26  C   UNL A   1      42.962  25.057  28.464  1.00  0.00     0.037 A 
ATOM     27  C   UNL A   1      44.937  30.620  31.252  1.00  0.00     0.049 A 
ATOM     28  C   UNL A   1      44.281  25.519  29.012  1.00  0.00     0.074 A 
ATOM     29  C   UNL A   1      46.173  30.889  31.818  1.00  0.00     0.029 A 
ATOM     30  N   UNL A   1      45.010  29.336  30.731  1.00  0.00    -0.354 N 
ATOM     31  N   UNL A   1      44.574  26.657  29.593  1.00  0.00    -0.248 NA
ATOM     32  C   UNL A   1      45.413  24.593  28.889  1.00  0.00     0.031 C 
ATOM     33  C   UNL A   1      47.009  29.791  31.589  1.00  0.00     0.029 A 
ATOM     34  C   UNL A   1      46.279  28.817  30.926  1.00  0.00     0.049 A 
ATOM     35  H   UNL A   1      44.268  28.864  30.289  1.00  0.00     0.167 HD
ATOM     36  C   UNL A   1      45.924  26.583  29.908  1.00  0.00     0.074 A 
ATOM     37  C   UNL A   1      46.382  25.276  29.483  1.00  0.00     0.031 C 
ATOM     38  C   UNL A   1      46.718  27.516  30.489  1.00  0.00     0.037 A 
BRANCH  25  39
ATOM     39  C   UNL A   1      43.931  32.884  31.696  1.00  0.00     0.058 A 
ATOM     40  C   UNL A   1      44.263  33.949  30.847  1.00  0.00     0.135 A 
ATOM     41  C   UNL A   1      43.622  33.184  33.034  1.00  0.00     0.135 A 
ATOM     42  F   UNL A   1      44.580  33.718  29.563  1.00  0.00    -0.206 F 
ATOM     43  C   UNL A   1      44.278  35.265  31.304  1.00  0.00     0.059 A 
ATOM     44  C   UNL A   1      43.611  34.493  33.507  1.00  0.00     0.059 A 
ATOM     45  F   UNL A   1      43.300  32.200  33.889  1.00  0.00    -0.206 F 
ATOM     46  C   UNL A   1      43.942  35.527  32.633  1.00  0.00     0.060 A 
BRANCH  46  47
ATOM     47  S   UNL A   1      43.909  37.244  33.192  1.00  0.00     0.124 S 
ATOM     48  O   UNL A   1      42.689  37.266  33.994  1.00  0.00    -0.237 OA
ATOM     49  O   UNL A   1      45.158  37.353  33.938  1.00  0.00    -0.237 OA
ATOM     50  O   UNL A   1      43.856  38.007  31.949  1.00  0.00    -0.744 OA
ENDBRANCH  46  47
ENDBRANCH  25  39
BRANCH  26  51
ATOM     51  C   UNL A   1      42.826  23.728  27.812  1.00  0.00     0.058 A 
ATOM     52  C   UNL A   1      42.529  22.578  28.558  1.00  0.00     0.135 A 
ATOM     53  C   UNL A   1      42.996  23.584  26.426  1.00  0.00     0.135 A 
ATOM     54  F   UNL A   1      42.358  22.665  29.885  1.00  0.00    -0.206 F 
ATOM     55  C   UNL A   1      42.437  21.327  27.957  1.00  0.00     0.059 A 
ATOM     56  C   UNL A   1      42.879  22.350  25.799  1.00  0.00     0.059 A 
ATOM     57  F   UNL A   1      43.261  24.657  25.665  1.00  0.00    -0.206 F 
ATOM     58  C   UNL A   1      42.618  21.223  26.576  1.00  0.00     0.060 A 
BRANCH  58  59
ATOM     59  S   UNL A   1      42.486  19.598  25.801  1.00  0.00     0.124 S 
ATOM     60  O   UNL A   1      43.413  19.733  24.683  1.00  0.00    -0.237 OA
ATOM     61  O   UNL A   1      42.909  18.707  26.877  1.00  0.00    -0.237 OA
ATOM     62  O   UNL A   1      41.074  19.512  25.445  1.00  0.00    -0.744 OA
ENDBRANCH  58  59
ENDBRANCH  26  51
BRANCH  38  63
ATOM     63  C   UNL A   1      48.160  27.150  30.699  1.00  0.00     0.058 A 
ATOM     64  C   UNL A   1      49.129  27.411  29.717  1.00  0.00     0.135 A 
ATOM     65  C   UNL A   1      48.582  26.569  31.904  1.00  0.00     0.135 A 
ATOM     66  F   UNL A   1      48.773  27.955  28.543  1.00  0.00    -0.206 F 
ATOM     67  C   UNL A   1      50.466  27.087  29.916  1.00  0.00     0.059 A 
ATOM     68  C   UNL A   1      49.919  26.262  32.134  1.00  0.00     0.059 A 
ATOM     69  F   UNL A   1      47.695  26.306  32.876  1.00  0.00    -0.206 F 
ATOM     70  C   UNL A   1      50.852  26.514  31.129  1.00  0.00     0.060 A 
BRANCH  70  71
ATOM     71  S   UNL A   1      52.596  26.128  31.386  1.00  0.00     0.124 S 
ATOM     72  O   UNL A   1      52.520  24.782  31.944  1.00  0.00    -0.237 OA
ATOM     73  O   UNL A   1      53.141  26.224  30.035  1.00  0.00    -0.237 OA
ATOM     74  O   UNL A   1      53.041  27.167  32.310  1.00  0.00    -0.744 OA
ENDBRANCH  70  71
ENDBRANCH  38  63
ENDBRANCH  12  13
ENDBRANCH   5   7
ENDBRANCH   2   3
ENDBRANCH   1   2
BRANCH   1  75
ATOM     75  C   UNL A   1      31.805  28.012  25.649  1.00  0.00     0.002 C 
BRANCH  75  76
ATOM     76  C   UNL A   1      30.668  27.041  25.319  1.00  0.00     0.002 C 
BRANCH  76  77
ATOM     77  C   UNL A   1      30.201  27.040  23.860  1.00  0.00     0.021 C 
BRANCH  77  78
ATOM     78  C   UNL A   1      30.570  25.791  23.066  1.00  0.00     0.116 C 
BRANCH  78  79
ATOM     79  N   UNL A   1      31.667  26.039  22.145  1.00  0.00    -0.352 N 
ATOM     80  C   UNL A   1      32.967  25.615  22.223  1.00  0.00     0.251 C 
ATOM     81  H   UNL A   1      31.444  26.585  21.356  1.00  0.00     0.163 HD
ATOM     82  O   UNL A   1      33.819  26.047  21.455  1.00  0.00    -0.269 OA
BRANCH  80  83
ATOM     83  C   UNL A   1      33.341  24.622  23.249  1.00  0.00     0.041 A 
ATOM     84  C   UNL A   1      33.975  25.035  24.428  1.00  0.00     0.015 A 
ATOM     85  C   UNL A   1      33.025  23.276  23.035  1.00  0.00     0.043 A 
ATOM     86  C   UNL A   1      34.340  24.087  25.378  1.00  0.00     0.017 A 
ATOM     87  C   UNL A   1      33.378  22.318  23.985  1.00  0.00     0.081 A 
ATOM     88  C   UNL A   1      34.033  22.743  25.147  1.00  0.00     0.066 A 
ATOM     89  N   UNL A   1      33.048  20.970  23.756  1.00  0.00    -0.214 NA
ATOM     90  C   UNL A   1      34.370  21.719  26.141  1.00  0.00     0.260 A 
ATOM     91  C   UNL A   1      33.297  20.104  24.688  1.00  0.00     0.206 A 
ATOM     92  O   UNL A   1      34.996  21.975  27.163  1.00  0.00    -0.269 OA
ATOM     93  N   UNL A   1      33.932  20.457  25.848  1.00  0.00    -0.292 N 
ATOM     94  H   UNL A   1      34.084  19.753  26.519  1.00  0.00     0.173 HD
BRANCH  91  95
ATOM     95  N   UNL A   1      32.981  18.780  24.580  1.00  0.00    -0.331 N 
ATOM     96  C   UNL A   1      32.775  18.140  23.279  1.00  0.00     0.181 C 
ATOM     97  C   UNL A   1      32.556  17.972  25.725  1.00  0.00     0.181 C 
ATOM     98  C   UNL A   1      33.473  16.759  23.285  1.00  0.00     0.282 C 
ATOM     99  C   UNL A   1      33.249  16.597  25.683  1.00  0.00     0.282 C 
ATOM    100  N   UNL A   1      33.054  15.881  24.404  1.00  0.00    -0.343 N 
ATOM    101  H   UNL A   1      33.617  15.031  24.400  1.00  0.00     0.346 HD
ATOM    102  H   UNL A   1      32.070  15.635  24.296  1.00  0.00     0.346 HD
ENDBRANCH  91  95
ENDBRANCH  80  83
ENDBRANCH  78  79
ENDBRANCH  77  78
ENDBRANCH  76  77
ENDBRANCH  75  76
ENDBRANCH   1  75
TORSDOF 17
ENDMDL
MODEL 3
REMARK VINA RESULT:     -11.9      4.931     10.351
REMARK SMILES O=C(NCCCCCCNC(=O)c1ccc2c(=O)[nH]c(N3CC[NH2+]CC3)nc2c1)c1ccc(-c2c3nc(c(-c4c(F)cc(S(=O)(=O)[O-])cc4F)c4ccc([nH]4)c(-c4c(F)cc(S(=O)(=O)[O-])cc4F)c4nc(c(-c5c(F)cc(S(=O)(=O)[O-])cc5F)c5ccc2[nH]5)C=C4)C=C3)cc1
REMARK SMILES IDX 5 1 4 2 3 3 1 4 2 5 30 7 31 8 95 9 32 10 94 11 33 12 34 13
REMARK SMILES IDX 35 14 88 15 36 16 93 17 87 18 89 19 37 20 92 21 86 22 85 23
REMARK SMILES IDX 38 25 72 26 51 27 71 28 52 29 55 30 70 31 90 32 53 33 54 34
REMARK SMILES IDX 69 36 91 37 56 38 39 39 40 40 49 41 41 42 42 43 48 44 50 45
REMARK SMILES IDX 43 46 44 47 45 48 46 49 47 50 73 51 74 52 83 53 75 54 76 55
REMARK SMILES IDX 82 56 84 57 77 58 78 59 79 60 80 61 81 62 57 63 58 64 67 65
REMARK SMILES IDX 59 66 60 67 66 68 68 69 61 70 62 71 63 72 64 73 65 74 6 75
REMARK SMILES IDX 7 76 8 77 9 78 10 79 11 80 12 82 13 83 14 84 29 85 15 86
REMARK SMILES IDX 28 87 16 88 27 89 17 90 20 91 18 92 19 93 21 95 22 96 26 97
REMARK SMILES IDX 23 98 25 99 24 100
REMARK H PARENT 3 6 89 24 55 35 10 81 19 94 24 101 24 102
REMARK Flexibility Score: inf
ROOT
ATOM      1  C   UNL A   1      41.590  22.146  28.007  1.00  0.00     0.021 C 
ENDROOT
BRANCH   1   2
ATOM      2  C   UNL A   1      42.686  23.174  27.764  1.00  0.00     0.116 C 
BRANCH   2   3
ATOM      3  N   UNL A   1      42.560  23.820  26.471  1.00  0.00    -0.352 N 
ATOM      4  O   UNL A   1      41.892  25.413  25.023  1.00  0.00    -0.269 OA
ATOM      5  C   UNL A   1      42.109  25.085  26.185  1.00  0.00     0.251 C 
ATOM      6  H   UNL A   1      42.834  23.279  25.695  1.00  0.00     0.163 HD
BRANCH   5   7
ATOM      7  C   UNL A   1      41.871  26.041  27.289  1.00  0.00     0.039 A 
ATOM      8  C   UNL A   1      40.785  25.869  28.153  1.00  0.00     0.014 A 
ATOM      9  C   UNL A   1      42.756  27.105  27.476  1.00  0.00     0.014 A 
ATOM     10  C   UNL A   1      40.527  26.815  29.138  1.00  0.00     0.010 A 
ATOM     11  C   UNL A   1      42.541  28.013  28.516  1.00  0.00     0.010 A 
ATOM     12  C   UNL A   1      41.421  27.876  29.352  1.00  0.00    -0.014 A 
BRANCH  12  13
ATOM     13  C   UNL A   1      41.240  28.745  30.542  1.00  0.00     0.031 A 
ATOM     14  C   UNL A   1      42.099  28.595  31.764  1.00  0.00     0.074 A 
ATOM     15  C   UNL A   1      40.269  29.679  30.496  1.00  0.00     0.049 A 
ATOM     16  N   UNL A   1      42.050  29.269  32.884  1.00  0.00    -0.248 NA
ATOM     17  C   UNL A   1      43.141  27.557  31.735  1.00  0.00     0.031 C 
ATOM     18  C   UNL A   1      39.357  29.889  29.365  1.00  0.00     0.029 A 
ATOM     19  N   UNL A   1      39.880  30.624  31.409  1.00  0.00    -0.354 N 
ATOM     20  C   UNL A   1      43.036  28.728  33.702  1.00  0.00     0.074 A 
ATOM     21  C   UNL A   1      43.664  27.661  32.951  1.00  0.00     0.031 C 
ATOM     22  C   UNL A   1      38.535  30.910  29.643  1.00  0.00     0.029 A 
ATOM     23  C   UNL A   1      38.815  31.387  30.990  1.00  0.00     0.049 A 
ATOM     24  H   UNL A   1      40.321  30.745  32.281  1.00  0.00     0.167 HD
ATOM     25  C   UNL A   1      43.379  29.097  34.959  1.00  0.00     0.037 A 
ATOM     26  C   UNL A   1      38.115  32.340  31.632  1.00  0.00     0.037 A 
ATOM     27  C   UNL A   1      42.758  30.179  35.681  1.00  0.00     0.049 A 
ATOM     28  C   UNL A   1      38.509  32.709  33.032  1.00  0.00     0.074 A 
ATOM     29  C   UNL A   1      43.090  30.681  36.929  1.00  0.00     0.029 A 
ATOM     30  N   UNL A   1      41.671  30.917  35.233  1.00  0.00    -0.354 N 
ATOM     31  N   UNL A   1      39.493  32.237  33.759  1.00  0.00    -0.248 NA
ATOM     32  C   UNL A   1      37.698  33.732  33.703  1.00  0.00     0.031 C 
ATOM     33  C   UNL A   1      42.172  31.683  37.258  1.00  0.00     0.029 A 
ATOM     34  C   UNL A   1      41.297  31.841  36.195  1.00  0.00     0.049 A 
ATOM     35  H   UNL A   1      41.232  30.802  34.360  1.00  0.00     0.167 HD
ATOM     36  C   UNL A   1      39.420  32.907  34.973  1.00  0.00     0.074 A 
ATOM     37  C   UNL A   1      38.318  33.840  34.870  1.00  0.00     0.031 C 
ATOM     38  C   UNL A   1      40.192  32.757  36.077  1.00  0.00     0.037 A 
BRANCH  25  39
ATOM     39  C   UNL A   1      44.468  28.333  35.660  1.00  0.00     0.058 A 
ATOM     40  C   UNL A   1      45.812  28.728  35.588  1.00  0.00     0.135 A 
ATOM     41  C   UNL A   1      44.145  27.262  36.511  1.00  0.00     0.135 A 
ATOM     42  F   UNL A   1      46.178  29.737  34.781  1.00  0.00    -0.206 F 
ATOM     43  C   UNL A   1      46.798  28.092  36.338  1.00  0.00     0.059 A 
ATOM     44  C   UNL A   1      45.110  26.625  37.286  1.00  0.00     0.059 A 
ATOM     45  F   UNL A   1      42.873  26.843  36.614  1.00  0.00    -0.206 F 
ATOM     46  C   UNL A   1      46.435  27.048  37.191  1.00  0.00     0.060 A 
BRANCH  46  47
ATOM     47  S   UNL A   1      47.717  26.274  38.202  1.00  0.00     0.124 S 
ATOM     48  O   UNL A   1      48.308  27.436  38.861  1.00  0.00    -0.237 OA
ATOM     49  O   UNL A   1      46.942  25.386  39.061  1.00  0.00    -0.237 OA
ATOM     50  O   UNL A   1      48.569  25.609  37.222  1.00  0.00    -0.744 OA
ENDBRANCH  46  47
ENDBRANCH  25  39
BRANCH  26  51
ATOM     51  C   UNL A   1      36.943  32.974  30.973  1.00  0.00     0.058 A 
ATOM     52  C   UNL A   1      37.105  33.986  30.017  1.00  0.00     0.135 A 
ATOM     53  C   UNL A   1      35.634  32.578  31.294  1.00  0.00     0.135 A 
ATOM     54  F   UNL A   1      38.335  34.398  29.677  1.00  0.00    -0.206 F 
ATOM     55  C   UNL A   1      36.010  34.607  29.424  1.00  0.00     0.059 A 
ATOM     56  C   UNL A   1      34.526  33.162  30.693  1.00  0.00     0.059 A 
ATOM     57  F   UNL A   1      35.426  31.599  32.188  1.00  0.00    -0.206 F 
ATOM     58  C   UNL A   1      34.723  34.191  29.773  1.00  0.00     0.060 A 
BRANCH  58  59
ATOM     59  S   UNL A   1      33.307  34.993  28.993  1.00  0.00     0.124 S 
ATOM     60  O   UNL A   1      32.454  35.261  30.145  1.00  0.00    -0.237 OA
ATOM     61  O   UNL A   1      33.919  36.160  28.366  1.00  0.00    -0.237 OA
ATOM     62  O   UNL A   1      32.818  33.978  28.066  1.00  0.00    -0.744 OA
ENDBRANCH  58  59
ENDBRANCH  26  51
BRANCH  38  63
ATOM     63  C   UNL A   1      39.867  33.627  37.259  1.00  0.00     0.058 A 
ATOM     64  C   UNL A   1      40.495  34.869  37.446  1.00  0.00     0.135 A 
ATOM     65  C   UNL A   1      38.895  33.232  38.192  1.00  0.00     0.135 A 
ATOM     66  F   UNL A   1      41.439  35.284  36.588  1.00  0.00    -0.206 F 
ATOM     67  C   UNL A   1      40.185  35.680  38.531  1.00  0.00     0.059 A 
ATOM     68  C   UNL A   1      38.550  34.042  39.269  1.00  0.00     0.059 A 
ATOM     69  F   UNL A   1      38.262  32.057  38.053  1.00  0.00    -0.206 F 
ATOM     70  C   UNL A   1      39.210  35.259  39.437  1.00  0.00     0.060 A 
BRANCH  70  71
ATOM     71  S   UNL A   1      38.793  36.337  40.823  1.00  0.00     0.124 S 
ATOM     72  O   UNL A   1      37.750  35.567  41.491  1.00  0.00    -0.237 OA
ATOM     73  O   UNL A   1      40.064  36.437  41.535  1.00  0.00    -0.237 OA
ATOM     74  O   UNL A   1      38.349  37.567  40.174  1.00  0.00    -0.744 OA
ENDBRANCH  70  71
ENDBRANCH  38  63
ENDBRANCH  12  13
ENDBRANCH   5   7
ENDBRANCH   2   3
ENDBRANCH   1   2
BRANCH   1  75
ATOM     75  C   UNL A   1      41.102  21.419  26.753  1.00  0.00     0.002 C 
BRANCH  75  76
ATOM     76  C   UNL A   1      39.615  21.591  26.432  1.00  0.00     0.002 C 
BRANCH  76  77
ATOM     77  C   UNL A   1      39.089  23.029  26.483  1.00  0.00     0.021 C 
BRANCH  77  78
ATOM     78  C   UNL A   1      37.724  23.239  25.835  1.00  0.00     0.116 C 
BRANCH  78  79
ATOM     79  N   UNL A   1      36.716  22.354  26.394  1.00  0.00    -0.352 N 
ATOM     80  C   UNL A   1      35.369  22.320  26.144  1.00  0.00     0.251 C 
ATOM     81  H   UNL A   1      37.046  21.688  27.040  1.00  0.00     0.163 HD
ATOM     82  O   UNL A   1      34.620  21.625  26.822  1.00  0.00    -0.269 OA
BRANCH  80  83
ATOM     83  C   UNL A   1      34.819  23.132  25.042  1.00  0.00     0.041 A 
ATOM     84  C   UNL A   1      34.739  22.598  23.749  1.00  0.00     0.015 A 
ATOM     85  C   UNL A   1      34.356  24.423  25.318  1.00  0.00     0.043 A 
ATOM     86  C   UNL A   1      34.236  23.381  22.715  1.00  0.00     0.017 A 
ATOM     87  C   UNL A   1      33.841  25.212  24.291  1.00  0.00     0.081 A 
ATOM     88  C   UNL A   1      33.791  24.675  22.999  1.00  0.00     0.066 A 
ATOM     89  N   UNL A   1      33.376  26.506  24.587  1.00  0.00    -0.214 NA
ATOM     90  C   UNL A   1      33.221  25.518  21.942  1.00  0.00     0.260 A 
ATOM     91  C   UNL A   1      32.814  27.194  23.644  1.00  0.00     0.206 A 
ATOM     92  O   UNL A   1      33.186  25.166  20.770  1.00  0.00    -0.269 OA
ATOM     93  N   UNL A   1      32.730  26.723  22.361  1.00  0.00    -0.292 N 
ATOM     94  H   UNL A   1      32.284  27.292  21.693  1.00  0.00     0.173 HD
BRANCH  91  95
ATOM     95  N   UNL A   1      32.295  28.443  23.837  1.00  0.00    -0.331 N 
ATOM     96  C   UNL A   1      31.310  29.018  22.919  1.00  0.00     0.181 C 
ATOM     97  C   UNL A   1      32.865  29.397  24.790  1.00  0.00     0.181 C 
ATOM     98  C   UNL A   1      30.205  29.719  23.746  1.00  0.00     0.282 C 
ATOM     99  C   UNL A   1      31.735  30.094  25.573  1.00  0.00     0.282 C 
ATOM    100  N   UNL A   1      30.721  30.726  24.703  1.00  0.00    -0.343 N 
ATOM    101  H   UNL A   1      29.953  31.078  25.275  1.00  0.00     0.346 HD
ATOM    102  H   UNL A   1      31.143  31.501  24.192  1.00  0.00     0.346 HD
ENDBRANCH  91  95
ENDBRANCH  80  83
ENDBRANCH  78  79
ENDBRANCH  77  78
ENDBRANCH  76  77
ENDBRANCH  75  76
ENDBRANCH   1  75
TORSDOF 17
ENDMDL
