MODEL 1
REMARK VINA RESULT:      -9.6      0.000      0.000
REMARK SMILES Cc1cnc(N2CCO[C@H](CC(=O)NCCCCCCNC(=O)c3ccc(-c4c5nc(c(-c6c(F)cc(S(=O)(=O)[O-])cc6F)c6ccc([nH]6)c(-c6c(F)cc(S(=O)(=O)[O-])cc6F)c6nc(c(-c7c(F)cc(S(=O)(=O)[O-])cc7F)c7ccc4[nH]7)C=C6)C=C5)cc3)C2)c([N+](=O)[O-])c1
REMARK SMILES IDX 17 1 16 2 15 3 14 4 12 5 13 6 11 8 10 9 6 10 7 11 90 12 8 13
REMARK SMILES IDX 9 14 5 15 1 16 2 17 3 18 95 19 4 20 91 21 92 22 93 23 94 24
REMARK SMILES IDX 18 25 19 26 20 27 21 28 22 29 23 31 24 32 25 33 89 34 26 35
REMARK SMILES IDX 88 36 27 37 28 38 29 39 82 40 30 41 87 42 81 43 83 44 31 45
REMARK SMILES IDX 86 46 80 47 79 48 32 50 66 51 45 52 65 53 46 54 49 55 64 56
REMARK SMILES IDX 84 57 47 58 48 59 63 61 85 62 50 63 33 64 34 65 43 66 35 67
REMARK SMILES IDX 36 68 42 69 44 70 37 71 38 72 39 73 40 74 41 75 67 76 68 77
REMARK SMILES IDX 77 78 69 79 70 80 76 81 78 82 71 83 72 84 73 85 74 86 75 87
REMARK SMILES IDX 51 88 52 89 61 90 53 91 54 92 60 93 62 94 55 95 56 96 57 97
REMARK SMILES IDX 58 98 59 99
REMARK H PARENT 14 7 21 30 83 49 49 60
REMARK Flexibility Score: inf
ROOT
ATOM      1  C   UNL A   1      33.114  34.703  28.758  1.00  0.00     0.002 C 
ENDROOT
BRANCH   1   2
ATOM      2  C   UNL A   1      32.826  35.924  29.639  1.00  0.00     0.021 C 
BRANCH   2   3
ATOM      3  C   UNL A   1      33.690  35.964  30.897  1.00  0.00     0.116 C 
BRANCH   3   4
ATOM      4  N   UNL A   1      33.205  34.995  31.859  1.00  0.00    -0.356 N 
ATOM      5  C   UNL A   1      33.859  33.916  32.362  1.00  0.00     0.222 C 
ATOM      6  O   UNL A   1      33.227  33.060  32.981  1.00  0.00    -0.275 OA
ATOM      7  H   UNL A   1      32.287  35.137  32.189  1.00  0.00     0.163 HD
BRANCH   5   8
ATOM      8  C   UNL A   1      35.351  33.822  32.194  1.00  0.00     0.133 C 
BRANCH   8   9
ATOM      9  C   UNL A   1      36.116  34.919  32.954  1.00  0.00     0.147 C 
ATOM     10  N   UNL A   1      37.525  33.278  33.999  1.00  0.00    -0.346 N 
ATOM     11  C   UNL A   1      37.023  33.552  35.345  1.00  0.00     0.147 C 
ATOM     12  C   UNL A   1      37.579  34.471  33.153  1.00  0.00     0.151 C 
ATOM     13  C   UNL A   1      35.622  34.182  35.225  1.00  0.00     0.182 C 
ATOM     14  O   UNL A   1      35.537  35.244  34.245  1.00  0.00    -0.374 OA
BRANCH  10  15
ATOM     15  C   UNL A   1      38.330  32.214  33.701  1.00  0.00     0.208 A 
ATOM     16  C   UNL A   1      40.415  28.519  33.068  1.00  0.00     0.046 C 
ATOM     17  C   UNL A   1      39.731  29.830  33.282  1.00  0.00    -0.026 A 
ATOM     18  C   UNL A   1      38.412  30.018  32.901  1.00  0.00     0.117 A 
ATOM     19  C   UNL A   1      40.371  30.902  33.891  1.00  0.00     0.094 A 
ATOM     20  N   UNL A   1      37.717  31.163  33.101  1.00  0.00    -0.233 NA
ATOM     21  C   UNL A   1      39.664  32.096  34.103  1.00  0.00     0.311 A 
BRANCH  21  22
ATOM     22  N   UNL A   1      40.320  33.115  34.904  1.00  0.00     0.066 N 
ATOM     23  O   UNL A   1      40.684  34.164  34.356  1.00  0.00    -0.258 OA
ATOM     24  O   UNL A   1      40.537  32.838  36.094  1.00  0.00    -0.258 OA
ENDBRANCH  21  22
ENDBRANCH  10  15
ENDBRANCH   8   9
ENDBRANCH   5   8
ENDBRANCH   3   4
ENDBRANCH   2   3
ENDBRANCH   1   2
BRANCH   1  25
ATOM     25  C   UNL A   1      34.445  34.770  28.000  1.00  0.00     0.002 C 
BRANCH  25  26
ATOM     26  C   UNL A   1      35.334  33.537  28.168  1.00  0.00     0.021 C 
BRANCH  26  27
ATOM     27  C   UNL A   1      34.775  32.495  29.133  1.00  0.00     0.116 C 
BRANCH  27  28
ATOM     28  N   UNL A   1      34.041  31.454  28.432  1.00  0.00    -0.352 N 
ATOM     29  C   UNL A   1      34.513  30.300  27.857  1.00  0.00     0.251 C 
ATOM     30  H   UNL A   1      33.069  31.597  28.359  1.00  0.00     0.163 HD
ATOM     31  O   UNL A   1      33.793  29.644  27.113  1.00  0.00    -0.269 OA
BRANCH  29  32
ATOM     32  C   UNL A   1      35.898  29.868  28.131  1.00  0.00     0.039 A 
ATOM     33  C   UNL A   1      36.874  30.054  27.150  1.00  0.00     0.014 A 
ATOM     34  C   UNL A   1      36.231  29.283  29.357  1.00  0.00     0.014 A 
ATOM     35  C   UNL A   1      38.198  29.705  27.420  1.00  0.00     0.010 A 
ATOM     36  C   UNL A   1      37.562  29.004  29.650  1.00  0.00     0.010 A 
ATOM     37  C   UNL A   1      38.558  29.208  28.683  1.00  0.00    -0.014 A 
BRANCH  37  38
ATOM     38  C   UNL A   1      39.971  28.894  29.017  1.00  0.00     0.031 A 
ATOM     39  C   UNL A   1      40.846  29.942  29.651  1.00  0.00     0.074 A 
ATOM     40  C   UNL A   1      40.483  27.692  28.685  1.00  0.00     0.049 A 
ATOM     41  N   UNL A   1      42.120  29.889  29.941  1.00  0.00    -0.248 NA
ATOM     42  C   UNL A   1      40.210  31.229  29.979  1.00  0.00     0.031 C 
ATOM     43  C   UNL A   1      39.745  26.612  28.026  1.00  0.00     0.029 A 
ATOM     44  N   UNL A   1      41.746  27.182  28.843  1.00  0.00    -0.354 N 
ATOM     45  C   UNL A   1      42.441  31.133  30.469  1.00  0.00     0.074 A 
ATOM     46  C   UNL A   1      41.241  31.939  30.412  1.00  0.00     0.031 C 
ATOM     47  C   UNL A   1      40.564  25.561  27.854  1.00  0.00     0.029 A 
ATOM     48  C   UNL A   1      41.892  25.906  28.350  1.00  0.00     0.049 A 
ATOM     49  H   UNL A   1      42.480  27.680  29.271  1.00  0.00     0.167 HD
ATOM     50  C   UNL A   1      43.623  31.557  30.977  1.00  0.00     0.037 A 
ATOM     51  C   UNL A   1      42.976  25.108  28.292  1.00  0.00     0.037 A 
ATOM     52  C   UNL A   1      44.806  30.741  31.050  1.00  0.00     0.049 A 
ATOM     53  C   UNL A   1      44.281  25.605  28.855  1.00  0.00     0.074 A 
ATOM     54  C   UNL A   1      46.036  31.057  31.597  1.00  0.00     0.029 A 
ATOM     55  N   UNL A   1      44.908  29.446  30.559  1.00  0.00    -0.354 N 
ATOM     56  N   UNL A   1      44.552  26.763  29.408  1.00  0.00    -0.248 NA
ATOM     57  C   UNL A   1      45.426  24.687  28.791  1.00  0.00     0.031 C 
ATOM     58  C   UNL A   1      46.898  29.974  31.393  1.00  0.00     0.029 A 
ATOM     59  C   UNL A   1      46.188  28.960  30.770  1.00  0.00     0.049 A 
ATOM     60  H   UNL A   1      44.179  28.948  30.125  1.00  0.00     0.167 HD
ATOM     61  C   UNL A   1      45.889  26.702  29.787  1.00  0.00     0.074 A 
ATOM     62  C   UNL A   1      46.368  25.389  29.408  1.00  0.00     0.031 C 
ATOM     63  C   UNL A   1      46.649  27.645  30.397  1.00  0.00     0.037 A 
BRANCH  50  64
ATOM     64  C   UNL A   1      43.696  32.969  31.494  1.00  0.00     0.058 A 
ATOM     65  C   UNL A   1      43.602  33.258  32.866  1.00  0.00     0.135 A 
ATOM     66  C   UNL A   1      43.900  34.043  30.613  1.00  0.00     0.135 A 
ATOM     67  F   UNL A   1      43.393  32.272  33.752  1.00  0.00    -0.206 F 
ATOM     68  C   UNL A   1      43.679  34.563  33.341  1.00  0.00     0.059 A 
ATOM     69  C   UNL A   1      44.010  35.354  31.069  1.00  0.00     0.059 A 
ATOM     70  F   UNL A   1      43.995  33.825  29.292  1.00  0.00    -0.206 F 
ATOM     71  C   UNL A   1      43.884  35.605  32.435  1.00  0.00     0.060 A 
BRANCH  71  72
ATOM     72  S   UNL A   1      43.988  37.291  33.071  1.00  0.00     0.124 S 
ATOM     73  O   UNL A   1      42.860  37.323  33.997  1.00  0.00    -0.237 OA
ATOM     74  O   UNL A   1      45.312  37.312  33.683  1.00  0.00    -0.237 OA
ATOM     75  O   UNL A   1      43.840  38.115  31.875  1.00  0.00    -0.744 OA
ENDBRANCH  71  72
ENDBRANCH  50  64
BRANCH  51  76
ATOM     76  C   UNL A   1      42.869  23.751  27.694  1.00  0.00     0.058 A 
ATOM     77  C   UNL A   1      42.522  22.641  28.479  1.00  0.00     0.135 A 
ATOM     78  C   UNL A   1      43.096  23.537  26.326  1.00  0.00     0.135 A 
ATOM     79  F   UNL A   1      42.301  22.792  29.794  1.00  0.00    -0.206 F 
ATOM     80  C   UNL A   1      42.422  21.365  27.934  1.00  0.00     0.059 A 
ATOM     81  C   UNL A   1      42.975  22.275  25.751  1.00  0.00     0.059 A 
ATOM     82  F   UNL A   1      43.413  24.567  25.527  1.00  0.00    -0.206 F 
ATOM     83  C   UNL A   1      42.648  21.193  26.568  1.00  0.00     0.060 A 
BRANCH  83  84
ATOM     84  S   UNL A   1      42.471  19.538  25.862  1.00  0.00     0.124 S 
ATOM     85  O   UNL A   1      41.070  19.539  25.461  1.00  0.00    -0.237 OA
ATOM     86  O   UNL A   1      43.448  19.563  24.778  1.00  0.00    -0.237 OA
ATOM     87  O   UNL A   1      42.807  18.660  26.979  1.00  0.00    -0.744 OA
ENDBRANCH  83  84
ENDBRANCH  51  76
BRANCH  63  88
ATOM     88  C   UNL A   1      48.070  27.284  30.732  1.00  0.00     0.058 A 
ATOM     89  C   UNL A   1      49.131  27.561  29.857  1.00  0.00     0.135 A 
ATOM     90  C   UNL A   1      48.378  26.710  31.977  1.00  0.00     0.135 A 
ATOM     91  F   UNL A   1      48.890  28.102  28.652  1.00  0.00    -0.206 F 
ATOM     92  C   UNL A   1      50.447  27.264  30.196  1.00  0.00     0.059 A 
ATOM     93  C   UNL A   1      49.690  26.433  32.348  1.00  0.00     0.059 A 
ATOM     94  F   UNL A   1      47.401  26.433  32.855  1.00  0.00    -0.206 F 
ATOM     95  C   UNL A   1      50.717  26.705  31.447  1.00  0.00     0.060 A 
BRANCH  95  96
ATOM     96  S   UNL A   1      52.434  26.367  31.891  1.00  0.00     0.124 S 
ATOM     97  O   UNL A   1      52.533  24.938  31.613  1.00  0.00    -0.237 OA
ATOM     98  O   UNL A   1      53.169  27.242  30.984  1.00  0.00    -0.237 OA
ATOM     99  O   UNL A   1      52.499  26.738  33.301  1.00  0.00    -0.744 OA
ENDBRANCH  95  96
ENDBRANCH  63  88
ENDBRANCH  37  38
ENDBRANCH  29  32
ENDBRANCH  27  28
ENDBRANCH  26  27
ENDBRANCH  25  26
ENDBRANCH   1  25
TORSDOF 19
ENDMDL
MODEL 2
REMARK VINA RESULT:      -9.5      3.055      3.934
REMARK SMILES Cc1cnc(N2CCO[C@H](CC(=O)NCCCCCCNC(=O)c3ccc(-c4c5nc(c(-c6c(F)cc(S(=O)(=O)[O-])cc6F)c6ccc([nH]6)c(-c6c(F)cc(S(=O)(=O)[O-])cc6F)c6nc(c(-c7c(F)cc(S(=O)(=O)[O-])cc7F)c7ccc4[nH]7)C=C6)C=C5)cc3)C2)c([N+](=O)[O-])c1
REMARK SMILES IDX 17 1 16 2 15 3 14 4 12 5 13 6 11 8 10 9 6 10 7 11 90 12 8 13
REMARK SMILES IDX 9 14 5 15 1 16 2 17 3 18 95 19 4 20 91 21 92 22 93 23 94 24
REMARK SMILES IDX 18 25 19 26 20 27 21 28 22 29 23 31 24 32 25 33 89 34 26 35
REMARK SMILES IDX 88 36 27 37 28 38 29 39 82 40 30 41 87 42 81 43 83 44 31 45
REMARK SMILES IDX 86 46 80 47 79 48 32 50 66 51 45 52 65 53 46 54 49 55 64 56
REMARK SMILES IDX 84 57 47 58 48 59 63 61 85 62 50 63 33 64 34 65 43 66 35 67
REMARK SMILES IDX 36 68 42 69 44 70 37 71 38 72 39 73 40 74 41 75 67 76 68 77
REMARK SMILES IDX 77 78 69 79 70 80 76 81 78 82 71 83 72 84 73 85 74 86 75 87
REMARK SMILES IDX 51 88 52 89 61 90 53 91 54 92 60 93 62 94 55 95 56 96 57 97
REMARK SMILES IDX 58 98 59 99
REMARK H PARENT 14 7 21 30 83 49 49 60
REMARK Flexibility Score: inf
ROOT
ATOM      1  C   UNL A   1      33.221  34.233  28.174  1.00  0.00     0.002 C 
ENDROOT
BRANCH   1   2
ATOM      2  C   UNL A   1      32.960  35.212  29.324  1.00  0.00     0.021 C 
BRANCH   2   3
ATOM      3  C   UNL A   1      33.667  36.552  29.134  1.00  0.00     0.116 C 
BRANCH   3   4
ATOM      4  N   UNL A   1      33.294  37.461  30.198  1.00  0.00    -0.356 N 
ATOM      5  C   UNL A   1      33.480  37.305  31.535  1.00  0.00     0.222 C 
ATOM      6  O   UNL A   1      32.893  38.050  32.319  1.00  0.00    -0.275 OA
ATOM      7  H   UNL A   1      32.851  38.296  29.918  1.00  0.00     0.163 HD
BRANCH   5   8
ATOM      8  C   UNL A   1      34.443  36.256  32.021  1.00  0.00     0.133 C 
BRANCH   8   9
ATOM      9  C   UNL A   1      34.011  35.604  33.346  1.00  0.00     0.147 C 
ATOM     10  N   UNL A   1      35.810  34.020  33.207  1.00  0.00    -0.346 N 
ATOM     11  C   UNL A   1      34.922  32.867  33.061  1.00  0.00     0.147 C 
ATOM     12  C   UNL A   1      35.258  35.062  34.074  1.00  0.00     0.151 C 
ATOM     13  C   UNL A   1      33.572  33.359  32.506  1.00  0.00     0.182 C 
ATOM     14  O   UNL A   1      33.051  34.529  33.179  1.00  0.00    -0.374 OA
BRANCH  10  15
ATOM     15  C   UNL A   1      37.164  33.951  33.029  1.00  0.00     0.208 A 
ATOM     16  C   UNL A   1      41.274  33.519  31.879  1.00  0.00     0.046 C 
ATOM     17  C   UNL A   1      39.857  33.667  32.326  1.00  0.00    -0.026 A 
ATOM     18  C   UNL A   1      38.947  34.407  31.586  1.00  0.00     0.117 A 
ATOM     19  C   UNL A   1      39.382  33.055  33.480  1.00  0.00     0.094 A 
ATOM     20  N   UNL A   1      37.640  34.550  31.909  1.00  0.00    -0.233 NA
ATOM     21  C   UNL A   1      38.029  33.197  33.828  1.00  0.00     0.311 A 
BRANCH  21  22
ATOM     22  N   UNL A   1      37.547  32.390  34.935  1.00  0.00     0.066 N 
ATOM     23  O   UNL A   1      37.115  32.959  35.946  1.00  0.00    -0.258 OA
ATOM     24  O   UNL A   1      37.663  31.159  34.824  1.00  0.00    -0.258 OA
ENDBRANCH  21  22
ENDBRANCH  10  15
ENDBRANCH   8   9
ENDBRANCH   5   8
ENDBRANCH   3   4
ENDBRANCH   2   3
ENDBRANCH   1   2
BRANCH   1  25
ATOM     25  C   UNL A   1      34.309  33.192  28.465  1.00  0.00     0.002 C 
BRANCH  25  26
ATOM     26  C   UNL A   1      35.737  33.680  28.217  1.00  0.00     0.021 C 
BRANCH  26  27
ATOM     27  C   UNL A   1      36.813  32.778  28.813  1.00  0.00     0.116 C 
BRANCH  27  28
ATOM     28  N   UNL A   1      36.357  32.134  30.035  1.00  0.00    -0.352 N 
ATOM     29  C   UNL A   1      36.845  31.011  30.655  1.00  0.00     0.251 C 
ATOM     30  H   UNL A   1      35.591  32.565  30.479  1.00  0.00     0.163 HD
ATOM     31  O   UNL A   1      36.206  30.476  31.553  1.00  0.00    -0.269 OA
BRANCH  29  32
ATOM     32  C   UNL A   1      38.138  30.446  30.218  1.00  0.00     0.039 A 
ATOM     33  C   UNL A   1      38.352  30.211  28.858  1.00  0.00     0.014 A 
ATOM     34  C   UNL A   1      39.138  30.153  31.152  1.00  0.00     0.014 A 
ATOM     35  C   UNL A   1      39.591  29.734  28.428  1.00  0.00     0.010 A 
ATOM     36  C   UNL A   1      40.394  29.748  30.714  1.00  0.00     0.010 A 
ATOM     37  C   UNL A   1      40.632  29.530  29.349  1.00  0.00    -0.014 A 
BRANCH  37  38
ATOM     38  C   UNL A   1      41.980  29.089  28.906  1.00  0.00     0.031 A 
ATOM     39  C   UNL A   1      43.104  30.084  28.810  1.00  0.00     0.074 A 
ATOM     40  C   UNL A   1      42.170  27.810  28.525  1.00  0.00     0.049 A 
ATOM     41  N   UNL A   1      44.323  29.912  28.369  1.00  0.00    -0.248 NA
ATOM     42  C   UNL A   1      42.812  31.461  29.242  1.00  0.00     0.031 C 
ATOM     43  C   UNL A   1      41.144  26.764  28.531  1.00  0.00     0.029 A 
ATOM     44  N   UNL A   1      43.287  27.175  28.046  1.00  0.00    -0.354 N 
ATOM     45  C   UNL A   1      44.938  31.156  28.456  1.00  0.00     0.074 A 
ATOM     46  C   UNL A   1      43.941  32.085  28.943  1.00  0.00     0.031 C 
ATOM     47  C   UNL A   1      41.685  25.615  28.096  1.00  0.00     0.029 A 
ATOM     48  C   UNL A   1      43.081  25.850  27.740  1.00  0.00     0.049 A 
ATOM     49  H   UNL A   1      44.156  27.623  27.933  1.00  0.00     0.167 HD
ATOM     50  C   UNL A   1      46.220  31.488  28.178  1.00  0.00     0.037 A 
ATOM     51  C   UNL A   1      43.917  24.930  27.220  1.00  0.00     0.037 A 
ATOM     52  C   UNL A   1      47.211  30.551  27.715  1.00  0.00     0.049 A 
ATOM     53  C   UNL A   1      45.337  25.325  26.910  1.00  0.00     0.074 A 
ATOM     54  C   UNL A   1      48.551  30.774  27.459  1.00  0.00     0.029 A 
ATOM     55  N   UNL A   1      46.968  29.213  27.437  1.00  0.00    -0.354 N 
ATOM     56  N   UNL A   1      45.919  26.492  27.058  1.00  0.00    -0.248 NA
ATOM     57  C   UNL A   1      46.215  24.279  26.369  1.00  0.00     0.031 C 
ATOM     58  C   UNL A   1      49.109  29.584  26.978  1.00  0.00     0.029 A 
ATOM     59  C   UNL A   1      48.129  28.604  26.989  1.00  0.00     0.049 A 
ATOM     60  H   UNL A   1      46.099  28.762  27.543  1.00  0.00     0.167 HD
ATOM     61  C   UNL A   1      47.239  26.313  26.658  1.00  0.00     0.074 A 
ATOM     62  C   UNL A   1      47.371  24.923  26.271  1.00  0.00     0.031 C 
ATOM     63  C   UNL A   1      48.249  27.216  26.618  1.00  0.00     0.037 A 
BRANCH  50  64
ATOM     64  C   UNL A   1      46.629  32.924  28.366  1.00  0.00     0.058 A 
ATOM     65  C   UNL A   1      46.491  33.872  27.339  1.00  0.00     0.135 A 
ATOM     66  C   UNL A   1      47.130  33.368  29.601  1.00  0.00     0.135 A 
ATOM     67  F   UNL A   1      46.030  33.500  26.134  1.00  0.00    -0.206 F 
ATOM     68  C   UNL A   1      46.861  35.200  27.519  1.00  0.00     0.059 A 
ATOM     69  C   UNL A   1      47.480  34.699  29.813  1.00  0.00     0.059 A 
ATOM     70  F   UNL A   1      47.285  32.505  30.618  1.00  0.00    -0.206 F 
ATOM     71  C   UNL A   1      47.354  35.605  28.761  1.00  0.00     0.060 A 
BRANCH  71  72
ATOM     72  S   UNL A   1      47.824  37.334  28.979  1.00  0.00     0.124 S 
ATOM     73  O   UNL A   1      49.271  37.224  29.138  1.00  0.00    -0.237 OA
ATOM     74  O   UNL A   1      47.368  37.940  27.733  1.00  0.00    -0.237 OA
ATOM     75  O   UNL A   1      47.091  37.738  30.175  1.00  0.00    -0.744 OA
ENDBRANCH  71  72
ENDBRANCH  50  64
BRANCH  51  76
ATOM     76  C   UNL A   1      43.438  23.544  26.974  1.00  0.00     0.058 A 
ATOM     77  C   UNL A   1      43.099  23.115  25.682  1.00  0.00     0.135 A 
ATOM     78  C   UNL A   1      43.324  22.616  28.021  1.00  0.00     0.135 A 
ATOM     79  F   UNL A   1      43.185  23.967  24.649  1.00  0.00    -0.206 F 
ATOM     80  C   UNL A   1      42.645  21.823  25.438  1.00  0.00     0.059 A 
ATOM     81  C   UNL A   1      42.900  21.309  27.798  1.00  0.00     0.059 A 
ATOM     82  F   UNL A   1      43.653  22.969  29.273  1.00  0.00    -0.206 F 
ATOM     83  C   UNL A   1      42.552  20.926  26.503  1.00  0.00     0.060 A 
BRANCH  83  84
ATOM     84  S   UNL A   1      42.006  19.237  26.167  1.00  0.00     0.124 S 
ATOM     85  O   UNL A   1      40.582  19.432  25.923  1.00  0.00    -0.237 OA
ATOM     86  O   UNL A   1      42.812  18.881  25.004  1.00  0.00    -0.237 OA
ATOM     87  O   UNL A   1      42.344  18.524  27.396  1.00  0.00    -0.744 OA
ENDBRANCH  83  84
ENDBRANCH  51  76
BRANCH  63  88
ATOM     88  C   UNL A   1      49.603  26.727  26.180  1.00  0.00     0.058 A 
ATOM     89  C   UNL A   1      50.040  26.850  24.852  1.00  0.00     0.135 A 
ATOM     90  C   UNL A   1      50.497  26.186  27.118  1.00  0.00     0.135 A 
ATOM     91  F   UNL A   1      49.222  27.353  23.914  1.00  0.00    -0.206 F 
ATOM     92  C   UNL A   1      51.311  26.436  24.466  1.00  0.00     0.059 A 
ATOM     93  C   UNL A   1      51.783  25.794  26.760  1.00  0.00     0.059 A 
ATOM     94  F   UNL A   1      50.131  26.055  28.403  1.00  0.00    -0.206 F 
ATOM     95  C   UNL A   1      52.177  25.914  25.429  1.00  0.00     0.060 A 
BRANCH  95  96
ATOM     96  S   UNL A   1      53.839  25.423  24.922  1.00  0.00     0.124 S 
ATOM     97  O   UNL A   1      53.671  23.988  24.716  1.00  0.00    -0.237 OA
ATOM     98  O   UNL A   1      54.045  26.217  23.715  1.00  0.00    -0.237 OA
ATOM     99  O   UNL A   1      54.668  25.800  26.063  1.00  0.00    -0.744 OA
ENDBRANCH  95  96
ENDBRANCH  63  88
ENDBRANCH  37  38
ENDBRANCH  29  32
ENDBRANCH  27  28
ENDBRANCH  26  27
ENDBRANCH  25  26
ENDBRANCH   1  25
TORSDOF 19
ENDMDL
MODEL 3
REMARK VINA RESULT:      -9.5      5.441     11.552
REMARK SMILES Cc1cnc(N2CCO[C@H](CC(=O)NCCCCCCNC(=O)c3ccc(-c4c5nc(c(-c6c(F)cc(S(=O)(=O)[O-])cc6F)c6ccc([nH]6)c(-c6c(F)cc(S(=O)(=O)[O-])cc6F)c6nc(c(-c7c(F)cc(S(=O)(=O)[O-])cc7F)c7ccc4[nH]7)C=C6)C=C5)cc3)C2)c([N+](=O)[O-])c1
REMARK SMILES IDX 17 1 16 2 15 3 14 4 12 5 13 6 11 8 10 9 6 10 7 11 90 12 8 13
REMARK SMILES IDX 9 14 5 15 1 16 2 17 3 18 95 19 4 20 91 21 92 22 93 23 94 24
REMARK SMILES IDX 18 25 19 26 20 27 21 28 22 29 23 31 24 32 25 33 89 34 26 35
REMARK SMILES IDX 88 36 27 37 28 38 29 39 82 40 30 41 87 42 81 43 83 44 31 45
REMARK SMILES IDX 86 46 80 47 79 48 32 50 66 51 45 52 65 53 46 54 49 55 64 56
REMARK SMILES IDX 84 57 47 58 48 59 63 61 85 62 50 63 33 64 34 65 43 66 35 67
REMARK SMILES IDX 36 68 42 69 44 70 37 71 38 72 39 73 40 74 41 75 67 76 68 77
REMARK SMILES IDX 77 78 69 79 70 80 76 81 78 82 71 83 72 84 73 85 74 86 75 87
REMARK SMILES IDX 51 88 52 89 61 90 53 91 54 92 60 93 62 94 55 95 56 96 57 97
REMARK SMILES IDX 58 98 59 99
REMARK H PARENT 14 7 21 30 83 49 49 60
REMARK Flexibility Score: inf
ROOT
ATOM      1  C   UNL A   1      36.206  21.311  25.447  1.00  0.00     0.002 C 
ENDROOT
BRANCH   1   2
ATOM      2  C   UNL A   1      36.176  22.818  25.726  1.00  0.00     0.021 C 
BRANCH   2   3
ATOM      3  C   UNL A   1      35.611  23.626  24.559  1.00  0.00     0.116 C 
BRANCH   3   4
ATOM      4  N   UNL A   1      35.278  24.964  25.003  1.00  0.00    -0.356 N 
ATOM      5  C   UNL A   1      34.044  25.495  25.204  1.00  0.00     0.222 C 
ATOM      6  O   UNL A   1      33.924  26.712  25.346  1.00  0.00    -0.275 OA
ATOM      7  H   UNL A   1      36.040  25.563  25.180  1.00  0.00     0.163 HD
BRANCH   5   8
ATOM      8  C   UNL A   1      32.858  24.574  25.303  1.00  0.00     0.133 C 
BRANCH   8   9
ATOM      9  C   UNL A   1      32.594  24.077  26.735  1.00  0.00     0.147 C 
ATOM     10  N   UNL A   1      31.644  22.035  25.901  1.00  0.00    -0.346 N 
ATOM     11  C   UNL A   1      30.305  22.327  26.413  1.00  0.00     0.147 C 
ATOM     12  C   UNL A   1      32.711  22.539  26.767  1.00  0.00     0.151 C 
ATOM     13  C   UNL A   1      30.172  23.852  26.587  1.00  0.00     0.182 C 
ATOM     14  O   UNL A   1      31.298  24.468  27.256  1.00  0.00    -0.374 OA
BRANCH  10  15
ATOM     15  C   UNL A   1      31.912  21.000  25.049  1.00  0.00     0.208 A 
ATOM     16  C   UNL A   1      33.270  17.651  22.739  1.00  0.00     0.046 C 
ATOM     17  C   UNL A   1      32.771  18.832  23.505  1.00  0.00    -0.026 A 
ATOM     18  C   UNL A   1      32.569  18.763  24.874  1.00  0.00     0.117 A 
ATOM     19  C   UNL A   1      32.514  20.052  22.890  1.00  0.00     0.094 A 
ATOM     20  N   UNL A   1      32.158  19.803  25.637  1.00  0.00    -0.233 NA
ATOM     21  C   UNL A   1      32.085  21.139  23.669  1.00  0.00     0.311 A 
BRANCH  21  22
ATOM     22  N   UNL A   1      32.008  22.430  23.008  1.00  0.00     0.066 N 
ATOM     23  O   UNL A   1      30.949  23.067  23.061  1.00  0.00    -0.258 OA
ATOM     24  O   UNL A   1      33.007  22.790  22.365  1.00  0.00    -0.258 OA
ENDBRANCH  21  22
ENDBRANCH  10  15
ENDBRANCH   8   9
ENDBRANCH   5   8
ENDBRANCH   3   4
ENDBRANCH   2   3
ENDBRANCH   1   2
BRANCH   1  25
ATOM     25  C   UNL A   1      37.377  20.854  24.571  1.00  0.00     0.002 C 
BRANCH  25  26
ATOM     26  C   UNL A   1      38.225  19.735  25.178  1.00  0.00     0.021 C 
BRANCH  26  27
ATOM     27  C   UNL A   1      39.430  20.229  25.972  1.00  0.00     0.116 C 
BRANCH  27  28
ATOM     28  N   UNL A   1      40.454  19.203  26.088  1.00  0.00    -0.352 N 
ATOM     29  C   UNL A   1      41.818  19.345  26.143  1.00  0.00     0.251 C 
ATOM     30  H   UNL A   1      40.122  18.277  26.132  1.00  0.00     0.163 HD
ATOM     31  O   UNL A   1      42.545  18.367  26.014  1.00  0.00    -0.269 OA
BRANCH  29  32
ATOM     32  C   UNL A   1      42.399  20.688  26.342  1.00  0.00     0.039 A 
ATOM     33  C   UNL A   1      42.765  21.443  25.226  1.00  0.00     0.014 A 
ATOM     34  C   UNL A   1      42.579  21.201  27.631  1.00  0.00     0.014 A 
ATOM     35  C   UNL A   1      43.260  22.736  25.401  1.00  0.00     0.010 A 
ATOM     36  C   UNL A   1      43.002  22.515  27.800  1.00  0.00     0.010 A 
ATOM     37  C   UNL A   1      43.351  23.294  26.686  1.00  0.00    -0.014 A 
BRANCH  37  38
ATOM     38  C   UNL A   1      43.809  24.693  26.891  1.00  0.00     0.031 A 
ATOM     39  C   UNL A   1      45.264  25.040  26.727  1.00  0.00     0.074 A 
ATOM     40  C   UNL A   1      42.928  25.630  27.290  1.00  0.00     0.049 A 
ATOM     41  N   UNL A   1      45.870  26.180  26.940  1.00  0.00    -0.248 NA
ATOM     42  C   UNL A   1      46.161  23.957  26.291  1.00  0.00     0.031 C 
ATOM     43  C   UNL A   1      41.499  25.402  27.527  1.00  0.00     0.029 A 
ATOM     44  N   UNL A   1      43.104  26.959  27.583  1.00  0.00    -0.354 N 
ATOM     45  C   UNL A   1      47.215  25.949  26.680  1.00  0.00     0.074 A 
ATOM     46  C   UNL A   1      47.346  24.548  26.343  1.00  0.00     0.031 C 
ATOM     47  C   UNL A   1      40.928  26.556  27.908  1.00  0.00     0.029 A 
ATOM     48  C   UNL A   1      41.951  27.593  27.986  1.00  0.00     0.049 A 
ATOM     49  H   UNL A   1      43.972  27.417  27.510  1.00  0.00     0.167 HD
ATOM     50  C   UNL A   1      48.244  26.829  26.697  1.00  0.00     0.037 A 
ATOM     51  C   UNL A   1      41.745  28.863  28.385  1.00  0.00     0.037 A 
ATOM     52  C   UNL A   1      48.100  28.227  27.012  1.00  0.00     0.049 A 
ATOM     53  C   UNL A   1      42.906  29.822  28.405  1.00  0.00     0.074 A 
ATOM     54  C   UNL A   1      49.069  29.214  27.003  1.00  0.00     0.029 A 
ATOM     55  N   UNL A   1      46.913  28.836  27.395  1.00  0.00    -0.354 N 
ATOM     56  N   UNL A   1      44.161  29.602  28.095  1.00  0.00    -0.248 NA
ATOM     57  C   UNL A   1      42.622  31.202  28.822  1.00  0.00     0.031 C 
ATOM     58  C   UNL A   1      48.480  30.410  27.428  1.00  0.00     0.029 A 
ATOM     59  C   UNL A   1      47.131  30.181  27.647  1.00  0.00     0.049 A 
ATOM     60  H   UNL A   1      46.045  28.380  27.475  1.00  0.00     0.167 HD
ATOM     61  C   UNL A   1      44.811  30.822  28.250  1.00  0.00     0.074 A 
ATOM     62  C   UNL A   1      43.808  31.777  28.672  1.00  0.00     0.031 C 
ATOM     63  C   UNL A   1      46.119  31.124  28.056  1.00  0.00     0.037 A 
BRANCH  50  64
ATOM     64  C   UNL A   1      49.617  26.309  26.367  1.00  0.00     0.058 A 
ATOM     65  C   UNL A   1      50.127  26.351  25.059  1.00  0.00     0.135 A 
ATOM     66  C   UNL A   1      50.449  25.796  27.375  1.00  0.00     0.135 A 
ATOM     67  F   UNL A   1      49.371  26.818  24.052  1.00  0.00    -0.206 F 
ATOM     68  C   UNL A   1      51.400  25.877  24.758  1.00  0.00     0.059 A 
ATOM     69  C   UNL A   1      51.737  25.345  27.103  1.00  0.00     0.059 A 
ATOM     70  F   UNL A   1      50.012  25.731  28.643  1.00  0.00    -0.206 F 
ATOM     71  C   UNL A   1      52.198  25.376  25.788  1.00  0.00     0.060 A 
BRANCH  71  72
ATOM     72  S   UNL A   1      53.849  24.772  25.380  1.00  0.00     0.124 S 
ATOM     73  O   UNL A   1      54.552  24.973  26.644  1.00  0.00    -0.237 OA
ATOM     74  O   UNL A   1      53.592  23.385  25.012  1.00  0.00    -0.237 OA
ATOM     75  O   UNL A   1      54.269  25.641  24.285  1.00  0.00    -0.744 OA
ENDBRANCH  71  72
ENDBRANCH  50  64
BRANCH  51  76
ATOM     76  C   UNL A   1      40.381  29.305  28.782  1.00  0.00     0.058 A 
ATOM     77  C   UNL A   1      40.052  29.509  30.131  1.00  0.00     0.135 A 
ATOM     78  C   UNL A   1      39.385  29.547  27.824  1.00  0.00     0.135 A 
ATOM     79  F   UNL A   1      40.969  29.285  31.085  1.00  0.00    -0.206 F 
ATOM     80  C   UNL A   1      38.780  29.918  30.517  1.00  0.00     0.059 A 
ATOM     81  C   UNL A   1      38.113  29.984  28.183  1.00  0.00     0.059 A 
ATOM     82  F   UNL A   1      39.652  29.385  26.519  1.00  0.00    -0.206 F 
ATOM     83  C   UNL A   1      37.818  30.156  29.535  1.00  0.00     0.060 A 
BRANCH  83  84
ATOM     84  S   UNL A   1      36.183  30.731  30.046  1.00  0.00     0.124 S 
ATOM     85  O   UNL A   1      36.417  32.158  30.225  1.00  0.00    -0.237 OA
ATOM     86  O   UNL A   1      35.357  30.355  28.903  1.00  0.00    -0.237 OA
ATOM     87  O   UNL A   1      35.929  29.974  31.269  1.00  0.00    -0.744 OA
ENDBRANCH  83  84
ENDBRANCH  51  76
BRANCH  63  88
ATOM     88  C   UNL A   1      46.541  32.554  28.257  1.00  0.00     0.058 A 
ATOM     89  C   UNL A   1      47.057  33.008  29.481  1.00  0.00     0.135 A 
ATOM     90  C   UNL A   1      46.485  33.464  27.189  1.00  0.00     0.135 A 
ATOM     91  F   UNL A   1      47.125  32.181  30.536  1.00  0.00    -0.206 F 
ATOM     92  C   UNL A   1      47.486  34.322  29.643  1.00  0.00     0.059 A 
ATOM     93  C   UNL A   1      46.937  34.773  27.321  1.00  0.00     0.059 A 
ATOM     94  F   UNL A   1      46.008  33.077  25.995  1.00  0.00    -0.206 F 
ATOM     95  C   UNL A   1      47.427  35.195  28.555  1.00  0.00     0.060 A 
BRANCH  95  96
ATOM     96  S   UNL A   1      48.030  36.884  28.768  1.00  0.00     0.124 S 
ATOM     97  O   UNL A   1      49.280  36.846  28.015  1.00  0.00    -0.237 OA
ATOM     98  O   UNL A   1      46.956  37.675  28.175  1.00  0.00    -0.237 OA
ATOM     99  O   UNL A   1      48.172  37.015  30.214  1.00  0.00    -0.744 OA
ENDBRANCH  95  96
ENDBRANCH  63  88
ENDBRANCH  37  38
ENDBRANCH  29  32
ENDBRANCH  27  28
ENDBRANCH  26  27
ENDBRANCH  25  26
ENDBRANCH   1  25
TORSDOF 19
ENDMDL
