MODEL 1
REMARK VINA RESULT:     -11.1      0.000      0.000
REMARK SMILES CC(C)[C@H]([NH2+]C[C@H]1CC[C@@H](C(=O)NCCCCCCNC(=O)c2ccc(-c3c4nc(c(-c5c(F)cc(S(=O)(=O)[O-])cc5F)c5ccc([nH]5)c(-c5c(F)cc(S(=O)(=O)[O-])cc5F)c5nc(c(-c6c(F)cc(S(=O)(=O)[O-])cc6F)c6ccc3[nH]6)C=C5)C=C4)cc2)CC1)c1ccccc1
REMARK SMILES IDX 16 1 15 2 14 3 13 4 11 5 12 6 10 8 7 9 8 10 90 11 9 12 89 13
REMARK SMILES IDX 6 14 5 15 4 18 2 19 1 20 3 21 91 22 92 23 96 24 93 25 95 26
REMARK SMILES IDX 94 27 17 28 18 29 19 30 20 31 21 32 22 34 23 35 24 36 88 37
REMARK SMILES IDX 25 38 87 39 26 40 27 41 28 42 81 43 29 44 86 45 80 46 82 47
REMARK SMILES IDX 30 48 85 49 79 50 78 51 31 53 65 54 44 55 64 56 45 57 48 58
REMARK SMILES IDX 63 59 83 60 46 61 47 62 62 64 84 65 49 66 32 67 33 68 42 69
REMARK SMILES IDX 34 70 35 71 41 72 43 73 36 74 37 75 38 76 39 77 40 78 66 79
REMARK SMILES IDX 67 80 76 81 68 82 69 83 75 84 77 85 70 86 71 87 72 88 73 89
REMARK SMILES IDX 74 90 50 91 51 92 60 93 52 94 53 95 59 96 61 97 54 98 55 99
REMARK SMILES IDX 56 100 57 101 58 102
REMARK H PARENT 13 7 5 16 5 17 20 33 82 52 48 63
REMARK Flexibility Score: inf
ROOT
ATOM      1  C   UNL A   1      34.552  29.346  27.327  1.00  0.00     0.002 C 
ENDROOT
BRANCH   1   2
ATOM      2  C   UNL A   1      33.640  28.557  26.365  1.00  0.00     0.021 C 
BRANCH   2   3
ATOM      3  C   UNL A   1      32.170  28.431  26.795  1.00  0.00     0.116 C 
BRANCH   3   4
ATOM      4  N   UNL A   1      31.718  27.080  27.055  1.00  0.00    -0.356 N 
ATOM      5  C   UNL A   1      31.611  26.000  26.237  1.00  0.00     0.223 C 
ATOM      6  O   UNL A   1      31.554  24.899  26.803  1.00  0.00    -0.275 OA
ATOM      7  H   UNL A   1      31.438  26.915  27.985  1.00  0.00     0.163 HD
BRANCH   5   8
ATOM      8  C   UNL A   1      31.546  26.048  24.699  1.00  0.00     0.078 C 
ATOM      9  C   UNL A   1      31.991  23.603  22.985  1.00  0.00     0.044 C 
ATOM     10  C   UNL A   1      30.691  23.825  23.768  1.00  0.00     0.010 C 
ATOM     11  C   UNL A   1      33.171  24.528  23.346  1.00  0.00     0.010 C 
ATOM     12  C   UNL A   1      30.392  25.287  24.054  1.00  0.00     0.014 C 
ATOM     13  C   UNL A   1      32.853  25.905  23.930  1.00  0.00     0.014 C 
BRANCH   9  14
ATOM     14  C   UNL A   1      32.409  22.099  22.967  1.00  0.00     0.264 C 
BRANCH  14  15
ATOM     15  N   UNL A   1      32.135  21.328  24.194  1.00  0.00    -0.340 N 
ATOM     16  H   UNL A   1      31.754  21.970  24.890  1.00  0.00     0.346 HD
ATOM     17  H   UNL A   1      31.490  20.587  23.920  1.00  0.00     0.346 HD
BRANCH  15  18
ATOM     18  C   UNL A   1      33.324  20.634  24.805  1.00  0.00     0.216 C 
BRANCH  18  19
ATOM     19  C   UNL A   1      33.602  19.291  24.011  1.00  0.00     0.046 C 
ATOM     20  C   UNL A   1      34.657  18.352  24.606  1.00  0.00     0.014 C 
ATOM     21  C   UNL A   1      32.399  18.469  23.558  1.00  0.00     0.014 C 
ENDBRANCH  18  19
BRANCH  18  22
ATOM     22  C   UNL A   1      34.463  21.669  25.043  1.00  0.00     0.009 A 
ATOM     23  C   UNL A   1      35.633  21.744  24.273  1.00  0.00     0.010 A 
ATOM     24  C   UNL A   1      34.410  22.570  26.134  1.00  0.00     0.010 A 
ATOM     25  C   UNL A   1      36.596  22.754  24.461  1.00  0.00     0.001 A 
ATOM     26  C   UNL A   1      35.362  23.591  26.320  1.00  0.00     0.001 A 
ATOM     27  C   UNL A   1      36.437  23.708  25.454  1.00  0.00     0.000 A 
ENDBRANCH  18  22
ENDBRANCH  15  18
ENDBRANCH  14  15
ENDBRANCH   9  14
ENDBRANCH   5   8
ENDBRANCH   3   4
ENDBRANCH   2   3
ENDBRANCH   1   2
BRANCH   1  28
ATOM     28  C   UNL A   1      33.992  30.701  27.797  1.00  0.00     0.002 C 
BRANCH  28  29
ATOM     29  C   UNL A   1      34.946  31.898  27.657  1.00  0.00     0.021 C 
BRANCH  29  30
ATOM     30  C   UNL A   1      35.546  32.455  28.952  1.00  0.00     0.116 C 
BRANCH  30  31
ATOM     31  N   UNL A   1      35.452  31.561  30.100  1.00  0.00    -0.352 N 
ATOM     32  C   UNL A   1      36.296  30.731  30.804  1.00  0.00     0.251 C 
ATOM     33  H   UNL A   1      34.541  31.545  30.471  1.00  0.00     0.163 HD
ATOM     34  O   UNL A   1      35.804  30.214  31.815  1.00  0.00    -0.269 OA
BRANCH  32  35
ATOM     35  C   UNL A   1      37.709  30.364  30.459  1.00  0.00     0.039 A 
ATOM     36  C   UNL A   1      38.003  30.161  29.091  1.00  0.00     0.014 A 
ATOM     37  C   UNL A   1      38.749  30.165  31.360  1.00  0.00     0.014 A 
ATOM     38  C   UNL A   1      39.283  29.774  28.648  1.00  0.00     0.010 A 
ATOM     39  C   UNL A   1      40.047  29.840  30.916  1.00  0.00     0.010 A 
ATOM     40  C   UNL A   1      40.333  29.615  29.558  1.00  0.00    -0.014 A 
BRANCH  40  41
ATOM     41  C   UNL A   1      41.698  29.153  29.138  1.00  0.00     0.031 A 
ATOM     42  C   UNL A   1      42.846  30.139  29.090  1.00  0.00     0.074 A 
ATOM     43  C   UNL A   1      41.926  27.877  28.752  1.00  0.00     0.049 A 
ATOM     44  N   UNL A   1      44.065  29.981  28.633  1.00  0.00    -0.248 NA
ATOM     45  C   UNL A   1      42.575  31.492  29.599  1.00  0.00     0.031 C 
ATOM     46  C   UNL A   1      40.933  26.803  28.734  1.00  0.00     0.029 A 
ATOM     47  N   UNL A   1      43.070  27.270  28.280  1.00  0.00    -0.354 N 
ATOM     48  C   UNL A   1      44.689  31.218  28.770  1.00  0.00     0.074 A 
ATOM     49  C   UNL A   1      43.699  32.127  29.303  1.00  0.00     0.031 C 
ATOM     50  C   UNL A   1      41.507  25.675  28.283  1.00  0.00     0.029 A 
ATOM     51  C   UNL A   1      42.900  25.947  27.939  1.00  0.00     0.049 A 
ATOM     52  H   UNL A   1      43.931  27.740  28.196  1.00  0.00     0.167 HD
ATOM     53  C   UNL A   1      45.972  31.567  28.502  1.00  0.00     0.037 A 
ATOM     54  C   UNL A   1      43.756  25.052  27.398  1.00  0.00     0.037 A 
ATOM     55  C   UNL A   1      46.979  30.657  28.015  1.00  0.00     0.049 A 
ATOM     56  C   UNL A   1      45.175  25.463  27.088  1.00  0.00     0.074 A 
ATOM     57  C   UNL A   1      48.318  30.909  27.773  1.00  0.00     0.029 A 
ATOM     58  N   UNL A   1      46.762  29.324  27.702  1.00  0.00    -0.354 N 
ATOM     59  N   UNL A   1      45.753  26.628  27.263  1.00  0.00    -0.248 NA
ATOM     60  C   UNL A   1      46.060  24.438  26.513  1.00  0.00     0.031 C 
ATOM     61  C   UNL A   1      48.899  29.745  27.260  1.00  0.00     0.029 A 
ATOM     62  C   UNL A   1      47.937  28.749  27.245  1.00  0.00     0.049 A 
ATOM     63  H   UNL A   1      45.901  28.856  27.789  1.00  0.00     0.167 HD
ATOM     64  C   UNL A   1      47.074  26.463  26.854  1.00  0.00     0.074 A 
ATOM     65  C   UNL A   1      47.213  25.087  26.429  1.00  0.00     0.031 C 
ATOM     66  C   UNL A   1      48.081  27.372  26.839  1.00  0.00     0.037 A 
BRANCH  53  67
ATOM     67  C   UNL A   1      46.373  33.002  28.727  1.00  0.00     0.058 A 
ATOM     68  C   UNL A   1      46.875  33.448  29.961  1.00  0.00     0.135 A 
ATOM     69  C   UNL A   1      46.297  33.936  27.679  1.00  0.00     0.135 A 
ATOM     70  F   UNL A   1      46.960  32.604  31.001  1.00  0.00    -0.206 F 
ATOM     71  C   UNL A   1      47.249  34.774  30.158  1.00  0.00     0.059 A 
ATOM     72  C   UNL A   1      46.700  35.258  27.844  1.00  0.00     0.059 A 
ATOM     73  F   UNL A   1      45.832  33.565  26.475  1.00  0.00    -0.206 F 
ATOM     74  C   UNL A   1      47.159  35.671  29.094  1.00  0.00     0.060 A 
BRANCH  74  75
ATOM     75  S   UNL A   1      47.649  37.388  29.368  1.00  0.00     0.124 S 
ATOM     76  O   UNL A   1      47.196  38.019  28.131  1.00  0.00    -0.237 OA
ATOM     77  O   UNL A   1      46.893  37.737  30.569  1.00  0.00    -0.237 OA
ATOM     78  O   UNL A   1      49.093  37.308  29.539  1.00  0.00    -0.744 OA
ENDBRANCH  74  75
ENDBRANCH  53  67
BRANCH  54  79
ATOM     79  C   UNL A   1      43.301  23.660  27.113  1.00  0.00     0.058 A 
ATOM     80  C   UNL A   1      42.995  23.251  25.805  1.00  0.00     0.135 A 
ATOM     81  C   UNL A   1      43.159  22.713  28.139  1.00  0.00     0.135 A 
ATOM     82  F   UNL A   1      43.098  24.122  24.789  1.00  0.00    -0.206 F 
ATOM     83  C   UNL A   1      42.551  21.962  25.526  1.00  0.00     0.059 A 
ATOM     84  C   UNL A   1      42.744  21.410  27.882  1.00  0.00     0.059 A 
ATOM     85  F   UNL A   1      43.445  23.048  29.407  1.00  0.00    -0.206 F 
ATOM     86  C   UNL A   1      42.432  21.046  26.573  1.00  0.00     0.060 A 
BRANCH  86  87
ATOM     87  S   UNL A   1      41.905  19.360  26.193  1.00  0.00     0.124 S 
ATOM     88  O   UNL A   1      42.703  19.063  25.009  1.00  0.00    -0.237 OA
ATOM     89  O   UNL A   1      42.277  18.643  27.409  1.00  0.00    -0.237 OA
ATOM     90  O   UNL A   1      40.471  19.500  25.970  1.00  0.00    -0.744 OA
ENDBRANCH  86  87
ENDBRANCH  54  79
BRANCH  66  91
ATOM     91  C   UNL A   1      49.445  26.912  26.399  1.00  0.00     0.058 A 
ATOM     92  C   UNL A   1      50.333  26.270  27.275  1.00  0.00     0.135 A 
ATOM     93  C   UNL A   1      49.836  27.046  25.056  1.00  0.00     0.135 A 
ATOM     94  F   UNL A   1      50.014  26.119  28.570  1.00  0.00    -0.206 F 
ATOM     95  C   UNL A   1      51.567  25.792  26.841  1.00  0.00     0.059 A 
ATOM     96  C   UNL A   1      51.051  26.549  24.593  1.00  0.00     0.059 A 
ATOM     97  F   UNL A   1      49.022  27.641  24.171  1.00  0.00    -0.206 F 
ATOM     98  C   UNL A   1      51.915  25.931  25.496  1.00  0.00     0.060 A 
BRANCH  98  99
ATOM     99  S   UNL A   1      53.495  25.259  24.936  1.00  0.00     0.124 S 
ATOM    100  O   UNL A   1      53.321  23.836  25.204  1.00  0.00    -0.237 OA
ATOM    101  O   UNL A   1      53.514  25.641  23.527  1.00  0.00    -0.237 OA
ATOM    102  O   UNL A   1      54.474  25.942  25.778  1.00  0.00    -0.744 OA
ENDBRANCH  98  99
ENDBRANCH  66  91
ENDBRANCH  40  41
ENDBRANCH  32  35
ENDBRANCH  30  31
ENDBRANCH  29  30
ENDBRANCH  28  29
ENDBRANCH   1  28
TORSDOF 21
ENDMDL
MODEL 2
REMARK VINA RESULT:     -10.9      1.075      1.930
REMARK SMILES CC(C)[C@H]([NH2+]C[C@H]1CC[C@@H](C(=O)NCCCCCCNC(=O)c2ccc(-c3c4nc(c(-c5c(F)cc(S(=O)(=O)[O-])cc5F)c5ccc([nH]5)c(-c5c(F)cc(S(=O)(=O)[O-])cc5F)c5nc(c(-c6c(F)cc(S(=O)(=O)[O-])cc6F)c6ccc3[nH]6)C=C5)C=C4)cc2)CC1)c1ccccc1
REMARK SMILES IDX 16 1 15 2 14 3 13 4 11 5 12 6 10 8 7 9 8 10 90 11 9 12 89 13
REMARK SMILES IDX 6 14 5 15 4 18 2 19 1 20 3 21 91 22 92 23 96 24 93 25 95 26
REMARK SMILES IDX 94 27 17 28 18 29 19 30 20 31 21 32 22 34 23 35 24 36 88 37
REMARK SMILES IDX 25 38 87 39 26 40 27 41 28 42 81 43 29 44 86 45 80 46 82 47
REMARK SMILES IDX 30 48 85 49 79 50 78 51 31 53 65 54 44 55 64 56 45 57 48 58
REMARK SMILES IDX 63 59 83 60 46 61 47 62 62 64 84 65 49 66 32 67 33 68 42 69
REMARK SMILES IDX 34 70 35 71 41 72 43 73 36 74 37 75 38 76 39 77 40 78 66 79
REMARK SMILES IDX 67 80 76 81 68 82 69 83 75 84 77 85 70 86 71 87 72 88 73 89
REMARK SMILES IDX 74 90 50 91 51 92 60 93 52 94 53 95 59 96 61 97 54 98 55 99
REMARK SMILES IDX 56 100 57 101 58 102
REMARK H PARENT 13 7 5 16 5 17 20 33 82 52 48 63
REMARK Flexibility Score: inf
ROOT
ATOM      1  C   UNL A   1      32.135  29.270  26.361  1.00  0.00     0.002 C 
ENDROOT
BRANCH   1   2
ATOM      2  C   UNL A   1      31.638  29.348  24.903  1.00  0.00     0.021 C 
BRANCH   2   3
ATOM      3  C   UNL A   1      32.683  29.022  23.824  1.00  0.00     0.116 C 
BRANCH   3   4
ATOM      4  N   UNL A   1      33.388  27.771  24.008  1.00  0.00    -0.356 N 
ATOM      5  C   UNL A   1      32.941  26.487  24.028  1.00  0.00     0.223 C 
ATOM      6  O   UNL A   1      33.799  25.615  23.830  1.00  0.00    -0.275 OA
ATOM      7  H   UNL A   1      34.359  27.866  24.142  1.00  0.00     0.163 HD
BRANCH   5   8
ATOM      8  C   UNL A   1      31.486  26.053  24.283  1.00  0.00     0.078 C 
ATOM      9  C   UNL A   1      30.776  23.305  25.310  1.00  0.00     0.044 C 
ATOM     10  C   UNL A   1      31.376  24.385  26.218  1.00  0.00     0.010 C 
ATOM     11  C   UNL A   1      30.830  23.581  23.794  1.00  0.00     0.010 C 
ATOM     12  C   UNL A   1      31.109  25.802  25.741  1.00  0.00     0.014 C 
ATOM     13  C   UNL A   1      30.871  25.037  23.330  1.00  0.00     0.014 C 
BRANCH   9  14
ATOM     14  C   UNL A   1      31.312  21.882  25.666  1.00  0.00     0.264 C 
BRANCH  14  15
ATOM     15  N   UNL A   1      32.640  21.824  26.305  1.00  0.00    -0.340 N 
ATOM     16  H   UNL A   1      33.122  22.701  26.109  1.00  0.00     0.346 HD
ATOM     17  H   UNL A   1      32.465  21.662  27.297  1.00  0.00     0.346 HD
BRANCH  15  18
ATOM     18  C   UNL A   1      33.530  20.695  25.854  1.00  0.00     0.216 C 
BRANCH  18  19
ATOM     19  C   UNL A   1      32.638  19.572  25.179  1.00  0.00     0.046 C 
ATOM     20  C   UNL A   1      32.557  19.593  23.649  1.00  0.00     0.014 C 
ATOM     21  C   UNL A   1      32.826  18.134  25.652  1.00  0.00     0.014 C 
ENDBRANCH  18  19
BRANCH  18  22
ATOM     22  C   UNL A   1      34.771  21.278  25.114  1.00  0.00     0.009 A 
ATOM     23  C   UNL A   1      36.074  20.776  25.246  1.00  0.00     0.010 A 
ATOM     24  C   UNL A   1      34.657  22.431  24.301  1.00  0.00     0.010 A 
ATOM     25  C   UNL A   1      37.152  21.271  24.488  1.00  0.00     0.001 A 
ATOM     26  C   UNL A   1      35.727  22.924  23.530  1.00  0.00     0.001 A 
ATOM     27  C   UNL A   1      36.970  22.314  23.593  1.00  0.00     0.000 A 
ENDBRANCH  18  22
ENDBRANCH  15  18
ENDBRANCH  14  15
ENDBRANCH   9  14
ENDBRANCH   5   8
ENDBRANCH   3   4
ENDBRANCH   2   3
ENDBRANCH   1   2
BRANCH   1  28
ATOM     28  C   UNL A   1      32.093  30.597  27.140  1.00  0.00     0.002 C 
BRANCH  28  29
ATOM     29  C   UNL A   1      33.426  31.357  27.230  1.00  0.00     0.021 C 
BRANCH  29  30
ATOM     30  C   UNL A   1      34.645  30.555  27.695  1.00  0.00     0.116 C 
BRANCH  30  31
ATOM     31  N   UNL A   1      34.998  30.743  29.098  1.00  0.00    -0.352 N 
ATOM     32  C   UNL A   1      36.135  30.665  29.872  1.00  0.00     0.251 C 
ATOM     33  H   UNL A   1      34.213  30.991  29.637  1.00  0.00     0.163 HD
ATOM     34  O   UNL A   1      35.996  31.018  31.049  1.00  0.00    -0.269 OA
BRANCH  32  35
ATOM     35  C   UNL A   1      37.487  30.168  29.455  1.00  0.00     0.039 A 
ATOM     36  C   UNL A   1      38.328  29.665  30.474  1.00  0.00     0.014 A 
ATOM     37  C   UNL A   1      38.009  30.191  28.166  1.00  0.00     0.014 A 
ATOM     38  C   UNL A   1      39.634  29.207  30.211  1.00  0.00     0.010 A 
ATOM     39  C   UNL A   1      39.291  29.675  27.889  1.00  0.00     0.010 A 
ATOM     40  C   UNL A   1      40.136  29.198  28.906  1.00  0.00    -0.014 A 
BRANCH  40  41
ATOM     41  C   UNL A   1      41.539  28.770  28.587  1.00  0.00     0.031 A 
ATOM     42  C   UNL A   1      42.654  29.794  28.575  1.00  0.00     0.074 A 
ATOM     43  C   UNL A   1      41.833  27.491  28.261  1.00  0.00     0.049 A 
ATOM     44  N   UNL A   1      43.904  29.664  28.200  1.00  0.00    -0.248 NA
ATOM     45  C   UNL A   1      42.308  31.153  29.020  1.00  0.00     0.031 C 
ATOM     46  C   UNL A   1      40.879  26.383  28.220  1.00  0.00     0.029 A 
ATOM     47  N   UNL A   1      43.024  26.909  27.882  1.00  0.00    -0.354 N 
ATOM     48  C   UNL A   1      44.477  30.926  28.332  1.00  0.00     0.074 A 
ATOM     49  C   UNL A   1      43.426  31.817  28.771  1.00  0.00     0.031 C 
ATOM     50  C   UNL A   1      41.517  25.262  27.844  1.00  0.00     0.029 A 
ATOM     51  C   UNL A   1      42.920  25.571  27.577  1.00  0.00     0.049 A 
ATOM     52  H   UNL A   1      43.872  27.406  27.834  1.00  0.00     0.167 HD
ATOM     53  C   UNL A   1      45.762  31.311  28.131  1.00  0.00     0.037 A 
ATOM     54  C   UNL A   1      43.837  24.690  27.121  1.00  0.00     0.037 A 
ATOM     55  C   UNL A   1      46.827  30.422  27.739  1.00  0.00     0.049 A 
ATOM     56  C   UNL A   1      45.258  25.140  26.885  1.00  0.00     0.074 A 
ATOM     57  C   UNL A   1      48.170  30.713  27.571  1.00  0.00     0.029 A 
ATOM     58  N   UNL A   1      46.675  29.073  27.460  1.00  0.00    -0.354 N 
ATOM     59  N   UNL A   1      45.784  26.329  27.054  1.00  0.00    -0.248 NA
ATOM     60  C   UNL A   1      46.210  24.128  26.402  1.00  0.00     0.031 C 
ATOM     61  C   UNL A   1      48.820  29.554  27.136  1.00  0.00     0.029 A 
ATOM     62  C   UNL A   1      47.894  28.524  27.096  1.00  0.00     0.049 A 
ATOM     63  H   UNL A   1      45.825  28.577  27.511  1.00  0.00     0.167 HD
ATOM     64  C   UNL A   1      47.133  26.198  26.734  1.00  0.00     0.074 A 
ATOM     65  C   UNL A   1      47.345  24.815  26.366  1.00  0.00     0.031 C 
ATOM     66  C   UNL A   1      48.108  27.141  26.749  1.00  0.00     0.037 A 
BRANCH  53  67
ATOM     67  C   UNL A   1      46.100  32.766  28.330  1.00  0.00     0.058 A 
ATOM     68  C   UNL A   1      46.015  33.699  27.283  1.00  0.00     0.135 A 
ATOM     69  C   UNL A   1      46.469  33.245  29.600  1.00  0.00     0.135 A 
ATOM     70  F   UNL A   1      45.678  33.299  26.047  1.00  0.00    -0.206 F 
ATOM     71  C   UNL A   1      46.322  35.042  27.478  1.00  0.00     0.059 A 
ATOM     72  C   UNL A   1      46.746  34.590  29.825  1.00  0.00     0.059 A 
ATOM     73  F   UNL A   1      46.559  32.401  30.640  1.00  0.00    -0.206 F 
ATOM     74  C   UNL A   1      46.686  35.478  28.752  1.00  0.00     0.060 A 
BRANCH  74  75
ATOM     75  S   UNL A   1      47.080  37.225  28.987  1.00  0.00     0.124 S 
ATOM     76  O   UNL A   1      48.461  37.149  29.458  1.00  0.00    -0.237 OA
ATOM     77  O   UNL A   1      46.901  37.766  27.641  1.00  0.00    -0.237 OA
ATOM     78  O   UNL A   1      46.104  37.667  29.973  1.00  0.00    -0.744 OA
ENDBRANCH  74  75
ENDBRANCH  53  67
BRANCH  54  79
ATOM     79  C   UNL A   1      43.447  23.274  26.858  1.00  0.00     0.058 A 
ATOM     80  C   UNL A   1      43.405  22.765  25.550  1.00  0.00     0.135 A 
ATOM     81  C   UNL A   1      43.105  22.403  27.904  1.00  0.00     0.135 A 
ATOM     82  F   UNL A   1      43.706  23.560  24.511  1.00  0.00    -0.206 F 
ATOM     83  C   UNL A   1      43.024  21.453  25.287  1.00  0.00     0.059 A 
ATOM     84  C   UNL A   1      42.749  21.078  27.669  1.00  0.00     0.059 A 
ATOM     85  F   UNL A   1      43.135  22.834  29.175  1.00  0.00    -0.206 F 
ATOM     86  C   UNL A   1      42.702  20.615  26.356  1.00  0.00     0.060 A 
BRANCH  86  87
ATOM     87  S   UNL A   1      42.260  18.898  26.007  1.00  0.00     0.124 S 
ATOM     88  O   UNL A   1      43.099  18.608  24.849  1.00  0.00    -0.237 OA
ATOM     89  O   UNL A   1      42.634  18.228  27.249  1.00  0.00    -0.237 OA
ATOM     90  O   UNL A   1      40.827  18.966  25.747  1.00  0.00    -0.744 OA
ENDBRANCH  86  87
ENDBRANCH  54  79
BRANCH  66  91
ATOM     91  C   UNL A   1      49.512  26.715  26.410  1.00  0.00     0.058 A 
ATOM     92  C   UNL A   1      50.015  26.777  25.101  1.00  0.00     0.135 A 
ATOM     93  C   UNL A   1      50.393  26.312  27.428  1.00  0.00     0.135 A 
ATOM     94  F   UNL A   1      49.217  27.150  24.089  1.00  0.00    -0.206 F 
ATOM     95  C   UNL A   1      51.334  26.440  24.811  1.00  0.00     0.059 A 
ATOM     96  C   UNL A   1      51.724  26.000  27.166  1.00  0.00     0.059 A 
ATOM     97  F   UNL A   1      49.971  26.244  28.700  1.00  0.00    -0.206 F 
ATOM     98  C   UNL A   1      52.183  26.058  25.851  1.00  0.00     0.060 A 
BRANCH  98  99
ATOM     99  S   UNL A   1      53.906  25.675  25.467  1.00  0.00     0.124 S 
ATOM    100  O   UNL A   1      54.081  24.395  26.144  1.00  0.00    -0.237 OA
ATOM    101  O   UNL A   1      53.897  25.625  24.008  1.00  0.00    -0.237 OA
ATOM    102  O   UNL A   1      54.642  26.796  26.046  1.00  0.00    -0.744 OA
ENDBRANCH  98  99
ENDBRANCH  66  91
ENDBRANCH  40  41
ENDBRANCH  32  35
ENDBRANCH  30  31
ENDBRANCH  29  30
ENDBRANCH  28  29
ENDBRANCH   1  28
TORSDOF 21
ENDMDL
MODEL 3
REMARK VINA RESULT:     -10.8      2.780      4.636
REMARK SMILES CC(C)[C@H]([NH2+]C[C@H]1CC[C@@H](C(=O)NCCCCCCNC(=O)c2ccc(-c3c4nc(c(-c5c(F)cc(S(=O)(=O)[O-])cc5F)c5ccc([nH]5)c(-c5c(F)cc(S(=O)(=O)[O-])cc5F)c5nc(c(-c6c(F)cc(S(=O)(=O)[O-])cc6F)c6ccc3[nH]6)C=C5)C=C4)cc2)CC1)c1ccccc1
REMARK SMILES IDX 16 1 15 2 14 3 13 4 11 5 12 6 10 8 7 9 8 10 90 11 9 12 89 13
REMARK SMILES IDX 6 14 5 15 4 18 2 19 1 20 3 21 91 22 92 23 96 24 93 25 95 26
REMARK SMILES IDX 94 27 17 28 18 29 19 30 20 31 21 32 22 34 23 35 24 36 88 37
REMARK SMILES IDX 25 38 87 39 26 40 27 41 28 42 81 43 29 44 86 45 80 46 82 47
REMARK SMILES IDX 30 48 85 49 79 50 78 51 31 53 65 54 44 55 64 56 45 57 48 58
REMARK SMILES IDX 63 59 83 60 46 61 47 62 62 64 84 65 49 66 32 67 33 68 42 69
REMARK SMILES IDX 34 70 35 71 41 72 43 73 36 74 37 75 38 76 39 77 40 78 66 79
REMARK SMILES IDX 67 80 76 81 68 82 69 83 75 84 77 85 70 86 71 87 72 88 73 89
REMARK SMILES IDX 74 90 50 91 51 92 60 93 52 94 53 95 59 96 61 97 54 98 55 99
REMARK SMILES IDX 56 100 57 101 58 102
REMARK H PARENT 13 7 5 16 5 17 20 33 82 52 48 63
REMARK Flexibility Score: inf
ROOT
ATOM      1  C   UNL A   1      33.247  25.727  26.040  1.00  0.00     0.002 C 
ENDROOT
BRANCH   1   2
ATOM      2  C   UNL A   1      34.220  24.564  25.756  1.00  0.00     0.021 C 
BRANCH   2   3
ATOM      3  C   UNL A   1      34.028  23.309  26.623  1.00  0.00     0.116 C 
BRANCH   3   4
ATOM      4  N   UNL A   1      34.690  22.117  26.135  1.00  0.00    -0.356 N 
ATOM      5  C   UNL A   1      34.325  21.216  25.186  1.00  0.00     0.223 C 
ATOM      6  O   UNL A   1      35.240  20.521  24.721  1.00  0.00    -0.275 OA
ATOM      7  H   UNL A   1      35.554  21.926  26.567  1.00  0.00     0.163 HD
BRANCH   5   8
ATOM      8  C   UNL A   1      32.891  20.995  24.670  1.00  0.00     0.078 C 
ATOM      9  C   UNL A   1      31.002  23.285  24.121  1.00  0.00     0.044 C 
ATOM     10  C   UNL A   1      32.165  22.944  23.182  1.00  0.00     0.010 C 
ATOM     11  C   UNL A   1      31.019  22.602  25.504  1.00  0.00     0.010 C 
ATOM     12  C   UNL A   1      32.604  21.492  23.256  1.00  0.00     0.014 C 
ATOM     13  C   UNL A   1      31.743  21.262  25.634  1.00  0.00     0.014 C 
BRANCH   9  14
ATOM     14  C   UNL A   1      30.775  24.826  24.232  1.00  0.00     0.264 C 
BRANCH  14  15
ATOM     15  N   UNL A   1      30.570  25.550  22.963  1.00  0.00    -0.340 N 
ATOM     16  H   UNL A   1      31.080  25.053  22.232  1.00  0.00     0.346 HD
ATOM     17  H   UNL A   1      29.561  25.578  22.817  1.00  0.00     0.346 HD
BRANCH  15  18
ATOM     18  C   UNL A   1      31.028  26.985  22.952  1.00  0.00     0.216 C 
BRANCH  18  19
ATOM     19  C   UNL A   1      32.222  27.138  21.921  1.00  0.00     0.046 C 
ATOM     20  C   UNL A   1      33.371  28.061  22.339  1.00  0.00     0.014 C 
ATOM     21  C   UNL A   1      32.800  25.866  21.307  1.00  0.00     0.014 C 
ENDBRANCH  18  19
BRANCH  18  22
ATOM     22  C   UNL A   1      29.788  27.925  22.879  1.00  0.00     0.009 A 
ATOM     23  C   UNL A   1      28.506  27.574  23.329  1.00  0.00     0.010 A 
ATOM     24  C   UNL A   1      29.875  29.197  22.265  1.00  0.00     0.010 A 
ATOM     25  C   UNL A   1      27.433  28.485  23.331  1.00  0.00     0.001 A 
ATOM     26  C   UNL A   1      28.811  30.119  22.276  1.00  0.00     0.001 A 
ATOM     27  C   UNL A   1      27.597  29.774  22.848  1.00  0.00     0.000 A 
ENDBRANCH  18  22
ENDBRANCH  15  18
ENDBRANCH  14  15
ENDBRANCH   9  14
ENDBRANCH   5   8
ENDBRANCH   3   4
ENDBRANCH   2   3
ENDBRANCH   1   2
BRANCH   1  28
ATOM     28  C   UNL A   1      33.625  27.071  25.391  1.00  0.00     0.002 C 
BRANCH  28  29
ATOM     29  C   UNL A   1      34.164  28.144  26.351  1.00  0.00     0.021 C 
BRANCH  29  30
ATOM     30  C   UNL A   1      33.199  28.651  27.427  1.00  0.00     0.116 C 
BRANCH  30  31
ATOM     31  N   UNL A   1      33.465  30.007  27.893  1.00  0.00    -0.352 N 
ATOM     32  C   UNL A   1      34.568  30.757  28.237  1.00  0.00     0.251 C 
ATOM     33  H   UNL A   1      32.634  30.526  27.987  1.00  0.00     0.163 HD
ATOM     34  O   UNL A   1      34.338  31.946  28.490  1.00  0.00    -0.269 OA
BRANCH  32  35
ATOM     35  C   UNL A   1      35.984  30.283  28.376  1.00  0.00     0.039 A 
ATOM     36  C   UNL A   1      36.373  29.785  29.640  1.00  0.00     0.014 A 
ATOM     37  C   UNL A   1      36.963  30.324  27.390  1.00  0.00     0.014 A 
ATOM     38  C   UNL A   1      37.686  29.348  29.904  1.00  0.00     0.010 A 
ATOM     39  C   UNL A   1      38.262  29.828  27.631  1.00  0.00     0.010 A 
ATOM     40  C   UNL A   1      38.654  29.356  28.895  1.00  0.00    -0.014 A 
BRANCH  40  41
ATOM     41  C   UNL A   1      40.078  28.951  29.143  1.00  0.00     0.031 A 
ATOM     42  C   UNL A   1      41.058  29.955  29.715  1.00  0.00     0.074 A 
ATOM     43  C   UNL A   1      40.530  27.717  28.826  1.00  0.00     0.049 A 
ATOM     44  N   UNL A   1      42.354  29.854  29.883  1.00  0.00    -0.248 NA
ATOM     45  C   UNL A   1      40.506  31.255  30.126  1.00  0.00     0.031 C 
ATOM     46  C   UNL A   1      39.722  26.634  28.265  1.00  0.00     0.029 A 
ATOM     47  N   UNL A   1      41.792  27.169  28.915  1.00  0.00    -0.354 N 
ATOM     48  C   UNL A   1      42.773  31.084  30.385  1.00  0.00     0.074 A 
ATOM     49  C   UNL A   1      41.600  31.930  30.444  1.00  0.00     0.031 C 
ATOM     50  C   UNL A   1      40.501  25.558  28.064  1.00  0.00     0.029 A 
ATOM     51  C   UNL A   1      41.875  25.878  28.443  1.00  0.00     0.049 A 
ATOM     52  H   UNL A   1      42.564  27.657  29.282  1.00  0.00     0.167 HD
ATOM     53  C   UNL A   1      44.009  31.474  30.783  1.00  0.00     0.037 A 
ATOM     54  C   UNL A   1      42.931  25.046  28.314  1.00  0.00     0.037 A 
ATOM     55  C   UNL A   1      45.173  30.624  30.773  1.00  0.00     0.049 A 
ATOM     56  C   UNL A   1      44.303  25.503  28.746  1.00  0.00     0.074 A 
ATOM     57  C   UNL A   1      46.452  30.915  31.214  1.00  0.00     0.029 A 
ATOM     58  N   UNL A   1      45.202  29.320  30.303  1.00  0.00    -0.354 N 
ATOM     59  N   UNL A   1      44.666  26.656  29.253  1.00  0.00    -0.248 NA
ATOM     60  C   UNL A   1      45.409  24.544  28.592  1.00  0.00     0.031 C 
ATOM     61  C   UNL A   1      47.268  29.808  30.961  1.00  0.00     0.029 A 
ATOM     62  C   UNL A   1      46.483  28.803  30.421  1.00  0.00     0.049 A 
ATOM     63  H   UNL A   1      44.428  28.833  29.938  1.00  0.00     0.167 HD
ATOM     64  C   UNL A   1      46.031  26.547  29.512  1.00  0.00     0.074 A 
ATOM     65  C   UNL A   1      46.428  25.215  29.111  1.00  0.00     0.031 C 
ATOM     66  C   UNL A   1      46.875  27.469  30.040  1.00  0.00     0.037 A 
BRANCH  53  67
ATOM     67  C   UNL A   1      44.178  32.890  31.269  1.00  0.00     0.058 A 
ATOM     68  C   UNL A   1      43.982  33.241  32.615  1.00  0.00     0.135 A 
ATOM     69  C   UNL A   1      44.587  33.903  30.385  1.00  0.00     0.135 A 
ATOM     70  F   UNL A   1      43.581  32.318  33.504  1.00  0.00    -0.206 F 
ATOM     71  C   UNL A   1      44.148  34.550  33.058  1.00  0.00     0.059 A 
ATOM     72  C   UNL A   1      44.792  35.212  30.813  1.00  0.00     0.059 A 
ATOM     73  F   UNL A   1      44.796  33.625  29.088  1.00  0.00    -0.206 F 
ATOM     74  C   UNL A   1      44.553  35.528  32.149  1.00  0.00     0.060 A 
BRANCH  74  75
ATOM     75  S   UNL A   1      44.763  37.222  32.741  1.00  0.00     0.124 S 
ATOM     76  O   UNL A   1      46.117  37.523  32.282  1.00  0.00    -0.237 OA
ATOM     77  O   UNL A   1      43.689  37.928  32.044  1.00  0.00    -0.237 OA
ATOM     78  O   UNL A   1      44.600  37.103  34.183  1.00  0.00    -0.744 OA
ENDBRANCH  74  75
ENDBRANCH  53  67
BRANCH  54  79
ATOM     79  C   UNL A   1      42.741  23.677  27.753  1.00  0.00     0.058 A 
ATOM     80  C   UNL A   1      42.797  23.447  26.369  1.00  0.00     0.135 A 
ATOM     81  C   UNL A   1      42.494  22.573  28.585  1.00  0.00     0.135 A 
ATOM     82  F   UNL A   1      43.013  24.470  25.527  1.00  0.00    -0.206 F 
ATOM     83  C   UNL A   1      42.601  22.179  25.829  1.00  0.00     0.059 A 
ATOM     84  C   UNL A   1      42.324  21.291  28.071  1.00  0.00     0.059 A 
ATOM     85  F   UNL A   1      42.437  22.734  29.916  1.00  0.00    -0.206 F 
ATOM     86  C   UNL A   1      42.369  21.105  26.690  1.00  0.00     0.060 A 
BRANCH  86  87
ATOM     87  S   UNL A   1      42.169  19.455  25.983  1.00  0.00     0.124 S 
ATOM     88  O   UNL A   1      42.683  18.611  27.055  1.00  0.00    -0.237 OA
ATOM     89  O   UNL A   1      40.729  19.393  25.756  1.00  0.00    -0.237 OA
ATOM     90  O   UNL A   1      42.985  19.507  24.775  1.00  0.00    -0.744 OA
ENDBRANCH  86  87
ENDBRANCH  54  79
BRANCH  66  91
ATOM     91  C   UNL A   1      48.307  27.068  30.271  1.00  0.00     0.058 A 
ATOM     92  C   UNL A   1      49.324  27.370  29.352  1.00  0.00     0.135 A 
ATOM     93  C   UNL A   1      48.680  26.439  31.472  1.00  0.00     0.135 A 
ATOM     94  F   UNL A   1      49.025  27.965  28.186  1.00  0.00    -0.206 F 
ATOM     95  C   UNL A   1      50.655  27.050  29.606  1.00  0.00     0.059 A 
ATOM     96  C   UNL A   1      50.008  26.138  31.760  1.00  0.00     0.059 A 
ATOM     97  F   UNL A   1      47.752  26.136  32.393  1.00  0.00    -0.206 F 
ATOM     98  C   UNL A   1      50.988  26.439  30.817  1.00  0.00     0.060 A 
BRANCH  98  99
ATOM     99  S   UNL A   1      52.725  26.078  31.156  1.00  0.00     0.124 S 
ATOM    100  O   UNL A   1      52.628  24.805  31.862  1.00  0.00    -0.237 OA
ATOM    101  O   UNL A   1      53.298  26.018  29.815  1.00  0.00    -0.237 OA
ATOM    102  O   UNL A   1      53.158  27.213  31.966  1.00  0.00    -0.744 OA
ENDBRANCH  98  99
ENDBRANCH  66  91
ENDBRANCH  40  41
ENDBRANCH  32  35
ENDBRANCH  30  31
ENDBRANCH  29  30
ENDBRANCH  28  29
ENDBRANCH   1  28
TORSDOF 21
ENDMDL
