MODEL 1
REMARK VINA RESULT:     -12.2      0.000      0.000
REMARK SMILES Cc1ccc(S(=O)(=O)N2C[C@@H](CC(=O)NCCCCCCNC(=O)c3ccc(-c4c5nc(c(-c6c(F)cc(S(=O)(=O)[O-])cc6F)c6ccc([nH]6)c(-c6c(F)cc(S(=O)(=O)[O-])cc6F)c6nc(c(-c7c(F)cc(S(=O)(=O)[O-])cc7F)c7ccc4[nH]7)C=C6)C=C5)cc3)c3ccccc32)c(C)c1
REMARK SMILES IDX 18 1 17 2 16 3 15 4 13 5 14 6 12 8 11 9 9 10 10 11 96 12
REMARK SMILES IDX 91 13 95 14 92 15 94 16 93 17 6 18 7 19 8 20 5 21 1 22 2 23
REMARK SMILES IDX 3 24 99 25 4 26 97 27 98 28 19 29 20 30 21 31 22 32 23 33
REMARK SMILES IDX 24 35 25 36 26 37 90 38 27 39 89 40 28 41 29 42 30 43 83 44
REMARK SMILES IDX 31 45 88 46 82 47 84 48 32 49 87 50 81 51 80 52 33 54 67 55
REMARK SMILES IDX 46 56 66 57 47 58 50 59 65 60 85 61 48 62 49 63 64 65 86 66
REMARK SMILES IDX 51 67 34 68 35 69 44 70 36 71 37 72 43 73 45 74 38 75 39 76
REMARK SMILES IDX 40 77 41 78 42 79 68 80 69 81 78 82 70 83 71 84 77 85 79 86
REMARK SMILES IDX 72 87 73 88 74 89 75 90 76 91 52 92 53 93 62 94 54 95 55 96
REMARK SMILES IDX 61 97 63 98 56 99 57 100 58 101 59 102 60 103
REMARK H PARENT 15 7 22 34 84 53 50 64
REMARK Flexibility Score: inf
ROOT
ATOM      1  C   UNL A   1      35.338  32.235  27.908  1.00  0.00     0.002 C 
ENDROOT
BRANCH   1   2
ATOM      2  C   UNL A   1      33.927  31.666  27.789  1.00  0.00     0.021 C 
BRANCH   2   3
ATOM      3  C   UNL A   1      33.816  30.322  27.076  1.00  0.00     0.116 C 
BRANCH   3   4
ATOM      4  N   UNL A   1      32.831  29.493  27.750  1.00  0.00    -0.356 N 
ATOM      5  C   UNL A   1      32.009  28.539  27.227  1.00  0.00     0.220 C 
ATOM      6  O   UNL A   1      31.039  28.168  27.890  1.00  0.00    -0.275 OA
ATOM      7  H   UNL A   1      32.745  29.640  28.720  1.00  0.00     0.163 HD
BRANCH   5   8
ATOM      8  C   UNL A   1      32.325  27.900  25.892  1.00  0.00     0.110 C 
BRANCH   8   9
ATOM      9  C   UNL A   1      31.309  26.834  25.455  1.00  0.00     0.051 C 
ATOM     10  N   UNL A   1      32.415  24.677  25.691  1.00  0.00    -0.265 N 
ATOM     11  C   UNL A   1      31.435  25.599  26.374  1.00  0.00     0.144 C 
ATOM     12  C   UNL A   1      32.336  25.009  24.293  1.00  0.00     0.055 A 
ATOM     13  C   UNL A   1      31.622  26.198  24.128  1.00  0.00    -0.018 A 
ATOM     14  C   UNL A   1      32.885  24.351  23.205  1.00  0.00     0.027 A 
ATOM     15  C   UNL A   1      31.276  26.641  22.863  1.00  0.00     0.006 A 
ATOM     16  C   UNL A   1      32.604  24.834  21.925  1.00  0.00     0.002 A 
ATOM     17  C   UNL A   1      31.774  25.949  21.755  1.00  0.00     0.000 A 
BRANCH  10  18
ATOM     18  S   UNL A   1      32.180  23.030  26.120  1.00  0.00     0.264 S 
ATOM     19  O   UNL A   1      31.147  22.503  25.255  1.00  0.00    -0.201 OA
ATOM     20  O   UNL A   1      32.041  22.981  27.565  1.00  0.00    -0.201 OA
BRANCH  18  21
ATOM     21  C   UNL A   1      33.721  22.207  25.755  1.00  0.00     0.090 A 
ATOM     22  C   UNL A   1      37.511  20.300  24.996  1.00  0.00     0.044 C 
ATOM     23  C   UNL A   1      36.198  20.981  25.246  1.00  0.00    -0.051 A 
ATOM     24  C   UNL A   1      36.150  22.274  25.767  1.00  0.00     0.005 A 
ATOM     25  C   UNL A   1      34.997  20.300  25.001  1.00  0.00     0.008 A 
ATOM     26  C   UNL A   1      34.923  22.880  26.030  1.00  0.00     0.023 A 
ATOM     27  C   UNL A   1      33.744  20.896  25.245  1.00  0.00    -0.030 A 
ATOM     28  C   UNL A   1      32.530  20.036  25.017  1.00  0.00     0.046 C 
ENDBRANCH  18  21
ENDBRANCH  10  18
ENDBRANCH   8   9
ENDBRANCH   5   8
ENDBRANCH   3   4
ENDBRANCH   2   3
ENDBRANCH   1   2
BRANCH   1  29
ATOM     29  C   UNL A   1      35.494  33.368  28.921  1.00  0.00     0.002 C 
BRANCH  29  30
ATOM     30  C   UNL A   1      36.923  33.635  29.406  1.00  0.00     0.021 C 
BRANCH  30  31
ATOM     31  C   UNL A   1      37.249  33.116  30.805  1.00  0.00     0.116 C 
BRANCH  31  32
ATOM     32  N   UNL A   1      36.482  31.929  31.139  1.00  0.00    -0.352 N 
ATOM     33  C   UNL A   1      36.735  30.611  30.853  1.00  0.00     0.251 C 
ATOM     34  H   UNL A   1      35.654  32.095  31.647  1.00  0.00     0.163 HD
ATOM     35  O   UNL A   1      35.847  29.776  31.002  1.00  0.00    -0.269 OA
BRANCH  33  36
ATOM     36  C   UNL A   1      38.067  30.194  30.361  1.00  0.00     0.039 A 
ATOM     37  C   UNL A   1      38.289  30.134  28.983  1.00  0.00     0.014 A 
ATOM     38  C   UNL A   1      39.079  29.819  31.249  1.00  0.00     0.014 A 
ATOM     39  C   UNL A   1      39.538  29.737  28.497  1.00  0.00     0.010 A 
ATOM     40  C   UNL A   1      40.346  29.496  30.765  1.00  0.00     0.010 A 
ATOM     41  C   UNL A   1      40.586  29.436  29.384  1.00  0.00    -0.014 A 
BRANCH  41  42
ATOM     42  C   UNL A   1      41.926  29.029  28.882  1.00  0.00     0.031 A 
ATOM     43  C   UNL A   1      43.029  30.047  28.762  1.00  0.00     0.074 A 
ATOM     44  C   UNL A   1      42.138  27.756  28.494  1.00  0.00     0.049 A 
ATOM     45  N   UNL A   1      44.244  29.900  28.298  1.00  0.00    -0.248 NA
ATOM     46  C   UNL A   1      42.718  31.418  29.196  1.00  0.00     0.031 C 
ATOM     47  C   UNL A   1      41.140  26.684  28.524  1.00  0.00     0.029 A 
ATOM     48  N   UNL A   1      43.260  27.147  27.989  1.00  0.00    -0.354 N 
ATOM     49  C   UNL A   1      44.835  31.156  28.374  1.00  0.00     0.074 A 
ATOM     50  C   UNL A   1      43.828  32.066  28.873  1.00  0.00     0.031 C 
ATOM     51  C   UNL A   1      41.701  25.548  28.080  1.00  0.00     0.029 A 
ATOM     52  C   UNL A   1      43.083  25.815  27.696  1.00  0.00     0.049 A 
ATOM     53  H   UNL A   1      44.112  27.621  27.848  1.00  0.00     0.167 HD
ATOM     54  C   UNL A   1      46.108  31.514  28.077  1.00  0.00     0.037 A 
ATOM     55  C   UNL A   1      43.936  24.913  27.171  1.00  0.00     0.037 A 
ATOM     56  C   UNL A   1      47.113  30.600  27.599  1.00  0.00     0.049 A 
ATOM     57  C   UNL A   1      45.344  25.335  26.845  1.00  0.00     0.074 A 
ATOM     58  C   UNL A   1      48.443  30.855  27.314  1.00  0.00     0.029 A 
ATOM     59  N   UNL A   1      46.899  29.254  27.335  1.00  0.00    -0.354 N 
ATOM     60  N   UNL A   1      45.901  26.516  26.973  1.00  0.00    -0.248 NA
ATOM     61  C   UNL A   1      46.242  24.301  26.313  1.00  0.00     0.031 C 
ATOM     62  C   UNL A   1      49.021  29.676  26.831  1.00  0.00     0.029 A 
ATOM     63  C   UNL A   1      48.069  28.671  26.873  1.00  0.00     0.049 A 
ATOM     64  H   UNL A   1      46.044  28.783  27.457  1.00  0.00     0.167 HD
ATOM     65  C   UNL A   1      47.225  26.358  26.575  1.00  0.00     0.074 A 
ATOM     66  C   UNL A   1      47.385  24.966  26.208  1.00  0.00     0.031 C 
ATOM     67  C   UNL A   1      48.218  27.280  26.522  1.00  0.00     0.037 A 
BRANCH  54  68
ATOM     68  C   UNL A   1      46.488  32.961  28.261  1.00  0.00     0.058 A 
ATOM     69  C   UNL A   1      46.321  33.906  27.236  1.00  0.00     0.135 A 
ATOM     70  C   UNL A   1      46.991  33.416  29.492  1.00  0.00     0.135 A 
ATOM     71  F   UNL A   1      45.858  33.526  26.034  1.00  0.00    -0.206 F 
ATOM     72  C   UNL A   1      46.671  35.242  27.411  1.00  0.00     0.059 A 
ATOM     73  C   UNL A   1      47.316  34.753  29.700  1.00  0.00     0.059 A 
ATOM     74  F   UNL A   1      47.169  32.557  30.508  1.00  0.00    -0.206 F 
ATOM     75  C   UNL A   1      47.168  35.656  28.648  1.00  0.00     0.060 A 
BRANCH  75  76
ATOM     76  S   UNL A   1      47.612  37.393  28.860  1.00  0.00     0.124 S 
ATOM     77  O   UNL A   1      47.334  37.592  30.279  1.00  0.00    -0.237 OA
ATOM     78  O   UNL A   1      49.022  37.402  28.483  1.00  0.00    -0.237 OA
ATOM     79  O   UNL A   1      46.716  38.088  27.942  1.00  0.00    -0.744 OA
ENDBRANCH  75  76
ENDBRANCH  54  68
BRANCH  55  80
ATOM     80  C   UNL A   1      43.489  23.511  26.944  1.00  0.00     0.058 A 
ATOM     81  C   UNL A   1      43.252  23.027  25.648  1.00  0.00     0.135 A 
ATOM     82  C   UNL A   1      43.298  22.625  28.016  1.00  0.00     0.135 A 
ATOM     83  F   UNL A   1      43.415  23.836  24.590  1.00  0.00    -0.206 F 
ATOM     84  C   UNL A   1      42.821  21.724  25.423  1.00  0.00     0.059 A 
ATOM     85  C   UNL A   1      42.896  21.309  27.814  1.00  0.00     0.059 A 
ATOM     86  F   UNL A   1      43.528  23.031  29.275  1.00  0.00    -0.206 F 
ATOM     87  C   UNL A   1      42.649  20.871  26.514  1.00  0.00     0.060 A 
BRANCH  87  88
ATOM     88  S   UNL A   1      42.134  19.167  26.209  1.00  0.00     0.124 S 
ATOM     89  O   UNL A   1      42.841  18.863  24.970  1.00  0.00    -0.237 OA
ATOM     90  O   UNL A   1      42.617  18.483  27.404  1.00  0.00    -0.237 OA
ATOM     91  O   UNL A   1      40.682  19.270  26.099  1.00  0.00    -0.744 OA
ENDBRANCH  87  88
ENDBRANCH  55  80
BRANCH  67  92
ATOM     92  C   UNL A   1      49.585  26.806  26.105  1.00  0.00     0.058 A 
ATOM     93  C   UNL A   1      50.069  26.983  24.800  1.00  0.00     0.135 A 
ATOM     94  C   UNL A   1      50.439  26.201  27.043  1.00  0.00     0.135 A 
ATOM     95  F   UNL A   1      49.295  27.551  23.863  1.00  0.00    -0.206 F 
ATOM     96  C   UNL A   1      51.338  26.546  24.431  1.00  0.00     0.059 A 
ATOM     97  C   UNL A   1      51.723  25.787  26.704  1.00  0.00     0.059 A 
ATOM     98  F   UNL A   1      50.031  26.019  28.310  1.00  0.00    -0.206 F 
ATOM     99  C   UNL A   1      52.158  25.950  25.391  1.00  0.00     0.060 A 
BRANCH  99 100
ATOM    100  S   UNL A   1      53.808  25.405  24.904  1.00  0.00     0.124 S 
ATOM    101  O   UNL A   1      53.689  23.956  25.033  1.00  0.00    -0.237 OA
ATOM    102  O   UNL A   1      53.914  25.913  23.539  1.00  0.00    -0.237 OA
ATOM    103  O   UNL A   1      54.682  26.053  25.877  1.00  0.00    -0.744 OA
ENDBRANCH  99 100
ENDBRANCH  67  92
ENDBRANCH  41  42
ENDBRANCH  33  36
ENDBRANCH  31  32
ENDBRANCH  30  31
ENDBRANCH  29  30
ENDBRANCH   1  29
TORSDOF 19
ENDMDL
MODEL 2
REMARK VINA RESULT:     -12.0      4.967     12.517
REMARK SMILES Cc1ccc(S(=O)(=O)N2C[C@@H](CC(=O)NCCCCCCNC(=O)c3ccc(-c4c5nc(c(-c6c(F)cc(S(=O)(=O)[O-])cc6F)c6ccc([nH]6)c(-c6c(F)cc(S(=O)(=O)[O-])cc6F)c6nc(c(-c7c(F)cc(S(=O)(=O)[O-])cc7F)c7ccc4[nH]7)C=C6)C=C5)cc3)c3ccccc32)c(C)c1
REMARK SMILES IDX 18 1 17 2 16 3 15 4 13 5 14 6 12 8 11 9 9 10 10 11 96 12
REMARK SMILES IDX 91 13 95 14 92 15 94 16 93 17 6 18 7 19 8 20 5 21 1 22 2 23
REMARK SMILES IDX 3 24 99 25 4 26 97 27 98 28 19 29 20 30 21 31 22 32 23 33
REMARK SMILES IDX 24 35 25 36 26 37 90 38 27 39 89 40 28 41 29 42 30 43 83 44
REMARK SMILES IDX 31 45 88 46 82 47 84 48 32 49 87 50 81 51 80 52 33 54 67 55
REMARK SMILES IDX 46 56 66 57 47 58 50 59 65 60 85 61 48 62 49 63 64 65 86 66
REMARK SMILES IDX 51 67 34 68 35 69 44 70 36 71 37 72 43 73 45 74 38 75 39 76
REMARK SMILES IDX 40 77 41 78 42 79 68 80 69 81 78 82 70 83 71 84 77 85 79 86
REMARK SMILES IDX 72 87 73 88 74 89 75 90 76 91 52 92 53 93 62 94 54 95 55 96
REMARK SMILES IDX 61 97 63 98 56 99 57 100 58 101 59 102 60 103
REMARK H PARENT 15 7 22 34 84 53 50 64
REMARK Flexibility Score: inf
ROOT
ATOM      1  C   UNL A   1      42.399  23.591  28.254  1.00  0.00     0.002 C 
ENDROOT
BRANCH   1   2
ATOM      2  C   UNL A   1      43.310  22.854  29.231  1.00  0.00     0.021 C 
BRANCH   2   3
ATOM      3  C   UNL A   1      44.486  23.661  29.772  1.00  0.00     0.116 C 
BRANCH   3   4
ATOM      4  N   UNL A   1      45.635  23.495  28.897  1.00  0.00    -0.356 N 
ATOM      5  C   UNL A   1      46.159  24.370  27.992  1.00  0.00     0.220 C 
ATOM      6  O   UNL A   1      46.934  23.939  27.137  1.00  0.00    -0.275 OA
ATOM      7  H   UNL A   1      46.101  22.631  28.970  1.00  0.00     0.163 HD
BRANCH   5   8
ATOM      8  C   UNL A   1      45.850  25.849  28.084  1.00  0.00     0.110 C 
BRANCH   8   9
ATOM      9  C   UNL A   1      46.076  26.614  26.772  1.00  0.00     0.051 C 
ATOM     10  N   UNL A   1      45.795  28.978  27.287  1.00  0.00    -0.265 N 
ATOM     11  C   UNL A   1      46.848  27.920  27.067  1.00  0.00     0.144 C 
ATOM     12  C   UNL A   1      44.639  28.519  26.563  1.00  0.00     0.055 A 
ATOM     13  C   UNL A   1      44.821  27.189  26.176  1.00  0.00    -0.018 A 
ATOM     14  C   UNL A   1      43.461  29.190  26.279  1.00  0.00     0.027 A 
ATOM     15  C   UNL A   1      43.914  26.574  25.330  1.00  0.00     0.006 A 
ATOM     16  C   UNL A   1      42.505  28.548  25.489  1.00  0.00     0.002 A 
ATOM     17  C   UNL A   1      42.747  27.263  24.986  1.00  0.00     0.000 A 
BRANCH  10  18
ATOM     18  S   UNL A   1      46.365  30.559  26.932  1.00  0.00     0.264 S 
ATOM     19  O   UNL A   1      46.358  30.707  25.494  1.00  0.00    -0.201 OA
ATOM     20  O   UNL A   1      47.585  30.755  27.696  1.00  0.00    -0.201 OA
BRANCH  18  21
ATOM     21  C   UNL A   1      45.169  31.679  27.638  1.00  0.00     0.090 A 
ATOM     22  C   UNL A   1      42.286  34.300  29.482  1.00  0.00     0.044 C 
ATOM     23  C   UNL A   1      43.272  33.374  28.834  1.00  0.00    -0.051 A 
ATOM     24  C   UNL A   1      43.346  32.032  29.208  1.00  0.00     0.005 A 
ATOM     25  C   UNL A   1      44.166  33.864  27.872  1.00  0.00     0.008 A 
ATOM     26  C   UNL A   1      44.294  31.192  28.624  1.00  0.00     0.023 A 
ATOM     27  C   UNL A   1      45.123  33.033  27.257  1.00  0.00    -0.030 A 
ATOM     28  C   UNL A   1      46.077  33.693  26.298  1.00  0.00     0.046 C 
ENDBRANCH  18  21
ENDBRANCH  10  18
ENDBRANCH   8   9
ENDBRANCH   5   8
ENDBRANCH   3   4
ENDBRANCH   2   3
ENDBRANCH   1   2
BRANCH   1  29
ATOM     29  C   UNL A   1      42.774  23.438  26.780  1.00  0.00     0.002 C 
BRANCH  29  30
ATOM     30  C   UNL A   1      41.974  22.393  25.995  1.00  0.00     0.021 C 
BRANCH  30  31
ATOM     31  C   UNL A   1      40.675  21.931  26.653  1.00  0.00     0.116 C 
BRANCH  31  32
ATOM     32  N   UNL A   1      39.506  22.313  25.879  1.00  0.00    -0.352 N 
ATOM     33  C   UNL A   1      38.706  23.423  25.988  1.00  0.00     0.251 C 
ATOM     34  H   UNL A   1      39.250  21.681  25.170  1.00  0.00     0.163 HD
ATOM     35  O   UNL A   1      37.623  23.449  25.411  1.00  0.00    -0.269 OA
BRANCH  33  36
ATOM     36  C   UNL A   1      39.139  24.581  26.802  1.00  0.00     0.039 A 
ATOM     37  C   UNL A   1      38.763  24.640  28.146  1.00  0.00     0.014 A 
ATOM     38  C   UNL A   1      39.871  25.628  26.235  1.00  0.00     0.014 A 
ATOM     39  C   UNL A   1      39.157  25.728  28.930  1.00  0.00     0.010 A 
ATOM     40  C   UNL A   1      40.326  26.674  27.035  1.00  0.00     0.010 A 
ATOM     41  C   UNL A   1      39.961  26.745  28.388  1.00  0.00    -0.014 A 
BRANCH  41  42
ATOM     42  C   UNL A   1      40.402  27.900  29.215  1.00  0.00     0.031 A 
ATOM     43  C   UNL A   1      41.746  27.875  29.894  1.00  0.00     0.074 A 
ATOM     44  C   UNL A   1      39.578  28.952  29.391  1.00  0.00     0.049 A 
ATOM     45  N   UNL A   1      42.285  28.758  30.695  1.00  0.00    -0.248 NA
ATOM     46  C   UNL A   1      42.585  26.688  29.662  1.00  0.00     0.031 C 
ATOM     47  C   UNL A   1      38.235  29.081  28.819  1.00  0.00     0.029 A 
ATOM     48  N   UNL A   1      39.743  30.111  30.108  1.00  0.00    -0.354 N 
ATOM     49  C   UNL A   1      43.516  28.230  31.071  1.00  0.00     0.074 A 
ATOM     50  C   UNL A   1      43.619  26.925  30.457  1.00  0.00     0.031 C 
ATOM     51  C   UNL A   1      37.710  30.260  29.190  1.00  0.00     0.029 A 
ATOM     52  C   UNL A   1      38.658  30.955  30.055  1.00  0.00     0.049 A 
ATOM     53  H   UNL A   1      40.562  30.318  30.614  1.00  0.00     0.167 HD
ATOM     54  C   UNL A   1      44.482  28.791  31.838  1.00  0.00     0.037 A 
ATOM     55  C   UNL A   1      38.447  32.149  30.643  1.00  0.00     0.037 A 
ATOM     56  C   UNL A   1      44.382  30.100  32.430  1.00  0.00     0.049 A 
ATOM     57  C   UNL A   1      39.533  32.751  31.495  1.00  0.00     0.074 A 
ATOM     58  C   UNL A   1      45.324  30.777  33.185  1.00  0.00     0.029 A 
ATOM     59  N   UNL A   1      43.275  30.931  32.336  1.00  0.00    -0.354 N 
ATOM     60  N   UNL A   1      40.712  32.260  31.796  1.00  0.00    -0.248 NA
ATOM     61  C   UNL A   1      39.266  34.072  32.078  1.00  0.00     0.031 C 
ATOM     62  C   UNL A   1      44.769  31.995  33.588  1.00  0.00     0.029 A 
ATOM     63  C   UNL A   1      43.504  32.106  33.034  1.00  0.00     0.049 A 
ATOM     64  H   UNL A   1      42.448  30.718  31.846  1.00  0.00     0.167 HD
ATOM     65  C   UNL A   1      41.342  33.230  32.571  1.00  0.00     0.074 A 
ATOM     66  C   UNL A   1      40.415  34.336  32.686  1.00  0.00     0.031 C 
ATOM     67  C   UNL A   1      42.576  33.207  33.131  1.00  0.00     0.037 A 
BRANCH  54  68
ATOM     68  C   UNL A   1      45.735  27.990  32.080  1.00  0.00     0.058 A 
ATOM     69  C   UNL A   1      45.819  27.043  33.113  1.00  0.00     0.135 A 
ATOM     70  C   UNL A   1      46.855  28.145  31.245  1.00  0.00     0.135 A 
ATOM     71  F   UNL A   1      44.785  26.862  33.951  1.00  0.00    -0.206 F 
ATOM     72  C   UNL A   1      46.977  26.303  33.333  1.00  0.00     0.059 A 
ATOM     73  C   UNL A   1      48.012  27.393  31.426  1.00  0.00     0.059 A 
ATOM     74  F   UNL A   1      46.830  29.035  30.241  1.00  0.00    -0.206 F 
ATOM     75  C   UNL A   1      48.069  26.486  32.483  1.00  0.00     0.060 A 
BRANCH  75  76
ATOM     76  S   UNL A   1      49.562  25.515  32.778  1.00  0.00     0.124 S 
ATOM     77  O   UNL A   1      49.760  24.884  31.477  1.00  0.00    -0.237 OA
ATOM     78  O   UNL A   1      50.535  26.541  33.139  1.00  0.00    -0.237 OA
ATOM     79  O   UNL A   1      49.175  24.614  33.859  1.00  0.00    -0.744 OA
ENDBRANCH  75  76
ENDBRANCH  54  68
BRANCH  55  80
ATOM     80  C   UNL A   1      37.162  32.868  30.426  1.00  0.00     0.058 A 
ATOM     81  C   UNL A   1      36.100  32.745  31.336  1.00  0.00     0.135 A 
ATOM     82  C   UNL A   1      36.972  33.700  29.311  1.00  0.00     0.135 A 
ATOM     83  F   UNL A   1      36.230  31.958  32.415  1.00  0.00    -0.206 F 
ATOM     84  C   UNL A   1      34.890  33.402  31.139  1.00  0.00     0.059 A 
ATOM     85  C   UNL A   1      35.781  34.389  29.107  1.00  0.00     0.059 A 
ATOM     86  F   UNL A   1      37.961  33.867  28.419  1.00  0.00    -0.206 F 
ATOM     87  C   UNL A   1      34.741  34.224  30.021  1.00  0.00     0.060 A 
BRANCH  87  88
ATOM     88  S   UNL A   1      33.183  35.108  29.797  1.00  0.00     0.124 S 
ATOM     89  O   UNL A   1      33.645  36.398  29.299  1.00  0.00    -0.237 OA
ATOM     90  O   UNL A   1      32.487  34.262  28.833  1.00  0.00    -0.237 OA
ATOM     91  O   UNL A   1      32.607  35.119  31.139  1.00  0.00    -0.744 OA
ENDBRANCH  87  88
ENDBRANCH  55  80
BRANCH  67  92
ATOM     92  C   UNL A   1      43.024  34.436  33.875  1.00  0.00     0.058 A 
ATOM     93  C   UNL A   1      42.858  34.570  35.262  1.00  0.00     0.135 A 
ATOM     94  C   UNL A   1      43.669  35.480  33.190  1.00  0.00     0.135 A 
ATOM     95  F   UNL A   1      42.246  33.606  35.966  1.00  0.00    -0.206 F 
ATOM     96  C   UNL A   1      43.284  35.711  35.938  1.00  0.00     0.059 A 
ATOM     97  C   UNL A   1      44.131  36.614  33.850  1.00  0.00     0.059 A 
ATOM     98  F   UNL A   1      43.865  35.399  31.864  1.00  0.00    -0.206 F 
ATOM     99  C   UNL A   1      43.921  36.727  35.223  1.00  0.00     0.060 A 
BRANCH  99 100
ATOM    100  S   UNL A   1      44.485  38.191  36.114  1.00  0.00     0.124 S 
ATOM    101  O   UNL A   1      43.591  38.196  37.267  1.00  0.00    -0.237 OA
ATOM    102  O   UNL A   1      45.880  37.866  36.395  1.00  0.00    -0.237 OA
ATOM    103  O   UNL A   1      44.281  39.273  35.155  1.00  0.00    -0.744 OA
ENDBRANCH  99 100
ENDBRANCH  67  92
ENDBRANCH  41  42
ENDBRANCH  33  36
ENDBRANCH  31  32
ENDBRANCH  30  31
ENDBRANCH  29  30
ENDBRANCH   1  29
TORSDOF 19
ENDMDL
MODEL 3
REMARK VINA RESULT:     -11.9      1.074      8.014
REMARK SMILES Cc1ccc(S(=O)(=O)N2C[C@@H](CC(=O)NCCCCCCNC(=O)c3ccc(-c4c5nc(c(-c6c(F)cc(S(=O)(=O)[O-])cc6F)c6ccc([nH]6)c(-c6c(F)cc(S(=O)(=O)[O-])cc6F)c6nc(c(-c7c(F)cc(S(=O)(=O)[O-])cc7F)c7ccc4[nH]7)C=C6)C=C5)cc3)c3ccccc32)c(C)c1
REMARK SMILES IDX 18 1 17 2 16 3 15 4 13 5 14 6 12 8 11 9 9 10 10 11 96 12
REMARK SMILES IDX 91 13 95 14 92 15 94 16 93 17 6 18 7 19 8 20 5 21 1 22 2 23
REMARK SMILES IDX 3 24 99 25 4 26 97 27 98 28 19 29 20 30 21 31 22 32 23 33
REMARK SMILES IDX 24 35 25 36 26 37 90 38 27 39 89 40 28 41 29 42 30 43 83 44
REMARK SMILES IDX 31 45 88 46 82 47 84 48 32 49 87 50 81 51 80 52 33 54 67 55
REMARK SMILES IDX 46 56 66 57 47 58 50 59 65 60 85 61 48 62 49 63 64 65 86 66
REMARK SMILES IDX 51 67 34 68 35 69 44 70 36 71 37 72 43 73 45 74 38 75 39 76
REMARK SMILES IDX 40 77 41 78 42 79 68 80 69 81 78 82 70 83 71 84 77 85 79 86
REMARK SMILES IDX 72 87 73 88 74 89 75 90 76 91 52 92 53 93 62 94 54 95 55 96
REMARK SMILES IDX 61 97 63 98 56 99 57 100 58 101 59 102 60 103
REMARK H PARENT 15 7 22 34 84 53 50 64
REMARK Flexibility Score: inf
ROOT
ATOM      1  C   UNL A   1      35.366  31.738  27.926  1.00  0.00     0.002 C 
ENDROOT
BRANCH   1   2
ATOM      2  C   UNL A   1      33.993  31.346  27.388  1.00  0.00     0.021 C 
BRANCH   2   3
ATOM      3  C   UNL A   1      33.854  29.897  26.934  1.00  0.00     0.116 C 
BRANCH   3   4
ATOM      4  N   UNL A   1      32.817  29.239  27.713  1.00  0.00    -0.356 N 
ATOM      5  C   UNL A   1      32.184  28.056  27.474  1.00  0.00     0.220 C 
ATOM      6  O   UNL A   1      31.132  27.819  28.071  1.00  0.00    -0.275 OA
ATOM      7  H   UNL A   1      32.535  29.714  28.528  1.00  0.00     0.163 HD
BRANCH   5   8
ATOM      8  C   UNL A   1      32.798  27.027  26.550  1.00  0.00     0.110 C 
BRANCH   8   9
ATOM      9  C   UNL A   1      31.772  26.111  25.867  1.00  0.00     0.051 C 
ATOM     10  N   UNL A   1      32.817  25.296  23.823  1.00  0.00    -0.265 N 
ATOM     11  C   UNL A   1      32.501  24.899  25.244  1.00  0.00     0.144 C 
ATOM     12  C   UNL A   1      31.833  26.288  23.479  1.00  0.00     0.055 A 
ATOM     13  C   UNL A   1      31.156  26.701  24.628  1.00  0.00    -0.018 A 
ATOM     14  C   UNL A   1      31.551  26.849  22.245  1.00  0.00     0.027 A 
ATOM     15  C   UNL A   1      30.054  27.534  24.533  1.00  0.00     0.006 A 
ATOM     16  C   UNL A   1      30.488  27.750  22.152  1.00  0.00     0.002 A 
ATOM     17  C   UNL A   1      29.721  28.060  23.281  1.00  0.00     0.000 A 
BRANCH  10  18
ATOM     18  S   UNL A   1      32.964  23.941  22.778  1.00  0.00     0.264 S 
ATOM     19  O   UNL A   1      33.355  24.441  21.478  1.00  0.00    -0.201 OA
ATOM     20  O   UNL A   1      31.760  23.145  22.939  1.00  0.00    -0.201 OA
BRANCH  18  21
ATOM     21  C   UNL A   1      34.290  22.951  23.444  1.00  0.00     0.090 A 
ATOM     22  C   UNL A   1      37.585  20.694  25.067  1.00  0.00     0.044 C 
ATOM     23  C   UNL A   1      36.447  21.477  24.481  1.00  0.00    -0.051 A 
ATOM     24  C   UNL A   1      36.683  22.616  23.712  1.00  0.00     0.005 A 
ATOM     25  C   UNL A   1      35.124  21.093  24.743  1.00  0.00     0.008 A 
ATOM     26  C   UNL A   1      35.614  23.355  23.206  1.00  0.00     0.023 A 
ATOM     27  C   UNL A   1      34.027  21.814  24.230  1.00  0.00    -0.030 A 
ATOM     28  C   UNL A   1      32.658  21.348  24.646  1.00  0.00     0.046 C 
ENDBRANCH  18  21
ENDBRANCH  10  18
ENDBRANCH   8   9
ENDBRANCH   5   8
ENDBRANCH   3   4
ENDBRANCH   2   3
ENDBRANCH   1   2
BRANCH   1  29
ATOM     29  C   UNL A   1      35.364  32.908  28.909  1.00  0.00     0.002 C 
BRANCH  29  30
ATOM     30  C   UNL A   1      36.736  33.515  29.223  1.00  0.00     0.021 C 
BRANCH  30  31
ATOM     31  C   UNL A   1      37.262  33.255  30.633  1.00  0.00     0.116 C 
BRANCH  31  32
ATOM     32  N   UNL A   1      36.653  32.081  31.234  1.00  0.00    -0.352 N 
ATOM     33  C   UNL A   1      37.020  30.761  31.150  1.00  0.00     0.251 C 
ATOM     34  H   UNL A   1      35.857  32.259  31.786  1.00  0.00     0.163 HD
ATOM     35  O   UNL A   1      36.240  29.889  31.522  1.00  0.00    -0.269 OA
BRANCH  33  36
ATOM     36  C   UNL A   1      38.344  30.386  30.606  1.00  0.00     0.039 A 
ATOM     37  C   UNL A   1      38.497  30.265  29.222  1.00  0.00     0.014 A 
ATOM     38  C   UNL A   1      39.420  30.108  31.455  1.00  0.00     0.014 A 
ATOM     39  C   UNL A   1      39.738  29.905  28.689  1.00  0.00     0.010 A 
ATOM     40  C   UNL A   1      40.675  29.824  30.919  1.00  0.00     0.010 A 
ATOM     41  C   UNL A   1      40.845  29.704  29.531  1.00  0.00    -0.014 A 
BRANCH  41  42
ATOM     42  C   UNL A   1      42.177  29.338  28.977  1.00  0.00     0.031 A 
ATOM     43  C   UNL A   1      42.442  27.929  28.517  1.00  0.00     0.074 A 
ATOM     44  C   UNL A   1      43.159  30.259  28.930  1.00  0.00     0.049 A 
ATOM     45  N   UNL A   1      43.549  27.404  28.056  1.00  0.00    -0.248 NA
ATOM     46  C   UNL A   1      41.323  26.978  28.609  1.00  0.00     0.031 C 
ATOM     47  C   UNL A   1      43.041  31.647  29.382  1.00  0.00     0.029 A 
ATOM     48  N   UNL A   1      44.456  30.166  28.487  1.00  0.00    -0.354 N 
ATOM     49  C   UNL A   1      43.263  26.064  27.816  1.00  0.00     0.074 A 
ATOM     50  C   UNL A   1      41.898  25.843  28.236  1.00  0.00     0.031 C 
ATOM     51  C   UNL A   1      44.207  32.280  29.173  1.00  0.00     0.029 A 
ATOM     52  C   UNL A   1      45.168  31.336  28.610  1.00  0.00     0.049 A 
ATOM     53  H   UNL A   1      44.840  29.338  28.118  1.00  0.00     0.167 HD
ATOM     54  C   UNL A   1      44.059  25.111  27.273  1.00  0.00     0.037 A 
ATOM     55  C   UNL A   1      46.452  31.616  28.310  1.00  0.00     0.037 A 
ATOM     56  C   UNL A   1      45.412  25.342  26.837  1.00  0.00     0.049 A 
ATOM     57  C   UNL A   1      47.318  30.539  27.712  1.00  0.00     0.074 A 
ATOM     58  C   UNL A   1      46.285  24.454  26.233  1.00  0.00     0.029 A 
ATOM     59  N   UNL A   1      46.091  26.546  26.961  1.00  0.00    -0.354 N 
ATOM     60  N   UNL A   1      47.015  29.291  27.443  1.00  0.00    -0.248 NA
ATOM     61  C   UNL A   1      48.697  30.910  27.366  1.00  0.00     0.031 C 
ATOM     62  C   UNL A   1      47.506  25.106  26.035  1.00  0.00     0.029 A 
ATOM     63  C   UNL A   1      47.376  26.418  26.459  1.00  0.00     0.049 A 
ATOM     64  H   UNL A   1      45.714  27.369  27.347  1.00  0.00     0.167 HD
ATOM     65  C   UNL A   1      48.152  28.740  26.861  1.00  0.00     0.074 A 
ATOM     66  C   UNL A   1      49.146  29.792  26.812  1.00  0.00     0.031 C 
ATOM     67  C   UNL A   1      48.353  27.479  26.405  1.00  0.00     0.037 A 
BRANCH  54  68
ATOM     68  C   UNL A   1      43.484  23.726  27.119  1.00  0.00     0.058 A 
ATOM     69  C   UNL A   1      43.358  22.852  28.210  1.00  0.00     0.135 A 
ATOM     70  C   UNL A   1      43.020  23.281  25.869  1.00  0.00     0.135 A 
ATOM     71  F   UNL A   1      43.798  23.218  29.425  1.00  0.00    -0.206 F 
ATOM     72  C   UNL A   1      42.825  21.574  28.063  1.00  0.00     0.059 A 
ATOM     73  C   UNL A   1      42.454  22.020  25.706  1.00  0.00     0.059 A 
ATOM     74  F   UNL A   1      43.114  24.075  24.791  1.00  0.00    -0.206 F 
ATOM     75  C   UNL A   1      42.375  21.168  26.807  1.00  0.00     0.060 A 
BRANCH  75  76
ATOM     76  S   UNL A   1      41.681  19.510  26.635  1.00  0.00     0.124 S 
ATOM     77  O   UNL A   1      42.421  18.779  27.659  1.00  0.00    -0.237 OA
ATOM     78  O   UNL A   1      40.267  19.734  26.914  1.00  0.00    -0.237 OA
ATOM     79  O   UNL A   1      41.996  19.149  25.257  1.00  0.00    -0.744 OA
ENDBRANCH  75  76
ENDBRANCH  54  68
BRANCH  55  80
ATOM     80  C   UNL A   1      46.990  32.983  28.546  1.00  0.00     0.058 A 
ATOM     81  C   UNL A   1      46.943  33.965  27.543  1.00  0.00     0.135 A 
ATOM     82  C   UNL A   1      47.555  33.341  29.781  1.00  0.00     0.135 A 
ATOM     83  F   UNL A   1      46.418  33.672  26.343  1.00  0.00    -0.206 F 
ATOM     84  C   UNL A   1      47.454  35.242  27.747  1.00  0.00     0.059 A 
ATOM     85  C   UNL A   1      48.047  34.620  30.018  1.00  0.00     0.059 A 
ATOM     86  F   UNL A   1      47.609  32.446  30.780  1.00  0.00    -0.206 F 
ATOM     87  C   UNL A   1      48.002  35.561  28.990  1.00  0.00     0.060 A 
BRANCH  87  88
ATOM     88  S   UNL A   1      48.622  37.235  29.260  1.00  0.00     0.124 S 
ATOM     89  O   UNL A   1      50.055  37.001  29.393  1.00  0.00    -0.237 OA
ATOM     90  O   UNL A   1      48.195  37.919  28.043  1.00  0.00    -0.237 OA
ATOM     91  O   UNL A   1      47.935  37.655  30.478  1.00  0.00    -0.744 OA
ENDBRANCH  87  88
ENDBRANCH  55  80
BRANCH  67  92
ATOM     92  C   UNL A   1      49.679  27.176  25.760  1.00  0.00     0.058 A 
ATOM     93  C   UNL A   1      49.888  27.321  24.381  1.00  0.00     0.135 A 
ATOM     94  C   UNL A   1      50.771  26.773  26.548  1.00  0.00     0.135 A 
ATOM     95  F   UNL A   1      48.879  27.700  23.580  1.00  0.00    -0.206 F 
ATOM     96  C   UNL A   1      51.123  27.044  23.799  1.00  0.00     0.059 A 
ATOM     97  C   UNL A   1      52.022  26.523  25.993  1.00  0.00     0.059 A 
ATOM     98  F   UNL A   1      50.631  26.630  27.876  1.00  0.00    -0.206 F 
ATOM     99  C   UNL A   1      52.183  26.646  24.614  1.00  0.00     0.060 A 
BRANCH  99 100
ATOM    100  S   UNL A   1      53.784  26.309  23.851  1.00  0.00     0.124 S 
ATOM    101  O   UNL A   1      54.201  25.106  24.564  1.00  0.00    -0.237 OA
ATOM    102  O   UNL A   1      53.426  26.122  22.448  1.00  0.00    -0.237 OA
ATOM    103  O   UNL A   1      54.559  27.511  24.139  1.00  0.00    -0.744 OA
ENDBRANCH  99 100
ENDBRANCH  67  92
ENDBRANCH  41  42
ENDBRANCH  33  36
ENDBRANCH  31  32
ENDBRANCH  30  31
ENDBRANCH  29  30
ENDBRANCH   1  29
TORSDOF 19
ENDMDL
