MODEL 1
REMARK VINA RESULT:     -11.9      0.000      0.000
REMARK SMILES Cc1nc(-c2ccco2)nc(S)c1C(=O)NCCCCCCNC(=O)c1ccc(-c2c3nc(c(-c4c(F)cc(S(=O)(=O)[O-])cc4F)c4ccc([nH]4)c(-c4c(F)cc(S(=O)(=O)[O-])cc4F)c4nc(c(-c5c(F)cc(S(=O)(=O)[O-])cc5F)c5ccc2[nH]5)C=C4)C=C3)cc1
REMARK SMILES IDX 20 1 19 2 18 3 17 4 16 5 14 6 15 7 13 9 1 10 2 11 3 12 4 13
REMARK SMILES IDX 11 14 10 15 5 16 6 17 9 18 7 19 8 20 12 21 21 23 22 24 23 25
REMARK SMILES IDX 24 26 25 28 26 29 27 30 91 31 28 32 90 33 29 34 30 35 31 36
REMARK SMILES IDX 84 37 32 38 89 39 83 40 85 41 33 42 88 43 82 44 81 45 34 47
REMARK SMILES IDX 68 48 47 49 67 50 48 51 51 52 66 53 86 54 49 55 50 56 65 58
REMARK SMILES IDX 87 59 52 60 35 61 36 62 45 63 37 64 38 65 44 66 46 67 39 68
REMARK SMILES IDX 40 69 41 70 42 71 43 72 69 73 70 74 79 75 71 76 72 77 78 78
REMARK SMILES IDX 80 79 73 80 74 81 75 82 76 83 77 84 53 85 54 86 63 87 55 88
REMARK SMILES IDX 56 89 62 90 64 91 57 92 58 93 59 94 60 95 61 96
REMARK H PARENT 16 8 12 22 23 27 85 46 51 57
REMARK Flexibility Score: inf
ROOT
ATOM      1  C   UNL A   1      36.954  23.219  24.413  1.00  0.00     0.002 C 
ENDROOT
BRANCH   1   2
ATOM      2  C   UNL A   1      35.569  23.858  24.269  1.00  0.00     0.002 C 
BRANCH   2   3
ATOM      3  C   UNL A   1      35.082  24.791  25.383  1.00  0.00     0.021 C 
BRANCH   3   4
ATOM      4  C   UNL A   1      33.820  25.604  25.119  1.00  0.00     0.116 C 
BRANCH   4   5
ATOM      5  N   UNL A   1      32.690  25.320  25.975  1.00  0.00    -0.352 N 
ATOM      6  C   UNL A   1      32.172  24.115  26.392  1.00  0.00     0.255 C 
ATOM      7  O   UNL A   1      31.300  24.145  27.263  1.00  0.00    -0.269 OA
ATOM      8  H   UNL A   1      32.216  26.115  26.312  1.00  0.00     0.163 HD
BRANCH   6   9
ATOM      9  C   UNL A   1      32.554  22.795  25.825  1.00  0.00     0.093 A 
ATOM     10  C   UNL A   1      33.916  21.942  27.835  1.00  0.00     0.068 C 
ATOM     11  C   UNL A   1      33.299  21.822  26.480  1.00  0.00     0.055 A 
ATOM     12  N   UNL A   1      33.554  20.614  25.925  1.00  0.00    -0.230 NA
ATOM     13  C   UNL A   1      33.034  20.344  24.724  1.00  0.00     0.196 A 
ATOM     14  C   UNL A   1      32.035  22.394  24.585  1.00  0.00     0.110 A 
ATOM     15  N   UNL A   1      32.292  21.190  24.008  1.00  0.00    -0.218 NA
BRANCH  13  16
ATOM     16  C   UNL A   1      33.360  19.049  24.158  1.00  0.00     0.171 A 
ATOM     17  C   UNL A   1      34.381  18.137  24.345  1.00  0.00     0.054 A 
ATOM     18  O   UNL A   1      32.469  18.551  23.244  1.00  0.00    -0.461 OA
ATOM     19  C   UNL A   1      34.073  17.012  23.538  1.00  0.00     0.043 A 
ATOM     20  C   UNL A   1      32.908  17.322  22.877  1.00  0.00     0.196 A 
ENDBRANCH  13  16
BRANCH  14  21
ATOM     21  S   UNL A   1      30.988  23.413  23.545  1.00  0.00    -0.123 SA
ATOM     22  H   UNL A   1      29.731  23.447  24.061  1.00  0.00     0.110 HD
ENDBRANCH  14  21
ENDBRANCH   6   9
ENDBRANCH   4   5
ENDBRANCH   3   4
ENDBRANCH   2   3
ENDBRANCH   1   2
BRANCH   1  23
ATOM     23  C   UNL A   1      37.548  23.123  25.818  1.00  0.00     0.021 C 
BRANCH  23  24
ATOM     24  C   UNL A   1      38.415  24.286  26.279  1.00  0.00     0.116 C 
BRANCH  24  25
ATOM     25  N   UNL A   1      39.842  24.046  26.147  1.00  0.00    -0.352 N 
ATOM     26  C   UNL A   1      40.906  24.669  26.757  1.00  0.00     0.251 C 
ATOM     27  H   UNL A   1      40.085  23.324  25.523  1.00  0.00     0.163 HD
ATOM     28  O   UNL A   1      42.051  24.366  26.427  1.00  0.00    -0.269 OA
BRANCH  26  29
ATOM     29  C   UNL A   1      40.686  25.723  27.776  1.00  0.00     0.039 A 
ATOM     30  C   UNL A   1      41.654  26.694  28.036  1.00  0.00     0.014 A 
ATOM     31  C   UNL A   1      39.482  25.742  28.488  1.00  0.00     0.014 A 
ATOM     32  C   UNL A   1      41.500  27.553  29.121  1.00  0.00     0.010 A 
ATOM     33  C   UNL A   1      39.286  26.676  29.513  1.00  0.00     0.010 A 
ATOM     34  C   UNL A   1      40.315  27.557  29.875  1.00  0.00    -0.014 A 
BRANCH  34  35
ATOM     35  C   UNL A   1      40.191  28.495  31.027  1.00  0.00     0.031 A 
ATOM     36  C   UNL A   1      41.139  28.419  32.197  1.00  0.00     0.074 A 
ATOM     37  C   UNL A   1      39.262  29.473  30.979  1.00  0.00     0.049 A 
ATOM     38  N   UNL A   1      41.230  29.213  33.234  1.00  0.00    -0.248 NA
ATOM     39  C   UNL A   1      42.106  27.310  32.212  1.00  0.00     0.031 C 
ATOM     40  C   UNL A   1      38.280  29.645  29.904  1.00  0.00     0.029 A 
ATOM     41  N   UNL A   1      39.011  30.525  31.824  1.00  0.00    -0.354 N 
ATOM     42  C   UNL A   1      42.255  28.702  34.022  1.00  0.00     0.074 A 
ATOM     43  C   UNL A   1      42.725  27.500  33.370  1.00  0.00     0.031 C 
ATOM     44  C   UNL A   1      37.585  30.771  30.117  1.00  0.00     0.029 A 
ATOM     45  C   UNL A   1      38.023  31.370  31.373  1.00  0.00     0.049 A 
ATOM     46  H   UNL A   1      39.492  30.661  32.672  1.00  0.00     0.167 HD
ATOM     47  C   UNL A   1      42.771  29.200  35.171  1.00  0.00     0.037 A 
ATOM     48  C   UNL A   1      37.519  32.500  31.908  1.00  0.00     0.037 A 
ATOM     49  C   UNL A   1      42.310  30.407  35.807  1.00  0.00     0.049 A 
ATOM     50  C   UNL A   1      38.079  33.008  33.207  1.00  0.00     0.074 A 
ATOM     51  C   UNL A   1      42.787  31.005  36.960  1.00  0.00     0.029 A 
ATOM     52  N   UNL A   1      41.267  31.200  35.347  1.00  0.00    -0.354 N 
ATOM     53  N   UNL A   1      39.072  32.527  33.917  1.00  0.00    -0.248 NA
ATOM     54  C   UNL A   1      37.450  34.203  33.786  1.00  0.00     0.031 C 
ATOM     55  C   UNL A   1      42.000  32.129  37.227  1.00  0.00     0.029 A 
ATOM     56  C   UNL A   1      41.071  32.266  36.209  1.00  0.00     0.049 A 
ATOM     57  H   UNL A   1      40.746  31.030  34.530  1.00  0.00     0.167 HD
ATOM     58  C   UNL A   1      39.198  33.370  35.014  1.00  0.00     0.074 A 
ATOM     59  C   UNL A   1      38.189  34.399  34.870  1.00  0.00     0.031 C 
ATOM     60  C   UNL A   1      40.071  33.294  36.047  1.00  0.00     0.037 A 
BRANCH  47  61
ATOM     61  C   UNL A   1      43.902  28.450  35.824  1.00  0.00     0.058 A 
ATOM     62  C   UNL A   1      45.243  28.781  35.576  1.00  0.00     0.135 A 
ATOM     63  C   UNL A   1      43.642  27.441  36.767  1.00  0.00     0.135 A 
ATOM     64  F   UNL A   1      45.551  29.729  34.677  1.00  0.00    -0.206 F 
ATOM     65  C   UNL A   1      46.285  28.126  36.224  1.00  0.00     0.059 A 
ATOM     66  C   UNL A   1      44.668  26.792  37.448  1.00  0.00     0.059 A 
ATOM     67  F   UNL A   1      42.377  27.086  37.046  1.00  0.00    -0.206 F 
ATOM     68  C   UNL A   1      45.989  27.135  37.161  1.00  0.00     0.060 A 
BRANCH  68  69
ATOM     69  S   UNL A   1      47.357  26.309  38.000  1.00  0.00     0.124 S 
ATOM     70  O   UNL A   1      48.425  26.438  37.011  1.00  0.00    -0.237 OA
ATOM     71  O   UNL A   1      47.513  27.116  39.206  1.00  0.00    -0.237 OA
ATOM     72  O   UNL A   1      46.862  24.954  38.214  1.00  0.00    -0.744 OA
ENDBRANCH  68  69
ENDBRANCH  47  61
BRANCH  48  73
ATOM     73  C   UNL A   1      36.434  33.230  31.199  1.00  0.00     0.058 A 
ATOM     74  C   UNL A   1      35.124  33.247  31.703  1.00  0.00     0.135 A 
ATOM     75  C   UNL A   1      36.690  33.959  30.027  1.00  0.00     0.135 A 
ATOM     76  F   UNL A   1      34.825  32.562  32.817  1.00  0.00    -0.206 F 
ATOM     77  C   UNL A   1      34.109  33.957  31.070  1.00  0.00     0.059 A 
ATOM     78  C   UNL A   1      35.700  34.700  29.392  1.00  0.00     0.059 A 
ATOM     79  F   UNL A   1      37.930  33.987  29.511  1.00  0.00    -0.206 F 
ATOM     80  C   UNL A   1      34.409  34.688  29.918  1.00  0.00     0.060 A 
BRANCH  80  81
ATOM     81  S   UNL A   1      33.097  35.654  29.141  1.00  0.00     0.124 S 
ATOM     82  O   UNL A   1      32.490  34.666  28.256  1.00  0.00    -0.237 OA
ATOM     83  O   UNL A   1      32.296  36.058  30.293  1.00  0.00    -0.237 OA
ATOM     84  O   UNL A   1      33.820  36.734  28.480  1.00  0.00    -0.744 OA
ENDBRANCH  80  81
ENDBRANCH  48  73
BRANCH  60  85
ATOM     85  C   UNL A   1      40.008  34.356  37.109  1.00  0.00     0.058 A 
ATOM     86  C   UNL A   1      40.676  35.579  36.961  1.00  0.00     0.135 A 
ATOM     87  C   UNL A   1      39.161  34.198  38.219  1.00  0.00     0.135 A 
ATOM     88  F   UNL A   1      41.506  35.776  35.923  1.00  0.00    -0.206 F 
ATOM     89  C   UNL A   1      40.499  36.617  37.870  1.00  0.00     0.059 A 
ATOM     90  C   UNL A   1      38.949  35.231  39.127  1.00  0.00     0.059 A 
ATOM     91  F   UNL A   1      38.494  33.048  38.403  1.00  0.00    -0.206 F 
ATOM     92  C   UNL A   1      39.619  36.439  38.940  1.00  0.00     0.060 A 
BRANCH  92  93
ATOM     93  S   UNL A   1      39.325  37.831  40.051  1.00  0.00     0.124 S 
ATOM     94  O   UNL A   1      40.569  38.583  39.920  1.00  0.00    -0.237 OA
ATOM     95  O   UNL A   1      38.143  38.453  39.461  1.00  0.00    -0.237 OA
ATOM     96  O   UNL A   1      39.111  37.195  41.347  1.00  0.00    -0.744 OA
ENDBRANCH  92  93
ENDBRANCH  60  85
ENDBRANCH  34  35
ENDBRANCH  26  29
ENDBRANCH  24  25
ENDBRANCH  23  24
ENDBRANCH   1  23
TORSDOF 18
ENDMDL
MODEL 2
REMARK VINA RESULT:     -11.8      5.153      9.778
REMARK SMILES Cc1nc(-c2ccco2)nc(S)c1C(=O)NCCCCCCNC(=O)c1ccc(-c2c3nc(c(-c4c(F)cc(S(=O)(=O)[O-])cc4F)c4ccc([nH]4)c(-c4c(F)cc(S(=O)(=O)[O-])cc4F)c4nc(c(-c5c(F)cc(S(=O)(=O)[O-])cc5F)c5ccc2[nH]5)C=C4)C=C3)cc1
REMARK SMILES IDX 20 1 19 2 18 3 17 4 16 5 14 6 15 7 13 9 1 10 2 11 3 12 4 13
REMARK SMILES IDX 11 14 10 15 5 16 6 17 9 18 7 19 8 20 12 21 21 23 22 24 23 25
REMARK SMILES IDX 24 26 25 28 26 29 27 30 91 31 28 32 90 33 29 34 30 35 31 36
REMARK SMILES IDX 84 37 32 38 89 39 83 40 85 41 33 42 88 43 82 44 81 45 34 47
REMARK SMILES IDX 68 48 47 49 67 50 48 51 51 52 66 53 86 54 49 55 50 56 65 58
REMARK SMILES IDX 87 59 52 60 35 61 36 62 45 63 37 64 38 65 44 66 46 67 39 68
REMARK SMILES IDX 40 69 41 70 42 71 43 72 69 73 70 74 79 75 71 76 72 77 78 78
REMARK SMILES IDX 80 79 73 80 74 81 75 82 76 83 77 84 53 85 54 86 63 87 55 88
REMARK SMILES IDX 56 89 62 90 64 91 57 92 58 93 59 94 60 95 61 96
REMARK H PARENT 16 8 12 22 23 27 85 46 51 57
REMARK Flexibility Score: inf
ROOT
ATOM      1  C   UNL A   1      31.629  27.632  25.704  1.00  0.00     0.002 C 
ENDROOT
BRANCH   1   2
ATOM      2  C   UNL A   1      31.601  26.153  25.307  1.00  0.00     0.002 C 
BRANCH   2   3
ATOM      3  C   UNL A   1      31.944  25.109  26.375  1.00  0.00     0.021 C 
BRANCH   3   4
ATOM      4  C   UNL A   1      33.314  24.444  26.296  1.00  0.00     0.116 C 
BRANCH   4   5
ATOM      5  N   UNL A   1      34.032  24.614  25.053  1.00  0.00    -0.352 N 
ATOM      6  C   UNL A   1      34.307  23.708  24.055  1.00  0.00     0.255 C 
ATOM      7  O   UNL A   1      34.794  24.146  23.011  1.00  0.00    -0.269 OA
ATOM      8  H   UNL A   1      34.379  25.522  24.896  1.00  0.00     0.163 HD
BRANCH   6   9
ATOM      9  C   UNL A   1      34.109  22.239  24.176  1.00  0.00     0.093 A 
ATOM     10  C   UNL A   1      36.380  21.677  25.248  1.00  0.00     0.068 C 
ATOM     11  C   UNL A   1      35.017  21.348  24.736  1.00  0.00     0.055 A 
ATOM     12  N   UNL A   1      34.741  20.029  24.871  1.00  0.00    -0.230 NA
ATOM     13  C   UNL A   1      33.539  19.589  24.489  1.00  0.00     0.196 A 
ATOM     14  C   UNL A   1      32.871  21.673  23.837  1.00  0.00     0.110 A 
ATOM     15  N   UNL A   1      32.583  20.350  23.955  1.00  0.00    -0.218 NA
BRANCH  13  16
ATOM     16  C   UNL A   1      33.302  18.164  24.627  1.00  0.00     0.171 A 
ATOM     17  C   UNL A   1      33.731  17.039  23.950  1.00  0.00     0.054 A 
ATOM     18  O   UNL A   1      32.501  17.787  25.673  1.00  0.00    -0.461 OA
ATOM     19  C   UNL A   1      33.199  15.921  24.643  1.00  0.00     0.043 A 
ATOM     20  C   UNL A   1      32.445  16.432  25.673  1.00  0.00     0.196 A 
ENDBRANCH  13  16
BRANCH  14  21
ATOM     21  S   UNL A   1      31.488  22.590  23.155  1.00  0.00    -0.123 SA
ATOM     22  H   UNL A   1      30.648  21.735  22.516  1.00  0.00     0.110 HD
ENDBRANCH  14  21
ENDBRANCH   6   9
ENDBRANCH   4   5
ENDBRANCH   3   4
ENDBRANCH   2   3
ENDBRANCH   1   2
BRANCH   1  23
ATOM     23  C   UNL A   1      32.984  28.339  25.714  1.00  0.00     0.021 C 
BRANCH  23  24
ATOM     24  C   UNL A   1      33.655  28.522  27.069  1.00  0.00     0.116 C 
BRANCH  24  25
ATOM     25  N   UNL A   1      33.551  29.871  27.598  1.00  0.00    -0.352 N 
ATOM     26  C   UNL A   1      34.487  30.641  28.250  1.00  0.00     0.251 C 
ATOM     27  H   UNL A   1      32.675  30.302  27.470  1.00  0.00     0.163 HD
ATOM     28  O   UNL A   1      34.157  31.737  28.701  1.00  0.00    -0.269 OA
BRANCH  26  29
ATOM     29  C   UNL A   1      35.872  30.150  28.446  1.00  0.00     0.039 A 
ATOM     30  C   UNL A   1      36.311  29.697  29.691  1.00  0.00     0.014 A 
ATOM     31  C   UNL A   1      36.752  30.140  27.359  1.00  0.00     0.014 A 
ATOM     32  C   UNL A   1      37.661  29.419  29.889  1.00  0.00     0.010 A 
ATOM     33  C   UNL A   1      38.087  29.760  27.538  1.00  0.00     0.010 A 
ATOM     34  C   UNL A   1      38.569  29.446  28.817  1.00  0.00    -0.014 A 
BRANCH  34  35
ATOM     35  C   UNL A   1      40.004  29.139  29.074  1.00  0.00     0.031 A 
ATOM     36  C   UNL A   1      40.591  27.800  28.705  1.00  0.00     0.074 A 
ATOM     37  C   UNL A   1      40.802  30.106  29.574  1.00  0.00     0.049 A 
ATOM     38  N   UNL A   1      41.836  27.401  28.773  1.00  0.00    -0.248 NA
ATOM     39  C   UNL A   1      39.666  26.773  28.198  1.00  0.00     0.031 C 
ATOM     40  C   UNL A   1      40.350  31.440  29.980  1.00  0.00     0.029 A 
ATOM     41  N   UNL A   1      42.157  30.138  29.792  1.00  0.00    -0.354 N 
ATOM     42  C   UNL A   1      41.845  26.085  28.326  1.00  0.00     0.074 A 
ATOM     43  C   UNL A   1      40.474  25.734  28.033  1.00  0.00     0.031 C 
ATOM     44  C   UNL A   1      41.413  32.179  30.327  1.00  0.00     0.029 A 
ATOM     45  C   UNL A   1      42.615  31.359  30.233  1.00  0.00     0.049 A 
ATOM     46  H   UNL A   1      42.745  29.362  29.648  1.00  0.00     0.167 HD
ATOM     47  C   UNL A   1      42.901  25.254  28.154  1.00  0.00     0.037 A 
ATOM     48  C   UNL A   1      43.862  31.776  30.533  1.00  0.00     0.037 A 
ATOM     49  C   UNL A   1      44.267  25.615  28.431  1.00  0.00     0.049 A 
ATOM     50  C   UNL A   1      45.011  30.819  30.377  1.00  0.00     0.074 A 
ATOM     51  C   UNL A   1      45.407  24.849  28.265  1.00  0.00     0.029 A 
ATOM     52  N   UNL A   1      44.678  26.842  28.932  1.00  0.00    -0.354 N 
ATOM     53  N   UNL A   1      44.999  29.591  29.918  1.00  0.00    -0.248 NA
ATOM     54  C   UNL A   1      46.339  31.297  30.783  1.00  0.00     0.031 C 
ATOM     55  C   UNL A   1      46.502  25.593  28.714  1.00  0.00     0.029 A 
ATOM     56  C   UNL A   1      46.053  26.844  29.105  1.00  0.00     0.049 A 
ATOM     57  H   UNL A   1      44.083  27.599  29.134  1.00  0.00     0.167 HD
ATOM     58  C   UNL A   1      46.318  29.156  29.964  1.00  0.00     0.074 A 
ATOM     59  C   UNL A   1      47.104  30.255  30.483  1.00  0.00     0.031 C 
ATOM     60  C   UNL A   1      46.827  27.951  29.609  1.00  0.00     0.037 A 
BRANCH  47  61
ATOM     61  C   UNL A   1      42.633  23.865  27.635  1.00  0.00     0.058 A 
ATOM     62  C   UNL A   1      42.539  23.601  26.260  1.00  0.00     0.135 A 
ATOM     63  C   UNL A   1      42.546  22.775  28.517  1.00  0.00     0.135 A 
ATOM     64  F   UNL A   1      42.604  24.605  25.371  1.00  0.00    -0.206 F 
ATOM     65  C   UNL A   1      42.350  22.309  25.779  1.00  0.00     0.059 A 
ATOM     66  C   UNL A   1      42.384  21.471  28.057  1.00  0.00     0.059 A 
ATOM     67  F   UNL A   1      42.632  22.970  29.843  1.00  0.00    -0.206 F 
ATOM     68  C   UNL A   1      42.277  21.250  26.685  1.00  0.00     0.060 A 
BRANCH  68  69
ATOM     69  S   UNL A   1      42.046  19.581  26.038  1.00  0.00     0.124 S 
ATOM     70  O   UNL A   1      42.460  18.767  27.178  1.00  0.00    -0.237 OA
ATOM     71  O   UNL A   1      40.618  19.562  25.734  1.00  0.00    -0.237 OA
ATOM     72  O   UNL A   1      42.933  19.535  24.880  1.00  0.00    -0.744 OA
ENDBRANCH  68  69
ENDBRANCH  47  61
BRANCH  48  73
ATOM     73  C   UNL A   1      44.079  33.172  30.998  1.00  0.00     0.058 A 
ATOM     74  C   UNL A   1      43.902  33.522  32.345  1.00  0.00     0.135 A 
ATOM     75  C   UNL A   1      44.507  34.176  30.114  1.00  0.00     0.135 A 
ATOM     76  F   UNL A   1      43.487  32.602  33.229  1.00  0.00    -0.206 F 
ATOM     77  C   UNL A   1      44.138  34.816  32.799  1.00  0.00     0.059 A 
ATOM     78  C   UNL A   1      44.779  35.469  30.549  1.00  0.00     0.059 A 
ATOM     79  F   UNL A   1      44.707  33.889  28.818  1.00  0.00    -0.206 F 
ATOM     80  C   UNL A   1      44.585  35.781  31.893  1.00  0.00     0.060 A 
BRANCH  80  81
ATOM     81  S   UNL A   1      44.947  37.440  32.507  1.00  0.00     0.124 S 
ATOM     82  O   UNL A   1      43.734  38.161  32.137  1.00  0.00    -0.237 OA
ATOM     83  O   UNL A   1      45.139  37.200  33.934  1.00  0.00    -0.237 OA
ATOM     84  O   UNL A   1      46.152  37.815  31.774  1.00  0.00    -0.744 OA
ENDBRANCH  80  81
ENDBRANCH  48  73
BRANCH  60  85
ATOM     85  C   UNL A   1      48.310  27.742  29.741  1.00  0.00     0.058 A 
ATOM     86  C   UNL A   1      48.858  27.066  30.841  1.00  0.00     0.135 A 
ATOM     87  C   UNL A   1      49.173  28.102  28.693  1.00  0.00     0.135 A 
ATOM     88  F   UNL A   1      48.077  26.710  31.874  1.00  0.00    -0.206 F 
ATOM     89  C   UNL A   1      50.209  26.742  30.892  1.00  0.00     0.059 A 
ATOM     90  C   UNL A   1      50.523  27.765  28.711  1.00  0.00     0.059 A 
ATOM     91  F   UNL A   1      48.696  28.745  27.615  1.00  0.00    -0.206 F 
ATOM     92  C   UNL A   1      51.030  27.080  29.814  1.00  0.00     0.060 A 
BRANCH  92  93
ATOM     93  S   UNL A   1      52.759  26.561  29.854  1.00  0.00     0.124 S 
ATOM     94  O   UNL A   1      52.758  25.615  30.965  1.00  0.00    -0.237 OA
ATOM     95  O   UNL A   1      52.938  25.980  28.527  1.00  0.00    -0.237 OA
ATOM     96  O   UNL A   1      53.484  27.805  30.091  1.00  0.00    -0.744 OA
ENDBRANCH  92  93
ENDBRANCH  60  85
ENDBRANCH  34  35
ENDBRANCH  26  29
ENDBRANCH  24  25
ENDBRANCH  23  24
ENDBRANCH   1  23
TORSDOF 18
ENDMDL
MODEL 3
REMARK VINA RESULT:     -11.8      6.762     11.404
REMARK SMILES Cc1nc(-c2ccco2)nc(S)c1C(=O)NCCCCCCNC(=O)c1ccc(-c2c3nc(c(-c4c(F)cc(S(=O)(=O)[O-])cc4F)c4ccc([nH]4)c(-c4c(F)cc(S(=O)(=O)[O-])cc4F)c4nc(c(-c5c(F)cc(S(=O)(=O)[O-])cc5F)c5ccc2[nH]5)C=C4)C=C3)cc1
REMARK SMILES IDX 20 1 19 2 18 3 17 4 16 5 14 6 15 7 13 9 1 10 2 11 3 12 4 13
REMARK SMILES IDX 11 14 10 15 5 16 6 17 9 18 7 19 8 20 12 21 21 23 22 24 23 25
REMARK SMILES IDX 24 26 25 28 26 29 27 30 91 31 28 32 90 33 29 34 30 35 31 36
REMARK SMILES IDX 84 37 32 38 89 39 83 40 85 41 33 42 88 43 82 44 81 45 34 47
REMARK SMILES IDX 68 48 47 49 67 50 48 51 51 52 66 53 86 54 49 55 50 56 65 58
REMARK SMILES IDX 87 59 52 60 35 61 36 62 45 63 37 64 38 65 44 66 46 67 39 68
REMARK SMILES IDX 40 69 41 70 42 71 43 72 69 73 70 74 79 75 71 76 72 77 78 78
REMARK SMILES IDX 80 79 73 80 74 81 75 82 76 83 77 84 53 85 54 86 63 87 55 88
REMARK SMILES IDX 56 89 62 90 64 91 57 92 58 93 59 94 60 95 61 96
REMARK H PARENT 16 8 12 22 23 27 85 46 51 57
REMARK Flexibility Score: inf
ROOT
ATOM      1  C   UNL A   1      32.802  28.041  27.138  1.00  0.00     0.002 C 
ENDROOT
BRANCH   1   2
ATOM      2  C   UNL A   1      32.678  27.007  26.016  1.00  0.00     0.002 C 
BRANCH   2   3
ATOM      3  C   UNL A   1      32.305  25.569  26.392  1.00  0.00     0.021 C 
BRANCH   3   4
ATOM      4  C   UNL A   1      33.355  24.487  26.167  1.00  0.00     0.116 C 
BRANCH   4   5
ATOM      5  N   UNL A   1      34.149  24.612  24.966  1.00  0.00    -0.352 N 
ATOM      6  C   UNL A   1      34.469  23.676  24.010  1.00  0.00     0.255 C 
ATOM      7  O   UNL A   1      35.026  24.078  22.986  1.00  0.00    -0.269 OA
ATOM      8  H   UNL A   1      34.521  25.511  24.808  1.00  0.00     0.163 HD
BRANCH   6   9
ATOM      9  C   UNL A   1      34.239  22.214  24.156  1.00  0.00     0.093 A 
ATOM     10  C   UNL A   1      36.510  21.616  25.208  1.00  0.00     0.068 C 
ATOM     11  C   UNL A   1      35.133  21.311  24.717  1.00  0.00     0.055 A 
ATOM     12  N   UNL A   1      34.829  20.001  24.877  1.00  0.00    -0.230 NA
ATOM     13  C   UNL A   1      33.612  19.582  24.516  1.00  0.00     0.196 A 
ATOM     14  C   UNL A   1      32.984  21.672  23.840  1.00  0.00     0.110 A 
ATOM     15  N   UNL A   1      32.667  20.358  23.982  1.00  0.00    -0.218 NA
BRANCH  13  16
ATOM     16  C   UNL A   1      33.345  18.166  24.679  1.00  0.00     0.171 A 
ATOM     17  C   UNL A   1      33.825  17.013  24.088  1.00  0.00     0.054 A 
ATOM     18  O   UNL A   1      32.438  17.833  25.651  1.00  0.00    -0.461 OA
ATOM     19  C   UNL A   1      33.212  15.926  24.762  1.00  0.00     0.043 A 
ATOM     20  C   UNL A   1      32.365  16.481  25.693  1.00  0.00     0.196 A 
ENDBRANCH  13  16
BRANCH  14  21
ATOM     21  S   UNL A   1      31.614  22.610  23.162  1.00  0.00    -0.123 SA
ATOM     22  H   UNL A   1      31.470  23.769  23.857  1.00  0.00     0.110 HD
ENDBRANCH  14  21
ENDBRANCH   6   9
ENDBRANCH   4   5
ENDBRANCH   3   4
ENDBRANCH   2   3
ENDBRANCH   1   2
BRANCH   1  23
ATOM     23  C   UNL A   1      33.712  29.245  26.896  1.00  0.00     0.021 C 
BRANCH  23  24
ATOM     24  C   UNL A   1      35.061  29.242  27.603  1.00  0.00     0.116 C 
BRANCH  24  25
ATOM     25  N   UNL A   1      35.142  30.166  28.720  1.00  0.00    -0.352 N 
ATOM     26  C   UNL A   1      36.213  30.502  29.517  1.00  0.00     0.251 C 
ATOM     27  H   UNL A   1      34.299  30.624  28.943  1.00  0.00     0.163 HD
ATOM     28  O   UNL A   1      36.037  31.248  30.479  1.00  0.00    -0.269 OA
BRANCH  26  29
ATOM     29  C   UNL A   1      37.561  29.946  29.251  1.00  0.00     0.039 A 
ATOM     30  C   UNL A   1      38.358  29.452  30.283  1.00  0.00     0.014 A 
ATOM     31  C   UNL A   1      38.039  29.919  27.936  1.00  0.00     0.014 A 
ATOM     32  C   UNL A   1      39.685  29.111  30.032  1.00  0.00     0.010 A 
ATOM     33  C   UNL A   1      39.341  29.477  27.671  1.00  0.00     0.010 A 
ATOM     34  C   UNL A   1      40.196  29.118  28.723  1.00  0.00    -0.014 A 
BRANCH  34  35
ATOM     35  C   UNL A   1      41.620  28.744  28.498  1.00  0.00     0.031 A 
ATOM     36  C   UNL A   1      42.003  27.338  28.109  1.00  0.00     0.074 A 
ATOM     37  C   UNL A   1      42.569  29.701  28.571  1.00  0.00     0.049 A 
ATOM     38  N   UNL A   1      43.181  26.866  27.786  1.00  0.00    -0.248 NA
ATOM     39  C   UNL A   1      40.932  26.329  28.082  1.00  0.00     0.031 C 
ATOM     40  C   UNL A   1      42.326  31.096  28.947  1.00  0.00     0.029 A 
ATOM     41  N   UNL A   1      43.914  29.665  28.298  1.00  0.00    -0.354 N 
ATOM     42  C   UNL A   1      42.996  25.514  27.523  1.00  0.00     0.074 A 
ATOM     43  C   UNL A   1      41.600  25.226  27.769  1.00  0.00     0.031 C 
ATOM     44  C   UNL A   1      43.462  31.795  28.813  1.00  0.00     0.029 A 
ATOM     45  C   UNL A   1      44.531  30.890  28.404  1.00  0.00     0.049 A 
ATOM     46  H   UNL A   1      44.392  28.840  28.051  1.00  0.00     0.167 HD
ATOM     47  C   UNL A   1      43.900  24.601  27.094  1.00  0.00     0.037 A 
ATOM     48  C   UNL A   1      45.814  31.251  28.200  1.00  0.00     0.037 A 
ATOM     49  C   UNL A   1      45.285  24.897  26.833  1.00  0.00     0.049 A 
ATOM     50  C   UNL A   1      46.807  30.210  27.767  1.00  0.00     0.074 A 
ATOM     51  C   UNL A   1      46.271  24.043  26.372  1.00  0.00     0.029 A 
ATOM     52  N   UNL A   1      45.880  26.138  27.011  1.00  0.00    -0.354 N 
ATOM     53  N   UNL A   1      46.601  28.944  27.490  1.00  0.00    -0.248 NA
ATOM     54  C   UNL A   1      48.206  30.636  27.626  1.00  0.00     0.031 C 
ATOM     55  C   UNL A   1      47.474  24.754  26.320  1.00  0.00     0.029 A 
ATOM     56  C   UNL A   1      47.226  26.065  26.693  1.00  0.00     0.049 A 
ATOM     57  H   UNL A   1      45.414  26.949  27.316  1.00  0.00     0.167 HD
ATOM     58  C   UNL A   1      47.839  28.429  27.125  1.00  0.00     0.074 A 
ATOM     59  C   UNL A   1      48.787  29.521  27.204  1.00  0.00     0.031 C 
ATOM     60  C   UNL A   1      48.158  27.164  26.760  1.00  0.00     0.037 A 
BRANCH  47  61
ATOM     61  C   UNL A   1      43.429  23.188  26.869  1.00  0.00     0.058 A 
ATOM     62  C   UNL A   1      43.327  22.644  25.579  1.00  0.00     0.135 A 
ATOM     63  C   UNL A   1      43.150  22.344  27.957  1.00  0.00     0.135 A 
ATOM     64  F   UNL A   1      43.570  23.407  24.502  1.00  0.00    -0.206 F 
ATOM     65  C   UNL A   1      42.948  21.322  25.375  1.00  0.00     0.059 A 
ATOM     66  C   UNL A   1      42.795  21.010  27.778  1.00  0.00     0.059 A 
ATOM     67  F   UNL A   1      43.234  22.811  29.213  1.00  0.00    -0.206 F 
ATOM     68  C   UNL A   1      42.688  20.510  26.481  1.00  0.00     0.060 A 
BRANCH  68  69
ATOM     69  S   UNL A   1      42.211  18.793  26.192  1.00  0.00     0.124 S 
ATOM     70  O   UNL A   1      43.137  18.409  25.130  1.00  0.00    -0.237 OA
ATOM     71  O   UNL A   1      42.455  18.182  27.495  1.00  0.00    -0.237 OA
ATOM     72  O   UNL A   1      40.810  18.887  25.797  1.00  0.00    -0.744 OA
ENDBRANCH  68  69
ENDBRANCH  47  61
BRANCH  48  73
ATOM     73  C   UNL A   1      46.218  32.670  28.391  1.00  0.00     0.058 A 
ATOM     74  C   UNL A   1      46.737  33.116  29.616  1.00  0.00     0.135 A 
ATOM     75  C   UNL A   1      46.134  33.600  27.342  1.00  0.00     0.135 A 
ATOM     76  F   UNL A   1      46.833  32.269  30.653  1.00  0.00    -0.206 F 
ATOM     77  C   UNL A   1      47.155  34.431  29.796  1.00  0.00     0.059 A 
ATOM     78  C   UNL A   1      46.572  34.912  27.488  1.00  0.00     0.059 A 
ATOM     79  F   UNL A   1      45.659  33.221  26.145  1.00  0.00    -0.206 F 
ATOM     80  C   UNL A   1      47.075  35.320  28.722  1.00  0.00     0.060 A 
BRANCH  80  81
ATOM     81  S   UNL A   1      47.677  37.007  28.950  1.00  0.00     0.124 S 
ATOM     82  O   UNL A   1      46.783  37.758  28.074  1.00  0.00    -0.237 OA
ATOM     83  O   UNL A   1      47.484  37.206  30.383  1.00  0.00    -0.237 OA
ATOM     84  O   UNL A   1      49.068  36.930  28.516  1.00  0.00    -0.744 OA
ENDBRANCH  80  81
ENDBRANCH  48  73
BRANCH  60  85
ATOM     85  C   UNL A   1      49.585  26.870  26.392  1.00  0.00     0.058 A 
ATOM     86  C   UNL A   1      50.501  26.392  27.340  1.00  0.00     0.135 A 
ATOM     87  C   UNL A   1      50.000  26.940  25.051  1.00  0.00     0.135 A 
ATOM     88  F   UNL A   1      50.157  26.317  28.636  1.00  0.00    -0.206 F 
ATOM     89  C   UNL A   1      51.777  25.981  26.970  1.00  0.00     0.059 A 
ATOM     90  C   UNL A   1      51.262  26.509  24.655  1.00  0.00     0.059 A 
ATOM     91  F   UNL A   1      49.158  27.385  24.105  1.00  0.00    -0.206 F 
ATOM     92  C   UNL A   1      52.142  26.026  25.623  1.00  0.00     0.060 A 
BRANCH  92  93
ATOM     93  S   UNL A   1      53.765  25.393  25.149  1.00  0.00     0.124 S 
ATOM     94  O   UNL A   1      53.562  23.952  25.255  1.00  0.00    -0.237 OA
ATOM     95  O   UNL A   1      53.917  25.914  23.795  1.00  0.00    -0.237 OA
ATOM     96  O   UNL A   1      54.662  25.974  26.144  1.00  0.00    -0.744 OA
ENDBRANCH  92  93
ENDBRANCH  60  85
ENDBRANCH  34  35
ENDBRANCH  26  29
ENDBRANCH  24  25
ENDBRANCH  23  24
ENDBRANCH   1  23
TORSDOF 18
ENDMDL
