MODEL 1
REMARK VINA RESULT:     -11.1      0.000      0.000
REMARK SMILES O=C(NCCCCCCNC(=O)c1cc(Br)ccc1OCc1ccccc1F)c1ccc(-c2c3nc(c(-c4c(F)cc(S(=O)(=O)[O-])cc4F)c4ccc([nH]4)c(-c4c(F)cc(S(=O)(=O)[O-])cc4F)c4nc(c(-c5c(F)cc(S(=O)(=O)[O-])cc5F)c5ccc2[nH]5)C=C4)C=C3)cc1
REMARK SMILES IDX 6 1 5 2 4 3 3 4 1 5 2 6 29 8 30 9 94 10 31 11 93 12 32 13
REMARK SMILES IDX 33 14 34 15 87 16 35 17 92 18 86 19 88 20 36 21 91 22 85 23
REMARK SMILES IDX 84 24 37 26 71 27 50 28 70 29 51 30 54 31 69 32 89 33 52 34
REMARK SMILES IDX 53 35 68 37 90 38 55 39 38 40 39 41 48 42 40 43 41 44 47 45
REMARK SMILES IDX 49 46 42 47 43 48 44 49 45 50 46 51 72 52 73 53 82 54 74 55
REMARK SMILES IDX 75 56 81 57 83 58 76 59 77 60 78 61 79 62 80 63 56 64 57 65
REMARK SMILES IDX 66 66 58 67 59 68 65 69 67 70 60 71 61 72 62 73 63 74 64 75
REMARK SMILES IDX 7 76 8 77 9 78 10 79 11 80 12 82 13 83 14 84 19 85 15 86
REMARK SMILES IDX 18 87 16 88 17 89 20 90 21 91 22 92 23 93 27 94 24 95 26 96
REMARK SMILES IDX 28 97 25 98
REMARK H PARENT 3 7 88 25 54 36 10 81
REMARK Flexibility Score: inf
ROOT
ATOM      1  C   UNL A   1      33.160  26.283  26.108  1.00  0.00     0.002 C 
ENDROOT
BRANCH   1   2
ATOM      2  C   UNL A   1      32.973  27.728  26.571  1.00  0.00     0.021 C 
BRANCH   2   3
ATOM      3  C   UNL A   1      34.258  28.481  26.889  1.00  0.00     0.116 C 
BRANCH   3   4
ATOM      4  N   UNL A   1      34.017  29.743  27.558  1.00  0.00    -0.352 N 
ATOM      5  O   UNL A   1      34.496  31.444  28.958  1.00  0.00    -0.269 OA
ATOM      6  C   UNL A   1      34.889  30.459  28.341  1.00  0.00     0.251 C 
ATOM      7  H   UNL A   1      33.122  30.134  27.437  1.00  0.00     0.163 HD
BRANCH   6   8
ATOM      8  C   UNL A   1      36.297  30.017  28.461  1.00  0.00     0.039 A 
ATOM      9  C   UNL A   1      37.190  30.148  27.390  1.00  0.00     0.014 A 
ATOM     10  C   UNL A   1      36.737  29.497  29.681  1.00  0.00     0.014 A 
ATOM     11  C   UNL A   1      38.505  29.706  27.523  1.00  0.00     0.010 A 
ATOM     12  C   UNL A   1      38.064  29.085  29.824  1.00  0.00     0.010 A 
ATOM     13  C   UNL A   1      38.955  29.184  28.745  1.00  0.00    -0.014 A 
BRANCH  13  14
ATOM     14  C   UNL A   1      40.388  28.855  28.929  1.00  0.00     0.031 A 
ATOM     15  C   UNL A   1      40.933  27.510  28.555  1.00  0.00     0.074 A 
ATOM     16  C   UNL A   1      41.195  29.791  29.465  1.00  0.00     0.049 A 
ATOM     17  N   UNL A   1      42.152  27.055  28.693  1.00  0.00    -0.248 NA
ATOM     18  C   UNL A   1      39.997  26.552  27.950  1.00  0.00     0.031 C 
ATOM     19  C   UNL A   1      40.770  31.132  29.874  1.00  0.00     0.029 A 
ATOM     20  N   UNL A   1      42.532  29.758  29.762  1.00  0.00    -0.354 N 
ATOM     21  C   UNL A   1      42.132  25.756  28.203  1.00  0.00     0.074 A 
ATOM     22  C   UNL A   1      40.776  25.491  27.769  1.00  0.00     0.031 C 
ATOM     23  C   UNL A   1      41.828  31.796  30.364  1.00  0.00     0.029 A 
ATOM     24  C   UNL A   1      42.994  30.918  30.335  1.00  0.00     0.049 A 
ATOM     25  H   UNL A   1      43.106  28.979  29.583  1.00  0.00     0.167 HD
ATOM     26  C   UNL A   1      43.156  24.874  28.120  1.00  0.00     0.037 A 
ATOM     27  C   UNL A   1      44.212  31.233  30.810  1.00  0.00     0.037 A 
ATOM     28  C   UNL A   1      44.507  25.150  28.531  1.00  0.00     0.049 A 
ATOM     29  C   UNL A   1      45.312  30.218  30.758  1.00  0.00     0.074 A 
ATOM     30  C   UNL A   1      45.628  24.348  28.401  1.00  0.00     0.029 A 
ATOM     31  N   UNL A   1      44.919  26.311  29.166  1.00  0.00    -0.354 N 
ATOM     32  N   UNL A   1      45.284  29.009  30.254  1.00  0.00    -0.248 NA
ATOM     33  C   UNL A   1      46.599  30.598  31.355  1.00  0.00     0.031 C 
ATOM     34  C   UNL A   1      46.713  25.013  28.984  1.00  0.00     0.029 A 
ATOM     35  C   UNL A   1      46.269  26.234  29.465  1.00  0.00     0.049 A 
ATOM     36  H   UNL A   1      44.338  27.078  29.374  1.00  0.00     0.167 HD
ATOM     37  C   UNL A   1      46.545  28.476  30.485  1.00  0.00     0.074 A 
ATOM     38  C   UNL A   1      47.318  29.499  31.159  1.00  0.00     0.031 C 
ATOM     39  C   UNL A   1      47.016  27.247  30.164  1.00  0.00     0.037 A 
BRANCH  26  40
ATOM     40  C   UNL A   1      42.863  23.517  27.557  1.00  0.00     0.058 A 
ATOM     41  C   UNL A   1      42.497  22.459  28.402  1.00  0.00     0.135 A 
ATOM     42  C   UNL A   1      43.017  23.248  26.189  1.00  0.00     0.135 A 
ATOM     43  F   UNL A   1      42.326  22.671  29.715  1.00  0.00    -0.206 F 
ATOM     44  C   UNL A   1      42.305  21.171  27.909  1.00  0.00     0.059 A 
ATOM     45  C   UNL A   1      42.824  21.970  25.673  1.00  0.00     0.059 A 
ATOM     46  F   UNL A   1      43.348  24.234  25.341  1.00  0.00    -0.206 F 
ATOM     47  C   UNL A   1      42.480  20.935  26.544  1.00  0.00     0.060 A 
BRANCH  47  48
ATOM     48  S   UNL A   1      42.203  19.268  25.908  1.00  0.00     0.124 S 
ATOM     49  O   UNL A   1      40.758  19.259  25.711  1.00  0.00    -0.237 OA
ATOM     50  O   UNL A   1      43.013  19.258  24.693  1.00  0.00    -0.237 OA
ATOM     51  O   UNL A   1      42.700  18.414  26.984  1.00  0.00    -0.744 OA
ENDBRANCH  47  48
ENDBRANCH  26  40
BRANCH  27  52
ATOM     52  C   UNL A   1      44.425  32.572  31.406  1.00  0.00     0.058 A 
ATOM     53  C   UNL A   1      44.227  32.787  32.778  1.00  0.00     0.135 A 
ATOM     54  C   UNL A   1      44.750  33.672  30.603  1.00  0.00     0.135 A 
ATOM     55  F   UNL A   1      43.909  31.760  33.580  1.00  0.00    -0.206 F 
ATOM     56  C   UNL A   1      44.313  34.059  33.331  1.00  0.00     0.059 A 
ATOM     57  C   UNL A   1      44.851  34.953  31.135  1.00  0.00     0.059 A 
ATOM     58  F   UNL A   1      44.954  33.506  29.286  1.00  0.00    -0.206 F 
ATOM     59  C   UNL A   1      44.607  35.138  32.497  1.00  0.00     0.060 A 
BRANCH  59  60
ATOM     60  S   UNL A   1      44.680  36.799  33.204  1.00  0.00     0.124 S 
ATOM     61  O   UNL A   1      45.864  37.339  32.545  1.00  0.00    -0.237 OA
ATOM     62  O   UNL A   1      43.405  37.377  32.793  1.00  0.00    -0.237 OA
ATOM     63  O   UNL A   1      44.813  36.541  34.634  1.00  0.00    -0.744 OA
ENDBRANCH  59  60
ENDBRANCH  27  52
BRANCH  39  64
ATOM     64  C   UNL A   1      48.421  26.925  30.568  1.00  0.00     0.058 A 
ATOM     65  C   UNL A   1      48.693  26.272  31.779  1.00  0.00     0.135 A 
ATOM     66  C   UNL A   1      49.505  27.315  29.767  1.00  0.00     0.135 A 
ATOM     67  F   UNL A   1      47.686  25.876  32.574  1.00  0.00    -0.206 F 
ATOM     68  C   UNL A   1      49.997  26.026  32.189  1.00  0.00     0.059 A 
ATOM     69  C   UNL A   1      50.818  27.072  30.155  1.00  0.00     0.059 A 
ATOM     70  F   UNL A   1      49.288  27.930  28.593  1.00  0.00    -0.206 F 
ATOM     71  C   UNL A   1      51.054  26.439  31.375  1.00  0.00     0.060 A 
BRANCH  71  72
ATOM     72  S   UNL A   1      52.747  26.102  31.907  1.00  0.00     0.124 S 
ATOM     73  O   UNL A   1      52.600  24.808  32.564  1.00  0.00    -0.237 OA
ATOM     74  O   UNL A   1      53.479  26.092  30.644  1.00  0.00    -0.237 OA
ATOM     75  O   UNL A   1      53.050  27.227  32.788  1.00  0.00    -0.744 OA
ENDBRANCH  71  72
ENDBRANCH  39  64
ENDBRANCH  13  14
ENDBRANCH   6   8
ENDBRANCH   3   4
ENDBRANCH   2   3
ENDBRANCH   1   2
BRANCH   1  76
ATOM     76  C   UNL A   1      31.934  25.373  26.238  1.00  0.00     0.002 C 
BRANCH  76  77
ATOM     77  C   UNL A   1      32.187  23.949  26.755  1.00  0.00     0.021 C 
BRANCH  77  78
ATOM     78  C   UNL A   1      31.280  22.857  26.179  1.00  0.00     0.116 C 
BRANCH  78  79
ATOM     79  N   UNL A   1      31.936  21.563  26.175  1.00  0.00    -0.352 N 
ATOM     80  C   UNL A   1      32.540  21.032  25.060  1.00  0.00     0.255 C 
ATOM     81  H   UNL A   1      31.949  21.041  27.008  1.00  0.00     0.163 HD
ATOM     82  O   UNL A   1      32.047  20.013  24.589  1.00  0.00    -0.269 OA
BRANCH  80  83
ATOM     83  C   UNL A   1      33.805  21.651  24.549  1.00  0.00     0.082 A 
ATOM     84  C   UNL A   1      35.055  21.216  25.025  1.00  0.00     0.033 A 
ATOM     85  C   UNL A   1      33.781  22.627  23.539  1.00  0.00     0.132 A 
ATOM     86  C   UNL A   1      36.234  21.811  24.571  1.00  0.00     0.019 A 
ATOM     87  C   UNL A   1      34.968  23.233  23.107  1.00  0.00     0.048 A 
ATOM     88  Br  UNL A   1      37.898  21.237  25.261  1.00  0.00    -0.051 Br
ATOM     89  C   UNL A   1      36.197  22.828  23.624  1.00  0.00     0.019 A 
BRANCH  85  90
ATOM     90  O   UNL A   1      32.632  23.122  22.996  1.00  0.00    -0.488 OA
BRANCH  90  91
ATOM     91  C   UNL A   1      32.757  24.204  22.048  1.00  0.00     0.268 C 
BRANCH  91  92
ATOM     92  C   UNL A   1      32.448  25.636  22.430  1.00  0.00     0.025 A 
ATOM     93  C   UNL A   1      33.417  26.645  22.303  1.00  0.00     0.010 A 
ATOM     94  C   UNL A   1      31.180  25.997  22.888  1.00  0.00     0.129 A 
ATOM     95  C   UNL A   1      33.129  27.965  22.656  1.00  0.00     0.001 A 
ATOM     96  C   UNL A   1      30.881  27.312  23.233  1.00  0.00     0.039 A 
ATOM     97  F   UNL A   1      30.215  25.069  22.985  1.00  0.00    -0.207 F 
ATOM     98  C   UNL A   1      31.860  28.299  23.122  1.00  0.00     0.003 A 
ENDBRANCH  91  92
ENDBRANCH  90  91
ENDBRANCH  85  90
ENDBRANCH  80  83
ENDBRANCH  78  79
ENDBRANCH  77  78
ENDBRANCH  76  77
ENDBRANCH   1  76
TORSDOF 19
ENDMDL
MODEL 2
REMARK VINA RESULT:     -10.9      3.292      4.589
REMARK SMILES O=C(NCCCCCCNC(=O)c1cc(Br)ccc1OCc1ccccc1F)c1ccc(-c2c3nc(c(-c4c(F)cc(S(=O)(=O)[O-])cc4F)c4ccc([nH]4)c(-c4c(F)cc(S(=O)(=O)[O-])cc4F)c4nc(c(-c5c(F)cc(S(=O)(=O)[O-])cc5F)c5ccc2[nH]5)C=C4)C=C3)cc1
REMARK SMILES IDX 6 1 5 2 4 3 3 4 1 5 2 6 29 8 30 9 94 10 31 11 93 12 32 13
REMARK SMILES IDX 33 14 34 15 87 16 35 17 92 18 86 19 88 20 36 21 91 22 85 23
REMARK SMILES IDX 84 24 37 26 71 27 50 28 70 29 51 30 54 31 69 32 89 33 52 34
REMARK SMILES IDX 53 35 68 37 90 38 55 39 38 40 39 41 48 42 40 43 41 44 47 45
REMARK SMILES IDX 49 46 42 47 43 48 44 49 45 50 46 51 72 52 73 53 82 54 74 55
REMARK SMILES IDX 75 56 81 57 83 58 76 59 77 60 78 61 79 62 80 63 56 64 57 65
REMARK SMILES IDX 66 66 58 67 59 68 65 69 67 70 60 71 61 72 62 73 63 74 64 75
REMARK SMILES IDX 7 76 8 77 9 78 10 79 11 80 12 82 13 83 14 84 19 85 15 86
REMARK SMILES IDX 18 87 16 88 17 89 20 90 21 91 22 92 23 93 27 94 24 95 26 96
REMARK SMILES IDX 28 97 25 98
REMARK H PARENT 3 7 88 25 54 36 10 81
REMARK Flexibility Score: inf
ROOT
ATOM      1  C   UNL A   1      36.174  32.958  28.013  1.00  0.00     0.002 C 
ENDROOT
BRANCH   1   2
ATOM      2  C   UNL A   1      36.431  33.738  29.302  1.00  0.00     0.021 C 
BRANCH   2   3
ATOM      3  C   UNL A   1      37.269  33.011  30.346  1.00  0.00     0.116 C 
BRANCH   3   4
ATOM      4  N   UNL A   1      36.538  31.953  31.012  1.00  0.00    -0.352 N 
ATOM      5  O   UNL A   1      36.048  29.814  31.531  1.00  0.00    -0.269 OA
ATOM      6  C   UNL A   1      36.840  30.613  31.042  1.00  0.00     0.251 C 
ATOM      7  H   UNL A   1      35.729  32.226  31.502  1.00  0.00     0.163 HD
BRANCH   6   8
ATOM      8  C   UNL A   1      38.112  30.136  30.452  1.00  0.00     0.039 A 
ATOM      9  C   UNL A   1      38.269  30.023  29.066  1.00  0.00     0.014 A 
ATOM     10  C   UNL A   1      39.175  29.832  31.306  1.00  0.00     0.014 A 
ATOM     11  C   UNL A   1      39.471  29.553  28.538  1.00  0.00     0.010 A 
ATOM     12  C   UNL A   1      40.391  29.392  30.776  1.00  0.00     0.010 A 
ATOM     13  C   UNL A   1      40.545  29.247  29.388  1.00  0.00    -0.014 A 
BRANCH  13  14
ATOM     14  C   UNL A   1      41.864  28.891  28.818  1.00  0.00     0.031 A 
ATOM     15  C   UNL A   1      42.162  27.500  28.347  1.00  0.00     0.074 A 
ATOM     16  C   UNL A   1      42.810  29.849  28.751  1.00  0.00     0.049 A 
ATOM     17  N   UNL A   1      43.279  27.022  27.864  1.00  0.00    -0.248 NA
ATOM     18  C   UNL A   1      41.070  26.518  28.427  1.00  0.00     0.031 C 
ATOM     19  C   UNL A   1      42.635  31.236  29.188  1.00  0.00     0.029 A 
ATOM     20  N   UNL A   1      44.102  29.801  28.298  1.00  0.00    -0.354 N 
ATOM     21  C   UNL A   1      43.034  25.683  27.590  1.00  0.00     0.074 A 
ATOM     22  C   UNL A   1      41.661  25.420  27.967  1.00  0.00     0.031 C 
ATOM     23  C   UNL A   1      43.776  31.909  28.976  1.00  0.00     0.029 A 
ATOM     24  C   UNL A   1      44.770  30.995  28.422  1.00  0.00     0.049 A 
ATOM     25  H   UNL A   1      44.513  28.990  27.920  1.00  0.00     0.167 HD
ATOM     26  C   UNL A   1      43.879  24.764  27.065  1.00  0.00     0.037 A 
ATOM     27  C   UNL A   1      46.047  31.316  28.147  1.00  0.00     0.037 A 
ATOM     28  C   UNL A   1      45.236  25.035  26.670  1.00  0.00     0.049 A 
ATOM     29  C   UNL A   1      46.977  30.265  27.622  1.00  0.00     0.074 A 
ATOM     30  C   UNL A   1      46.137  24.189  26.047  1.00  0.00     0.029 A 
ATOM     31  N   UNL A   1      45.894  26.238  26.873  1.00  0.00    -0.354 N 
ATOM     32  N   UNL A   1      46.715  29.015  27.331  1.00  0.00    -0.248 NA
ATOM     33  C   UNL A   1      48.375  30.659  27.407  1.00  0.00     0.031 C 
ATOM     34  C   UNL A   1      47.350  24.871  25.899  1.00  0.00     0.029 A 
ATOM     35  C   UNL A   1      47.199  26.146  26.419  1.00  0.00     0.049 A 
ATOM     36  H   UNL A   1      45.493  27.039  27.280  1.00  0.00     0.167 HD
ATOM     37  C   UNL A   1      47.919  28.466  26.912  1.00  0.00     0.074 A 
ATOM     38  C   UNL A   1      48.907  29.524  26.970  1.00  0.00     0.031 C 
ATOM     39  C   UNL A   1      48.178  27.197  26.514  1.00  0.00     0.037 A 
BRANCH  26  40
ATOM     40  C   UNL A   1      43.365  23.369  26.879  1.00  0.00     0.058 A 
ATOM     41  C   UNL A   1      43.248  22.501  27.975  1.00  0.00     0.135 A 
ATOM     42  C   UNL A   1      43.059  22.871  25.605  1.00  0.00     0.135 A 
ATOM     43  F   UNL A   1      43.519  22.937  29.215  1.00  0.00    -0.206 F 
ATOM     44  C   UNL A   1      42.856  21.176  27.811  1.00  0.00     0.059 A 
ATOM     45  C   UNL A   1      42.658  21.552  25.418  1.00  0.00     0.059 A 
ATOM     46  F   UNL A   1      43.139  23.671  24.530  1.00  0.00    -0.206 F 
ATOM     47  C   UNL A   1      42.571  20.708  26.526  1.00  0.00     0.060 A 
BRANCH  47  48
ATOM     48  S   UNL A   1      42.035  18.995  26.324  1.00  0.00     0.124 S 
ATOM     49  O   UNL A   1      43.018  18.484  25.376  1.00  0.00    -0.237 OA
ATOM     50  O   UNL A   1      42.131  18.476  27.685  1.00  0.00    -0.237 OA
ATOM     51  O   UNL A   1      40.674  19.130  25.813  1.00  0.00    -0.744 OA
ENDBRANCH  47  48
ENDBRANCH  26  40
BRANCH  27  52
ATOM     52  C   UNL A   1      46.512  32.698  28.405  1.00  0.00     0.058 A 
ATOM     53  C   UNL A   1      46.974  33.075  29.674  1.00  0.00     0.135 A 
ATOM     54  C   UNL A   1      46.423  33.682  27.412  1.00  0.00     0.135 A 
ATOM     55  F   UNL A   1      47.069  32.163  30.653  1.00  0.00    -0.206 F 
ATOM     56  C   UNL A   1      47.307  34.393  29.961  1.00  0.00     0.059 A 
ATOM     57  C   UNL A   1      46.759  35.006  27.673  1.00  0.00     0.059 A 
ATOM     58  F   UNL A   1      45.990  33.359  26.183  1.00  0.00    -0.206 F 
ATOM     59  C   UNL A   1      47.177  35.355  28.959  1.00  0.00     0.060 A 
BRANCH  59  60
ATOM     60  S   UNL A   1      47.568  37.077  29.338  1.00  0.00     0.124 S 
ATOM     61  O   UNL A   1      46.479  37.774  28.662  1.00  0.00    -0.237 OA
ATOM     62  O   UNL A   1      47.528  37.100  30.797  1.00  0.00    -0.237 OA
ATOM     63  O   UNL A   1      48.893  37.250  28.750  1.00  0.00    -0.744 OA
ENDBRANCH  59  60
ENDBRANCH  27  52
BRANCH  39  64
ATOM     64  C   UNL A   1      49.591  26.871  26.142  1.00  0.00     0.058 A 
ATOM     65  C   UNL A   1      50.085  27.157  24.861  1.00  0.00     0.135 A 
ATOM     66  C   UNL A   1      50.442  26.225  27.052  1.00  0.00     0.135 A 
ATOM     67  F   UNL A   1      49.308  27.779  23.961  1.00  0.00    -0.206 F 
ATOM     68  C   UNL A   1      51.376  26.801  24.488  1.00  0.00     0.059 A 
ATOM     69  C   UNL A   1      51.739  25.867  26.703  1.00  0.00     0.059 A 
ATOM     70  F   UNL A   1      50.014  25.946  28.294  1.00  0.00    -0.206 F 
ATOM     71  C   UNL A   1      52.192  26.147  25.413  1.00  0.00     0.060 A 
BRANCH  71  72
ATOM     72  S   UNL A   1      53.874  25.701  24.928  1.00  0.00     0.124 S 
ATOM     73  O   UNL A   1      54.666  26.671  25.676  1.00  0.00    -0.237 OA
ATOM     74  O   UNL A   1      53.977  24.316  25.378  1.00  0.00    -0.237 OA
ATOM     75  O   UNL A   1      53.862  25.879  23.478  1.00  0.00    -0.744 OA
ENDBRANCH  71  72
ENDBRANCH  39  64
ENDBRANCH  13  14
ENDBRANCH   6   8
ENDBRANCH   3   4
ENDBRANCH   2   3
ENDBRANCH   1   2
BRANCH   1  76
ATOM     76  C   UNL A   1      34.855  32.182  27.949  1.00  0.00     0.002 C 
BRANCH  76  77
ATOM     77  C   UNL A   1      34.952  30.687  27.614  1.00  0.00     0.021 C 
BRANCH  77  78
ATOM     78  C   UNL A   1      33.683  30.045  27.045  1.00  0.00     0.116 C 
BRANCH  78  79
ATOM     79  N   UNL A   1      33.343  28.819  27.742  1.00  0.00    -0.352 N 
ATOM     80  C   UNL A   1      32.369  27.953  27.305  1.00  0.00     0.255 C 
ATOM     81  H   UNL A   1      33.832  28.596  28.566  1.00  0.00     0.163 HD
ATOM     82  O   UNL A   1      31.380  27.818  28.018  1.00  0.00    -0.269 OA
BRANCH  80  83
ATOM     83  C   UNL A   1      32.605  27.154  26.060  1.00  0.00     0.082 A 
ATOM     84  C   UNL A   1      33.623  26.184  26.016  1.00  0.00     0.033 A 
ATOM     85  C   UNL A   1      31.779  27.302  24.933  1.00  0.00     0.132 A 
ATOM     86  C   UNL A   1      33.863  25.459  24.848  1.00  0.00     0.019 A 
ATOM     87  C   UNL A   1      32.043  26.585  23.759  1.00  0.00     0.048 A 
ATOM     88  Br  UNL A   1      35.267  24.193  24.804  1.00  0.00    -0.051 Br
ATOM     89  C   UNL A   1      33.087  25.664  23.713  1.00  0.00     0.019 A 
BRANCH  85  90
ATOM     90  O   UNL A   1      30.758  28.204  24.860  1.00  0.00    -0.488 OA
BRANCH  90  91
ATOM     91  C   UNL A   1      30.952  29.360  24.017  1.00  0.00     0.268 C 
BRANCH  91  92
ATOM     92  C   UNL A   1      29.793  30.029  23.308  1.00  0.00     0.025 A 
ATOM     93  C   UNL A   1      29.186  29.432  22.191  1.00  0.00     0.010 A 
ATOM     94  C   UNL A   1      29.278  31.242  23.766  1.00  0.00     0.129 A 
ATOM     95  C   UNL A   1      28.118  30.052  21.538  1.00  0.00     0.001 A 
ATOM     96  C   UNL A   1      28.208  31.862  23.127  1.00  0.00     0.039 A 
ATOM     97  F   UNL A   1      29.805  31.824  24.854  1.00  0.00    -0.207 F 
ATOM     98  C   UNL A   1      27.628  31.269  22.007  1.00  0.00     0.003 A 
ENDBRANCH  91  92
ENDBRANCH  90  91
ENDBRANCH  85  90
ENDBRANCH  80  83
ENDBRANCH  78  79
ENDBRANCH  77  78
ENDBRANCH  76  77
ENDBRANCH   1  76
TORSDOF 19
ENDMDL
MODEL 3
REMARK VINA RESULT:     -10.9      1.509      2.434
REMARK SMILES O=C(NCCCCCCNC(=O)c1cc(Br)ccc1OCc1ccccc1F)c1ccc(-c2c3nc(c(-c4c(F)cc(S(=O)(=O)[O-])cc4F)c4ccc([nH]4)c(-c4c(F)cc(S(=O)(=O)[O-])cc4F)c4nc(c(-c5c(F)cc(S(=O)(=O)[O-])cc5F)c5ccc2[nH]5)C=C4)C=C3)cc1
REMARK SMILES IDX 6 1 5 2 4 3 3 4 1 5 2 6 29 8 30 9 94 10 31 11 93 12 32 13
REMARK SMILES IDX 33 14 34 15 87 16 35 17 92 18 86 19 88 20 36 21 91 22 85 23
REMARK SMILES IDX 84 24 37 26 71 27 50 28 70 29 51 30 54 31 69 32 89 33 52 34
REMARK SMILES IDX 53 35 68 37 90 38 55 39 38 40 39 41 48 42 40 43 41 44 47 45
REMARK SMILES IDX 49 46 42 47 43 48 44 49 45 50 46 51 72 52 73 53 82 54 74 55
REMARK SMILES IDX 75 56 81 57 83 58 76 59 77 60 78 61 79 62 80 63 56 64 57 65
REMARK SMILES IDX 66 66 58 67 59 68 65 69 67 70 60 71 61 72 62 73 63 74 64 75
REMARK SMILES IDX 7 76 8 77 9 78 10 79 11 80 12 82 13 83 14 84 19 85 15 86
REMARK SMILES IDX 18 87 16 88 17 89 20 90 21 91 22 92 23 93 27 94 24 95 26 96
REMARK SMILES IDX 28 97 25 98
REMARK H PARENT 3 7 88 25 54 36 10 81
REMARK Flexibility Score: inf
ROOT
ATOM      1  C   UNL A   1      33.765  27.973  24.892  1.00  0.00     0.002 C 
ENDROOT
BRANCH   1   2
ATOM      2  C   UNL A   1      33.049  27.751  26.225  1.00  0.00     0.021 C 
BRANCH   2   3
ATOM      3  C   UNL A   1      33.803  28.234  27.457  1.00  0.00     0.116 C 
BRANCH   3   4
ATOM      4  N   UNL A   1      33.626  29.651  27.702  1.00  0.00    -0.352 N 
ATOM      5  O   UNL A   1      34.216  31.687  28.467  1.00  0.00    -0.269 OA
ATOM      6  C   UNL A   1      34.554  30.544  28.177  1.00  0.00     0.251 C 
ATOM      7  H   UNL A   1      32.733  30.016  27.504  1.00  0.00     0.163 HD
BRANCH   6   8
ATOM      8  C   UNL A   1      35.957  30.110  28.366  1.00  0.00     0.039 A 
ATOM      9  C   UNL A   1      36.877  30.158  27.311  1.00  0.00     0.014 A 
ATOM     10  C   UNL A   1      36.364  29.683  29.633  1.00  0.00     0.014 A 
ATOM     11  C   UNL A   1      38.187  29.725  27.510  1.00  0.00     0.010 A 
ATOM     12  C   UNL A   1      37.686  29.282  29.840  1.00  0.00     0.010 A 
ATOM     13  C   UNL A   1      38.604  29.297  28.780  1.00  0.00    -0.014 A 
BRANCH  13  14
ATOM     14  C   UNL A   1      40.031  28.981  29.024  1.00  0.00     0.031 A 
ATOM     15  C   UNL A   1      40.608  27.647  28.659  1.00  0.00     0.074 A 
ATOM     16  C   UNL A   1      40.802  29.919  29.608  1.00  0.00     0.049 A 
ATOM     17  N   UNL A   1      41.824  27.204  28.846  1.00  0.00    -0.248 NA
ATOM     18  C   UNL A   1      39.711  26.687  27.999  1.00  0.00     0.031 C 
ATOM     19  C   UNL A   1      40.344  31.250  30.015  1.00  0.00     0.029 A 
ATOM     20  N   UNL A   1      42.124  29.895  29.966  1.00  0.00    -0.354 N 
ATOM     21  C   UNL A   1      41.841  25.911  28.339  1.00  0.00     0.074 A 
ATOM     22  C   UNL A   1      40.509  25.637  27.840  1.00  0.00     0.031 C 
ATOM     23  C   UNL A   1      41.372  31.917  30.560  1.00  0.00     0.029 A 
ATOM     24  C   UNL A   1      42.547  31.052  30.574  1.00  0.00     0.049 A 
ATOM     25  H   UNL A   1      42.715  29.125  29.803  1.00  0.00     0.167 HD
ATOM     26  C   UNL A   1      42.877  25.041  28.291  1.00  0.00     0.037 A 
ATOM     27  C   UNL A   1      43.739  31.375  31.107  1.00  0.00     0.037 A 
ATOM     28  C   UNL A   1      44.205  25.325  28.766  1.00  0.00     0.049 A 
ATOM     29  C   UNL A   1      44.852  30.372  31.092  1.00  0.00     0.074 A 
ATOM     30  C   UNL A   1      45.340  24.537  28.677  1.00  0.00     0.029 A 
ATOM     31  N   UNL A   1      44.575  26.483  29.435  1.00  0.00    -0.354 N 
ATOM     32  N   UNL A   1      44.860  29.169  30.573  1.00  0.00    -0.248 NA
ATOM     33  C   UNL A   1      46.106  30.757  31.752  1.00  0.00     0.031 C 
ATOM     34  C   UNL A   1      46.390  25.205  29.317  1.00  0.00     0.029 A 
ATOM     35  C   UNL A   1      45.911  26.415  29.794  1.00  0.00     0.049 A 
ATOM     36  H   UNL A   1      43.976  27.240  29.626  1.00  0.00     0.167 HD
ATOM     37  C   UNL A   1      46.115  28.646  30.853  1.00  0.00     0.074 A 
ATOM     38  C   UNL A   1      46.845  29.669  31.575  1.00  0.00     0.031 C 
ATOM     39  C   UNL A   1      46.613  27.426  30.539  1.00  0.00     0.037 A 
BRANCH  26  40
ATOM     40  C   UNL A   1      42.625  23.688  27.698  1.00  0.00     0.058 A 
ATOM     41  C   UNL A   1      42.401  22.578  28.525  1.00  0.00     0.135 A 
ATOM     42  C   UNL A   1      42.680  23.480  26.312  1.00  0.00     0.135 A 
ATOM     43  F   UNL A   1      42.328  22.730  29.856  1.00  0.00    -0.206 F 
ATOM     44  C   UNL A   1      42.251  21.299  27.997  1.00  0.00     0.059 A 
ATOM     45  C   UNL A   1      42.527  22.212  25.761  1.00  0.00     0.059 A 
ATOM     46  F   UNL A   1      42.874  24.516  25.481  1.00  0.00    -0.206 F 
ATOM     47  C   UNL A   1      42.324  21.125  26.613  1.00  0.00     0.060 A 
BRANCH  47  48
ATOM     48  S   UNL A   1      42.102  19.467  25.933  1.00  0.00     0.124 S 
ATOM     49  O   UNL A   1      42.583  18.628  27.025  1.00  0.00    -0.237 OA
ATOM     50  O   UNL A   1      40.664  19.423  25.681  1.00  0.00    -0.237 OA
ATOM     51  O   UNL A   1      42.935  19.484  24.734  1.00  0.00    -0.744 OA
ENDBRANCH  47  48
ENDBRANCH  26  40
BRANCH  27  52
ATOM     52  C   UNL A   1      43.910  32.707  31.730  1.00  0.00     0.058 A 
ATOM     53  C   UNL A   1      43.771  32.876  33.115  1.00  0.00     0.135 A 
ATOM     54  C   UNL A   1      44.134  33.844  30.942  1.00  0.00     0.135 A 
ATOM     55  F   UNL A   1      43.551  31.813  33.903  1.00  0.00    -0.206 F 
ATOM     56  C   UNL A   1      43.816  34.136  33.699  1.00  0.00     0.059 A 
ATOM     57  C   UNL A   1      44.193  35.115  31.505  1.00  0.00     0.059 A 
ATOM     58  F   UNL A   1      44.278  33.722  29.613  1.00  0.00    -0.206 F 
ATOM     59  C   UNL A   1      44.009  35.251  32.882  1.00  0.00     0.060 A 
BRANCH  59  60
ATOM     60  S   UNL A   1      44.028  36.894  33.631  1.00  0.00     0.124 S 
ATOM     61  O   UNL A   1      44.868  36.666  34.802  1.00  0.00    -0.237 OA
ATOM     62  O   UNL A   1      44.615  37.718  32.579  1.00  0.00    -0.237 OA
ATOM     63  O   UNL A   1      42.617  37.147  33.904  1.00  0.00    -0.744 OA
ENDBRANCH  59  60
ENDBRANCH  27  52
BRANCH  39  64
ATOM     64  C   UNL A   1      48.003  27.115  31.001  1.00  0.00     0.058 A 
ATOM     65  C   UNL A   1      48.225  26.410  32.193  1.00  0.00     0.135 A 
ATOM     66  C   UNL A   1      49.118  27.565  30.279  1.00  0.00     0.135 A 
ATOM     67  F   UNL A   1      47.188  25.956  32.914  1.00  0.00    -0.206 F 
ATOM     68  C   UNL A   1      49.512  26.171  32.661  1.00  0.00     0.059 A 
ATOM     69  C   UNL A   1      50.414  27.330  30.725  1.00  0.00     0.059 A 
ATOM     70  F   UNL A   1      48.949  28.230  29.125  1.00  0.00    -0.206 F 
ATOM     71  C   UNL A   1      50.600  26.643  31.925  1.00  0.00     0.060 A 
BRANCH  71  72
ATOM     72  S   UNL A   1      52.270  26.316  32.531  1.00  0.00     0.124 S 
ATOM     73  O   UNL A   1      52.871  25.635  31.390  1.00  0.00    -0.237 OA
ATOM     74  O   UNL A   1      52.775  27.657  32.808  1.00  0.00    -0.237 OA
ATOM     75  O   UNL A   1      52.040  25.487  33.711  1.00  0.00    -0.744 OA
ENDBRANCH  71  72
ENDBRANCH  39  64
ENDBRANCH  13  14
ENDBRANCH   6   8
ENDBRANCH   3   4
ENDBRANCH   2   3
ENDBRANCH   1   2
BRANCH   1  76
ATOM     76  C   UNL A   1      33.316  29.194  24.084  1.00  0.00     0.002 C 
BRANCH  76  77
ATOM     77  C   UNL A   1      33.488  29.111  22.561  1.00  0.00     0.021 C 
BRANCH  77  78
ATOM     78  C   UNL A   1      34.038  27.788  22.020  1.00  0.00     0.116 C 
BRANCH  78  79
ATOM     79  N   UNL A   1      32.976  26.919  21.548  1.00  0.00    -0.352 N 
ATOM     80  C   UNL A   1      32.988  25.556  21.727  1.00  0.00     0.255 C 
ATOM     81  H   UNL A   1      32.213  27.323  21.077  1.00  0.00     0.163 HD
ATOM     82  O   UNL A   1      33.065  24.860  20.720  1.00  0.00    -0.269 OA
BRANCH  80  83
ATOM     83  C   UNL A   1      32.802  24.998  23.105  1.00  0.00     0.082 A 
ATOM     84  C   UNL A   1      33.851  24.317  23.748  1.00  0.00     0.033 A 
ATOM     85  C   UNL A   1      31.606  25.197  23.814  1.00  0.00     0.132 A 
ATOM     86  C   UNL A   1      33.671  23.772  25.020  1.00  0.00     0.019 A 
ATOM     87  C   UNL A   1      31.427  24.626  25.081  1.00  0.00     0.048 A 
ATOM     88  Br  UNL A   1      35.085  22.824  25.842  1.00  0.00    -0.051 Br
ATOM     89  C   UNL A   1      32.458  23.910  25.686  1.00  0.00     0.019 A 
BRANCH  85  90
ATOM     90  O   UNL A   1      30.522  25.846  23.299  1.00  0.00    -0.488 OA
BRANCH  90  91
ATOM     91  C   UNL A   1      30.083  27.044  23.973  1.00  0.00     0.268 C 
BRANCH  91  92
ATOM     92  C   UNL A   1      29.359  28.151  23.235  1.00  0.00     0.025 A 
ATOM     93  C   UNL A   1      30.066  29.094  22.470  1.00  0.00     0.010 A 
ATOM     94  C   UNL A   1      27.967  28.243  23.270  1.00  0.00     0.129 A 
ATOM     95  C   UNL A   1      29.396  30.114  21.791  1.00  0.00     0.001 A 
ATOM     96  C   UNL A   1      27.291  29.251  22.588  1.00  0.00     0.039 A 
ATOM     97  F   UNL A   1      27.254  27.338  23.956  1.00  0.00    -0.207 F 
ATOM     98  C   UNL A   1      28.007  30.193  21.850  1.00  0.00     0.003 A 
ENDBRANCH  91  92
ENDBRANCH  90  91
ENDBRANCH  85  90
ENDBRANCH  80  83
ENDBRANCH  78  79
ENDBRANCH  77  78
ENDBRANCH  76  77
ENDBRANCH   1  76
TORSDOF 19
ENDMDL
