MODEL 1
REMARK VINA RESULT:     -11.3      0.000      0.000
REMARK SMILES Cc1cc([C@@H](C)NC(=O)N[C@H]2C=C[C@@H](C(=O)NCCCCCCNC(=O)c3ccc(-c4c5nc(c(-c6c(F)cc(S(=O)(=O)[O-])cc6F)c6ccc([nH]6)c(-c6c(F)cc(S(=O)(=O)[O-])cc6F)c6nc(c(-c7c(F)cc(S(=O)(=O)[O-])cc7F)c7ccc4[nH]7)C=C6)C=C5)cc3)C2)c(C)s1
REMARK SMILES IDX 20 1 19 2 18 3 17 4 15 5 16 6 14 8 11 9 12 10 93 11 13 12
REMARK SMILES IDX 10 13 7 14 8 15 9 17 5 19 6 20 4 21 1 22 2 23 3 24 96 25
REMARK SMILES IDX 94 26 95 27 21 28 22 29 23 30 24 31 25 32 26 34 27 35 28 36
REMARK SMILES IDX 92 37 29 38 91 39 30 40 31 41 32 42 85 43 33 44 90 45 84 46
REMARK SMILES IDX 86 47 34 48 89 49 83 50 82 51 35 53 69 54 48 55 68 56 49 57
REMARK SMILES IDX 52 58 67 59 87 60 50 61 51 62 66 64 88 65 53 66 36 67 37 68
REMARK SMILES IDX 46 69 38 70 39 71 45 72 47 73 40 74 41 75 42 76 43 77 44 78
REMARK SMILES IDX 70 79 71 80 80 81 72 82 73 83 79 84 81 85 74 86 75 87 76 88
REMARK SMILES IDX 77 89 78 90 54 91 55 92 64 93 56 94 57 95 63 96 65 97 58 98
REMARK SMILES IDX 59 99 60 100 61 101 62 102
REMARK H PARENT 17 7 7 16 10 18 24 33 86 52 52 63
REMARK Flexibility Score: inf
ROOT
ATOM      1  C   UNL A   1      35.283  32.708  27.827  1.00  0.00     0.002 C 
ENDROOT
BRANCH   1   2
ATOM      2  C   UNL A   1      35.042  31.221  28.097  1.00  0.00     0.021 C 
BRANCH   2   3
ATOM      3  C   UNL A   1      34.155  30.529  27.067  1.00  0.00     0.116 C 
BRANCH   3   4
ATOM      4  N   UNL A   1      32.929  30.029  27.651  1.00  0.00    -0.356 N 
ATOM      5  C   UNL A   1      32.170  28.959  27.296  1.00  0.00     0.227 C 
ATOM      6  O   UNL A   1      31.158  28.727  27.967  1.00  0.00    -0.274 OA
ATOM      7  H   UNL A   1      32.592  30.542  28.422  1.00  0.00     0.163 HD
BRANCH   5   8
ATOM      8  C   UNL A   1      32.485  28.102  26.065  1.00  0.00     0.103 C 
ATOM      9  C   UNL A   1      32.293  25.665  25.607  1.00  0.00     0.107 C 
ATOM     10  C   UNL A   1      31.300  26.488  24.838  1.00  0.00    -0.006 C 
ATOM     11  C   UNL A   1      33.009  26.723  26.451  1.00  0.00     0.047 C 
ATOM     12  C   UNL A   1      31.384  27.799  25.105  1.00  0.00    -0.016 C 
BRANCH   9  13
ATOM     13  N   UNL A   1      31.571  24.686  26.394  1.00  0.00    -0.332 N 
ATOM     14  N   UNL A   1      31.907  22.549  25.414  1.00  0.00    -0.332 N 
ATOM     15  C   UNL A   1      31.388  23.365  26.333  1.00  0.00     0.315 C 
ATOM     16  H   UNL A   1      31.676  21.607  25.584  1.00  0.00     0.165 HD
ATOM     17  O   UNL A   1      30.691  22.854  27.214  1.00  0.00    -0.249 OA
ATOM     18  H   UNL A   1      31.103  25.093  27.158  1.00  0.00     0.165 HD
BRANCH  14  19
ATOM     19  C   UNL A   1      32.727  22.699  24.223  1.00  0.00     0.112 C 
ATOM     20  C   UNL A   1      32.173  21.892  23.055  1.00  0.00     0.036 C 
BRANCH  19  21
ATOM     21  C   UNL A   1      34.168  22.379  24.592  1.00  0.00    -0.012 A 
ATOM     22  C   UNL A   1      37.570  23.754  25.609  1.00  0.00     0.056 C 
ATOM     23  C   UNL A   1      36.378  22.946  25.226  1.00  0.00     0.002 A 
ATOM     24  C   UNL A   1      35.173  23.402  24.749  1.00  0.00     0.021 A 
ATOM     25  S   UNL A   1      36.386  21.253  25.334  1.00  0.00    -0.146 S 
ATOM     26  C   UNL A   1      34.740  21.134  24.842  1.00  0.00     0.007 A 
ATOM     27  C   UNL A   1      34.156  19.764  24.742  1.00  0.00     0.057 C 
ENDBRANCH  19  21
ENDBRANCH  14  19
ENDBRANCH   9  13
ENDBRANCH   5   8
ENDBRANCH   3   4
ENDBRANCH   2   3
ENDBRANCH   1   2
BRANCH   1  28
ATOM     28  C   UNL A   1      35.524  33.561  29.076  1.00  0.00     0.002 C 
BRANCH  28  29
ATOM     29  C   UNL A   1      36.989  33.908  29.353  1.00  0.00     0.021 C 
BRANCH  29  30
ATOM     30  C   UNL A   1      37.457  33.592  30.769  1.00  0.00     0.116 C 
BRANCH  30  31
ATOM     31  N   UNL A   1      36.671  32.529  31.373  1.00  0.00    -0.352 N 
ATOM     32  C   UNL A   1      36.869  31.173  31.333  1.00  0.00     0.251 C 
ATOM     33  H   UNL A   1      35.883  32.825  31.884  1.00  0.00     0.163 HD
ATOM     34  O   UNL A   1      35.977  30.413  31.710  1.00  0.00    -0.269 OA
BRANCH  32  35
ATOM     35  C   UNL A   1      38.142  30.628  30.819  1.00  0.00     0.039 A 
ATOM     36  C   UNL A   1      38.317  30.500  29.440  1.00  0.00     0.014 A 
ATOM     37  C   UNL A   1      39.160  30.239  31.695  1.00  0.00     0.014 A 
ATOM     38  C   UNL A   1      39.532  30.032  28.938  1.00  0.00     0.010 A 
ATOM     39  C   UNL A   1      40.397  29.847  31.192  1.00  0.00     0.010 A 
ATOM     40  C   UNL A   1      40.594  29.733  29.808  1.00  0.00    -0.014 A 
BRANCH  40  41
ATOM     41  C   UNL A   1      41.918  29.313  29.282  1.00  0.00     0.031 A 
ATOM     42  C   UNL A   1      43.038  30.310  29.152  1.00  0.00     0.074 A 
ATOM     43  C   UNL A   1      42.093  28.043  28.867  1.00  0.00     0.049 A 
ATOM     44  N   UNL A   1      44.247  30.137  28.680  1.00  0.00    -0.248 NA
ATOM     45  C   UNL A   1      42.755  31.689  29.581  1.00  0.00     0.031 C 
ATOM     46  C   UNL A   1      41.064  27.000  28.887  1.00  0.00     0.029 A 
ATOM     47  N   UNL A   1      43.191  27.414  28.336  1.00  0.00    -0.354 N 
ATOM     48  C   UNL A   1      44.861  31.383  28.743  1.00  0.00     0.074 A 
ATOM     49  C   UNL A   1      43.875  32.314  29.249  1.00  0.00     0.031 C 
ATOM     50  C   UNL A   1      41.585  25.858  28.410  1.00  0.00     0.029 A 
ATOM     51  C   UNL A   1      42.969  26.095  28.012  1.00  0.00     0.049 A 
ATOM     52  H   UNL A   1      44.056  27.863  28.199  1.00  0.00     0.167 HD
ATOM     53  C   UNL A   1      46.134  31.716  28.425  1.00  0.00     0.037 A 
ATOM     54  C   UNL A   1      43.784  25.182  27.447  1.00  0.00     0.037 A 
ATOM     55  C   UNL A   1      47.113  30.777  27.938  1.00  0.00     0.049 A 
ATOM     56  C   UNL A   1      45.196  25.573  27.109  1.00  0.00     0.074 A 
ATOM     57  C   UNL A   1      48.450  30.996  27.660  1.00  0.00     0.029 A 
ATOM     58  N   UNL A   1      46.858  29.445  27.645  1.00  0.00    -0.354 N 
ATOM     59  N   UNL A   1      45.788  26.734  27.258  1.00  0.00    -0.248 NA
ATOM     60  C   UNL A   1      46.056  24.528  26.538  1.00  0.00     0.031 C 
ATOM     61  C   UNL A   1      48.989  29.814  27.141  1.00  0.00     0.029 A 
ATOM     62  C   UNL A   1      48.004  28.839  27.156  1.00  0.00     0.049 A 
ATOM     63  H   UNL A   1      45.990  28.996  27.765  1.00  0.00     0.167 HD
ATOM     64  C   UNL A   1      47.095  26.554  26.817  1.00  0.00     0.074 A 
ATOM     65  C   UNL A   1      47.211  25.168  26.415  1.00  0.00     0.031 C 
ATOM     66  C   UNL A   1      48.106  27.457  26.754  1.00  0.00     0.037 A 
BRANCH  53  67
ATOM     67  C   UNL A   1      46.543  33.157  28.585  1.00  0.00     0.058 A 
ATOM     68  C   UNL A   1      46.998  33.669  29.810  1.00  0.00     0.135 A 
ATOM     69  C   UNL A   1      46.510  34.032  27.485  1.00  0.00     0.135 A 
ATOM     70  F   UNL A   1      47.040  32.883  30.898  1.00  0.00    -0.206 F 
ATOM     71  C   UNL A   1      47.372  35.002  29.950  1.00  0.00     0.059 A 
ATOM     72  C   UNL A   1      46.909  35.361  27.594  1.00  0.00     0.059 A 
ATOM     73  F   UNL A   1      46.085  33.598  26.288  1.00  0.00    -0.206 F 
ATOM     74  C   UNL A   1      47.323  35.841  28.835  1.00  0.00     0.060 A 
BRANCH  74  75
ATOM     75  S   UNL A   1      47.813  37.567  29.035  1.00  0.00     0.124 S 
ATOM     76  O   UNL A   1      46.556  38.180  29.453  1.00  0.00    -0.237 OA
ATOM     77  O   UNL A   1      48.847  37.481  30.060  1.00  0.00    -0.237 OA
ATOM     78  O   UNL A   1      48.281  37.945  27.704  1.00  0.00    -0.744 OA
ENDBRANCH  74  75
ENDBRANCH  53  67
BRANCH  54  79
ATOM     79  C   UNL A   1      43.277  23.809  27.178  1.00  0.00     0.058 A 
ATOM     80  C   UNL A   1      42.811  23.442  25.908  1.00  0.00     0.135 A 
ATOM     81  C   UNL A   1      43.275  22.828  28.182  1.00  0.00     0.135 A 
ATOM     82  F   UNL A   1      42.785  24.345  24.916  1.00  0.00    -0.206 F 
ATOM     83  C   UNL A   1      42.352  22.155  25.643  1.00  0.00     0.059 A 
ATOM     84  C   UNL A   1      42.848  21.527  27.934  1.00  0.00     0.059 A 
ATOM     85  F   UNL A   1      43.726  23.123  29.412  1.00  0.00    -0.206 F 
ATOM     86  C   UNL A   1      42.381  21.202  26.662  1.00  0.00     0.060 A 
BRANCH  86  87
ATOM     87  S   UNL A   1      41.842  19.518  26.292  1.00  0.00     0.124 S 
ATOM     88  O   UNL A   1      42.259  18.805  27.493  1.00  0.00    -0.237 OA
ATOM     89  O   UNL A   1      40.403  19.691  26.117  1.00  0.00    -0.237 OA
ATOM     90  O   UNL A   1      42.578  19.190  25.075  1.00  0.00    -0.744 OA
ENDBRANCH  86  87
ENDBRANCH  54  79
BRANCH  66  91
ATOM     91  C   UNL A   1      49.439  26.968  26.252  1.00  0.00     0.058 A 
ATOM     92  C   UNL A   1      50.339  26.284  27.084  1.00  0.00     0.135 A 
ATOM     93  C   UNL A   1      49.799  27.147  24.906  1.00  0.00     0.135 A 
ATOM     94  F   UNL A   1      50.048  26.091  28.380  1.00  0.00    -0.206 F 
ATOM     95  C   UNL A   1      51.560  25.820  26.607  1.00  0.00     0.059 A 
ATOM     96  C   UNL A   1      51.001  26.663  24.400  1.00  0.00     0.059 A 
ATOM     97  F   UNL A   1      48.972  27.785  24.063  1.00  0.00    -0.206 F 
ATOM     98  C   UNL A   1      51.882  26.012  25.262  1.00  0.00     0.060 A 
BRANCH  98  99
ATOM     99  S   UNL A   1      53.459  25.380  24.651  1.00  0.00     0.124 S 
ATOM    100  O   UNL A   1      53.304  25.547  23.210  1.00  0.00    -0.237 OA
ATOM    101  O   UNL A   1      54.421  26.271  25.293  1.00  0.00    -0.237 OA
ATOM    102  O   UNL A   1      53.479  24.000  25.125  1.00  0.00    -0.744 OA
ENDBRANCH  98  99
ENDBRANCH  66  91
ENDBRANCH  40  41
ENDBRANCH  32  35
ENDBRANCH  30  31
ENDBRANCH  29  30
ENDBRANCH  28  29
ENDBRANCH   1  28
TORSDOF 19
ENDMDL
MODEL 2
REMARK VINA RESULT:     -11.3      1.492      2.429
REMARK SMILES Cc1cc([C@@H](C)NC(=O)N[C@H]2C=C[C@@H](C(=O)NCCCCCCNC(=O)c3ccc(-c4c5nc(c(-c6c(F)cc(S(=O)(=O)[O-])cc6F)c6ccc([nH]6)c(-c6c(F)cc(S(=O)(=O)[O-])cc6F)c6nc(c(-c7c(F)cc(S(=O)(=O)[O-])cc7F)c7ccc4[nH]7)C=C6)C=C5)cc3)C2)c(C)s1
REMARK SMILES IDX 20 1 19 2 18 3 17 4 15 5 16 6 14 8 11 9 12 10 93 11 13 12
REMARK SMILES IDX 10 13 7 14 8 15 9 17 5 19 6 20 4 21 1 22 2 23 3 24 96 25
REMARK SMILES IDX 94 26 95 27 21 28 22 29 23 30 24 31 25 32 26 34 27 35 28 36
REMARK SMILES IDX 92 37 29 38 91 39 30 40 31 41 32 42 85 43 33 44 90 45 84 46
REMARK SMILES IDX 86 47 34 48 89 49 83 50 82 51 35 53 69 54 48 55 68 56 49 57
REMARK SMILES IDX 52 58 67 59 87 60 50 61 51 62 66 64 88 65 53 66 36 67 37 68
REMARK SMILES IDX 46 69 38 70 39 71 45 72 47 73 40 74 41 75 42 76 43 77 44 78
REMARK SMILES IDX 70 79 71 80 80 81 72 82 73 83 79 84 81 85 74 86 75 87 76 88
REMARK SMILES IDX 77 89 78 90 54 91 55 92 64 93 56 94 57 95 63 96 65 97 58 98
REMARK SMILES IDX 59 99 60 100 61 101 62 102
REMARK H PARENT 17 7 7 16 10 18 24 33 86 52 52 63
REMARK Flexibility Score: inf
ROOT
ATOM      1  C   UNL A   1      34.324  31.221  27.683  1.00  0.00     0.002 C 
ENDROOT
BRANCH   1   2
ATOM      2  C   UNL A   1      32.910  30.982  27.149  1.00  0.00     0.021 C 
BRANCH   2   3
ATOM      3  C   UNL A   1      32.705  29.621  26.494  1.00  0.00     0.116 C 
BRANCH   3   4
ATOM      4  N   UNL A   1      33.427  29.501  25.246  1.00  0.00    -0.356 N 
ATOM      5  C   UNL A   1      33.583  28.424  24.432  1.00  0.00     0.227 C 
ATOM      6  O   UNL A   1      34.247  28.578  23.400  1.00  0.00    -0.274 OA
ATOM      7  H   UNL A   1      33.874  30.323  24.940  1.00  0.00     0.163 HD
BRANCH   5   8
ATOM      8  C   UNL A   1      33.041  27.037  24.793  1.00  0.00     0.103 C 
ATOM      9  C   UNL A   1      33.736  24.733  24.165  1.00  0.00     0.107 C 
ATOM     10  C   UNL A   1      34.003  25.056  25.607  1.00  0.00    -0.006 C 
ATOM     11  C   UNL A   1      33.175  26.055  23.634  1.00  0.00     0.047 C 
ATOM     12  C   UNL A   1      33.653  26.307  25.940  1.00  0.00    -0.016 C 
BRANCH   9  13
ATOM     13  N   UNL A   1      34.984  24.340  23.541  1.00  0.00    -0.332 N 
ATOM     14  N   UNL A   1      35.424  22.078  24.116  1.00  0.00    -0.332 N 
ATOM     15  C   UNL A   1      35.721  23.227  23.507  1.00  0.00     0.315 C 
ATOM     16  H   UNL A   1      36.086  21.377  23.922  1.00  0.00     0.165 HD
ATOM     17  O   UNL A   1      36.759  23.262  22.840  1.00  0.00    -0.249 OA
ATOM     18  H   UNL A   1      35.385  25.070  23.016  1.00  0.00     0.165 HD
BRANCH  14  19
ATOM     19  C   UNL A   1      34.370  21.601  24.995  1.00  0.00     0.112 C 
ATOM     20  C   UNL A   1      34.852  21.478  26.436  1.00  0.00     0.036 C 
BRANCH  19  21
ATOM     21  C   UNL A   1      33.797  20.321  24.403  1.00  0.00    -0.012 A 
ATOM     22  C   UNL A   1      33.813  16.514  24.444  1.00  0.00     0.056 C 
ATOM     23  C   UNL A   1      33.601  17.969  24.207  1.00  0.00     0.002 A 
ATOM     24  C   UNL A   1      34.332  19.017  24.712  1.00  0.00     0.021 A 
ATOM     25  S   UNL A   1      32.350  18.529  23.206  1.00  0.00    -0.146 S 
ATOM     26  C   UNL A   1      32.721  20.179  23.531  1.00  0.00     0.007 A 
ATOM     27  C   UNL A   1      31.879  21.211  22.856  1.00  0.00     0.057 C 
ENDBRANCH  19  21
ENDBRANCH  14  19
ENDBRANCH   9  13
ENDBRANCH   5   8
ENDBRANCH   3   4
ENDBRANCH   2   3
ENDBRANCH   1   2
BRANCH   1  28
ATOM     28  C   UNL A   1      34.533  32.568  28.382  1.00  0.00     0.002 C 
BRANCH  28  29
ATOM     29  C   UNL A   1      35.982  33.059  28.427  1.00  0.00     0.021 C 
BRANCH  29  30
ATOM     30  C   UNL A   1      36.601  33.078  29.820  1.00  0.00     0.116 C 
BRANCH  30  31
ATOM     31  N   UNL A   1      36.126  31.973  30.637  1.00  0.00    -0.352 N 
ATOM     32  C   UNL A   1      36.665  30.724  30.805  1.00  0.00     0.251 C 
ATOM     33  H   UNL A   1      35.298  32.146  31.141  1.00  0.00     0.163 HD
ATOM     34  O   UNL A   1      36.007  29.842  31.356  1.00  0.00    -0.269 OA
BRANCH  32  35
ATOM     35  C   UNL A   1      38.026  30.435  30.309  1.00  0.00     0.039 A 
ATOM     36  C   UNL A   1      39.085  30.400  31.218  1.00  0.00     0.014 A 
ATOM     37  C   UNL A   1      38.260  30.204  28.949  1.00  0.00     0.014 A 
ATOM     38  C   UNL A   1      40.369  30.081  30.772  1.00  0.00     0.010 A 
ATOM     39  C   UNL A   1      39.523  29.809  28.520  1.00  0.00     0.010 A 
ATOM     40  C   UNL A   1      40.593  29.750  29.425  1.00  0.00    -0.014 A 
BRANCH  40  41
ATOM     41  C   UNL A   1      41.937  29.329  28.954  1.00  0.00     0.031 A 
ATOM     42  C   UNL A   1      43.051  30.334  28.829  1.00  0.00     0.074 A 
ATOM     43  C   UNL A   1      42.137  28.049  28.583  1.00  0.00     0.049 A 
ATOM     44  N   UNL A   1      44.275  30.159  28.401  1.00  0.00    -0.248 NA
ATOM     45  C   UNL A   1      42.741  31.721  29.207  1.00  0.00     0.031 C 
ATOM     46  C   UNL A   1      41.118  26.996  28.602  1.00  0.00     0.029 A 
ATOM     47  N   UNL A   1      43.257  27.416  28.106  1.00  0.00    -0.354 N 
ATOM     48  C   UNL A   1      44.875  31.413  28.445  1.00  0.00     0.074 A 
ATOM     49  C   UNL A   1      43.865  32.348  28.891  1.00  0.00     0.031 C 
ATOM     50  C   UNL A   1      41.664  25.846  28.177  1.00  0.00     0.029 A 
ATOM     51  C   UNL A   1      43.058  26.086  27.815  1.00  0.00     0.049 A 
ATOM     52  H   UNL A   1      44.122  27.870  27.983  1.00  0.00     0.167 HD
ATOM     53  C   UNL A   1      46.155  31.750  28.157  1.00  0.00     0.037 A 
ATOM     54  C   UNL A   1      43.899  25.165  27.304  1.00  0.00     0.037 A 
ATOM     55  C   UNL A   1      47.157  30.806  27.730  1.00  0.00     0.049 A 
ATOM     56  C   UNL A   1      45.318  25.560  26.999  1.00  0.00     0.074 A 
ATOM     57  C   UNL A   1      48.501  31.031  27.488  1.00  0.00     0.029 A 
ATOM     58  N   UNL A   1      46.925  29.463  27.469  1.00  0.00    -0.354 N 
ATOM     59  N   UNL A   1      45.893  26.731  27.131  1.00  0.00    -0.248 NA
ATOM     60  C   UNL A   1      46.205  24.507  26.487  1.00  0.00     0.031 C 
ATOM     61  C   UNL A   1      49.067  29.840  27.021  1.00  0.00     0.029 A 
ATOM     62  C   UNL A   1      48.092  28.855  27.035  1.00  0.00     0.049 A 
ATOM     63  H   UNL A   1      46.058  29.009  27.576  1.00  0.00     0.167 HD
ATOM     64  C   UNL A   1      47.215  26.552  26.738  1.00  0.00     0.074 A 
ATOM     65  C   UNL A   1      47.357  25.156  26.381  1.00  0.00     0.031 C 
ATOM     66  C   UNL A   1      48.219  27.463  26.679  1.00  0.00     0.037 A 
BRANCH  53  67
ATOM     67  C   UNL A   1      46.544  33.199  28.286  1.00  0.00     0.058 A 
ATOM     68  C   UNL A   1      47.011  33.738  29.495  1.00  0.00     0.135 A 
ATOM     69  C   UNL A   1      46.481  34.054  27.173  1.00  0.00     0.135 A 
ATOM     70  F   UNL A   1      47.082  32.972  30.596  1.00  0.00    -0.206 F 
ATOM     71  C   UNL A   1      47.367  35.079  29.607  1.00  0.00     0.059 A 
ATOM     72  C   UNL A   1      46.862  35.390  27.253  1.00  0.00     0.059 A 
ATOM     73  F   UNL A   1      46.044  33.594  25.990  1.00  0.00    -0.206 F 
ATOM     74  C   UNL A   1      47.288  35.897  28.479  1.00  0.00     0.060 A 
BRANCH  74  75
ATOM     75  S   UNL A   1      47.756  37.634  28.641  1.00  0.00     0.124 S 
ATOM     76  O   UNL A   1      48.811  37.559  29.646  1.00  0.00    -0.237 OA
ATOM     77  O   UNL A   1      48.192  37.967  27.289  1.00  0.00    -0.237 OA
ATOM     78  O   UNL A   1      46.521  38.280  29.077  1.00  0.00    -0.744 OA
ENDBRANCH  74  75
ENDBRANCH  53  67
BRANCH  54  79
ATOM     79  C   UNL A   1      43.414  23.779  27.061  1.00  0.00     0.058 A 
ATOM     80  C   UNL A   1      43.260  22.868  28.116  1.00  0.00     0.135 A 
ATOM     81  C   UNL A   1      43.068  23.348  25.771  1.00  0.00     0.135 A 
ATOM     82  F   UNL A   1      43.584  23.229  29.367  1.00  0.00    -0.206 F 
ATOM     83  C   UNL A   1      42.791  21.576  27.900  1.00  0.00     0.059 A 
ATOM     84  C   UNL A   1      42.569  22.071  25.534  1.00  0.00     0.059 A 
ATOM     85  F   UNL A   1      43.181  24.187  24.729  1.00  0.00    -0.206 F 
ATOM     86  C   UNL A   1      42.441  21.189  26.606  1.00  0.00     0.060 A 
BRANCH  86  87
ATOM     87  S   UNL A   1      41.773  19.530  26.346  1.00  0.00     0.124 S 
ATOM     88  O   UNL A   1      40.345  19.803  26.230  1.00  0.00    -0.237 OA
ATOM     89  O   UNL A   1      42.448  19.120  25.118  1.00  0.00    -0.237 OA
ATOM     90  O   UNL A   1      42.184  18.811  27.547  1.00  0.00    -0.744 OA
ENDBRANCH  86  87
ENDBRANCH  54  79
BRANCH  66  91
ATOM     91  C   UNL A   1      49.572  26.974  26.233  1.00  0.00     0.058 A 
ATOM     92  C   UNL A   1      50.458  26.339  27.118  1.00  0.00     0.135 A 
ATOM     93  C   UNL A   1      49.966  27.101  24.891  1.00  0.00     0.135 A 
ATOM     94  F   UNL A   1      50.134  26.196  28.413  1.00  0.00    -0.206 F 
ATOM     95  C   UNL A   1      51.698  25.873  26.694  1.00  0.00     0.059 A 
ATOM     96  C   UNL A   1      51.188  26.614  24.439  1.00  0.00     0.059 A 
ATOM     97  F   UNL A   1      49.154  27.691  24.000  1.00  0.00    -0.206 F 
ATOM     98  C   UNL A   1      52.054  26.013  25.351  1.00  0.00     0.060 A 
BRANCH  98  99
ATOM     99  S   UNL A   1      53.656  25.380  24.810  1.00  0.00     0.124 S 
ATOM    100  O   UNL A   1      54.576  26.266  25.516  1.00  0.00    -0.237 OA
ATOM    101  O   UNL A   1      53.620  23.998  25.280  1.00  0.00    -0.237 OA
ATOM    102  O   UNL A   1      53.614  25.544  23.360  1.00  0.00    -0.744 OA
ENDBRANCH  98  99
ENDBRANCH  66  91
ENDBRANCH  40  41
ENDBRANCH  32  35
ENDBRANCH  30  31
ENDBRANCH  29  30
ENDBRANCH  28  29
ENDBRANCH   1  28
TORSDOF 19
ENDMDL
MODEL 3
REMARK VINA RESULT:     -11.1      6.277     12.135
REMARK SMILES Cc1cc([C@@H](C)NC(=O)N[C@H]2C=C[C@@H](C(=O)NCCCCCCNC(=O)c3ccc(-c4c5nc(c(-c6c(F)cc(S(=O)(=O)[O-])cc6F)c6ccc([nH]6)c(-c6c(F)cc(S(=O)(=O)[O-])cc6F)c6nc(c(-c7c(F)cc(S(=O)(=O)[O-])cc7F)c7ccc4[nH]7)C=C6)C=C5)cc3)C2)c(C)s1
REMARK SMILES IDX 20 1 19 2 18 3 17 4 15 5 16 6 14 8 11 9 12 10 93 11 13 12
REMARK SMILES IDX 10 13 7 14 8 15 9 17 5 19 6 20 4 21 1 22 2 23 3 24 96 25
REMARK SMILES IDX 94 26 95 27 21 28 22 29 23 30 24 31 25 32 26 34 27 35 28 36
REMARK SMILES IDX 92 37 29 38 91 39 30 40 31 41 32 42 85 43 33 44 90 45 84 46
REMARK SMILES IDX 86 47 34 48 89 49 83 50 82 51 35 53 69 54 48 55 68 56 49 57
REMARK SMILES IDX 52 58 67 59 87 60 50 61 51 62 66 64 88 65 53 66 36 67 37 68
REMARK SMILES IDX 46 69 38 70 39 71 45 72 47 73 40 74 41 75 42 76 43 77 44 78
REMARK SMILES IDX 70 79 71 80 80 81 72 82 73 83 79 84 81 85 74 86 75 87 76 88
REMARK SMILES IDX 77 89 78 90 54 91 55 92 64 93 56 94 57 95 63 96 65 97 58 98
REMARK SMILES IDX 59 99 60 100 61 101 62 102
REMARK H PARENT 17 7 7 16 10 18 24 33 86 52 52 63
REMARK Flexibility Score: inf
ROOT
ATOM      1  C   UNL A   1      40.190  21.499  26.486  1.00  0.00     0.002 C 
ENDROOT
BRANCH   1   2
ATOM      2  C   UNL A   1      38.820  22.089  26.144  1.00  0.00     0.021 C 
BRANCH   2   3
ATOM      3  C   UNL A   1      38.136  21.441  24.945  1.00  0.00     0.116 C 
BRANCH   3   4
ATOM      4  N   UNL A   1      36.846  20.881  25.289  1.00  0.00    -0.356 N 
ATOM      5  C   UNL A   1      35.601  21.399  25.118  1.00  0.00     0.227 C 
ATOM      6  O   UNL A   1      34.642  20.714  25.489  1.00  0.00    -0.274 OA
ATOM      7  H   UNL A   1      36.874  19.991  25.710  1.00  0.00     0.163 HD
BRANCH   5   8
ATOM      8  C   UNL A   1      35.368  22.810  24.569  1.00  0.00     0.103 C 
ATOM      9  C   UNL A   1      33.456  24.393  24.731  1.00  0.00     0.107 C 
ATOM     10  C   UNL A   1      34.660  24.843  25.507  1.00  0.00    -0.006 C 
ATOM     11  C   UNL A   1      33.909  23.036  24.185  1.00  0.00     0.047 C 
ATOM     12  C   UNL A   1      35.682  23.978  25.442  1.00  0.00    -0.016 C 
BRANCH   9  13
ATOM     13  N   UNL A   1      32.329  24.306  25.638  1.00  0.00    -0.332 N 
ATOM     14  N   UNL A   1      31.432  26.487  25.923  1.00  0.00    -0.332 N 
ATOM     15  C   UNL A   1      31.459  25.174  26.160  1.00  0.00     0.315 C 
ATOM     16  H   UNL A   1      30.682  26.928  26.381  1.00  0.00     0.165 HD
ATOM     17  O   UNL A   1      30.597  24.718  26.917  1.00  0.00    -0.249 OA
ATOM     18  H   UNL A   1      32.164  23.384  25.942  1.00  0.00     0.165 HD
BRANCH  14  19
ATOM     19  C   UNL A   1      32.233  27.429  25.160  1.00  0.00     0.112 C 
ATOM     20  C   UNL A   1      33.065  28.325  26.070  1.00  0.00     0.036 C 
BRANCH  19  21
ATOM     21  C   UNL A   1      31.312  28.173  24.202  1.00  0.00    -0.012 A 
ATOM     22  C   UNL A   1      29.193  31.278  23.597  1.00  0.00     0.056 C 
ATOM     23  C   UNL A   1      29.925  29.981  23.558  1.00  0.00     0.002 A 
ATOM     24  C   UNL A   1      30.589  29.360  24.589  1.00  0.00     0.021 A 
ATOM     25  S   UNL A   1      30.012  29.057  22.137  1.00  0.00    -0.146 S 
ATOM     26  C   UNL A   1      31.029  27.877  22.872  1.00  0.00     0.007 A 
ATOM     27  C   UNL A   1      31.456  26.724  22.024  1.00  0.00     0.057 C 
ENDBRANCH  19  21
ENDBRANCH  14  19
ENDBRANCH   9  13
ENDBRANCH   5   8
ENDBRANCH   3   4
ENDBRANCH   2   3
ENDBRANCH   1   2
BRANCH   1  28
ATOM     28  C   UNL A   1      40.745  21.905  27.855  1.00  0.00     0.002 C 
BRANCH  28  29
ATOM     29  C   UNL A   1      42.272  21.967  27.945  1.00  0.00     0.021 C 
BRANCH  29  30
ATOM     30  C   UNL A   1      42.853  23.375  27.881  1.00  0.00     0.116 C 
BRANCH  30  31
ATOM     31  N   UNL A   1      42.651  23.984  26.577  1.00  0.00    -0.352 N 
ATOM     32  C   UNL A   1      42.074  25.186  26.261  1.00  0.00     0.251 C 
ATOM     33  H   UNL A   1      42.975  23.458  25.811  1.00  0.00     0.163 HD
ATOM     34  O   UNL A   1      41.784  25.438  25.091  1.00  0.00    -0.269 OA
BRANCH  32  35
ATOM     35  C   UNL A   1      41.784  26.169  27.326  1.00  0.00     0.039 A 
ATOM     36  C   UNL A   1      40.714  25.933  28.192  1.00  0.00     0.014 A 
ATOM     37  C   UNL A   1      42.561  27.323  27.466  1.00  0.00     0.014 A 
ATOM     38  C   UNL A   1      40.459  26.827  29.232  1.00  0.00     0.010 A 
ATOM     39  C   UNL A   1      42.353  28.171  28.550  1.00  0.00     0.010 A 
ATOM     40  C   UNL A   1      41.295  27.937  29.441  1.00  0.00    -0.014 A 
BRANCH  40  41
ATOM     41  C   UNL A   1      41.083  28.850  30.593  1.00  0.00     0.031 A 
ATOM     42  C   UNL A   1      41.917  28.713  31.838  1.00  0.00     0.074 A 
ATOM     43  C   UNL A   1      40.096  29.766  30.538  1.00  0.00     0.049 A 
ATOM     44  N   UNL A   1      41.851  29.392  32.955  1.00  0.00    -0.248 NA
ATOM     45  C   UNL A   1      42.942  27.657  31.840  1.00  0.00     0.031 C 
ATOM     46  C   UNL A   1      39.181  29.954  29.409  1.00  0.00     0.029 A 
ATOM     47  N   UNL A   1      39.687  30.702  31.454  1.00  0.00    -0.354 N 
ATOM     48  C   UNL A   1      42.811  28.838  33.794  1.00  0.00     0.074 A 
ATOM     49  C   UNL A   1      43.410  27.733  33.077  1.00  0.00     0.031 C 
ATOM     50  C   UNL A   1      38.333  30.955  29.691  1.00  0.00     0.029 A 
ATOM     51  C   UNL A   1      38.614  31.453  31.034  1.00  0.00     0.049 A 
ATOM     52  H   UNL A   1      40.119  30.825  32.329  1.00  0.00     0.167 HD
ATOM     53  C   UNL A   1      43.171  29.226  35.040  1.00  0.00     0.037 A 
ATOM     54  C   UNL A   1      37.924  32.426  31.662  1.00  0.00     0.037 A 
ATOM     55  C   UNL A   1      42.578  30.339  35.738  1.00  0.00     0.049 A 
ATOM     56  C   UNL A   1      38.348  32.846  33.043  1.00  0.00     0.074 A 
ATOM     57  C   UNL A   1      42.924  30.862  36.971  1.00  0.00     0.029 A 
ATOM     58  N   UNL A   1      41.510  31.092  35.272  1.00  0.00    -0.354 N 
ATOM     59  N   UNL A   1      39.317  32.370  33.788  1.00  0.00    -0.248 NA
ATOM     60  C   UNL A   1      37.592  33.941  33.666  1.00  0.00     0.031 C 
ATOM     61  C   UNL A   1      42.026  31.890  37.278  1.00  0.00     0.029 A 
ATOM     62  C   UNL A   1      41.161  32.052  36.207  1.00  0.00     0.049 A 
ATOM     63  H   UNL A   1      41.065  30.962  34.403  1.00  0.00     0.167 HD
ATOM     64  C   UNL A   1      39.301  33.121  34.959  1.00  0.00     0.074 A 
ATOM     65  C   UNL A   1      38.239  34.094  34.814  1.00  0.00     0.031 C 
ATOM     66  C   UNL A   1      40.097  33.014  36.053  1.00  0.00     0.037 A 
BRANCH  53  67
ATOM     67  C   UNL A   1      44.251  28.439  35.735  1.00  0.00     0.058 A 
ATOM     68  C   UNL A   1      45.612  28.751  35.586  1.00  0.00     0.135 A 
ATOM     69  C   UNL A   1      43.917  27.375  36.591  1.00  0.00     0.135 A 
ATOM     70  F   UNL A   1      45.992  29.749  34.772  1.00  0.00    -0.206 F 
ATOM     71  C   UNL A   1      46.603  28.017  36.229  1.00  0.00     0.059 A 
ATOM     72  C   UNL A   1      44.890  26.648  37.270  1.00  0.00     0.059 A 
ATOM     73  F   UNL A   1      42.632  27.032  36.773  1.00  0.00    -0.206 F 
ATOM     74  C   UNL A   1      46.232  26.966  37.069  1.00  0.00     0.060 A 
BRANCH  74  75
ATOM     75  S   UNL A   1      47.532  26.026  37.898  1.00  0.00     0.124 S 
ATOM     76  O   UNL A   1      47.112  26.115  39.293  1.00  0.00    -0.237 OA
ATOM     77  O   UNL A   1      47.404  24.709  37.282  1.00  0.00    -0.237 OA
ATOM     78  O   UNL A   1      48.749  26.757  37.562  1.00  0.00    -0.744 OA
ENDBRANCH  74  75
ENDBRANCH  53  67
BRANCH  54  79
ATOM     79  C   UNL A   1      36.771  33.071  30.980  1.00  0.00     0.058 A 
ATOM     80  C   UNL A   1      35.450  32.782  31.354  1.00  0.00     0.135 A 
ATOM     81  C   UNL A   1      36.967  34.011  29.956  1.00  0.00     0.135 A 
ATOM     82  F   UNL A   1      35.209  31.884  32.321  1.00  0.00    -0.206 F 
ATOM     83  C   UNL A   1      34.366  33.393  30.733  1.00  0.00     0.059 A 
ATOM     84  C   UNL A   1      35.900  34.657  29.340  1.00  0.00     0.059 A 
ATOM     85  F   UNL A   1      38.212  34.336  29.571  1.00  0.00    -0.206 F 
ATOM     86  C   UNL A   1      34.601  34.335  29.730  1.00  0.00     0.060 A 
BRANCH  86  87
ATOM     87  S   UNL A   1      33.189  35.169  28.973  1.00  0.00     0.124 S 
ATOM     88  O   UNL A   1      32.335  35.410  30.131  1.00  0.00    -0.237 OA
ATOM     89  O   UNL A   1      33.814  36.349  28.383  1.00  0.00    -0.237 OA
ATOM     90  O   UNL A   1      32.692  34.187  28.016  1.00  0.00    -0.744 OA
ENDBRANCH  86  87
ENDBRANCH  54  79
BRANCH  66  91
ATOM     91  C   UNL A   1      39.865  33.990  37.175  1.00  0.00     0.058 A 
ATOM     92  C   UNL A   1      38.974  33.715  38.224  1.00  0.00     0.135 A 
ATOM     93  C   UNL A   1      40.581  35.198  37.224  1.00  0.00     0.135 A 
ATOM     94  F   UNL A   1      38.260  32.578  38.224  1.00  0.00    -0.206 F 
ATOM     95  C   UNL A   1      38.780  34.615  39.267  1.00  0.00     0.059 A 
ATOM     96  C   UNL A   1      40.426  36.098  38.274  1.00  0.00     0.059 A 
ATOM     97  F   UNL A   1      41.454  35.507  36.253  1.00  0.00    -0.206 F 
ATOM     98  C   UNL A   1      39.512  35.803  39.285  1.00  0.00     0.060 A 
BRANCH  98  99
ATOM     99  S   UNL A   1      39.269  36.949  40.659  1.00  0.00     0.124 S 
ATOM    100  O   UNL A   1      38.801  36.052  41.711  1.00  0.00    -0.237 OA
ATOM    101  O   UNL A   1      40.608  37.501  40.845  1.00  0.00    -0.237 OA
ATOM    102  O   UNL A   1      38.276  37.888  40.147  1.00  0.00    -0.744 OA
ENDBRANCH  98  99
ENDBRANCH  66  91
ENDBRANCH  40  41
ENDBRANCH  32  35
ENDBRANCH  30  31
ENDBRANCH  29  30
ENDBRANCH  28  29
ENDBRANCH   1  28
TORSDOF 19
ENDMDL
