MODEL 1
REMARK VINA RESULT:     -11.2      0.000      0.000
REMARK SMILES CCSc1cccc(-c2ccc([C@@H](C)C(=O)NCCCCCCNC(=O)c3ccc(-c4c5nc(c(-c6c(F)cc(S(=O)(=O)[O-])cc6F)c6ccc([nH]6)c(-c6c(F)cc(S(=O)(=O)[O-])cc6F)c6nc(c(-c7c(F)cc(S(=O)(=O)[O-])cc7F)c7ccc4[nH]7)C=C6)C=C5)cc3)cc2)c1
REMARK SMILES IDX 20 1 19 2 18 3 17 4 15 5 16 6 13 8 14 9 12 10 9 11 10 12
REMARK SMILES IDX 94 13 11 14 93 15 8 16 4 17 5 18 95 19 6 20 7 21 3 22 2 23
REMARK SMILES IDX 1 24 21 25 22 26 23 27 24 28 25 29 26 31 27 32 28 33 92 34
REMARK SMILES IDX 29 35 91 36 30 37 31 38 32 39 85 40 33 41 90 42 84 43 86 44
REMARK SMILES IDX 34 45 89 46 83 47 82 48 35 50 69 51 48 52 68 53 49 54 52 55
REMARK SMILES IDX 67 56 87 57 50 58 51 59 66 61 88 62 53 63 36 64 37 65 46 66
REMARK SMILES IDX 38 67 39 68 45 69 47 70 40 71 41 72 42 73 43 74 44 75 70 76
REMARK SMILES IDX 71 77 80 78 72 79 73 80 79 81 81 82 74 83 75 84 76 85 77 86
REMARK SMILES IDX 78 87 54 88 55 89 64 90 56 91 57 92 63 93 65 94 58 95 59 96
REMARK SMILES IDX 60 97 61 98 62 99
REMARK H PARENT 17 7 24 30 86 49 52 60
REMARK Flexibility Score: inf
ROOT
ATOM      1  C   UNL A   1      36.268  21.969  24.459  1.00  0.00     0.002 C 
ENDROOT
BRANCH   1   2
ATOM      2  C   UNL A   1      35.990  20.726  25.311  1.00  0.00     0.021 C 
BRANCH   2   3
ATOM      3  C   UNL A   1      35.425  19.546  24.517  1.00  0.00     0.116 C 
BRANCH   3   4
ATOM      4  N   UNL A   1      34.329  18.908  25.215  1.00  0.00    -0.356 N 
ATOM      5  C   UNL A   1      32.982  19.058  25.106  1.00  0.00     0.227 C 
ATOM      6  O   UNL A   1      32.290  18.435  25.923  1.00  0.00    -0.274 OA
ATOM      7  H   UNL A   1      34.609  18.248  25.890  1.00  0.00     0.163 HD
BRANCH   5   8
ATOM      8  C   UNL A   1      32.304  19.923  24.032  1.00  0.00     0.105 C 
ATOM      9  C   UNL A   1      32.324  19.312  22.631  1.00  0.00     0.023 C 
BRANCH   8  10
ATOM     10  C   UNL A   1      32.658  21.399  24.119  1.00  0.00    -0.036 A 
ATOM     11  C   UNL A   1      33.188  24.215  24.160  1.00  0.00    -0.018 A 
ATOM     12  C   UNL A   1      32.872  23.504  25.328  1.00  0.00     0.009 A 
ATOM     13  C   UNL A   1      33.280  23.463  22.976  1.00  0.00     0.009 A 
ATOM     14  C   UNL A   1      32.646  22.122  25.314  1.00  0.00     0.005 A 
ATOM     15  C   UNL A   1      32.997  22.092  22.950  1.00  0.00     0.005 A 
BRANCH  11  16
ATOM     16  C   UNL A   1      33.376  25.687  24.177  1.00  0.00    -0.017 A 
ATOM     17  C   UNL A   1      33.763  27.767  25.431  1.00  0.00     0.008 A 
ATOM     18  C   UNL A   1      33.835  28.482  24.237  1.00  0.00     0.015 A 
ATOM     19  C   UNL A   1      33.523  26.388  25.390  1.00  0.00     0.023 A 
ATOM     20  C   UNL A   1      33.673  27.822  23.020  1.00  0.00     0.002 A 
ATOM     21  C   UNL A   1      33.442  26.443  22.993  1.00  0.00     0.009 A 
BRANCH  17  22
ATOM     22  S   UNL A   1      33.870  28.632  26.987  1.00  0.00    -0.126 SA
BRANCH  22  23
ATOM     23  C   UNL A   1      32.156  29.235  27.192  1.00  0.00     0.071 C 
ATOM     24  C   UNL A   1      31.950  30.649  26.674  1.00  0.00     0.016 C 
ENDBRANCH  22  23
ENDBRANCH  17  22
ENDBRANCH  11  16
ENDBRANCH   8  10
ENDBRANCH   5   8
ENDBRANCH   3   4
ENDBRANCH   2   3
ENDBRANCH   1   2
BRANCH   1  25
ATOM     25  C   UNL A   1      36.714  23.208  25.244  1.00  0.00     0.002 C 
BRANCH  25  26
ATOM     26  C   UNL A   1      37.951  23.020  26.131  1.00  0.00     0.021 C 
BRANCH  26  27
ATOM     27  C   UNL A   1      38.731  24.300  26.421  1.00  0.00     0.116 C 
BRANCH  27  28
ATOM     28  N   UNL A   1      40.127  24.180  26.030  1.00  0.00    -0.352 N 
ATOM     29  C   UNL A   1      41.211  24.936  26.400  1.00  0.00     0.251 C 
ATOM     30  H   UNL A   1      40.324  23.445  25.404  1.00  0.00     0.163 HD
ATOM     31  O   UNL A   1      42.264  24.835  25.779  1.00  0.00    -0.269 OA
BRANCH  29  32
ATOM     32  C   UNL A   1      41.110  25.875  27.539  1.00  0.00     0.039 A 
ATOM     33  C   UNL A   1      42.037  26.915  27.642  1.00  0.00     0.014 A 
ATOM     34  C   UNL A   1      40.129  25.711  28.521  1.00  0.00     0.014 A 
ATOM     35  C   UNL A   1      41.945  27.824  28.699  1.00  0.00     0.010 A 
ATOM     36  C   UNL A   1      40.000  26.654  29.539  1.00  0.00     0.010 A 
ATOM     37  C   UNL A   1      40.908  27.717  29.641  1.00  0.00    -0.014 A 
BRANCH  37  38
ATOM     38  C   UNL A   1      40.754  28.717  30.729  1.00  0.00     0.031 A 
ATOM     39  C   UNL A   1      41.585  28.614  31.979  1.00  0.00     0.074 A 
ATOM     40  C   UNL A   1      39.817  29.680  30.617  1.00  0.00     0.049 A 
ATOM     41  N   UNL A   1      41.548  29.355  33.057  1.00  0.00    -0.248 NA
ATOM     42  C   UNL A   1      42.569  27.521  32.037  1.00  0.00     0.031 C 
ATOM     43  C   UNL A   1      38.911  29.848  29.477  1.00  0.00     0.029 A 
ATOM     44  N   UNL A   1      39.459  30.689  31.475  1.00  0.00    -0.354 N 
ATOM     45  C   UNL A   1      42.488  28.810  33.926  1.00  0.00     0.074 A 
ATOM     46  C   UNL A   1      43.047  27.650  33.266  1.00  0.00     0.031 C 
ATOM     47  C   UNL A   1      38.115  30.906  29.700  1.00  0.00     0.029 A 
ATOM     48  C   UNL A   1      38.427  31.470  31.010  1.00  0.00     0.049 A 
ATOM     49  H   UNL A   1      39.899  30.840  32.342  1.00  0.00     0.167 HD
ATOM     50  C   UNL A   1      42.864  29.250  35.150  1.00  0.00     0.037 A 
ATOM     51  C   UNL A   1      37.796  32.517  31.576  1.00  0.00     0.037 A 
ATOM     52  C   UNL A   1      42.323  30.424  35.786  1.00  0.00     0.049 A 
ATOM     53  C   UNL A   1      38.244  32.996  32.930  1.00  0.00     0.074 A 
ATOM     54  C   UNL A   1      42.690  30.993  36.994  1.00  0.00     0.029 A 
ATOM     55  N   UNL A   1      41.303  31.207  35.269  1.00  0.00    -0.354 N 
ATOM     56  N   UNL A   1      39.186  32.513  33.704  1.00  0.00    -0.248 NA
ATOM     57  C   UNL A   1      37.551  34.167  33.484  1.00  0.00     0.031 C 
ATOM     58  C   UNL A   1      41.860  32.095  37.228  1.00  0.00     0.029 A 
ATOM     59  C   UNL A   1      41.011  32.242  36.144  1.00  0.00     0.049 A 
ATOM     60  H   UNL A   1      40.852  31.052  34.409  1.00  0.00     0.167 HD
ATOM     61  C   UNL A   1      39.214  33.334  34.826  1.00  0.00     0.074 A 
ATOM     62  C   UNL A   1      38.205  34.354  34.622  1.00  0.00     0.031 C 
ATOM     63  C   UNL A   1      40.004  33.252  35.925  1.00  0.00     0.037 A 
BRANCH  50  64
ATOM     64  C   UNL A   1      43.916  28.465  35.884  1.00  0.00     0.058 A 
ATOM     65  C   UNL A   1      45.283  28.754  35.749  1.00  0.00     0.135 A 
ATOM     66  C   UNL A   1      43.550  27.440  36.774  1.00  0.00     0.135 A 
ATOM     67  F   UNL A   1      45.689  29.714  34.902  1.00  0.00    -0.206 F 
ATOM     68  C   UNL A   1      46.252  28.040  36.447  1.00  0.00     0.059 A 
ATOM     69  C   UNL A   1      44.501  26.731  37.504  1.00  0.00     0.059 A 
ATOM     70  F   UNL A   1      42.257  27.121  36.942  1.00  0.00    -0.206 F 
ATOM     71  C   UNL A   1      45.850  27.031  37.323  1.00  0.00     0.060 A 
BRANCH  71  72
ATOM     72  S   UNL A   1      47.118  26.122  38.232  1.00  0.00     0.124 S 
ATOM     73  O   UNL A   1      47.187  26.885  39.475  1.00  0.00    -0.237 OA
ATOM     74  O   UNL A   1      46.532  24.790  38.339  1.00  0.00    -0.237 OA
ATOM     75  O   UNL A   1      48.292  26.220  37.370  1.00  0.00    -0.744 OA
ENDBRANCH  71  72
ENDBRANCH  50  64
BRANCH  51  76
ATOM     76  C   UNL A   1      36.684  33.191  30.855  1.00  0.00     0.058 A 
ATOM     77  C   UNL A   1      35.346  32.920  31.176  1.00  0.00     0.135 A 
ATOM     78  C   UNL A   1      36.937  34.129  29.842  1.00  0.00     0.135 A 
ATOM     79  F   UNL A   1      35.054  32.026  32.133  1.00  0.00    -0.206 F 
ATOM     80  C   UNL A   1      34.296  33.540  30.507  1.00  0.00     0.059 A 
ATOM     81  C   UNL A   1      35.904  34.783  29.176  1.00  0.00     0.059 A 
ATOM     82  F   UNL A   1      38.200  34.439  29.511  1.00  0.00    -0.206 F 
ATOM     83  C   UNL A   1      34.585  34.473  29.509  1.00  0.00     0.060 A 
BRANCH  83  84
ATOM     84  S   UNL A   1      33.217  35.310  28.680  1.00  0.00     0.124 S 
ATOM     85  O   UNL A   1      32.490  35.875  29.811  1.00  0.00    -0.237 OA
ATOM     86  O   UNL A   1      33.915  36.267  27.828  1.00  0.00    -0.237 OA
ATOM     87  O   UNL A   1      32.543  34.227  27.971  1.00  0.00    -0.744 OA
ENDBRANCH  83  84
ENDBRANCH  51  76
BRANCH  63  88
ATOM     88  C   UNL A   1      39.833  34.308  36.980  1.00  0.00     0.058 A 
ATOM     89  C   UNL A   1      39.021  34.099  38.107  1.00  0.00     0.135 A 
ATOM     90  C   UNL A   1      40.526  35.526  36.888  1.00  0.00     0.135 A 
ATOM     91  F   UNL A   1      38.331  32.956  38.239  1.00  0.00    -0.206 F 
ATOM     92  C   UNL A   1      38.886  35.070  39.093  1.00  0.00     0.059 A 
ATOM     93  C   UNL A   1      40.428  36.499  37.876  1.00  0.00     0.059 A 
ATOM     94  F   UNL A   1      41.324  35.771  35.836  1.00  0.00    -0.206 F 
ATOM     95  C   UNL A   1      39.594  36.267  38.969  1.00  0.00     0.060 A 
BRANCH  95  96
ATOM     96  S   UNL A   1      39.435  37.506  40.273  1.00  0.00     0.124 S 
ATOM     97  O   UNL A   1      40.820  37.931  40.444  1.00  0.00    -0.237 OA
ATOM     98  O   UNL A   1      38.541  38.487  39.666  1.00  0.00    -0.237 OA
ATOM     99  O   UNL A   1      38.866  36.754  41.388  1.00  0.00    -0.744 OA
ENDBRANCH  95  96
ENDBRANCH  63  88
ENDBRANCH  37  38
ENDBRANCH  29  32
ENDBRANCH  27  28
ENDBRANCH  26  27
ENDBRANCH  25  26
ENDBRANCH   1  25
TORSDOF 20
ENDMDL
MODEL 2
REMARK VINA RESULT:     -11.1      6.514     12.296
REMARK SMILES CCSc1cccc(-c2ccc([C@@H](C)C(=O)NCCCCCCNC(=O)c3ccc(-c4c5nc(c(-c6c(F)cc(S(=O)(=O)[O-])cc6F)c6ccc([nH]6)c(-c6c(F)cc(S(=O)(=O)[O-])cc6F)c6nc(c(-c7c(F)cc(S(=O)(=O)[O-])cc7F)c7ccc4[nH]7)C=C6)C=C5)cc3)cc2)c1
REMARK SMILES IDX 20 1 19 2 18 3 17 4 15 5 16 6 13 8 14 9 12 10 9 11 10 12
REMARK SMILES IDX 94 13 11 14 93 15 8 16 4 17 5 18 95 19 6 20 7 21 3 22 2 23
REMARK SMILES IDX 1 24 21 25 22 26 23 27 24 28 25 29 26 31 27 32 28 33 92 34
REMARK SMILES IDX 29 35 91 36 30 37 31 38 32 39 85 40 33 41 90 42 84 43 86 44
REMARK SMILES IDX 34 45 89 46 83 47 82 48 35 50 69 51 48 52 68 53 49 54 52 55
REMARK SMILES IDX 67 56 87 57 50 58 51 59 66 61 88 62 53 63 36 64 37 65 46 66
REMARK SMILES IDX 38 67 39 68 45 69 47 70 40 71 41 72 42 73 43 74 44 75 70 76
REMARK SMILES IDX 71 77 80 78 72 79 73 80 79 81 81 82 74 83 75 84 76 85 77 86
REMARK SMILES IDX 78 87 54 88 55 89 64 90 56 91 57 92 63 93 65 94 58 95 59 96
REMARK SMILES IDX 60 97 61 98 62 99
REMARK H PARENT 17 7 24 30 86 49 52 60
REMARK Flexibility Score: inf
ROOT
ATOM      1  C   UNL A   1      33.959  31.481  27.872  1.00  0.00     0.002 C 
ENDROOT
BRANCH   1   2
ATOM      2  C   UNL A   1      35.052  30.433  27.634  1.00  0.00     0.021 C 
BRANCH   2   3
ATOM      3  C   UNL A   1      34.561  29.184  26.897  1.00  0.00     0.116 C 
BRANCH   3   4
ATOM      4  N   UNL A   1      33.777  29.527  25.730  1.00  0.00    -0.356 N 
ATOM      5  C   UNL A   1      32.629  28.997  25.228  1.00  0.00     0.227 C 
ATOM      6  O   UNL A   1      32.246  29.445  24.139  1.00  0.00    -0.274 OA
ATOM      7  H   UNL A   1      34.139  30.277  25.204  1.00  0.00     0.163 HD
BRANCH   5   8
ATOM      8  C   UNL A   1      31.804  27.915  25.943  1.00  0.00     0.105 C 
ATOM      9  C   UNL A   1      31.399  28.279  27.371  1.00  0.00     0.023 C 
BRANCH   8  10
ATOM     10  C   UNL A   1      32.336  26.505  25.741  1.00  0.00    -0.036 A 
ATOM     11  C   UNL A   1      33.510  23.913  25.403  1.00  0.00    -0.018 A 
ATOM     12  C   UNL A   1      32.473  24.142  26.321  1.00  0.00     0.009 A 
ATOM     13  C   UNL A   1      33.909  25.011  24.623  1.00  0.00     0.009 A 
ATOM     14  C   UNL A   1      31.876  25.401  26.463  1.00  0.00     0.005 A 
ATOM     15  C   UNL A   1      33.353  26.284  24.804  1.00  0.00     0.005 A 
BRANCH  11  16
ATOM     16  C   UNL A   1      34.170  22.588  25.297  1.00  0.00    -0.017 A 
ATOM     17  C   UNL A   1      34.010  20.144  25.068  1.00  0.00     0.008 A 
ATOM     18  C   UNL A   1      35.398  20.053  24.993  1.00  0.00     0.015 A 
ATOM     19  C   UNL A   1      33.414  21.401  25.231  1.00  0.00     0.023 A 
ATOM     20  C   UNL A   1      36.177  21.206  25.076  1.00  0.00     0.002 A 
ATOM     21  C   UNL A   1      35.568  22.455  25.230  1.00  0.00     0.009 A 
BRANCH  17  22
ATOM     22  S   UNL A   1      33.024  18.657  25.064  1.00  0.00    -0.126 SA
BRANCH  22  23
ATOM     23  C   UNL A   1      32.904  18.298  23.276  1.00  0.00     0.071 C 
ATOM     24  C   UNL A   1      33.595  17.005  22.874  1.00  0.00     0.016 C 
ENDBRANCH  22  23
ENDBRANCH  17  22
ENDBRANCH  11  16
ENDBRANCH   8  10
ENDBRANCH   5   8
ENDBRANCH   3   4
ENDBRANCH   2   3
ENDBRANCH   1   2
BRANCH   1  25
ATOM     25  C   UNL A   1      34.465  32.862  28.304  1.00  0.00     0.002 C 
BRANCH  25  26
ATOM     26  C   UNL A   1      35.949  33.137  28.034  1.00  0.00     0.021 C 
BRANCH  26  27
ATOM     27  C   UNL A   1      36.802  33.334  29.286  1.00  0.00     0.116 C 
BRANCH  27  28
ATOM     28  N   UNL A   1      36.322  32.527  30.397  1.00  0.00    -0.352 N 
ATOM     29  C   UNL A   1      36.769  31.314  30.859  1.00  0.00     0.251 C 
ATOM     30  H   UNL A   1      35.561  32.909  30.893  1.00  0.00     0.163 HD
ATOM     31  O   UNL A   1      36.085  30.677  31.654  1.00  0.00    -0.269 OA
BRANCH  29  32
ATOM     32  C   UNL A   1      38.066  30.773  30.398  1.00  0.00     0.039 A 
ATOM     33  C   UNL A   1      38.220  30.444  29.049  1.00  0.00     0.014 A 
ATOM     34  C   UNL A   1      39.116  30.559  31.296  1.00  0.00     0.014 A 
ATOM     35  C   UNL A   1      39.444  29.951  28.591  1.00  0.00     0.010 A 
ATOM     36  C   UNL A   1      40.355  30.128  30.826  1.00  0.00     0.010 A 
ATOM     37  C   UNL A   1      40.531  29.816  29.471  1.00  0.00    -0.014 A 
BRANCH  37  38
ATOM     38  C   UNL A   1      41.860  29.363  28.985  1.00  0.00     0.031 A 
ATOM     39  C   UNL A   1      42.991  30.344  28.837  1.00  0.00     0.074 A 
ATOM     40  C   UNL A   1      42.026  28.078  28.613  1.00  0.00     0.049 A 
ATOM     41  N   UNL A   1      44.199  30.147  28.373  1.00  0.00    -0.248 NA
ATOM     42  C   UNL A   1      42.724  31.734  29.241  1.00  0.00     0.031 C 
ATOM     43  C   UNL A   1      40.988  27.045  28.657  1.00  0.00     0.029 A 
ATOM     44  N   UNL A   1      43.124  27.422  28.113  1.00  0.00    -0.354 N 
ATOM     45  C   UNL A   1      44.829  31.386  28.413  1.00  0.00     0.074 A 
ATOM     46  C   UNL A   1      43.855  32.337  28.904  1.00  0.00     0.031 C 
ATOM     47  C   UNL A   1      41.502  25.884  28.218  1.00  0.00     0.029 A 
ATOM     48  C   UNL A   1      42.893  26.097  27.830  1.00  0.00     0.049 A 
ATOM     49  H   UNL A   1      43.993  27.860  27.971  1.00  0.00     0.167 HD
ATOM     50  C   UNL A   1      46.107  31.697  28.090  1.00  0.00     0.037 A 
ATOM     51  C   UNL A   1      43.708  25.158  27.309  1.00  0.00     0.037 A 
ATOM     52  C   UNL A   1      47.078  30.738  27.630  1.00  0.00     0.049 A 
ATOM     53  C   UNL A   1      45.128  25.525  26.973  1.00  0.00     0.074 A 
ATOM     54  C   UNL A   1      48.418  30.940  27.345  1.00  0.00     0.029 A 
ATOM     55  N   UNL A   1      46.816  29.398  27.387  1.00  0.00    -0.354 N 
ATOM     56  N   UNL A   1      45.726  26.686  27.087  1.00  0.00    -0.248 NA
ATOM     57  C   UNL A   1      45.984  24.454  26.446  1.00  0.00     0.031 C 
ATOM     58  C   UNL A   1      48.954  29.732  26.888  1.00  0.00     0.029 A 
ATOM     59  C   UNL A   1      47.964  28.766  26.934  1.00  0.00     0.049 A 
ATOM     60  H   UNL A   1      45.944  28.961  27.516  1.00  0.00     0.167 HD
ATOM     61  C   UNL A   1      47.037  26.480  26.669  1.00  0.00     0.074 A 
ATOM     62  C   UNL A   1      47.146  25.080  26.314  1.00  0.00     0.031 C 
ATOM     63  C   UNL A   1      48.056  27.370  26.587  1.00  0.00     0.037 A 
BRANCH  50  64
ATOM     64  C   UNL A   1      46.535  33.132  28.226  1.00  0.00     0.058 A 
ATOM     65  C   UNL A   1      46.407  34.045  27.167  1.00  0.00     0.135 A 
ATOM     66  C   UNL A   1      47.035  33.615  29.448  1.00  0.00     0.135 A 
ATOM     67  F   UNL A   1      45.949  33.635  25.973  1.00  0.00    -0.206 F 
ATOM     68  C   UNL A   1      46.783  35.378  27.304  1.00  0.00     0.059 A 
ATOM     69  C   UNL A   1      47.390  34.951  29.616  1.00  0.00     0.059 A 
ATOM     70  F   UNL A   1      47.178  32.786  30.494  1.00  0.00    -0.206 F 
ATOM     71  C   UNL A   1      47.273  35.821  28.534  1.00  0.00     0.060 A 
BRANCH  71  72
ATOM     72  S   UNL A   1      47.744  37.556  28.700  1.00  0.00     0.124 S 
ATOM     73  O   UNL A   1      47.123  37.905  29.974  1.00  0.00    -0.237 OA
ATOM     74  O   UNL A   1      49.201  37.485  28.705  1.00  0.00    -0.237 OA
ATOM     75  O   UNL A   1      47.154  38.184  27.522  1.00  0.00    -0.744 OA
ENDBRANCH  71  72
ENDBRANCH  50  64
BRANCH  51  76
ATOM     76  C   UNL A   1      43.201  23.777  27.088  1.00  0.00     0.058 A 
ATOM     77  C   UNL A   1      42.833  23.339  25.807  1.00  0.00     0.135 A 
ATOM     78  C   UNL A   1      43.089  22.865  28.148  1.00  0.00     0.135 A 
ATOM     79  F   UNL A   1      42.919  24.176  24.762  1.00  0.00    -0.206 F 
ATOM     80  C   UNL A   1      42.355  22.052  25.587  1.00  0.00     0.059 A 
ATOM     81  C   UNL A   1      42.637  21.564  27.949  1.00  0.00     0.059 A 
ATOM     82  F   UNL A   1      43.445  23.229  29.390  1.00  0.00    -0.206 F 
ATOM     83  C   UNL A   1      42.262  21.170  26.665  1.00  0.00     0.060 A 
BRANCH  83  84
ATOM     84  S   UNL A   1      41.687  19.485  26.362  1.00  0.00     0.124 S 
ATOM     85  O   UNL A   1      40.256  19.694  26.172  1.00  0.00    -0.237 OA
ATOM     86  O   UNL A   1      42.441  19.113  25.170  1.00  0.00    -0.237 OA
ATOM     87  O   UNL A   1      42.067  18.778  27.581  1.00  0.00    -0.744 OA
ENDBRANCH  83  84
ENDBRANCH  51  76
BRANCH  63  88
ATOM     88  C   UNL A   1      49.390  26.852  26.123  1.00  0.00     0.058 A 
ATOM     89  C   UNL A   1      49.815  27.001  24.793  1.00  0.00     0.135 A 
ATOM     90  C   UNL A   1      50.271  26.243  27.030  1.00  0.00     0.135 A 
ATOM     91  F   UNL A   1      49.007  27.570  23.885  1.00  0.00    -0.206 F 
ATOM     92  C   UNL A   1      51.060  26.543  24.374  1.00  0.00     0.059 A 
ATOM     93  C   UNL A   1      51.532  25.803  26.640  1.00  0.00     0.059 A 
ATOM     94  F   UNL A   1      49.917  26.086  28.316  1.00  0.00    -0.206 F 
ATOM     95  C   UNL A   1      51.912  25.946  25.306  1.00  0.00     0.060 A 
BRANCH  95  96
ATOM     96  S   UNL A   1      53.537  25.386  24.757  1.00  0.00     0.124 S 
ATOM     97  O   UNL A   1      53.501  25.722  23.338  1.00  0.00    -0.237 OA
ATOM     98  O   UNL A   1      54.440  26.189  25.576  1.00  0.00    -0.237 OA
ATOM     99  O   UNL A   1      53.527  23.958  25.065  1.00  0.00    -0.744 OA
ENDBRANCH  95  96
ENDBRANCH  63  88
ENDBRANCH  37  38
ENDBRANCH  29  32
ENDBRANCH  27  28
ENDBRANCH  26  27
ENDBRANCH  25  26
ENDBRANCH   1  25
TORSDOF 20
ENDMDL
MODEL 3
REMARK VINA RESULT:     -10.8      2.445      4.634
REMARK SMILES CCSc1cccc(-c2ccc([C@@H](C)C(=O)NCCCCCCNC(=O)c3ccc(-c4c5nc(c(-c6c(F)cc(S(=O)(=O)[O-])cc6F)c6ccc([nH]6)c(-c6c(F)cc(S(=O)(=O)[O-])cc6F)c6nc(c(-c7c(F)cc(S(=O)(=O)[O-])cc7F)c7ccc4[nH]7)C=C6)C=C5)cc3)cc2)c1
REMARK SMILES IDX 20 1 19 2 18 3 17 4 15 5 16 6 13 8 14 9 12 10 9 11 10 12
REMARK SMILES IDX 94 13 11 14 93 15 8 16 4 17 5 18 95 19 6 20 7 21 3 22 2 23
REMARK SMILES IDX 1 24 21 25 22 26 23 27 24 28 25 29 26 31 27 32 28 33 92 34
REMARK SMILES IDX 29 35 91 36 30 37 31 38 32 39 85 40 33 41 90 42 84 43 86 44
REMARK SMILES IDX 34 45 89 46 83 47 82 48 35 50 69 51 48 52 68 53 49 54 52 55
REMARK SMILES IDX 67 56 87 57 50 58 51 59 66 61 88 62 53 63 36 64 37 65 46 66
REMARK SMILES IDX 38 67 39 68 45 69 47 70 40 71 41 72 42 73 43 74 44 75 70 76
REMARK SMILES IDX 71 77 80 78 72 79 73 80 79 81 81 82 74 83 75 84 76 85 77 86
REMARK SMILES IDX 78 87 54 88 55 89 64 90 56 91 57 92 63 93 65 94 58 95 59 96
REMARK SMILES IDX 60 97 61 98 62 99
REMARK H PARENT 17 7 24 30 86 49 52 60
REMARK Flexibility Score: inf
ROOT
ATOM      1  C   UNL A   1      45.209  23.373  27.516  1.00  0.00     0.002 C 
ENDROOT
BRANCH   1   2
ATOM      2  C   UNL A   1      45.222  22.644  26.168  1.00  0.00     0.021 C 
BRANCH   2   3
ATOM      3  C   UNL A   1      43.829  22.418  25.574  1.00  0.00     0.116 C 
BRANCH   3   4
ATOM      4  N   UNL A   1      43.689  21.081  25.037  1.00  0.00    -0.356 N 
ATOM      5  C   UNL A   1      42.959  20.013  25.459  1.00  0.00     0.227 C 
ATOM      6  O   UNL A   1      43.124  18.955  24.837  1.00  0.00    -0.274 OA
ATOM      7  H   UNL A   1      44.215  20.915  24.222  1.00  0.00     0.163 HD
BRANCH   5   8
ATOM      8  C   UNL A   1      41.957  20.069  26.622  1.00  0.00     0.105 C 
ATOM      9  C   UNL A   1      42.096  18.924  27.625  1.00  0.00     0.023 C 
BRANCH   8  10
ATOM     10  C   UNL A   1      40.538  20.409  26.193  1.00  0.00    -0.036 A 
ATOM     11  C   UNL A   1      37.937  21.177  25.267  1.00  0.00    -0.018 A 
ATOM     12  C   UNL A   1      38.401  19.857  25.159  1.00  0.00     0.009 A 
ATOM     13  C   UNL A   1      38.797  22.092  25.898  1.00  0.00     0.009 A 
ATOM     14  C   UNL A   1      39.659  19.474  25.641  1.00  0.00     0.005 A 
ATOM     15  C   UNL A   1      40.077  21.724  26.329  1.00  0.00     0.005 A 
BRANCH  11  16
ATOM     16  C   UNL A   1      36.624  21.584  24.708  1.00  0.00    -0.017 A 
ATOM     17  C   UNL A   1      34.173  21.378  24.667  1.00  0.00     0.008 A 
ATOM     18  C   UNL A   1      34.095  22.407  23.731  1.00  0.00     0.015 A 
ATOM     19  C   UNL A   1      35.429  20.970  25.133  1.00  0.00     0.023 A 
ATOM     20  C   UNL A   1      35.259  23.022  23.274  1.00  0.00     0.002 A 
ATOM     21  C   UNL A   1      36.506  22.611  23.755  1.00  0.00     0.009 A 
BRANCH  17  22
ATOM     22  S   UNL A   1      32.689  20.527  25.171  1.00  0.00    -0.126 SA
BRANCH  22  23
ATOM     23  C   UNL A   1      33.197  18.778  25.021  1.00  0.00     0.071 C 
ATOM     24  C   UNL A   1      32.989  18.208  23.628  1.00  0.00     0.016 C 
ENDBRANCH  22  23
ENDBRANCH  17  22
ENDBRANCH  11  16
ENDBRANCH   8  10
ENDBRANCH   5   8
ENDBRANCH   3   4
ENDBRANCH   2   3
ENDBRANCH   1   2
BRANCH   1  25
ATOM     25  C   UNL A   1      45.689  24.828  27.474  1.00  0.00     0.002 C 
BRANCH  25  26
ATOM     26  C   UNL A   1      46.037  25.370  26.082  1.00  0.00     0.021 C 
BRANCH  26  27
ATOM     27  C   UNL A   1      45.130  26.495  25.589  1.00  0.00     0.116 C 
BRANCH  27  28
ATOM     28  N   UNL A   1      43.910  25.980  24.988  1.00  0.00    -0.352 N 
ATOM     29  C   UNL A   1      42.627  25.968  25.478  1.00  0.00     0.251 C 
ATOM     30  H   UNL A   1      44.020  25.579  24.095  1.00  0.00     0.163 HD
ATOM     31  O   UNL A   1      41.775  25.274  24.933  1.00  0.00    -0.269 OA
BRANCH  29  32
ATOM     32  C   UNL A   1      42.274  26.782  26.661  1.00  0.00     0.039 A 
ATOM     33  C   UNL A   1      41.589  26.178  27.718  1.00  0.00     0.014 A 
ATOM     34  C   UNL A   1      42.586  28.144  26.716  1.00  0.00     0.014 A 
ATOM     35  C   UNL A   1      41.264  26.926  28.852  1.00  0.00     0.010 A 
ATOM     36  C   UNL A   1      42.319  28.872  27.873  1.00  0.00     0.010 A 
ATOM     37  C   UNL A   1      41.652  28.273  28.951  1.00  0.00    -0.014 A 
BRANCH  37  38
ATOM     38  C   UNL A   1      41.379  29.061  30.180  1.00  0.00     0.031 A 
ATOM     39  C   UNL A   1      42.208  28.851  31.419  1.00  0.00     0.074 A 
ATOM     40  C   UNL A   1      40.340  29.920  30.200  1.00  0.00     0.049 A 
ATOM     41  N   UNL A   1      42.080  29.400  32.600  1.00  0.00    -0.248 NA
ATOM     42  C   UNL A   1      43.309  27.879  31.326  1.00  0.00     0.031 C 
ATOM     43  C   UNL A   1      39.429  30.168  29.079  1.00  0.00     0.029 A 
ATOM     44  N   UNL A   1      39.865  30.732  31.199  1.00  0.00    -0.354 N 
ATOM     45  C   UNL A   1      43.070  28.830  33.393  1.00  0.00     0.074 A 
ATOM     46  C   UNL A   1      43.761  27.860  32.571  1.00  0.00     0.031 C 
ATOM     47  C   UNL A   1      38.517  31.082  29.448  1.00  0.00     0.029 A 
ATOM     48  C   UNL A   1      38.754  31.459  30.838  1.00  0.00     0.049 A 
ATOM     49  H   UNL A   1      40.280  30.790  32.089  1.00  0.00     0.167 HD
ATOM     50  C   UNL A   1      43.386  29.106  34.681  1.00  0.00     0.037 A 
ATOM     51  C   UNL A   1      38.006  32.325  31.548  1.00  0.00     0.037 A 
ATOM     52  C   UNL A   1      42.712  30.095  35.482  1.00  0.00     0.049 A 
ATOM     53  C   UNL A   1      38.387  32.627  32.972  1.00  0.00     0.074 A 
ATOM     54  C   UNL A   1      43.003  30.499  36.774  1.00  0.00     0.029 A 
ATOM     55  N   UNL A   1      41.613  30.834  35.071  1.00  0.00    -0.354 N 
ATOM     56  N   UNL A   1      39.373  32.132  33.682  1.00  0.00    -0.248 NA
ATOM     57  C   UNL A   1      37.562  33.610  33.688  1.00  0.00     0.031 C 
ATOM     58  C   UNL A   1      42.054  31.451  37.159  1.00  0.00     0.029 A 
ATOM     59  C   UNL A   1      41.200  31.676  36.092  1.00  0.00     0.049 A 
ATOM     60  H   UNL A   1      41.188  30.770  34.186  1.00  0.00     0.167 HD
ATOM     61  C   UNL A   1      39.301  32.760  34.921  1.00  0.00     0.074 A 
ATOM     62  C   UNL A   1      38.184  33.682  34.857  1.00  0.00     0.031 C 
ATOM     63  C   UNL A   1      40.088  32.590  36.011  1.00  0.00     0.037 A 
BRANCH  50  64
ATOM     64  C   UNL A   1      44.515  28.334  35.307  1.00  0.00     0.058 A 
ATOM     65  C   UNL A   1      45.802  28.879  35.432  1.00  0.00     0.135 A 
ATOM     66  C   UNL A   1      44.295  27.049  35.833  1.00  0.00     0.135 A 
ATOM     67  F   UNL A   1      46.072  30.096  34.934  1.00  0.00    -0.206 F 
ATOM     68  C   UNL A   1      46.839  28.170  36.032  1.00  0.00     0.059 A 
ATOM     69  C   UNL A   1      45.310  26.333  36.463  1.00  0.00     0.059 A 
ATOM     70  F   UNL A   1      43.083  26.480  35.741  1.00  0.00    -0.206 F 
ATOM     71  C   UNL A   1      46.582  26.897  36.545  1.00  0.00     0.060 A 
BRANCH  71  72
ATOM     72  S   UNL A   1      47.934  25.996  37.332  1.00  0.00     0.124 S 
ATOM     73  O   UNL A   1      48.805  27.089  37.753  1.00  0.00    -0.237 OA
ATOM     74  O   UNL A   1      47.249  25.283  38.406  1.00  0.00    -0.237 OA
ATOM     75  O   UNL A   1      48.454  25.156  36.258  1.00  0.00    -0.744 OA
ENDBRANCH  71  72
ENDBRANCH  50  64
BRANCH  51  76
ATOM     76  C   UNL A   1      36.830  32.980  30.916  1.00  0.00     0.058 A 
ATOM     77  C   UNL A   1      36.995  33.992  29.959  1.00  0.00     0.135 A 
ATOM     78  C   UNL A   1      35.520  32.598  31.245  1.00  0.00     0.135 A 
ATOM     79  F   UNL A   1      38.228  34.396  29.615  1.00  0.00    -0.206 F 
ATOM     80  C   UNL A   1      35.904  34.616  29.362  1.00  0.00     0.059 A 
ATOM     81  C   UNL A   1      34.413  33.189  30.643  1.00  0.00     0.059 A 
ATOM     82  F   UNL A   1      35.308  31.622  32.141  1.00  0.00    -0.206 F 
ATOM     83  C   UNL A   1      34.616  34.205  29.709  1.00  0.00     0.060 A 
BRANCH  83  84
ATOM     84  S   UNL A   1      33.206  34.985  28.893  1.00  0.00     0.124 S 
ATOM     85  O   UNL A   1      33.821  36.179  28.324  1.00  0.00    -0.237 OA
ATOM     86  O   UNL A   1      32.798  33.960  27.939  1.00  0.00    -0.237 OA
ATOM     87  O   UNL A   1      32.271  35.217  29.991  1.00  0.00    -0.744 OA
ENDBRANCH  83  84
ENDBRANCH  51  76
BRANCH  63  88
ATOM     88  C   UNL A   1      39.791  33.437  37.217  1.00  0.00     0.058 A 
ATOM     89  C   UNL A   1      38.850  33.043  38.182  1.00  0.00     0.135 A 
ATOM     90  C   UNL A   1      40.491  34.635  37.435  1.00  0.00     0.135 A 
ATOM     91  F   UNL A   1      38.149  31.910  38.017  1.00  0.00    -0.206 F 
ATOM     92  C   UNL A   1      38.597  33.818  39.308  1.00  0.00     0.059 A 
ATOM     93  C   UNL A   1      40.274  35.412  38.569  1.00  0.00     0.059 A 
ATOM     94  F   UNL A   1      41.409  35.053  36.548  1.00  0.00    -0.206 F 
ATOM     95  C   UNL A   1      39.315  35.001  39.493  1.00  0.00     0.060 A 
BRANCH  95  96
ATOM     96  S   UNL A   1      39.001  35.981  40.976  1.00  0.00     0.124 S 
ATOM     97  O   UNL A   1      40.328  36.030  41.583  1.00  0.00    -0.237 OA
ATOM     98  O   UNL A   1      38.511  37.240  40.422  1.00  0.00    -0.237 OA
ATOM     99  O   UNL A   1      38.007  35.194  41.700  1.00  0.00    -0.744 OA
ENDBRANCH  95  96
ENDBRANCH  63  88
ENDBRANCH  37  38
ENDBRANCH  29  32
ENDBRANCH  27  28
ENDBRANCH  26  27
ENDBRANCH  25  26
ENDBRANCH   1  25
TORSDOF 20
ENDMDL
