MODEL 1
REMARK VINA RESULT:     -11.9      0.000      0.000
REMARK SMILES Cc1ccc(NC(=O)C[C@H]([NH2+]Cc2cccnc2)C(=O)NCCCCCCNC(=O)c2ccc(-c3c4nc(c(-c5c(F)cc(S(=O)(=O)[O-])cc5F)c5ccc([nH]5)c(-c5c(F)cc(S(=O)(=O)[O-])cc5F)c5nc(c(-c6c(F)cc(S(=O)(=O)[O-])cc6F)c6ccc3[nH]6)C=C5)C=C4)cc2)cc1Cl
REMARK SMILES IDX 24 1 23 2 22 3 21 4 19 5 20 6 10 8 9 9 7 10 6 11 8 13 5 14
REMARK SMILES IDX 1 15 2 16 3 17 98 18 4 19 97 20 99 21 11 22 12 25 13 26
REMARK SMILES IDX 14 27 18 28 15 29 17 30 16 31 25 32 26 33 27 34 28 35 29 36
REMARK SMILES IDX 30 38 31 39 32 40 96 41 33 42 95 43 34 44 35 45 36 46 89 47
REMARK SMILES IDX 37 48 94 49 88 50 90 51 38 52 93 53 87 54 86 55 39 57 73 58
REMARK SMILES IDX 52 59 72 60 53 61 56 62 71 63 91 64 54 65 55 66 70 68 92 69
REMARK SMILES IDX 57 70 40 71 41 72 50 73 42 74 43 75 49 76 51 77 44 78 45 79
REMARK SMILES IDX 46 80 47 81 48 82 74 83 75 84 84 85 76 86 77 87 83 88 85 89
REMARK SMILES IDX 78 90 79 91 80 92 81 93 82 94 58 95 59 96 68 97 60 98 61 99
REMARK SMILES IDX 67 100 69 101 62 102 63 103 64 104 65 105 66 106
REMARK H PARENT 21 7 6 12 11 23 11 24 28 37 90 56 56 67
REMARK Flexibility Score: inf
ROOT
ATOM      1  C   UNL A   1      39.389  22.404  26.510  1.00  0.00     0.002 C 
ENDROOT
BRANCH   1   2
ATOM      2  C   UNL A   1      38.367  21.603  25.703  1.00  0.00     0.021 C 
BRANCH   2   3
ATOM      3  C   UNL A   1      37.023  22.293  25.417  1.00  0.00     0.116 C 
BRANCH   3   4
ATOM      4  N   UNL A   1      35.909  21.682  26.156  1.00  0.00    -0.351 N 
ATOM      5  C   UNL A   1      34.559  21.823  26.238  1.00  0.00     0.278 C 
ATOM      6  O   UNL A   1      34.000  21.040  27.027  1.00  0.00    -0.268 OA
ATOM      7  H   UNL A   1      36.230  20.974  26.761  1.00  0.00     0.163 HD
BRANCH   5   8
ATOM      8  C   UNL A   1      33.667  22.897  25.526  1.00  0.00     0.282 C 
BRANCH   8   9
ATOM      9  C   UNL A   1      33.699  22.892  24.014  1.00  0.00     0.175 C 
BRANCH   9  10
ATOM     10  C   UNL A   1      32.559  22.961  23.008  1.00  0.00     0.230 C 
ATOM     11  N   UNL A   1      31.733  23.946  22.609  1.00  0.00    -0.326 N 
ATOM     12  H   UNL A   1      31.121  23.605  21.917  1.00  0.00     0.169 HD
ATOM     13  O   UNL A   1      32.354  21.892  22.396  1.00  0.00    -0.274 OA
BRANCH  11  14
ATOM     14  C   UNL A   1      31.460  25.301  22.855  1.00  0.00     0.042 A 
ATOM     15  C   UNL A   1      30.412  29.387  23.896  1.00  0.00     0.046 C 
ATOM     16  C   UNL A   1      30.760  27.985  23.498  1.00  0.00    -0.032 A 
ATOM     17  C   UNL A   1      29.874  26.930  23.745  1.00  0.00     0.007 A 
ATOM     18  C   UNL A   1      31.982  27.682  22.907  1.00  0.00     0.046 A 
ATOM     19  C   UNL A   1      30.223  25.607  23.430  1.00  0.00     0.026 A 
ATOM     20  C   UNL A   1      32.292  26.364  22.569  1.00  0.00     0.047 A 
ATOM     21  Cl  UNL A   1      33.162  28.898  22.556  1.00  0.00    -0.084 Cl
ENDBRANCH  11  14
ENDBRANCH   9  10
ENDBRANCH   8   9
BRANCH   8  22
ATOM     22  N   UNL A   1      33.758  24.170  26.262  1.00  0.00    -0.332 N 
ATOM     23  H   UNL A   1      34.508  24.069  26.945  1.00  0.00     0.347 HD
ATOM     24  H   UNL A   1      32.819  24.306  26.636  1.00  0.00     0.347 HD
BRANCH  22  25
ATOM     25  C   UNL A   1      34.020  25.395  25.517  1.00  0.00     0.299 C 
BRANCH  25  26
ATOM     26  C   UNL A   1      33.286  26.555  26.148  1.00  0.00     0.024 A 
ATOM     27  C   UNL A   1      33.815  27.851  26.172  1.00  0.00     0.013 A 
ATOM     28  C   UNL A   1      32.008  26.392  26.678  1.00  0.00     0.120 A 
ATOM     29  C   UNL A   1      33.053  28.906  26.671  1.00  0.00     0.021 A 
ATOM     30  N   UNL A   1      31.249  27.394  27.183  1.00  0.00    -0.264 NA
ATOM     31  C   UNL A   1      31.784  28.631  27.152  1.00  0.00     0.111 A 
ENDBRANCH  25  26
ENDBRANCH  22  25
ENDBRANCH   8  22
ENDBRANCH   5   8
ENDBRANCH   3   4
ENDBRANCH   2   3
ENDBRANCH   1   2
BRANCH   1  32
ATOM     32  C   UNL A   1      40.714  21.695  26.802  1.00  0.00     0.002 C 
BRANCH  32  33
ATOM     33  C   UNL A   1      41.582  22.278  27.927  1.00  0.00     0.021 C 
BRANCH  33  34
ATOM     34  C   UNL A   1      42.724  23.208  27.507  1.00  0.00     0.116 C 
BRANCH  34  35
ATOM     35  N   UNL A   1      42.397  24.013  26.341  1.00  0.00    -0.352 N 
ATOM     36  C   UNL A   1      41.820  25.253  26.217  1.00  0.00     0.251 C 
ATOM     37  H   UNL A   1      42.633  23.592  25.484  1.00  0.00     0.163 HD
ATOM     38  O   UNL A   1      41.483  25.633  25.097  1.00  0.00    -0.269 OA
BRANCH  36  39
ATOM     39  C   UNL A   1      41.582  26.137  27.385  1.00  0.00     0.039 A 
ATOM     40  C   UNL A   1      42.462  27.207  27.594  1.00  0.00     0.014 A 
ATOM     41  C   UNL A   1      40.578  25.884  28.323  1.00  0.00     0.014 A 
ATOM     42  C   UNL A   1      42.304  28.045  28.703  1.00  0.00     0.010 A 
ATOM     43  C   UNL A   1      40.385  26.757  29.401  1.00  0.00     0.010 A 
ATOM     44  C   UNL A   1      41.246  27.846  29.605  1.00  0.00    -0.014 A 
BRANCH  44  45
ATOM     45  C   UNL A   1      41.031  28.786  30.741  1.00  0.00     0.031 A 
ATOM     46  C   UNL A   1      41.880  28.712  31.983  1.00  0.00     0.074 A 
ATOM     47  C   UNL A   1      40.036  29.694  30.666  1.00  0.00     0.049 A 
ATOM     48  N   UNL A   1      41.829  29.451  33.064  1.00  0.00    -0.248 NA
ATOM     49  C   UNL A   1      42.906  27.659  32.027  1.00  0.00     0.031 C 
ATOM     50  C   UNL A   1      39.109  29.839  29.542  1.00  0.00     0.029 A 
ATOM     51  N   UNL A   1      39.636  30.665  31.551  1.00  0.00    -0.354 N 
ATOM     52  C   UNL A   1      42.802  28.947  33.919  1.00  0.00     0.074 A 
ATOM     53  C   UNL A   1      43.399  27.811  33.248  1.00  0.00     0.031 C 
ATOM     54  C   UNL A   1      38.270  30.857  29.791  1.00  0.00     0.029 A 
ATOM     55  C   UNL A   1      38.577  31.419  31.102  1.00  0.00     0.049 A 
ATOM     56  H   UNL A   1      40.068  30.809  32.424  1.00  0.00     0.167 HD
ATOM     57  C   UNL A   1      43.176  29.397  35.143  1.00  0.00     0.037 A 
ATOM     58  C   UNL A   1      37.925  32.448  31.678  1.00  0.00     0.037 A 
ATOM     59  C   UNL A   1      42.598  30.543  35.799  1.00  0.00     0.049 A 
ATOM     60  C   UNL A   1      38.371  32.940  33.028  1.00  0.00     0.074 A 
ATOM     61  C   UNL A   1      42.958  31.120  37.006  1.00  0.00     0.029 A 
ATOM     62  N   UNL A   1      41.533  31.286  35.309  1.00  0.00    -0.354 N 
ATOM     63  N   UNL A   1      39.343  32.495  33.788  1.00  0.00    -0.248 NA
ATOM     64  C   UNL A   1      37.637  34.081  33.591  1.00  0.00     0.031 C 
ATOM     65  C   UNL A   1      42.085  32.183  37.265  1.00  0.00     0.029 A 
ATOM     66  C   UNL A   1      41.210  32.299  36.197  1.00  0.00     0.049 A 
ATOM     67  H   UNL A   1      41.075  31.118  34.454  1.00  0.00     0.167 HD
ATOM     68  C   UNL A   1      39.351  33.316  34.911  1.00  0.00     0.074 A 
ATOM     69  C   UNL A   1      38.300  34.295  34.720  1.00  0.00     0.031 C 
ATOM     70  C   UNL A   1      40.156  33.265  36.001  1.00  0.00     0.037 A 
BRANCH  57  71
ATOM     71  C   UNL A   1      44.267  28.646  35.861  1.00  0.00     0.058 A 
ATOM     72  C   UNL A   1      43.982  27.589  36.740  1.00  0.00     0.135 A 
ATOM     73  C   UNL A   1      45.617  28.962  35.638  1.00  0.00     0.135 A 
ATOM     74  F   UNL A   1      42.710  27.249  36.998  1.00  0.00    -0.206 F 
ATOM     75  C   UNL A   1      44.994  26.894  37.396  1.00  0.00     0.059 A 
ATOM     76  C   UNL A   1      46.647  28.264  36.263  1.00  0.00     0.059 A 
ATOM     77  F   UNL A   1      45.949  29.962  34.804  1.00  0.00    -0.206 F 
ATOM     78  C   UNL A   1      46.323  27.241  37.154  1.00  0.00     0.060 A 
BRANCH  78  79
ATOM     79  S   UNL A   1      47.627  26.336  38.014  1.00  0.00     0.124 S 
ATOM     80  O   UNL A   1      46.876  25.709  39.099  1.00  0.00    -0.237 OA
ATOM     81  O   UNL A   1      48.114  25.427  36.976  1.00  0.00    -0.237 OA
ATOM     82  O   UNL A   1      48.560  27.378  38.417  1.00  0.00    -0.744 OA
ENDBRANCH  78  79
ENDBRANCH  57  71
BRANCH  58  83
ATOM     83  C   UNL A   1      36.802  33.108  30.961  1.00  0.00     0.058 A 
ATOM     84  C   UNL A   1      35.469  32.832  31.302  1.00  0.00     0.135 A 
ATOM     85  C   UNL A   1      37.035  34.034  29.934  1.00  0.00     0.135 A 
ATOM     86  F   UNL A   1      35.195  31.947  32.273  1.00  0.00    -0.206 F 
ATOM     87  C   UNL A   1      34.407  33.438  30.640  1.00  0.00     0.059 A 
ATOM     88  C   UNL A   1      35.990  34.673  29.274  1.00  0.00     0.059 A 
ATOM     89  F   UNL A   1      38.292  34.345  29.582  1.00  0.00    -0.206 F 
ATOM     90  C   UNL A   1      34.678  34.360  29.628  1.00  0.00     0.060 A 
BRANCH  90  91
ATOM     91  S   UNL A   1      33.292  35.181  28.810  1.00  0.00     0.124 S 
ATOM     92  O   UNL A   1      32.522  35.661  29.951  1.00  0.00    -0.237 OA
ATOM     93  O   UNL A   1      33.966  36.204  28.016  1.00  0.00    -0.237 OA
ATOM     94  O   UNL A   1      32.676  34.106  28.038  1.00  0.00    -0.744 OA
ENDBRANCH  90  91
ENDBRANCH  58  83
BRANCH  70  95
ATOM     95  C   UNL A   1      39.944  34.313  37.059  1.00  0.00     0.058 A 
ATOM     96  C   UNL A   1      39.033  34.125  38.111  1.00  0.00     0.135 A 
ATOM     97  C   UNL A   1      40.663  35.518  37.024  1.00  0.00     0.135 A 
ATOM     98  F   UNL A   1      38.315  32.994  38.190  1.00  0.00    -0.206 F 
ATOM     99  C   UNL A   1      38.813  35.112  39.067  1.00  0.00     0.059 A 
ATOM    100  C   UNL A   1      40.480  36.507  37.985  1.00  0.00     0.059 A 
ATOM    101  F   UNL A   1      41.556  35.744  36.047  1.00  0.00    -0.206 F 
ATOM    102  C   UNL A   1      39.537  36.304  38.991  1.00  0.00     0.060 A 
BRANCH 102 103
ATOM    103  S   UNL A   1      39.240  37.581  40.232  1.00  0.00     0.124 S 
ATOM    104  O   UNL A   1      38.200  38.377  39.591  1.00  0.00    -0.237 OA
ATOM    105  O   UNL A   1      38.818  36.802  41.392  1.00  0.00    -0.237 OA
ATOM    106  O   UNL A   1      40.540  38.233  40.364  1.00  0.00    -0.744 OA
ENDBRANCH 102 103
ENDBRANCH  70  95
ENDBRANCH  44  45
ENDBRANCH  36  39
ENDBRANCH  34  35
ENDBRANCH  33  34
ENDBRANCH  32  33
ENDBRANCH   1  32
TORSDOF 22
ENDMDL
MODEL 2
REMARK VINA RESULT:     -11.9      1.157      2.050
REMARK SMILES Cc1ccc(NC(=O)C[C@H]([NH2+]Cc2cccnc2)C(=O)NCCCCCCNC(=O)c2ccc(-c3c4nc(c(-c5c(F)cc(S(=O)(=O)[O-])cc5F)c5ccc([nH]5)c(-c5c(F)cc(S(=O)(=O)[O-])cc5F)c5nc(c(-c6c(F)cc(S(=O)(=O)[O-])cc6F)c6ccc3[nH]6)C=C5)C=C4)cc2)cc1Cl
REMARK SMILES IDX 24 1 23 2 22 3 21 4 19 5 20 6 10 8 9 9 7 10 6 11 8 13 5 14
REMARK SMILES IDX 1 15 2 16 3 17 98 18 4 19 97 20 99 21 11 22 12 25 13 26
REMARK SMILES IDX 14 27 18 28 15 29 17 30 16 31 25 32 26 33 27 34 28 35 29 36
REMARK SMILES IDX 30 38 31 39 32 40 96 41 33 42 95 43 34 44 35 45 36 46 89 47
REMARK SMILES IDX 37 48 94 49 88 50 90 51 38 52 93 53 87 54 86 55 39 57 73 58
REMARK SMILES IDX 52 59 72 60 53 61 56 62 71 63 91 64 54 65 55 66 70 68 92 69
REMARK SMILES IDX 57 70 40 71 41 72 50 73 42 74 43 75 49 76 51 77 44 78 45 79
REMARK SMILES IDX 46 80 47 81 48 82 74 83 75 84 84 85 76 86 77 87 83 88 85 89
REMARK SMILES IDX 78 90 79 91 80 92 81 93 82 94 58 95 59 96 68 97 60 98 61 99
REMARK SMILES IDX 67 100 69 101 62 102 63 103 64 104 65 105 66 106
REMARK H PARENT 21 7 6 12 11 23 11 24 28 37 90 56 56 67
REMARK Flexibility Score: inf
ROOT
ATOM      1  C   UNL A   1      37.127  22.040  25.500  1.00  0.00     0.002 C 
ENDROOT
BRANCH   1   2
ATOM      2  C   UNL A   1      36.572  20.872  24.686  1.00  0.00     0.021 C 
BRANCH   2   3
ATOM      3  C   UNL A   1      35.143  20.415  25.023  1.00  0.00     0.116 C 
BRANCH   3   4
ATOM      4  N   UNL A   1      34.672  20.946  26.310  1.00  0.00    -0.351 N 
ATOM      5  C   UNL A   1      33.758  21.851  26.752  1.00  0.00     0.278 C 
ATOM      6  O   UNL A   1      33.693  21.965  27.988  1.00  0.00    -0.268 OA
ATOM      7  H   UNL A   1      35.152  20.529  27.063  1.00  0.00     0.163 HD
BRANCH   5   8
ATOM      8  C   UNL A   1      32.863  22.801  25.885  1.00  0.00     0.282 C 
BRANCH   8   9
ATOM      9  C   UNL A   1      31.368  22.623  26.029  1.00  0.00     0.175 C 
BRANCH   9  10
ATOM     10  C   UNL A   1      30.334  23.512  26.704  1.00  0.00     0.230 C 
ATOM     11  N   UNL A   1      29.927  24.779  26.501  1.00  0.00    -0.326 N 
ATOM     12  H   UNL A   1      29.215  25.005  27.142  1.00  0.00     0.169 HD
ATOM     13  O   UNL A   1      29.702  22.952  27.624  1.00  0.00    -0.274 OA
BRANCH  11  14
ATOM     14  C   UNL A   1      30.183  25.883  25.673  1.00  0.00     0.042 A 
ATOM     15  C   UNL A   1      30.665  29.230  22.944  1.00  0.00     0.046 C 
ATOM     16  C   UNL A   1      30.537  28.061  23.873  1.00  0.00    -0.032 A 
ATOM     17  C   UNL A   1      29.855  26.905  23.480  1.00  0.00     0.007 A 
ATOM     18  C   UNL A   1      31.057  28.101  25.163  1.00  0.00     0.046 A 
ATOM     19  C   UNL A   1      29.680  25.832  24.370  1.00  0.00     0.026 A 
ATOM     20  C   UNL A   1      30.901  27.010  26.019  1.00  0.00     0.047 A 
ATOM     21  Cl  UNL A   1      31.915  29.477  25.768  1.00  0.00    -0.084 Cl
ENDBRANCH  11  14
ENDBRANCH   9  10
ENDBRANCH   8   9
BRANCH   8  22
ATOM     22  N   UNL A   1      33.463  22.950  24.548  1.00  0.00    -0.332 N 
ATOM     23  H   UNL A   1      33.859  22.045  24.295  1.00  0.00     0.347 HD
ATOM     24  H   UNL A   1      34.123  23.719  24.658  1.00  0.00     0.347 HD
BRANCH  22  25
ATOM     25  C   UNL A   1      32.615  23.371  23.441  1.00  0.00     0.299 C 
BRANCH  25  26
ATOM     26  C   UNL A   1      32.978  24.774  23.011  1.00  0.00     0.024 A 
ATOM     27  C   UNL A   1      33.513  25.714  23.900  1.00  0.00     0.013 A 
ATOM     28  C   UNL A   1      32.854  25.171  21.681  1.00  0.00     0.120 A 
ATOM     29  C   UNL A   1      33.929  26.959  23.430  1.00  0.00     0.021 A 
ATOM     30  N   UNL A   1      33.234  26.377  21.199  1.00  0.00    -0.264 NA
ATOM     31  C   UNL A   1      33.779  27.237  22.083  1.00  0.00     0.111 A 
ENDBRANCH  25  26
ENDBRANCH  22  25
ENDBRANCH   8  22
ENDBRANCH   5   8
ENDBRANCH   3   4
ENDBRANCH   2   3
ENDBRANCH   1   2
BRANCH   1  32
ATOM     32  C   UNL A   1      38.597  21.928  25.912  1.00  0.00     0.002 C 
BRANCH  32  33
ATOM     33  C   UNL A   1      39.143  23.017  26.847  1.00  0.00     0.021 C 
BRANCH  33  34
ATOM     34  C   UNL A   1      40.660  23.052  27.057  1.00  0.00     0.116 C 
BRANCH  34  35
ATOM     35  N   UNL A   1      41.346  23.886  26.082  1.00  0.00    -0.352 N 
ATOM     36  C   UNL A   1      41.619  25.231  26.059  1.00  0.00     0.251 C 
ATOM     37  H   UNL A   1      41.674  23.396  25.295  1.00  0.00     0.163 HD
ATOM     38  O   UNL A   1      42.057  25.722  25.020  1.00  0.00    -0.269 OA
BRANCH  36  39
ATOM     39  C   UNL A   1      41.395  26.106  27.237  1.00  0.00     0.039 A 
ATOM     40  C   UNL A   1      42.330  27.116  27.498  1.00  0.00     0.014 A 
ATOM     41  C   UNL A   1      40.345  25.898  28.135  1.00  0.00     0.014 A 
ATOM     42  C   UNL A   1      42.185  27.940  28.619  1.00  0.00     0.010 A 
ATOM     43  C   UNL A   1      40.168  26.760  29.223  1.00  0.00     0.010 A 
ATOM     44  C   UNL A   1      41.086  27.789  29.480  1.00  0.00    -0.014 A 
BRANCH  44  45
ATOM     45  C   UNL A   1      40.888  28.719  30.627  1.00  0.00     0.031 A 
ATOM     46  C   UNL A   1      41.734  28.612  31.869  1.00  0.00     0.074 A 
ATOM     47  C   UNL A   1      39.912  29.648  30.564  1.00  0.00     0.049 A 
ATOM     48  N   UNL A   1      41.697  29.338  32.959  1.00  0.00    -0.248 NA
ATOM     49  C   UNL A   1      42.739  27.538  31.900  1.00  0.00     0.031 C 
ATOM     50  C   UNL A   1      38.989  29.826  29.440  1.00  0.00     0.029 A 
ATOM     51  N   UNL A   1      39.531  30.616  31.460  1.00  0.00    -0.354 N 
ATOM     52  C   UNL A   1      42.659  28.804  33.809  1.00  0.00     0.074 A 
ATOM     53  C   UNL A   1      43.234  27.665  33.124  1.00  0.00     0.031 C 
ATOM     54  C   UNL A   1      38.171  30.858  29.702  1.00  0.00     0.029 A 
ATOM     55  C   UNL A   1      38.488  31.397  31.020  1.00  0.00     0.049 A 
ATOM     56  H   UNL A   1      39.965  30.740  32.335  1.00  0.00     0.167 HD
ATOM     57  C   UNL A   1      43.041  29.230  35.039  1.00  0.00     0.037 A 
ATOM     58  C   UNL A   1      37.856  32.431  31.609  1.00  0.00     0.037 A 
ATOM     59  C   UNL A   1      42.485  30.380  35.708  1.00  0.00     0.049 A 
ATOM     60  C   UNL A   1      38.311  32.897  32.965  1.00  0.00     0.074 A 
ATOM     61  C   UNL A   1      42.856  30.934  36.923  1.00  0.00     0.029 A 
ATOM     62  N   UNL A   1      41.437  31.150  35.227  1.00  0.00    -0.354 N 
ATOM     63  N   UNL A   1      39.272  32.422  33.721  1.00  0.00    -0.248 NA
ATOM     64  C   UNL A   1      37.599  34.045  33.543  1.00  0.00     0.031 C 
ATOM     65  C   UNL A   1      42.005  32.011  37.195  1.00  0.00     0.029 A 
ATOM     66  C   UNL A   1      41.133  32.158  36.128  1.00  0.00     0.049 A 
ATOM     67  H   UNL A   1      40.975  31.002  34.370  1.00  0.00     0.167 HD
ATOM     68  C   UNL A   1      39.296  33.229  34.854  1.00  0.00     0.074 A 
ATOM     69  C   UNL A   1      38.265  34.232  34.674  1.00  0.00     0.031 C 
ATOM     70  C   UNL A   1      40.099  33.147  35.944  1.00  0.00     0.037 A 
BRANCH  57  71
ATOM     71  C   UNL A   1      44.116  28.449  35.747  1.00  0.00     0.058 A 
ATOM     72  C   UNL A   1      45.479  28.733  35.565  1.00  0.00     0.135 A 
ATOM     73  C   UNL A   1      43.779  27.428  36.651  1.00  0.00     0.135 A 
ATOM     74  F   UNL A   1      45.860  29.692  34.706  1.00  0.00    -0.206 F 
ATOM     75  C   UNL A   1      46.469  28.013  36.226  1.00  0.00     0.059 A 
ATOM     76  C   UNL A   1      44.752  26.712  37.344  1.00  0.00     0.059 A 
ATOM     77  F   UNL A   1      42.491  27.115  36.869  1.00  0.00    -0.206 F 
ATOM     78  C   UNL A   1      46.096  27.002  37.111  1.00  0.00     0.060 A 
BRANCH  78  79
ATOM     79  S   UNL A   1      47.389  26.071  37.961  1.00  0.00     0.124 S 
ATOM     80  O   UNL A   1      46.683  24.836  38.296  1.00  0.00    -0.237 OA
ATOM     81  O   UNL A   1      48.416  25.949  36.926  1.00  0.00    -0.237 OA
ATOM     82  O   UNL A   1      47.739  26.920  39.090  1.00  0.00    -0.744 OA
ENDBRANCH  78  79
ENDBRANCH  57  71
BRANCH  58  83
ATOM     83  C   UNL A   1      36.747  33.123  30.900  1.00  0.00     0.058 A 
ATOM     84  C   UNL A   1      35.412  32.919  31.279  1.00  0.00     0.135 A 
ATOM     85  C   UNL A   1      36.997  34.008  29.841  1.00  0.00     0.135 A 
ATOM     86  F   UNL A   1      35.122  32.075  32.282  1.00  0.00    -0.206 F 
ATOM     87  C   UNL A   1      34.363  33.555  30.625  1.00  0.00     0.059 A 
ATOM     88  C   UNL A   1      35.967  34.676  29.188  1.00  0.00     0.059 A 
ATOM     89  F   UNL A   1      38.259  34.250  29.451  1.00  0.00    -0.206 F 
ATOM     90  C   UNL A   1      34.651  34.435  29.581  1.00  0.00     0.060 A 
BRANCH  90  91
ATOM     91  S   UNL A   1      33.285  35.297  28.772  1.00  0.00     0.124 S 
ATOM     92  O   UNL A   1      32.680  34.223  27.995  1.00  0.00    -0.237 OA
ATOM     93  O   UNL A   1      32.509  35.779  29.910  1.00  0.00    -0.237 OA
ATOM     94  O   UNL A   1      33.957  36.336  27.999  1.00  0.00    -0.744 OA
ENDBRANCH  90  91
ENDBRANCH  58  83
BRANCH  70  95
ATOM     95  C   UNL A   1      39.907  34.186  37.014  1.00  0.00     0.058 A 
ATOM     96  C   UNL A   1      39.087  33.952  38.130  1.00  0.00     0.135 A 
ATOM     97  C   UNL A   1      40.555  35.429  36.927  1.00  0.00     0.135 A 
ATOM     98  F   UNL A   1      38.440  32.784  38.261  1.00  0.00    -0.206 F 
ATOM     99  C   UNL A   1      38.883  34.929  39.100  1.00  0.00     0.059 A 
ATOM    100  C   UNL A   1      40.387  36.410  37.899  1.00  0.00     0.059 A 
ATOM    101  F   UNL A   1      41.360  35.700  35.889  1.00  0.00    -0.206 F 
ATOM    102  C   UNL A   1      39.533  36.159  38.972  1.00  0.00     0.060 A 
BRANCH 102 103
ATOM    103  S   UNL A   1      39.258  37.422  40.232  1.00  0.00     0.124 S 
ATOM    104  O   UNL A   1      38.183  38.205  39.633  1.00  0.00    -0.237 OA
ATOM    105  O   UNL A   1      38.888  36.627  41.400  1.00  0.00    -0.237 OA
ATOM    106  O   UNL A   1      40.550  38.095  40.324  1.00  0.00    -0.744 OA
ENDBRANCH 102 103
ENDBRANCH  70  95
ENDBRANCH  44  45
ENDBRANCH  36  39
ENDBRANCH  34  35
ENDBRANCH  33  34
ENDBRANCH  32  33
ENDBRANCH   1  32
TORSDOF 22
ENDMDL
MODEL 3
REMARK VINA RESULT:     -11.9      1.626      3.041
REMARK SMILES Cc1ccc(NC(=O)C[C@H]([NH2+]Cc2cccnc2)C(=O)NCCCCCCNC(=O)c2ccc(-c3c4nc(c(-c5c(F)cc(S(=O)(=O)[O-])cc5F)c5ccc([nH]5)c(-c5c(F)cc(S(=O)(=O)[O-])cc5F)c5nc(c(-c6c(F)cc(S(=O)(=O)[O-])cc6F)c6ccc3[nH]6)C=C5)C=C4)cc2)cc1Cl
REMARK SMILES IDX 24 1 23 2 22 3 21 4 19 5 20 6 10 8 9 9 7 10 6 11 8 13 5 14
REMARK SMILES IDX 1 15 2 16 3 17 98 18 4 19 97 20 99 21 11 22 12 25 13 26
REMARK SMILES IDX 14 27 18 28 15 29 17 30 16 31 25 32 26 33 27 34 28 35 29 36
REMARK SMILES IDX 30 38 31 39 32 40 96 41 33 42 95 43 34 44 35 45 36 46 89 47
REMARK SMILES IDX 37 48 94 49 88 50 90 51 38 52 93 53 87 54 86 55 39 57 73 58
REMARK SMILES IDX 52 59 72 60 53 61 56 62 71 63 91 64 54 65 55 66 70 68 92 69
REMARK SMILES IDX 57 70 40 71 41 72 50 73 42 74 43 75 49 76 51 77 44 78 45 79
REMARK SMILES IDX 46 80 47 81 48 82 74 83 75 84 84 85 76 86 77 87 83 88 85 89
REMARK SMILES IDX 78 90 79 91 80 92 81 93 82 94 58 95 59 96 68 97 60 98 61 99
REMARK SMILES IDX 67 100 69 101 62 102 63 103 64 104 65 105 66 106
REMARK H PARENT 21 7 6 12 11 23 11 24 28 37 90 56 56 67
REMARK Flexibility Score: inf
ROOT
ATOM      1  C   UNL A   1      38.486  23.352  26.155  1.00  0.00     0.002 C 
ENDROOT
BRANCH   1   2
ATOM      2  C   UNL A   1      37.320  22.968  25.243  1.00  0.00     0.021 C 
BRANCH   2   3
ATOM      3  C   UNL A   1      36.661  21.604  25.506  1.00  0.00     0.116 C 
BRANCH   3   4
ATOM      4  N   UNL A   1      35.554  21.691  26.469  1.00  0.00    -0.351 N 
ATOM      5  C   UNL A   1      34.235  22.023  26.458  1.00  0.00     0.278 C 
ATOM      6  O   UNL A   1      33.666  21.931  27.560  1.00  0.00    -0.268 OA
ATOM      7  H   UNL A   1      35.849  21.438  27.374  1.00  0.00     0.163 HD
BRANCH   5   8
ATOM      8  C   UNL A   1      33.402  22.578  25.253  1.00  0.00     0.282 C 
BRANCH   8   9
ATOM      9  C   UNL A   1      32.490  23.746  25.555  1.00  0.00     0.175 C 
BRANCH   9  10
ATOM     10  C   UNL A   1      30.971  23.827  25.569  1.00  0.00     0.230 C 
ATOM     11  N   UNL A   1      30.085  24.718  25.084  1.00  0.00    -0.326 N 
ATOM     12  H   UNL A   1      29.170  24.416  25.283  1.00  0.00     0.169 HD
ATOM     13  O   UNL A   1      30.413  22.855  26.119  1.00  0.00    -0.274 OA
BRANCH  11  14
ATOM     14  C   UNL A   1      30.040  25.935  24.386  1.00  0.00     0.042 A 
ATOM     15  C   UNL A   1      30.196  29.595  22.049  1.00  0.00     0.046 C 
ATOM     16  C   UNL A   1      30.141  28.356  22.890  1.00  0.00    -0.032 A 
ATOM     17  C   UNL A   1      31.312  27.666  23.224  1.00  0.00     0.007 A 
ATOM     18  C   UNL A   1      28.931  27.834  23.333  1.00  0.00     0.046 A 
ATOM     19  C   UNL A   1      31.259  26.471  23.960  1.00  0.00     0.026 A 
ATOM     20  C   UNL A   1      28.905  26.663  24.094  1.00  0.00     0.047 A 
ATOM     21  Cl  UNL A   1      27.416  28.593  22.981  1.00  0.00    -0.084 Cl
ENDBRANCH  11  14
ENDBRANCH   9  10
ENDBRANCH   8   9
BRANCH   8  22
ATOM     22  N   UNL A   1      32.914  21.451  24.439  1.00  0.00    -0.332 N 
ATOM     23  H   UNL A   1      33.636  21.243  23.751  1.00  0.00     0.347 HD
ATOM     24  H   UNL A   1      32.020  21.779  24.074  1.00  0.00     0.347 HD
BRANCH  22  25
ATOM     25  C   UNL A   1      32.582  20.198  25.104  1.00  0.00     0.299 C 
BRANCH  25  26
ATOM     26  C   UNL A   1      33.168  19.032  24.342  1.00  0.00     0.024 A 
ATOM     27  C   UNL A   1      34.358  18.406  24.731  1.00  0.00     0.013 A 
ATOM     28  C   UNL A   1      32.503  18.485  23.245  1.00  0.00     0.120 A 
ATOM     29  C   UNL A   1      34.800  17.269  24.056  1.00  0.00     0.021 A 
ATOM     30  N   UNL A   1      32.916  17.392  22.562  1.00  0.00    -0.264 NA
ATOM     31  C   UNL A   1      34.047  16.799  22.994  1.00  0.00     0.111 A 
ENDBRANCH  25  26
ENDBRANCH  22  25
ENDBRANCH   8  22
ENDBRANCH   5   8
ENDBRANCH   3   4
ENDBRANCH   2   3
ENDBRANCH   1   2
BRANCH   1  32
ATOM     32  C   UNL A   1      39.559  22.279  26.356  1.00  0.00     0.002 C 
BRANCH  32  33
ATOM     33  C   UNL A   1      40.471  22.427  27.582  1.00  0.00     0.021 C 
BRANCH  33  34
ATOM     34  C   UNL A   1      41.885  22.958  27.332  1.00  0.00     0.116 C 
BRANCH  34  35
ATOM     35  N   UNL A   1      41.958  23.856  26.190  1.00  0.00    -0.352 N 
ATOM     36  C   UNL A   1      41.700  25.198  26.063  1.00  0.00     0.251 C 
ATOM     37  H   UNL A   1      42.246  23.421  25.356  1.00  0.00     0.163 HD
ATOM     38  O   UNL A   1      41.661  25.683  24.933  1.00  0.00    -0.269 OA
BRANCH  36  39
ATOM     39  C   UNL A   1      41.457  26.074  27.237  1.00  0.00     0.039 A 
ATOM     40  C   UNL A   1      42.455  26.988  27.597  1.00  0.00     0.014 A 
ATOM     41  C   UNL A   1      40.320  25.951  28.039  1.00  0.00     0.014 A 
ATOM     42  C   UNL A   1      42.291  27.807  28.719  1.00  0.00     0.010 A 
ATOM     43  C   UNL A   1      40.130  26.811  29.128  1.00  0.00     0.010 A 
ATOM     44  C   UNL A   1      41.113  27.747  29.482  1.00  0.00    -0.014 A 
BRANCH  44  45
ATOM     45  C   UNL A   1      40.904  28.675  30.629  1.00  0.00     0.031 A 
ATOM     46  C   UNL A   1      41.746  28.574  31.874  1.00  0.00     0.074 A 
ATOM     47  C   UNL A   1      39.922  29.596  30.562  1.00  0.00     0.049 A 
ATOM     48  N   UNL A   1      41.700  29.300  32.964  1.00  0.00    -0.248 NA
ATOM     49  C   UNL A   1      42.759  27.508  31.909  1.00  0.00     0.031 C 
ATOM     50  C   UNL A   1      39.001  29.768  29.436  1.00  0.00     0.029 A 
ATOM     51  N   UNL A   1      39.530  30.561  31.457  1.00  0.00    -0.354 N 
ATOM     52  C   UNL A   1      42.663  28.772  33.817  1.00  0.00     0.074 A 
ATOM     53  C   UNL A   1      43.249  27.638  33.134  1.00  0.00     0.031 C 
ATOM     54  C   UNL A   1      38.174  30.793  29.694  1.00  0.00     0.029 A 
ATOM     55  C   UNL A   1      38.482  31.334  31.014  1.00  0.00     0.049 A 
ATOM     56  H   UNL A   1      39.959  30.688  32.334  1.00  0.00     0.167 HD
ATOM     57  C   UNL A   1      43.037  29.201  35.049  1.00  0.00     0.037 A 
ATOM     58  C   UNL A   1      37.840  32.363  31.600  1.00  0.00     0.037 A 
ATOM     59  C   UNL A   1      42.470  30.347  35.716  1.00  0.00     0.049 A 
ATOM     60  C   UNL A   1      38.287  32.832  32.958  1.00  0.00     0.074 A 
ATOM     61  C   UNL A   1      42.832  30.903  36.932  1.00  0.00     0.029 A 
ATOM     62  N   UNL A   1      41.417  31.109  35.231  1.00  0.00    -0.354 N 
ATOM     63  N   UNL A   1      39.249  32.365  33.717  1.00  0.00    -0.248 NA
ATOM     64  C   UNL A   1      37.565  33.975  33.533  1.00  0.00     0.031 C 
ATOM     65  C   UNL A   1      41.972  31.974  37.201  1.00  0.00     0.029 A 
ATOM     66  C   UNL A   1      41.102  32.114  36.132  1.00  0.00     0.049 A 
ATOM     67  H   UNL A   1      40.960  30.958  34.372  1.00  0.00     0.167 HD
ATOM     68  C   UNL A   1      39.263  33.172  34.851  1.00  0.00     0.074 A 
ATOM     69  C   UNL A   1      38.225  34.166  34.667  1.00  0.00     0.031 C 
ATOM     70  C   UNL A   1      40.062  33.096  35.943  1.00  0.00     0.037 A 
BRANCH  57  71
ATOM     71  C   UNL A   1      44.115  28.428  35.761  1.00  0.00     0.058 A 
ATOM     72  C   UNL A   1      43.814  27.356  36.617  1.00  0.00     0.135 A 
ATOM     73  C   UNL A   1      45.469  28.737  35.556  1.00  0.00     0.135 A 
ATOM     74  F   UNL A   1      42.536  27.022  36.857  1.00  0.00    -0.206 F 
ATOM     75  C   UNL A   1      44.814  26.640  37.268  1.00  0.00     0.059 A 
ATOM     76  C   UNL A   1      46.488  28.017  36.177  1.00  0.00     0.059 A 
ATOM     77  F   UNL A   1      45.817  29.749  34.745  1.00  0.00    -0.206 F 
ATOM     78  C   UNL A   1      46.148  26.981  37.045  1.00  0.00     0.060 A 
BRANCH  78  79
ATOM     79  S   UNL A   1      47.437  26.048  37.899  1.00  0.00     0.124 S 
ATOM     80  O   UNL A   1      46.771  25.724  39.159  1.00  0.00    -0.237 OA
ATOM     81  O   UNL A   1      47.658  24.920  36.994  1.00  0.00    -0.237 OA
ATOM     82  O   UNL A   1      48.538  26.994  37.996  1.00  0.00    -0.744 OA
ENDBRANCH  78  79
ENDBRANCH  57  71
BRANCH  58  83
ATOM     83  C   UNL A   1      36.729  33.047  30.887  1.00  0.00     0.058 A 
ATOM     84  C   UNL A   1      35.393  32.826  31.256  1.00  0.00     0.135 A 
ATOM     85  C   UNL A   1      36.977  33.942  29.835  1.00  0.00     0.135 A 
ATOM     86  F   UNL A   1      35.106  31.973  32.251  1.00  0.00    -0.206 F 
ATOM     87  C   UNL A   1      34.342  33.454  30.598  1.00  0.00     0.059 A 
ATOM     88  C   UNL A   1      35.944  34.602  29.179  1.00  0.00     0.059 A 
ATOM     89  F   UNL A   1      38.238  34.199  29.456  1.00  0.00    -0.206 F 
ATOM     90  C   UNL A   1      34.628  34.343  29.560  1.00  0.00     0.060 A 
BRANCH  90  91
ATOM     91  S   UNL A   1      33.258  35.195  28.747  1.00  0.00     0.124 S 
ATOM     92  O   UNL A   1      33.964  36.184  27.942  1.00  0.00    -0.237 OA
ATOM     93  O   UNL A   1      32.615  34.111  28.012  1.00  0.00    -0.237 OA
ATOM     94  O   UNL A   1      32.484  35.725  29.866  1.00  0.00    -0.744 OA
ENDBRANCH  90  91
ENDBRANCH  58  83
BRANCH  70  95
ATOM     95  C   UNL A   1      39.858  34.133  37.013  1.00  0.00     0.058 A 
ATOM     96  C   UNL A   1      40.455  35.401  36.936  1.00  0.00     0.135 A 
ATOM     97  C   UNL A   1      39.051  33.857  38.129  1.00  0.00     0.135 A 
ATOM     98  F   UNL A   1      41.241  35.716  35.894  1.00  0.00    -0.206 F 
ATOM     99  C   UNL A   1      40.293  36.344  37.946  1.00  0.00     0.059 A 
ATOM    100  C   UNL A   1      38.852  34.795  39.137  1.00  0.00     0.059 A 
ATOM    101  F   UNL A   1      38.445  32.665  38.248  1.00  0.00    -0.206 F 
ATOM    102  C   UNL A   1      39.494  36.029  39.047  1.00  0.00     0.060 A 
BRANCH 102 103
ATOM    103  S   UNL A   1      39.294  37.257  40.355  1.00  0.00     0.124 S 
ATOM    104  O   UNL A   1      38.646  38.349  39.636  1.00  0.00    -0.237 OA
ATOM    105  O   UNL A   1      38.460  36.553  41.325  1.00  0.00    -0.237 OA
ATOM    106  O   UNL A   1      40.664  37.516  40.788  1.00  0.00    -0.744 OA
ENDBRANCH 102 103
ENDBRANCH  70  95
ENDBRANCH  44  45
ENDBRANCH  36  39
ENDBRANCH  34  35
ENDBRANCH  33  34
ENDBRANCH  32  33
ENDBRANCH   1  32
TORSDOF 22
ENDMDL
