MODEL 1
REMARK VINA RESULT:     -13.4      0.000      0.000
REMARK SMILES CN1C(=O)C[C@@H](C(=O)NCCCCCCNC(=O)c2ccc(-c3c4nc(c(-c5c(F)cc(S(=O)(=O)[O-])cc5F)c5ccc([nH]5)c(-c5c(F)cc(S(=O)(=O)[O-])cc5F)c5nc(c(-c6c(F)cc(S(=O)(=O)[O-])cc6F)c6ccc3[nH]6)C=C5)C=C4)cc2)C12CCN(C(=O)c1cccc3ccccc13)CC2
REMARK SMILES IDX 13 1 12 2 11 3 10 4 9 5 7 6 8 7 6 9 1 10 2 11 3 12 85 13
REMARK SMILES IDX 4 14 5 15 86 16 102 17 87 18 101 19 88 20 89 21 90 22 91 23
REMARK SMILES IDX 92 24 100 25 93 26 95 27 99 28 94 29 96 30 98 31 97 32 14 33
REMARK SMILES IDX 15 34 16 35 17 36 18 38 19 39 20 40 84 41 21 42 83 43 22 44
REMARK SMILES IDX 23 45 24 46 77 47 25 48 82 49 76 50 78 51 26 52 81 53 75 54
REMARK SMILES IDX 74 55 27 57 61 58 40 59 60 60 41 61 44 62 59 63 79 64 42 65
REMARK SMILES IDX 43 66 58 68 80 69 45 70 28 71 29 72 38 73 30 74 31 75 37 76
REMARK SMILES IDX 39 77 32 78 33 79 34 80 35 81 36 82 62 83 63 84 72 85 64 86
REMARK SMILES IDX 65 87 71 88 73 89 66 90 67 91 68 92 69 93 70 94 46 95 47 96
REMARK SMILES IDX 56 97 48 98 49 99 55 100 57 101 50 102 51 103 52 104 53 105
REMARK SMILES IDX 54 106
REMARK H PARENT 9 8 16 37 78 56 44 67
REMARK Flexibility Score: inf
ROOT
ATOM      1  C   UNL A   1      40.624  21.537  26.644  1.00  0.00     0.002 C 
ENDROOT
BRANCH   1   2
ATOM      2  C   UNL A   1      39.232  21.995  26.218  1.00  0.00     0.002 C 
BRANCH   2   3
ATOM      3  C   UNL A   1      38.995  23.495  26.368  1.00  0.00     0.021 C 
BRANCH   3   4
ATOM      4  C   UNL A   1      37.548  23.945  26.136  1.00  0.00     0.116 C 
BRANCH   4   5
ATOM      5  N   UNL A   1      37.032  23.580  24.828  1.00  0.00    -0.356 N 
ATOM      6  C   UNL A   1      36.062  22.723  24.419  1.00  0.00     0.226 C 
ATOM      7  O   UNL A   1      35.854  22.682  23.199  1.00  0.00    -0.275 OA
ATOM      8  H   UNL A   1      37.477  24.051  24.086  1.00  0.00     0.163 HD
BRANCH   6   9
ATOM      9  C   UNL A   1      35.242  21.803  25.332  1.00  0.00     0.113 C 
ATOM     10  C   UNL A   1      32.446  19.902  23.720  1.00  0.00     0.147 C 
ATOM     11  N   UNL A   1      33.604  20.366  24.464  1.00  0.00    -0.339 N 
ATOM     12  C   UNL A   1      34.732  19.574  24.625  1.00  0.00     0.223 C 
ATOM     13  C   UNL A   1      33.715  21.691  25.094  1.00  0.00     0.058 C 
ATOM     14  O   UNL A   1      34.886  18.434  24.226  1.00  0.00    -0.275 OA
ATOM     15  C   UNL A   1      35.780  20.374  25.344  1.00  0.00     0.116 C 
ATOM     16  C   UNL A   1      33.144  22.839  24.245  1.00  0.00     0.051 C 
ATOM     17  C   UNL A   1      32.911  21.655  26.428  1.00  0.00     0.051 C 
ATOM     18  C   UNL A   1      33.168  24.181  24.972  1.00  0.00     0.122 C 
ATOM     19  C   UNL A   1      32.725  23.032  27.079  1.00  0.00     0.122 C 
ATOM     20  N   UNL A   1      32.295  24.045  26.113  1.00  0.00    -0.338 N 
ATOM     21  C   UNL A   1      31.059  24.667  26.253  1.00  0.00     0.254 C 
ATOM     22  O   UNL A   1      30.242  24.307  27.102  1.00  0.00    -0.269 OA
BRANCH  21  23
ATOM     23  C   UNL A   1      30.719  25.914  25.508  1.00  0.00     0.047 A 
ATOM     24  C   UNL A   1      30.067  25.658  24.288  1.00  0.00     0.014 A 
ATOM     25  C   UNL A   1      31.193  27.226  25.811  1.00  0.00    -0.006 A 
ATOM     26  C   UNL A   1      29.946  26.654  23.327  1.00  0.00     0.001 A 
ATOM     27  C   UNL A   1      31.100  28.213  24.793  1.00  0.00    -0.018 A 
ATOM     28  C   UNL A   1      31.747  27.646  27.044  1.00  0.00     0.009 A 
ATOM     29  C   UNL A   1      30.499  27.907  23.563  1.00  0.00     0.009 A 
ATOM     30  C   UNL A   1      31.607  29.507  25.002  1.00  0.00     0.009 A 
ATOM     31  C   UNL A   1      32.140  28.969  27.277  1.00  0.00     0.001 A 
ATOM     32  C   UNL A   1      32.101  29.892  26.243  1.00  0.00     0.001 A 
ENDBRANCH  21  23
ENDBRANCH   6   9
ENDBRANCH   4   5
ENDBRANCH   3   4
ENDBRANCH   2   3
ENDBRANCH   1   2
BRANCH   1  33
ATOM     33  C   UNL A   1      41.047  22.000  28.040  1.00  0.00     0.021 C 
BRANCH  33  34
ATOM     34  C   UNL A   1      42.326  22.831  28.073  1.00  0.00     0.116 C 
BRANCH  34  35
ATOM     35  N   UNL A   1      42.604  23.439  26.783  1.00  0.00    -0.352 N 
ATOM     36  C   UNL A   1      42.414  24.741  26.393  1.00  0.00     0.251 C 
ATOM     37  H   UNL A   1      42.978  22.838  26.099  1.00  0.00     0.163 HD
ATOM     38  O   UNL A   1      42.475  25.050  25.209  1.00  0.00    -0.269 OA
BRANCH  36  39
ATOM     39  C   UNL A   1      42.124  25.759  27.422  1.00  0.00     0.039 A 
ATOM     40  C   UNL A   1      40.952  25.654  28.172  1.00  0.00     0.014 A 
ATOM     41  C   UNL A   1      43.026  26.802  27.655  1.00  0.00     0.014 A 
ATOM     42  C   UNL A   1      40.704  26.575  29.192  1.00  0.00     0.010 A 
ATOM     43  C   UNL A   1      42.815  27.670  28.720  1.00  0.00     0.010 A 
ATOM     44  C   UNL A   1      41.648  27.573  29.492  1.00  0.00    -0.014 A 
BRANCH  44  45
ATOM     45  C   UNL A   1      41.427  28.537  30.599  1.00  0.00     0.031 A 
ATOM     46  C   UNL A   1      42.264  28.451  31.846  1.00  0.00     0.074 A 
ATOM     47  C   UNL A   1      40.432  29.444  30.509  1.00  0.00     0.049 A 
ATOM     48  N   UNL A   1      42.169  29.136  32.955  1.00  0.00    -0.248 NA
ATOM     49  C   UNL A   1      43.332  27.437  31.858  1.00  0.00     0.031 C 
ATOM     50  C   UNL A   1      39.528  29.598  29.367  1.00  0.00     0.029 A 
ATOM     51  N   UNL A   1      40.007  30.398  31.398  1.00  0.00    -0.354 N 
ATOM     52  C   UNL A   1      43.150  28.631  33.798  1.00  0.00     0.074 A 
ATOM     53  C   UNL A   1      43.793  27.542  33.096  1.00  0.00     0.031 C 
ATOM     54  C   UNL A   1      38.669  30.599  29.617  1.00  0.00     0.029 A 
ATOM     55  C   UNL A   1      38.929  31.127  30.953  1.00  0.00     0.049 A 
ATOM     56  H   UNL A   1      40.432  30.546  32.273  1.00  0.00     0.167 HD
ATOM     57  C   UNL A   1      43.501  29.052  35.037  1.00  0.00     0.037 A 
ATOM     58  C   UNL A   1      38.222  32.103  31.557  1.00  0.00     0.037 A 
ATOM     59  C   UNL A   1      42.871  30.151  35.719  1.00  0.00     0.049 A 
ATOM     60  C   UNL A   1      38.620  32.543  32.942  1.00  0.00     0.074 A 
ATOM     61  C   UNL A   1      43.184  30.691  36.953  1.00  0.00     0.029 A 
ATOM     62  N   UNL A   1      41.795  30.878  35.226  1.00  0.00    -0.354 N 
ATOM     63  N   UNL A   1      39.591  32.094  33.702  1.00  0.00    -0.248 NA
ATOM     64  C   UNL A   1      37.833  33.625  33.548  1.00  0.00     0.031 C 
ATOM     65  C   UNL A   1      42.266  31.708  37.231  1.00  0.00     0.029 A 
ATOM     66  C   UNL A   1      41.419  31.846  36.143  1.00  0.00     0.049 A 
ATOM     67  H   UNL A   1      41.363  30.727  34.354  1.00  0.00     0.167 HD
ATOM     68  C   UNL A   1      39.552  32.861  34.862  1.00  0.00     0.074 A 
ATOM     69  C   UNL A   1      38.467  33.807  34.698  1.00  0.00     0.031 C 
ATOM     70  C   UNL A   1      40.346  32.791  35.959  1.00  0.00     0.037 A 
BRANCH  57  71
ATOM     71  C   UNL A   1      44.617  28.323  35.736  1.00  0.00     0.058 A 
ATOM     72  C   UNL A   1      44.370  27.246  36.602  1.00  0.00     0.135 A 
ATOM     73  C   UNL A   1      45.956  28.682  35.508  1.00  0.00     0.135 A 
ATOM     74  F   UNL A   1      43.109  26.870  36.871  1.00  0.00    -0.206 F 
ATOM     75  C   UNL A   1      45.406  26.570  37.239  1.00  0.00     0.059 A 
ATOM     76  C   UNL A   1      47.010  27.999  36.108  1.00  0.00     0.059 A 
ATOM     77  F   UNL A   1      46.252  29.704  34.690  1.00  0.00    -0.206 F 
ATOM     78  C   UNL A   1      46.723  26.953  36.984  1.00  0.00     0.060 A 
BRANCH  78  79
ATOM     79  S   UNL A   1      48.054  26.059  37.813  1.00  0.00     0.124 S 
ATOM     80  O   UNL A   1      49.234  26.703  37.244  1.00  0.00    -0.237 OA
ATOM     81  O   UNL A   1      47.792  26.344  39.219  1.00  0.00    -0.237 OA
ATOM     82  O   UNL A   1      47.839  24.674  37.406  1.00  0.00    -0.744 OA
ENDBRANCH  78  79
ENDBRANCH  57  71
BRANCH  58  83
ATOM     83  C   UNL A   1      37.077  32.740  30.852  1.00  0.00     0.058 A 
ATOM     84  C   UNL A   1      35.755  32.368  31.137  1.00  0.00     0.135 A 
ATOM     85  C   UNL A   1      37.279  33.739  29.886  1.00  0.00     0.135 A 
ATOM     86  F   UNL A   1      35.509  31.415  32.049  1.00  0.00    -0.206 F 
ATOM     87  C   UNL A   1      34.675  32.946  30.477  1.00  0.00     0.059 A 
ATOM     88  C   UNL A   1      36.214  34.353  29.234  1.00  0.00     0.059 A 
ATOM     89  F   UNL A   1      38.523  34.145  29.589  1.00  0.00    -0.206 F 
ATOM     90  C   UNL A   1      34.916  33.941  29.528  1.00  0.00     0.060 A 
BRANCH  90  91
ATOM     91  S   UNL A   1      33.504  34.712  28.708  1.00  0.00     0.124 S 
ATOM     92  O   UNL A   1      33.136  33.691  27.735  1.00  0.00    -0.237 OA
ATOM     93  O   UNL A   1      32.574  34.902  29.817  1.00  0.00    -0.237 OA
ATOM     94  O   UNL A   1      34.067  35.940  28.154  1.00  0.00    -0.744 OA
ENDBRANCH  90  91
ENDBRANCH  58  83
BRANCH  70  95
ATOM     95  C   UNL A   1      40.111  33.794  37.056  1.00  0.00     0.058 A 
ATOM     96  C   UNL A   1      40.739  35.050  37.060  1.00  0.00     0.135 A 
ATOM     97  C   UNL A   1      39.189  33.518  38.079  1.00  0.00     0.135 A 
ATOM     98  F   UNL A   1      41.635  35.361  36.111  1.00  0.00    -0.206 F 
ATOM     99  C   UNL A   1      40.472  35.990  38.050  1.00  0.00     0.059 A 
ATOM    100  C   UNL A   1      38.883  34.456  39.060  1.00  0.00     0.059 A 
ATOM    101  F   UNL A   1      38.554  32.336  38.116  1.00  0.00    -0.206 F 
ATOM    102  C   UNL A   1      39.537  35.686  39.042  1.00  0.00     0.060 A 
BRANCH 102 103
ATOM    103  S   UNL A   1      39.161  36.936  40.289  1.00  0.00     0.124 S 
ATOM    104  O   UNL A   1      38.527  37.974  39.483  1.00  0.00    -0.237 OA
ATOM    105  O   UNL A   1      38.279  36.213  41.199  1.00  0.00    -0.237 OA
ATOM    106  O   UNL A   1      40.471  37.279  40.834  1.00  0.00    -0.744 OA
ENDBRANCH 102 103
ENDBRANCH  70  95
ENDBRANCH  44  45
ENDBRANCH  36  39
ENDBRANCH  34  35
ENDBRANCH  33  34
ENDBRANCH   1  33
TORSDOF 17
ENDMDL
MODEL 2
REMARK VINA RESULT:     -13.3      0.496      7.801
REMARK SMILES CN1C(=O)C[C@@H](C(=O)NCCCCCCNC(=O)c2ccc(-c3c4nc(c(-c5c(F)cc(S(=O)(=O)[O-])cc5F)c5ccc([nH]5)c(-c5c(F)cc(S(=O)(=O)[O-])cc5F)c5nc(c(-c6c(F)cc(S(=O)(=O)[O-])cc6F)c6ccc3[nH]6)C=C5)C=C4)cc2)C12CCN(C(=O)c1cccc3ccccc13)CC2
REMARK SMILES IDX 13 1 12 2 11 3 10 4 9 5 7 6 8 7 6 9 1 10 2 11 3 12 85 13
REMARK SMILES IDX 4 14 5 15 86 16 102 17 87 18 101 19 88 20 89 21 90 22 91 23
REMARK SMILES IDX 92 24 100 25 93 26 95 27 99 28 94 29 96 30 98 31 97 32 14 33
REMARK SMILES IDX 15 34 16 35 17 36 18 38 19 39 20 40 84 41 21 42 83 43 22 44
REMARK SMILES IDX 23 45 24 46 77 47 25 48 82 49 76 50 78 51 26 52 81 53 75 54
REMARK SMILES IDX 74 55 27 57 61 58 40 59 60 60 41 61 44 62 59 63 79 64 42 65
REMARK SMILES IDX 43 66 58 68 80 69 45 70 28 71 29 72 38 73 30 74 31 75 37 76
REMARK SMILES IDX 39 77 32 78 33 79 34 80 35 81 36 82 62 83 63 84 72 85 64 86
REMARK SMILES IDX 65 87 71 88 73 89 66 90 67 91 68 92 69 93 70 94 46 95 47 96
REMARK SMILES IDX 56 97 48 98 49 99 55 100 57 101 50 102 51 103 52 104 53 105
REMARK SMILES IDX 54 106
REMARK H PARENT 9 8 16 37 78 56 44 67
REMARK Flexibility Score: inf
ROOT
ATOM      1  C   UNL A   1      40.661  21.842  26.232  1.00  0.00     0.002 C 
ENDROOT
BRANCH   1   2
ATOM      2  C   UNL A   1      39.164  22.129  26.153  1.00  0.00     0.002 C 
BRANCH   2   3
ATOM      3  C   UNL A   1      38.789  23.579  26.448  1.00  0.00     0.021 C 
BRANCH   3   4
ATOM      4  C   UNL A   1      37.321  23.932  26.182  1.00  0.00     0.116 C 
BRANCH   4   5
ATOM      5  N   UNL A   1      36.865  23.546  24.857  1.00  0.00    -0.356 N 
ATOM      6  C   UNL A   1      35.907  22.691  24.417  1.00  0.00     0.226 C 
ATOM      7  O   UNL A   1      35.758  22.628  23.190  1.00  0.00    -0.275 OA
ATOM      8  H   UNL A   1      37.351  23.998  24.129  1.00  0.00     0.163 HD
BRANCH   6   9
ATOM      9  C   UNL A   1      35.034  21.797  25.307  1.00  0.00     0.113 C 
ATOM     10  C   UNL A   1      32.211  20.002  23.622  1.00  0.00     0.147 C 
ATOM     11  N   UNL A   1      33.367  20.422  24.394  1.00  0.00    -0.339 N 
ATOM     12  C   UNL A   1      34.463  19.590  24.577  1.00  0.00     0.223 C 
ATOM     13  C   UNL A   1      33.510  21.740  25.033  1.00  0.00     0.058 C 
ATOM     14  O   UNL A   1      34.585  18.447  24.176  1.00  0.00    -0.275 OA
ATOM     15  C   UNL A   1      35.521  20.349  25.324  1.00  0.00     0.116 C 
ATOM     16  C   UNL A   1      33.000  22.911  24.178  1.00  0.00     0.051 C 
ATOM     17  C   UNL A   1      32.675  21.727  26.348  1.00  0.00     0.051 C 
ATOM     18  C   UNL A   1      33.054  24.248  24.912  1.00  0.00     0.122 C 
ATOM     19  C   UNL A   1      32.523  23.106  27.002  1.00  0.00     0.122 C 
ATOM     20  N   UNL A   1      32.151  24.138  26.032  1.00  0.00    -0.338 N 
ATOM     21  C   UNL A   1      30.935  24.803  26.147  1.00  0.00     0.254 C 
ATOM     22  O   UNL A   1      30.087  24.468  26.975  1.00  0.00    -0.269 OA
BRANCH  21  23
ATOM     23  C   UNL A   1      30.656  26.065  25.401  1.00  0.00     0.047 A 
ATOM     24  C   UNL A   1      30.105  25.833  24.127  1.00  0.00     0.014 A 
ATOM     25  C   UNL A   1      31.105  27.369  25.766  1.00  0.00    -0.006 A 
ATOM     26  C   UNL A   1      30.061  26.847  23.179  1.00  0.00     0.001 A 
ATOM     27  C   UNL A   1      31.094  28.376  24.762  1.00  0.00    -0.018 A 
ATOM     28  C   UNL A   1      31.558  27.765  27.047  1.00  0.00     0.009 A 
ATOM     29  C   UNL A   1      30.594  28.094  23.483  1.00  0.00     0.009 A 
ATOM     30  C   UNL A   1      31.584  29.664  25.035  1.00  0.00     0.009 A 
ATOM     31  C   UNL A   1      31.932  29.083  27.335  1.00  0.00     0.001 A 
ATOM     32  C   UNL A   1      31.977  30.025  26.320  1.00  0.00     0.001 A 
ENDBRANCH  21  23
ENDBRANCH   6   9
ENDBRANCH   4   5
ENDBRANCH   3   4
ENDBRANCH   2   3
ENDBRANCH   1   2
BRANCH   1  33
ATOM     33  C   UNL A   1      41.319  22.255  27.551  1.00  0.00     0.021 C 
BRANCH  33  34
ATOM     34  C   UNL A   1      42.522  23.181  27.397  1.00  0.00     0.116 C 
BRANCH  34  35
ATOM     35  N   UNL A   1      42.401  24.026  26.221  1.00  0.00    -0.352 N 
ATOM     36  C   UNL A   1      41.961  25.323  26.144  1.00  0.00     0.251 C 
ATOM     37  H   UNL A   1      42.671  23.614  25.369  1.00  0.00     0.163 HD
ATOM     38  O   UNL A   1      41.694  25.825  25.058  1.00  0.00    -0.269 OA
BRANCH  36  39
ATOM     39  C   UNL A   1      41.803  26.099  27.390  1.00  0.00     0.039 A 
ATOM     40  C   UNL A   1      42.743  27.082  27.703  1.00  0.00     0.014 A 
ATOM     41  C   UNL A   1      40.712  25.864  28.232  1.00  0.00     0.014 A 
ATOM     42  C   UNL A   1      42.562  27.865  28.845  1.00  0.00     0.010 A 
ATOM     43  C   UNL A   1      40.494  26.696  29.325  1.00  0.00     0.010 A 
ATOM     44  C   UNL A   1      41.421  27.697  29.649  1.00  0.00    -0.014 A 
BRANCH  44  45
ATOM     45  C   UNL A   1      41.186  28.546  30.845  1.00  0.00     0.031 A 
ATOM     46  C   UNL A   1      40.084  29.568  30.831  1.00  0.00     0.074 A 
ATOM     47  C   UNL A   1      42.004  28.441  31.912  1.00  0.00     0.049 A 
ATOM     48  N   UNL A   1      39.774  30.463  31.733  1.00  0.00    -0.248 NA
ATOM     49  C   UNL A   1      39.233  29.611  29.629  1.00  0.00     0.031 C 
ATOM     50  C   UNL A   1      43.132  27.514  32.026  1.00  0.00     0.029 A 
ATOM     51  N   UNL A   1      42.021  29.130  33.098  1.00  0.00    -0.354 N 
ATOM     52  C   UNL A   1      38.708  31.180  31.205  1.00  0.00     0.074 A 
ATOM     53  C   UNL A   1      38.458  30.657  29.880  1.00  0.00     0.031 C 
ATOM     54  C   UNL A   1      43.718  27.679  33.222  1.00  0.00     0.029 A 
ATOM     55  C   UNL A   1      43.039  28.752  33.942  1.00  0.00     0.049 A 
ATOM     56  H   UNL A   1      41.367  29.829  33.323  1.00  0.00     0.167 HD
ATOM     57  C   UNL A   1      37.985  32.170  31.782  1.00  0.00     0.037 A 
ATOM     58  C   UNL A   1      43.394  29.225  35.153  1.00  0.00     0.037 A 
ATOM     59  C   UNL A   1      38.227  32.669  33.110  1.00  0.00     0.049 A 
ATOM     60  C   UNL A   1      42.586  30.338  35.768  1.00  0.00     0.074 A 
ATOM     61  C   UNL A   1      37.521  33.633  33.808  1.00  0.00     0.029 A 
ATOM     62  N   UNL A   1      39.255  32.247  33.942  1.00  0.00    -0.354 N 
ATOM     63  N   UNL A   1      41.542  30.966  35.279  1.00  0.00    -0.248 NA
ATOM     64  C   UNL A   1      42.998  30.804  37.098  1.00  0.00     0.031 C 
ATOM     65  C   UNL A   1      38.153  33.832  35.039  1.00  0.00     0.029 A 
ATOM     66  C   UNL A   1      39.216  32.948  35.135  1.00  0.00     0.049 A 
ATOM     67  H   UNL A   1      39.916  31.553  33.715  1.00  0.00     0.167 HD
ATOM     68  C   UNL A   1      41.152  31.875  36.257  1.00  0.00     0.074 A 
ATOM     69  C   UNL A   1      42.068  31.710  37.366  1.00  0.00     0.031 C 
ATOM     70  C   UNL A   1      40.127  32.762  36.238  1.00  0.00     0.037 A 
BRANCH  57  71
ATOM     71  C   UNL A   1      36.865  32.779  30.982  1.00  0.00     0.058 A 
ATOM     72  C   UNL A   1      35.525  32.408  31.183  1.00  0.00     0.135 A 
ATOM     73  C   UNL A   1      37.130  33.775  30.027  1.00  0.00     0.135 A 
ATOM     74  F   UNL A   1      35.215  31.449  32.071  1.00  0.00    -0.206 F 
ATOM     75  C   UNL A   1      34.493  32.980  30.447  1.00  0.00     0.059 A 
ATOM     76  C   UNL A   1      36.109  34.384  29.303  1.00  0.00     0.059 A 
ATOM     77  F   UNL A   1      38.391  34.168  29.792  1.00  0.00    -0.206 F 
ATOM     78  C   UNL A   1      34.795  33.969  29.510  1.00  0.00     0.060 A 
BRANCH  78  79
ATOM     79  S   UNL A   1      33.441  34.705  28.571  1.00  0.00     0.124 S 
ATOM     80  O   UNL A   1      32.527  35.099  29.639  1.00  0.00    -0.237 OA
ATOM     81  O   UNL A   1      34.107  35.799  27.871  1.00  0.00    -0.237 OA
ATOM     82  O   UNL A   1      32.979  33.611  27.722  1.00  0.00    -0.744 OA
ENDBRANCH  78  79
ENDBRANCH  57  71
BRANCH  58  83
ATOM     83  C   UNL A   1      44.558  28.640  35.871  1.00  0.00     0.058 A 
ATOM     84  C   UNL A   1      44.393  27.571  36.764  1.00  0.00     0.135 A 
ATOM     85  C   UNL A   1      45.859  29.129  35.673  1.00  0.00     0.135 A 
ATOM     86  F   UNL A   1      43.169  27.070  36.992  1.00  0.00    -0.206 F 
ATOM     87  C   UNL A   1      45.471  27.020  37.452  1.00  0.00     0.059 A 
ATOM     88  C   UNL A   1      46.957  28.576  36.326  1.00  0.00     0.059 A 
ATOM     89  F   UNL A   1      46.075  30.138  34.816  1.00  0.00    -0.206 F 
ATOM     90  C   UNL A   1      46.750  27.530  37.223  1.00  0.00     0.060 A 
BRANCH  90  91
ATOM     91  S   UNL A   1      48.146  26.780  38.091  1.00  0.00     0.124 S 
ATOM     92  O   UNL A   1      47.499  26.253  39.286  1.00  0.00    -0.237 OA
ATOM     93  O   UNL A   1      48.608  25.789  37.124  1.00  0.00    -0.237 OA
ATOM     94  O   UNL A   1      49.051  27.905  38.306  1.00  0.00    -0.744 OA
ENDBRANCH  90  91
ENDBRANCH  58  83
BRANCH  70  95
ATOM     95  C   UNL A   1      39.900  33.594  37.471  1.00  0.00     0.058 A 
ATOM     96  C   UNL A   1      40.578  34.804  37.685  1.00  0.00     0.135 A 
ATOM     97  C   UNL A   1      38.936  33.206  38.417  1.00  0.00     0.135 A 
ATOM     98  F   UNL A   1      41.514  35.217  36.817  1.00  0.00    -0.206 F 
ATOM     99  C   UNL A   1      40.319  35.593  38.801  1.00  0.00     0.059 A 
ATOM    100  C   UNL A   1      38.638  33.995  39.523  1.00  0.00     0.059 A 
ATOM    101  F   UNL A   1      38.253  32.062  38.255  1.00  0.00    -0.206 F 
ATOM    102  C   UNL A   1      39.343  35.183  39.712  1.00  0.00     0.060 A 
BRANCH 102 103
ATOM    103  S   UNL A   1      38.980  36.242  41.127  1.00  0.00     0.124 S 
ATOM    104  O   UNL A   1      40.251  36.223  41.843  1.00  0.00    -0.237 OA
ATOM    105  O   UNL A   1      38.632  37.508  40.489  1.00  0.00    -0.237 OA
ATOM    106  O   UNL A   1      37.876  35.558  41.792  1.00  0.00    -0.744 OA
ENDBRANCH 102 103
ENDBRANCH  70  95
ENDBRANCH  44  45
ENDBRANCH  36  39
ENDBRANCH  34  35
ENDBRANCH  33  34
ENDBRANCH   1  33
TORSDOF 17
ENDMDL
MODEL 3
REMARK VINA RESULT:     -13.2      6.019     11.766
REMARK SMILES CN1C(=O)C[C@@H](C(=O)NCCCCCCNC(=O)c2ccc(-c3c4nc(c(-c5c(F)cc(S(=O)(=O)[O-])cc5F)c5ccc([nH]5)c(-c5c(F)cc(S(=O)(=O)[O-])cc5F)c5nc(c(-c6c(F)cc(S(=O)(=O)[O-])cc6F)c6ccc3[nH]6)C=C5)C=C4)cc2)C12CCN(C(=O)c1cccc3ccccc13)CC2
REMARK SMILES IDX 13 1 12 2 11 3 10 4 9 5 7 6 8 7 6 9 1 10 2 11 3 12 85 13
REMARK SMILES IDX 4 14 5 15 86 16 102 17 87 18 101 19 88 20 89 21 90 22 91 23
REMARK SMILES IDX 92 24 100 25 93 26 95 27 99 28 94 29 96 30 98 31 97 32 14 33
REMARK SMILES IDX 15 34 16 35 17 36 18 38 19 39 20 40 84 41 21 42 83 43 22 44
REMARK SMILES IDX 23 45 24 46 77 47 25 48 82 49 76 50 78 51 26 52 81 53 75 54
REMARK SMILES IDX 74 55 27 57 61 58 40 59 60 60 41 61 44 62 59 63 79 64 42 65
REMARK SMILES IDX 43 66 58 68 80 69 45 70 28 71 29 72 38 73 30 74 31 75 37 76
REMARK SMILES IDX 39 77 32 78 33 79 34 80 35 81 36 82 62 83 63 84 72 85 64 86
REMARK SMILES IDX 65 87 71 88 73 89 66 90 67 91 68 92 69 93 70 94 46 95 47 96
REMARK SMILES IDX 56 97 48 98 49 99 55 100 57 101 50 102 51 103 52 104 53 105
REMARK SMILES IDX 54 106
REMARK H PARENT 9 8 16 37 78 56 44 67
REMARK Flexibility Score: inf
ROOT
ATOM      1  C   UNL A   1      34.491  32.645  28.295  1.00  0.00     0.002 C 
ENDROOT
BRANCH   1   2
ATOM      2  C   UNL A   1      34.058  31.239  27.889  1.00  0.00     0.002 C 
BRANCH   2   3
ATOM      3  C   UNL A   1      35.215  30.296  27.572  1.00  0.00     0.021 C 
BRANCH   3   4
ATOM      4  C   UNL A   1      34.797  28.909  27.070  1.00  0.00     0.116 C 
BRANCH   4   5
ATOM      5  N   UNL A   1      33.404  28.593  27.339  1.00  0.00    -0.356 N 
ATOM      6  C   UNL A   1      32.292  28.569  26.562  1.00  0.00     0.226 C 
ATOM      7  O   UNL A   1      31.247  28.213  27.122  1.00  0.00    -0.275 OA
ATOM      8  H   UNL A   1      33.232  28.345  28.277  1.00  0.00     0.163 HD
BRANCH   6   9
ATOM      9  C   UNL A   1      32.228  28.968  25.082  1.00  0.00     0.113 C 
ATOM     10  C   UNL A   1      29.103  28.054  23.232  1.00  0.00     0.147 C 
ATOM     11  N   UNL A   1      30.270  28.685  23.823  1.00  0.00    -0.339 N 
ATOM     12  C   UNL A   1      30.258  30.016  24.216  1.00  0.00     0.223 C 
ATOM     13  C   UNL A   1      31.547  28.001  24.081  1.00  0.00     0.058 C 
ATOM     14  O   UNL A   1      29.340  30.805  24.091  1.00  0.00    -0.275 OA
ATOM     15  C   UNL A   1      31.568  30.330  24.880  1.00  0.00     0.116 C 
ATOM     16  C   UNL A   1      31.395  26.571  24.623  1.00  0.00     0.051 C 
ATOM     17  C   UNL A   1      32.321  27.907  22.732  1.00  0.00     0.051 C 
ATOM     18  C   UNL A   1      32.732  25.848  24.770  1.00  0.00     0.122 C 
ATOM     19  C   UNL A   1      33.560  27.004  22.787  1.00  0.00     0.122 C 
ATOM     20  N   UNL A   1      33.280  25.724  23.441  1.00  0.00    -0.338 N 
ATOM     21  C   UNL A   1      33.394  24.534  22.730  1.00  0.00     0.254 C 
ATOM     22  O   UNL A   1      33.605  24.519  21.517  1.00  0.00    -0.269 OA
BRANCH  21  23
ATOM     23  C   UNL A   1      33.444  23.211  23.418  1.00  0.00     0.047 A 
ATOM     24  C   UNL A   1      32.170  22.742  23.789  1.00  0.00     0.014 A 
ATOM     25  C   UNL A   1      34.620  22.564  23.903  1.00  0.00    -0.006 A 
ATOM     26  C   UNL A   1      32.036  21.696  24.693  1.00  0.00     0.001 A 
ATOM     27  C   UNL A   1      34.455  21.528  24.863  1.00  0.00    -0.018 A 
ATOM     28  C   UNL A   1      35.949  22.851  23.511  1.00  0.00     0.009 A 
ATOM     29  C   UNL A   1      33.171  21.127  25.258  1.00  0.00     0.009 A 
ATOM     30  C   UNL A   1      35.574  20.894  25.431  1.00  0.00     0.009 A 
ATOM     31  C   UNL A   1      37.046  22.130  23.998  1.00  0.00     0.001 A 
ATOM     32  C   UNL A   1      36.861  21.174  24.984  1.00  0.00     0.001 A 
ENDBRANCH  21  23
ENDBRANCH   6   9
ENDBRANCH   4   5
ENDBRANCH   3   4
ENDBRANCH   2   3
ENDBRANCH   1   2
BRANCH   1  33
ATOM     33  C   UNL A   1      36.001  32.888  28.232  1.00  0.00     0.021 C 
BRANCH  33  34
ATOM     34  C   UNL A   1      36.662  33.130  29.585  1.00  0.00     0.116 C 
BRANCH  34  35
ATOM     35  N   UNL A   1      36.193  32.189  30.587  1.00  0.00    -0.352 N 
ATOM     36  C   UNL A   1      36.731  30.976  30.937  1.00  0.00     0.251 C 
ATOM     37  H   UNL A   1      35.384  32.456  31.080  1.00  0.00     0.163 HD
ATOM     38  O   UNL A   1      36.094  30.192  31.631  1.00  0.00    -0.269 OA
BRANCH  36  39
ATOM     39  C   UNL A   1      38.082  30.627  30.454  1.00  0.00     0.039 A 
ATOM     40  C   UNL A   1      39.138  30.574  31.365  1.00  0.00     0.014 A 
ATOM     41  C   UNL A   1      38.292  30.334  29.103  1.00  0.00     0.014 A 
ATOM     42  C   UNL A   1      40.403  30.179  30.926  1.00  0.00     0.010 A 
ATOM     43  C   UNL A   1      39.534  29.867  28.685  1.00  0.00     0.010 A 
ATOM     44  C   UNL A   1      40.604  29.796  29.589  1.00  0.00    -0.014 A 
BRANCH  44  45
ATOM     45  C   UNL A   1      41.931  29.332  29.109  1.00  0.00     0.031 A 
ATOM     46  C   UNL A   1      43.066  30.311  28.988  1.00  0.00     0.074 A 
ATOM     47  C   UNL A   1      42.093  28.051  28.722  1.00  0.00     0.049 A 
ATOM     48  N   UNL A   1      44.268  30.128  28.508  1.00  0.00    -0.248 NA
ATOM     49  C   UNL A   1      42.805  31.689  29.439  1.00  0.00     0.031 C 
ATOM     50  C   UNL A   1      41.055  27.018  28.755  1.00  0.00     0.029 A 
ATOM     51  N   UNL A   1      43.188  27.402  28.211  1.00  0.00    -0.354 N 
ATOM     52  C   UNL A   1      44.900  31.363  28.587  1.00  0.00     0.074 A 
ATOM     53  C   UNL A   1      43.931  32.303  29.106  1.00  0.00     0.031 C 
ATOM     54  C   UNL A   1      41.569  25.863  28.305  1.00  0.00     0.029 A 
ATOM     55  C   UNL A   1      42.956  26.081  27.907  1.00  0.00     0.049 A 
ATOM     56  H   UNL A   1      44.059  27.840  28.075  1.00  0.00     0.167 HD
ATOM     57  C   UNL A   1      46.180  31.680  28.276  1.00  0.00     0.037 A 
ATOM     58  C   UNL A   1      43.765  25.153  27.358  1.00  0.00     0.037 A 
ATOM     59  C   UNL A   1      47.143  30.733  27.781  1.00  0.00     0.049 A 
ATOM     60  C   UNL A   1      45.179  25.534  27.005  1.00  0.00     0.074 A 
ATOM     61  C   UNL A   1      48.479  30.940  27.486  1.00  0.00     0.029 A 
ATOM     62  N   UNL A   1      46.875  29.400  27.504  1.00  0.00    -0.354 N 
ATOM     63  N   UNL A   1      45.779  26.693  27.142  1.00  0.00    -0.248 NA
ATOM     64  C   UNL A   1      46.028  24.481  26.430  1.00  0.00     0.031 C 
ATOM     65  C   UNL A   1      49.004  29.747  26.980  1.00  0.00     0.029 A 
ATOM     66  C   UNL A   1      48.014  28.779  27.020  1.00  0.00     0.049 A 
ATOM     67  H   UNL A   1      46.003  28.960  27.633  1.00  0.00     0.167 HD
ATOM     68  C   UNL A   1      47.085  26.499  26.703  1.00  0.00     0.074 A 
ATOM     69  C   UNL A   1      47.188  25.111  26.303  1.00  0.00     0.031 C 
ATOM     70  C   UNL A   1      48.105  27.390  26.640  1.00  0.00     0.037 A 
BRANCH  57  71
ATOM     71  C   UNL A   1      46.613  33.109  28.464  1.00  0.00     0.058 A 
ATOM     72  C   UNL A   1      47.160  33.565  29.676  1.00  0.00     0.135 A 
ATOM     73  C   UNL A   1      46.516  34.029  27.407  1.00  0.00     0.135 A 
ATOM     74  F   UNL A   1      47.261  32.734  30.726  1.00  0.00    -0.206 F 
ATOM     75  C   UNL A   1      47.567  34.884  29.841  1.00  0.00     0.059 A 
ATOM     76  C   UNL A   1      46.948  35.346  27.540  1.00  0.00     0.059 A 
ATOM     77  F   UNL A   1      46.001  33.651  26.227  1.00  0.00    -0.206 F 
ATOM     78  C   UNL A   1      47.459  35.767  28.766  1.00  0.00     0.060 A 
BRANCH  78  79
ATOM     79  S   UNL A   1      48.000  37.473  28.997  1.00  0.00     0.124 S 
ATOM     80  O   UNL A   1      46.722  38.171  29.109  1.00  0.00    -0.237 OA
ATOM     81  O   UNL A   1      48.785  37.387  30.224  1.00  0.00    -0.237 OA
ATOM     82  O   UNL A   1      48.764  37.756  27.786  1.00  0.00    -0.744 OA
ENDBRANCH  78  79
ENDBRANCH  57  71
BRANCH  58  83
ATOM     83  C   UNL A   1      43.263  23.772  27.122  1.00  0.00     0.058 A 
ATOM     84  C   UNL A   1      42.899  23.345  25.836  1.00  0.00     0.135 A 
ATOM     85  C   UNL A   1      43.146  22.848  28.173  1.00  0.00     0.135 A 
ATOM     86  F   UNL A   1      42.988  24.191  24.799  1.00  0.00    -0.206 F 
ATOM     87  C   UNL A   1      42.417  22.061  25.602  1.00  0.00     0.059 A 
ATOM     88  C   UNL A   1      42.695  21.549  27.959  1.00  0.00     0.059 A 
ATOM     89  F   UNL A   1      43.498  23.200  29.419  1.00  0.00    -0.206 F 
ATOM     90  C   UNL A   1      42.322  21.169  26.672  1.00  0.00     0.060 A 
BRANCH  90  91
ATOM     91  S   UNL A   1      41.733  19.493  26.348  1.00  0.00     0.124 S 
ATOM     92  O   UNL A   1      42.170  18.791  27.549  1.00  0.00    -0.237 OA
ATOM     93  O   UNL A   1      40.294  19.695  26.214  1.00  0.00    -0.237 OA
ATOM     94  O   UNL A   1      42.424  19.126  25.115  1.00  0.00    -0.744 OA
ENDBRANCH  90  91
ENDBRANCH  58  83
BRANCH  70  95
ATOM     95  C   UNL A   1      49.443  26.888  26.170  1.00  0.00     0.058 A 
ATOM     96  C   UNL A   1      49.860  27.024  24.837  1.00  0.00     0.135 A 
ATOM     97  C   UNL A   1      50.349  26.327  27.086  1.00  0.00     0.135 A 
ATOM     98  F   UNL A   1      49.031  27.545  23.919  1.00  0.00    -0.206 F 
ATOM     99  C   UNL A   1      51.122  26.606  24.425  1.00  0.00     0.059 A 
ATOM    100  C   UNL A   1      51.626  25.933  26.704  1.00  0.00     0.059 A 
ATOM    101  F   UNL A   1      50.003  26.183  28.375  1.00  0.00    -0.206 F 
ATOM    102  C   UNL A   1      52.000  26.067  25.368  1.00  0.00     0.060 A 
BRANCH 102 103
ATOM    103  S   UNL A   1      53.653  25.579  24.830  1.00  0.00     0.124 S 
ATOM    104  O   UNL A   1      53.656  24.154  25.146  1.00  0.00    -0.237 OA
ATOM    105  O   UNL A   1      53.630  25.913  23.409  1.00  0.00    -0.237 OA
ATOM    106  O   UNL A   1      54.535  26.404  25.648  1.00  0.00    -0.744 OA
ENDBRANCH 102 103
ENDBRANCH  70  95
ENDBRANCH  44  45
ENDBRANCH  36  39
ENDBRANCH  34  35
ENDBRANCH  33  34
ENDBRANCH   1  33
TORSDOF 17
ENDMDL
