MODEL 1
REMARK VINA RESULT:     -12.2      0.000      0.000
REMARK SMILES Cc1cc2c(c(C)c1Cl)C=C(C(=O)NCCCCCCNC(=O)c1ccc(-c3c4nc(c(-c5c(F)cc(S(=O)(=O)[O-])cc5F)c5ccc([nH]5)c(-c5c(F)cc(S(=O)(=O)[O-])cc5F)c5nc(c(-c6c(F)cc(S(=O)(=O)[O-])cc6F)c6ccc3[nH]6)C=C5)C=C4)cc1)[C@H](C(F)(F)F)O2
REMARK SMILES IDX 18 1 17 2 16 3 15 4 14 5 12 6 13 7 11 9 1 10 2 11 3 12 8 13
REMARK SMILES IDX 4 14 6 15 9 16 5 17 95 18 7 19 10 20 90 21 91 22 92 23 93 24
REMARK SMILES IDX 94 25 19 26 20 27 21 28 22 29 23 31 24 32 25 33 89 34 26 35
REMARK SMILES IDX 88 36 27 37 28 38 29 39 82 40 30 41 87 42 81 43 83 44 31 45
REMARK SMILES IDX 86 46 80 47 79 48 32 50 66 51 45 52 65 53 46 54 49 55 64 56
REMARK SMILES IDX 84 57 47 58 48 59 63 61 85 62 50 63 33 64 34 65 43 66 35 67
REMARK SMILES IDX 36 68 42 69 44 70 37 71 38 72 39 73 40 74 41 75 67 76 68 77
REMARK SMILES IDX 77 78 69 79 70 80 76 81 78 82 71 83 72 84 73 85 74 86 75 87
REMARK SMILES IDX 51 88 52 89 61 90 53 91 54 92 60 93 62 94 55 95 56 96 57 97
REMARK SMILES IDX 58 98 59 99
REMARK H PARENT 14 8 21 30 83 49 49 60
REMARK Flexibility Score: inf
ROOT
ATOM      1  C   UNL A   1      38.204  23.895  26.433  1.00  0.00     0.002 C 
ENDROOT
BRANCH   1   2
ATOM      2  C   UNL A   1      37.077  23.569  25.446  1.00  0.00     0.002 C 
BRANCH   2   3
ATOM      3  C   UNL A   1      37.240  22.260  24.671  1.00  0.00     0.021 C 
BRANCH   3   4
ATOM      4  C   UNL A   1      35.987  21.388  24.627  1.00  0.00     0.116 C 
BRANCH   4   5
ATOM      5  N   UNL A   1      35.329  21.319  25.922  1.00  0.00    -0.352 N 
ATOM      6  C   UNL A   1      34.192  21.782  26.492  1.00  0.00     0.251 C 
ATOM      7  O   UNL A   1      34.022  21.438  27.668  1.00  0.00    -0.270 OA
ATOM      8  H   UNL A   1      35.858  20.789  26.562  1.00  0.00     0.163 HD
BRANCH   6   9
ATOM      9  C   UNL A   1      33.167  22.644  25.824  1.00  0.00     0.067 C 
ATOM     10  C   UNL A   1      29.387  27.405  23.483  1.00  0.00     0.046 C 
ATOM     11  C   UNL A   1      30.452  26.575  24.149  1.00  0.00    -0.028 A 
ATOM     12  C   UNL A   1      30.268  25.192  24.208  1.00  0.00     0.052 A 
ATOM     13  C   UNL A   1      31.641  27.126  24.669  1.00  0.00     0.047 A 
ATOM     14  C   UNL A   1      31.235  24.374  24.783  1.00  0.00     0.128 A 
ATOM     15  C   UNL A   1      32.623  26.305  25.279  1.00  0.00    -0.021 A 
ATOM     16  Cl  UNL A   1      31.879  28.843  24.540  1.00  0.00    -0.084 Cl
ATOM     17  C   UNL A   1      32.402  24.907  25.336  1.00  0.00     0.022 A 
ATOM     18  O   UNL A   1      30.934  23.044  24.797  1.00  0.00    -0.475 OA
ATOM     19  C   UNL A   1      33.893  26.880  25.863  1.00  0.00     0.047 C 
ATOM     20  C   UNL A   1      33.329  23.972  25.984  1.00  0.00     0.026 C 
ATOM     21  C   UNL A   1      32.040  22.126  24.983  1.00  0.00     0.314 C 
BRANCH  21  22
ATOM     22  C   UNL A   1      32.508  21.594  23.618  1.00  0.00     0.429 C 
ATOM     23  F   UNL A   1      32.978  20.327  23.686  1.00  0.00    -0.167 F 
ATOM     24  F   UNL A   1      31.519  21.592  22.694  1.00  0.00    -0.167 F 
ATOM     25  F   UNL A   1      33.500  22.371  23.118  1.00  0.00    -0.167 F 
ENDBRANCH  21  22
ENDBRANCH   6   9
ENDBRANCH   4   5
ENDBRANCH   3   4
ENDBRANCH   2   3
ENDBRANCH   1   2
BRANCH   1  26
ATOM     26  C   UNL A   1      39.210  22.768  26.690  1.00  0.00     0.021 C 
BRANCH  26  27
ATOM     27  C   UNL A   1      40.576  23.221  27.197  1.00  0.00     0.116 C 
BRANCH  27  28
ATOM     28  N   UNL A   1      41.357  23.867  26.156  1.00  0.00    -0.352 N 
ATOM     29  C   UNL A   1      41.762  25.175  26.057  1.00  0.00     0.251 C 
ATOM     30  H   UNL A   1      41.635  23.283  25.415  1.00  0.00     0.163 HD
ATOM     31  O   UNL A   1      42.241  25.588  25.007  1.00  0.00    -0.269 OA
BRANCH  29  32
ATOM     32  C   UNL A   1      41.610  26.084  27.213  1.00  0.00     0.039 A 
ATOM     33  C   UNL A   1      42.496  27.158  27.348  1.00  0.00     0.014 A 
ATOM     34  C   UNL A   1      40.618  25.863  28.174  1.00  0.00     0.014 A 
ATOM     35  C   UNL A   1      42.355  28.041  28.420  1.00  0.00     0.010 A 
ATOM     36  C   UNL A   1      40.447  26.773  29.214  1.00  0.00     0.010 A 
ATOM     37  C   UNL A   1      41.315  27.868  29.347  1.00  0.00    -0.014 A 
BRANCH  37  38
ATOM     38  C   UNL A   1      41.117  28.818  30.471  1.00  0.00     0.031 A 
ATOM     39  C   UNL A   1      41.991  28.729  31.691  1.00  0.00     0.074 A 
ATOM     40  C   UNL A   1      40.113  29.714  30.417  1.00  0.00     0.049 A 
ATOM     41  N   UNL A   1      41.905  29.386  32.818  1.00  0.00    -0.248 NA
ATOM     42  C   UNL A   1      43.098  27.760  31.642  1.00  0.00     0.031 C 
ATOM     43  C   UNL A   1      39.191  29.884  29.291  1.00  0.00     0.029 A 
ATOM     44  N   UNL A   1      39.693  30.644  31.333  1.00  0.00    -0.354 N 
ATOM     45  C   UNL A   1      42.937  28.907  33.616  1.00  0.00     0.074 A 
ATOM     46  C   UNL A   1      43.611  27.873  32.859  1.00  0.00     0.031 C 
ATOM     47  C   UNL A   1      38.324  30.868  29.579  1.00  0.00     0.029 A 
ATOM     48  C   UNL A   1      38.601  31.371  30.921  1.00  0.00     0.049 A 
ATOM     49  H   UNL A   1      40.132  30.778  32.204  1.00  0.00     0.167 HD
ATOM     50  C   UNL A   1      43.301  29.306  34.858  1.00  0.00     0.037 A 
ATOM     51  C   UNL A   1      37.898  32.327  31.557  1.00  0.00     0.037 A 
ATOM     52  C   UNL A   1      42.632  30.344  35.600  1.00  0.00     0.049 A 
ATOM     53  C   UNL A   1      38.309  32.740  32.943  1.00  0.00     0.074 A 
ATOM     54  C   UNL A   1      42.928  30.828  36.863  1.00  0.00     0.029 A 
ATOM     55  N   UNL A   1      41.539  31.065  35.144  1.00  0.00    -0.354 N 
ATOM     56  N   UNL A   1      39.288  32.276  33.683  1.00  0.00    -0.248 NA
ATOM     57  C   UNL A   1      37.525  33.808  33.579  1.00  0.00     0.031 C 
ATOM     58  C   UNL A   1      41.995  31.821  37.181  1.00  0.00     0.029 A 
ATOM     59  C   UNL A   1      41.146  31.987  36.100  1.00  0.00     0.049 A 
ATOM     60  H   UNL A   1      41.105  30.939  34.268  1.00  0.00     0.167 HD
ATOM     61  C   UNL A   1      39.256  33.016  34.861  1.00  0.00     0.074 A 
ATOM     62  C   UNL A   1      38.166  33.962  34.729  1.00  0.00     0.031 C 
ATOM     63  C   UNL A   1      40.061  32.924  35.949  1.00  0.00     0.037 A 
BRANCH  50  64
ATOM     64  C   UNL A   1      44.481  28.623  35.492  1.00  0.00     0.058 A 
ATOM     65  C   UNL A   1      45.788  29.107  35.319  1.00  0.00     0.135 A 
ATOM     66  C   UNL A   1      44.302  27.501  36.318  1.00  0.00     0.135 A 
ATOM     67  F   UNL A   1      46.017  30.164  34.524  1.00  0.00    -0.206 F 
ATOM     68  C   UNL A   1      46.877  28.492  35.926  1.00  0.00     0.059 A 
ATOM     69  C   UNL A   1      45.375  26.885  36.956  1.00  0.00     0.059 A 
ATOM     70  F   UNL A   1      43.075  26.995  36.514  1.00  0.00    -0.206 F 
ATOM     71  C   UNL A   1      46.661  27.383  36.746  1.00  0.00     0.060 A 
BRANCH  71  72
ATOM     72  S   UNL A   1      48.086  26.610  37.541  1.00  0.00     0.124 S 
ATOM     73  O   UNL A   1      48.953  27.762  37.771  1.00  0.00    -0.237 OA
ATOM     74  O   UNL A   1      47.491  26.017  38.735  1.00  0.00    -0.237 OA
ATOM     75  O   UNL A   1      48.559  25.658  36.542  1.00  0.00    -0.744 OA
ENDBRANCH  71  72
ENDBRANCH  50  64
BRANCH  51  76
ATOM     76  C   UNL A   1      36.751  32.979  30.873  1.00  0.00     0.058 A 
ATOM     77  C   UNL A   1      35.432  32.685  31.249  1.00  0.00     0.135 A 
ATOM     78  C   UNL A   1      36.946  33.926  29.857  1.00  0.00     0.135 A 
ATOM     79  F   UNL A   1      35.195  31.779  32.211  1.00  0.00    -0.206 F 
ATOM     80  C   UNL A   1      34.345  33.302  30.637  1.00  0.00     0.059 A 
ATOM     81  C   UNL A   1      35.876  34.574  29.246  1.00  0.00     0.059 A 
ATOM     82  F   UNL A   1      38.189  34.254  29.472  1.00  0.00    -0.206 F 
ATOM     83  C   UNL A   1      34.578  34.249  29.641  1.00  0.00     0.060 A 
BRANCH  83  84
ATOM     84  S   UNL A   1      33.162  35.093  28.901  1.00  0.00     0.124 S 
ATOM     85  O   UNL A   1      32.311  35.314  30.065  1.00  0.00    -0.237 OA
ATOM     86  O   UNL A   1      33.781  36.282  28.326  1.00  0.00    -0.237 OA
ATOM     87  O   UNL A   1      32.665  34.123  27.930  1.00  0.00    -0.744 OA
ENDBRANCH  83  84
ENDBRANCH  51  76
BRANCH  63  88
ATOM     88  C   UNL A   1      39.818  33.900  37.067  1.00  0.00     0.058 A 
ATOM     89  C   UNL A   1      39.035  33.566  38.183  1.00  0.00     0.135 A 
ATOM     90  C   UNL A   1      40.407  35.174  37.034  1.00  0.00     0.135 A 
ATOM     91  F   UNL A   1      38.446  32.362  38.259  1.00  0.00    -0.206 F 
ATOM     92  C   UNL A   1      38.818  34.474  39.213  1.00  0.00     0.059 A 
ATOM     93  C   UNL A   1      40.224  36.088  38.066  1.00  0.00     0.059 A 
ATOM     94  F   UNL A   1      41.175  35.538  35.996  1.00  0.00    -0.206 F 
ATOM     95  C   UNL A   1      39.414  35.734  39.145  1.00  0.00     0.060 A 
BRANCH  95  96
ATOM     96  S   UNL A   1      39.132  36.900  40.494  1.00  0.00     0.124 S 
ATOM     97  O   UNL A   1      38.512  38.018  39.790  1.00  0.00    -0.237 OA
ATOM     98  O   UNL A   1      38.255  36.145  41.383  1.00  0.00    -0.237 OA
ATOM     99  O   UNL A   1      40.474  37.152  41.012  1.00  0.00    -0.744 OA
ENDBRANCH  95  96
ENDBRANCH  63  88
ENDBRANCH  37  38
ENDBRANCH  29  32
ENDBRANCH  27  28
ENDBRANCH  26  27
ENDBRANCH   1  26
TORSDOF 17
ENDMDL
MODEL 2
REMARK VINA RESULT:     -12.2      4.790     10.278
REMARK SMILES Cc1cc2c(c(C)c1Cl)C=C(C(=O)NCCCCCCNC(=O)c1ccc(-c3c4nc(c(-c5c(F)cc(S(=O)(=O)[O-])cc5F)c5ccc([nH]5)c(-c5c(F)cc(S(=O)(=O)[O-])cc5F)c5nc(c(-c6c(F)cc(S(=O)(=O)[O-])cc6F)c6ccc3[nH]6)C=C5)C=C4)cc1)[C@H](C(F)(F)F)O2
REMARK SMILES IDX 18 1 17 2 16 3 15 4 14 5 12 6 13 7 11 9 1 10 2 11 3 12 8 13
REMARK SMILES IDX 4 14 6 15 9 16 5 17 95 18 7 19 10 20 90 21 91 22 92 23 93 24
REMARK SMILES IDX 94 25 19 26 20 27 21 28 22 29 23 31 24 32 25 33 89 34 26 35
REMARK SMILES IDX 88 36 27 37 28 38 29 39 82 40 30 41 87 42 81 43 83 44 31 45
REMARK SMILES IDX 86 46 80 47 79 48 32 50 66 51 45 52 65 53 46 54 49 55 64 56
REMARK SMILES IDX 84 57 47 58 48 59 63 61 85 62 50 63 33 64 34 65 43 66 35 67
REMARK SMILES IDX 36 68 42 69 44 70 37 71 38 72 39 73 40 74 41 75 67 76 68 77
REMARK SMILES IDX 77 78 69 79 70 80 76 81 78 82 71 83 72 84 73 85 74 86 75 87
REMARK SMILES IDX 51 88 52 89 61 90 53 91 54 92 60 93 62 94 55 95 56 96 57 97
REMARK SMILES IDX 58 98 59 99
REMARK H PARENT 14 8 21 30 83 49 49 60
REMARK Flexibility Score: inf
ROOT
ATOM      1  C   UNL A   1      31.647  27.461  26.613  1.00  0.00     0.002 C 
ENDROOT
BRANCH   1   2
ATOM      2  C   UNL A   1      30.620  26.456  26.080  1.00  0.00     0.002 C 
BRANCH   2   3
ATOM      3  C   UNL A   1      29.983  26.817  24.736  1.00  0.00     0.021 C 
BRANCH   3   4
ATOM      4  C   UNL A   1      30.383  25.904  23.579  1.00  0.00     0.116 C 
BRANCH   4   5
ATOM      5  N   UNL A   1      31.791  26.039  23.243  1.00  0.00    -0.352 N 
ATOM      6  C   UNL A   1      32.922  25.305  23.361  1.00  0.00     0.251 C 
ATOM      7  O   UNL A   1      33.937  25.832  22.891  1.00  0.00    -0.270 OA
ATOM      8  H   UNL A   1      31.972  26.905  22.811  1.00  0.00     0.163 HD
BRANCH   6   9
ATOM      9  C   UNL A   1      33.024  23.952  23.992  1.00  0.00     0.067 C 
ATOM     10  C   UNL A   1      32.833  17.650  25.631  1.00  0.00     0.046 C 
ATOM     11  C   UNL A   1      32.734  18.989  24.951  1.00  0.00    -0.028 A 
ATOM     12  C   UNL A   1      33.031  20.131  25.698  1.00  0.00     0.052 A 
ATOM     13  C   UNL A   1      32.401  19.135  23.589  1.00  0.00     0.047 A 
ATOM     14  C   UNL A   1      32.987  21.391  25.111  1.00  0.00     0.128 A 
ATOM     15  C   UNL A   1      32.328  20.416  22.985  1.00  0.00    -0.021 A 
ATOM     16  Cl  UNL A   1      32.084  17.700  22.659  1.00  0.00    -0.084 Cl
ATOM     17  C   UNL A   1      32.623  21.557  23.772  1.00  0.00     0.022 A 
ATOM     18  O   UNL A   1      33.281  22.428  25.945  1.00  0.00    -0.475 OA
ATOM     19  C   UNL A   1      31.950  20.595  21.533  1.00  0.00     0.047 C 
ATOM     20  C   UNL A   1      32.535  22.930  23.263  1.00  0.00     0.026 C 
ATOM     21  C   UNL A   1      33.660  23.682  25.322  1.00  0.00     0.314 C 
BRANCH  21  22
ATOM     22  C   UNL A   1      35.193  23.801  25.288  1.00  0.00     0.429 C 
ATOM     23  F   UNL A   1      35.720  23.391  24.112  1.00  0.00    -0.167 F 
ATOM     24  F   UNL A   1      35.620  25.070  25.484  1.00  0.00    -0.167 F 
ATOM     25  F   UNL A   1      35.752  23.052  26.270  1.00  0.00    -0.167 F 
ENDBRANCH  21  22
ENDBRANCH   6   9
ENDBRANCH   4   5
ENDBRANCH   3   4
ENDBRANCH   2   3
ENDBRANCH   1   2
BRANCH   1  26
ATOM     26  C   UNL A   1      33.114  27.022  26.529  1.00  0.00     0.021 C 
BRANCH  26  27
ATOM     27  C   UNL A   1      34.106  28.135  26.202  1.00  0.00     0.116 C 
BRANCH  27  28
ATOM     28  N   UNL A   1      33.707  29.407  26.778  1.00  0.00    -0.352 N 
ATOM     29  C   UNL A   1      34.371  30.200  27.682  1.00  0.00     0.251 C 
ATOM     30  H   UNL A   1      32.835  29.750  26.479  1.00  0.00     0.163 HD
ATOM     31  O   UNL A   1      33.790  31.140  28.211  1.00  0.00    -0.269 OA
BRANCH  29  32
ATOM     32  C   UNL A   1      35.780  29.911  28.020  1.00  0.00     0.039 A 
ATOM     33  C   UNL A   1      36.086  29.458  29.308  1.00  0.00     0.014 A 
ATOM     34  C   UNL A   1      36.799  30.112  27.084  1.00  0.00     0.014 A 
ATOM     35  C   UNL A   1      37.409  29.158  29.640  1.00  0.00     0.010 A 
ATOM     36  C   UNL A   1      38.110  29.765  27.401  1.00  0.00     0.010 A 
ATOM     37  C   UNL A   1      38.426  29.287  28.682  1.00  0.00    -0.014 A 
BRANCH  37  38
ATOM     38  C   UNL A   1      39.833  28.933  28.997  1.00  0.00     0.031 A 
ATOM     39  C   UNL A   1      40.744  29.958  29.613  1.00  0.00     0.074 A 
ATOM     40  C   UNL A   1      40.302  27.713  28.673  1.00  0.00     0.049 A 
ATOM     41  N   UNL A   1      42.027  29.883  29.856  1.00  0.00    -0.248 NA
ATOM     42  C   UNL A   1      40.134  31.245  29.987  1.00  0.00     0.031 C 
ATOM     43  C   UNL A   1      39.515  26.641  28.059  1.00  0.00     0.029 A 
ATOM     44  N   UNL A   1      41.555  27.172  28.803  1.00  0.00    -0.354 N 
ATOM     45  C   UNL A   1      42.381  31.110  30.404  1.00  0.00     0.074 A 
ATOM     46  C   UNL A   1      41.186  31.928  30.417  1.00  0.00     0.031 C 
ATOM     47  C   UNL A   1      40.301  25.567  27.879  1.00  0.00     0.029 A 
ATOM     48  C   UNL A   1      41.654  25.886  28.327  1.00  0.00     0.049 A 
ATOM     49  H   UNL A   1      42.313  27.659  29.200  1.00  0.00     0.167 HD
ATOM     50  C   UNL A   1      43.588  31.511  30.870  1.00  0.00     0.037 A 
ATOM     51  C   UNL A   1      42.716  25.061  28.252  1.00  0.00     0.037 A 
ATOM     52  C   UNL A   1      44.770  30.687  30.863  1.00  0.00     0.049 A 
ATOM     53  C   UNL A   1      44.050  25.536  28.757  1.00  0.00     0.074 A 
ATOM     54  C   UNL A   1      46.040  30.998  31.318  1.00  0.00     0.029 A 
ATOM     55  N   UNL A   1      44.826  29.387  30.384  1.00  0.00    -0.354 N 
ATOM     56  N   UNL A   1      44.368  26.700  29.272  1.00  0.00    -0.248 NA
ATOM     57  C   UNL A   1      45.167  24.586  28.678  1.00  0.00     0.031 C 
ATOM     58  C   UNL A   1      46.870  29.896  31.089  1.00  0.00     0.029 A 
ATOM     59  C   UNL A   1      46.107  28.882  30.531  1.00  0.00     0.049 A 
ATOM     60  H   UNL A   1      44.065  28.894  29.997  1.00  0.00     0.167 HD
ATOM     61  C   UNL A   1      45.715  26.612  29.605  1.00  0.00     0.074 A 
ATOM     62  C   UNL A   1      46.149  25.278  29.239  1.00  0.00     0.031 C 
ATOM     63  C   UNL A   1      46.519  27.549  30.166  1.00  0.00     0.037 A 
BRANCH  50  64
ATOM     64  C   UNL A   1      43.691  32.902  31.432  1.00  0.00     0.058 A 
ATOM     65  C   UNL A   1      43.998  34.002  30.615  1.00  0.00     0.135 A 
ATOM     66  C   UNL A   1      43.436  33.147  32.791  1.00  0.00     0.135 A 
ATOM     67  F   UNL A   1      44.270  33.821  29.312  1.00  0.00    -0.206 F 
ATOM     68  C   UNL A   1      44.067  35.292  31.129  1.00  0.00     0.059 A 
ATOM     69  C   UNL A   1      43.474  34.434  33.321  1.00  0.00     0.059 A 
ATOM     70  F   UNL A   1      43.142  32.132  33.618  1.00  0.00    -0.206 F 
ATOM     71  C   UNL A   1      43.801  35.500  32.482  1.00  0.00     0.060 A 
BRANCH  71  72
ATOM     72  S   UNL A   1      43.877  37.184  33.127  1.00  0.00     0.124 S 
ATOM     73  O   UNL A   1      42.691  37.225  33.977  1.00  0.00    -0.237 OA
ATOM     74  O   UNL A   1      45.158  37.192  33.826  1.00  0.00    -0.237 OA
ATOM     75  O   UNL A   1      43.816  38.012  31.927  1.00  0.00    -0.744 OA
ENDBRANCH  71  72
ENDBRANCH  50  64
BRANCH  51  76
ATOM     76  C   UNL A   1      42.550  23.691  27.701  1.00  0.00     0.058 A 
ATOM     77  C   UNL A   1      42.648  23.456  26.321  1.00  0.00     0.135 A 
ATOM     78  C   UNL A   1      42.321  22.588  28.537  1.00  0.00     0.135 A 
ATOM     79  F   UNL A   1      42.858  24.482  25.481  1.00  0.00    -0.206 F 
ATOM     80  C   UNL A   1      42.520  22.178  25.788  1.00  0.00     0.059 A 
ATOM     81  C   UNL A   1      42.212  21.297  28.030  1.00  0.00     0.059 A 
ATOM     82  F   UNL A   1      42.234  22.757  29.866  1.00  0.00    -0.206 F 
ATOM     83  C   UNL A   1      42.307  21.104  26.652  1.00  0.00     0.060 A 
BRANCH  83  84
ATOM     84  S   UNL A   1      42.209  19.440  25.954  1.00  0.00     0.124 S 
ATOM     85  O   UNL A   1      43.052  19.567  24.772  1.00  0.00    -0.237 OA
ATOM     86  O   UNL A   1      42.745  18.623  27.038  1.00  0.00    -0.237 OA
ATOM     87  O   UNL A   1      40.782  19.268  25.698  1.00  0.00    -0.744 OA
ENDBRANCH  83  84
ENDBRANCH  51  76
BRANCH  63  88
ATOM     88  C   UNL A   1      47.938  27.150  30.459  1.00  0.00     0.058 A 
ATOM     89  C   UNL A   1      48.997  27.500  29.606  1.00  0.00     0.135 A 
ATOM     90  C   UNL A   1      48.245  26.437  31.629  1.00  0.00     0.135 A 
ATOM     91  F   UNL A   1      48.755  28.178  28.473  1.00  0.00    -0.206 F 
ATOM     92  C   UNL A   1      50.307  27.128  29.887  1.00  0.00     0.059 A 
ATOM     93  C   UNL A   1      49.553  26.077  31.942  1.00  0.00     0.059 A 
ATOM     94  F   UNL A   1      47.272  26.088  32.484  1.00  0.00    -0.206 F 
ATOM     95  C   UNL A   1      50.575  26.415  31.056  1.00  0.00     0.060 A 
BRANCH  95  96
ATOM     96  S   UNL A   1      52.281  25.947  31.413  1.00  0.00     0.124 S 
ATOM     97  O   UNL A   1      52.108  24.612  31.976  1.00  0.00    -0.237 OA
ATOM     98  O   UNL A   1      52.904  26.003  30.095  1.00  0.00    -0.237 OA
ATOM     99  O   UNL A   1      52.725  26.971  32.354  1.00  0.00    -0.744 OA
ENDBRANCH  95  96
ENDBRANCH  63  88
ENDBRANCH  37  38
ENDBRANCH  29  32
ENDBRANCH  27  28
ENDBRANCH  26  27
ENDBRANCH   1  26
TORSDOF 17
ENDMDL
MODEL 3
REMARK VINA RESULT:     -12.1      6.422     13.188
REMARK SMILES Cc1cc2c(c(C)c1Cl)C=C(C(=O)NCCCCCCNC(=O)c1ccc(-c3c4nc(c(-c5c(F)cc(S(=O)(=O)[O-])cc5F)c5ccc([nH]5)c(-c5c(F)cc(S(=O)(=O)[O-])cc5F)c5nc(c(-c6c(F)cc(S(=O)(=O)[O-])cc6F)c6ccc3[nH]6)C=C5)C=C4)cc1)[C@H](C(F)(F)F)O2
REMARK SMILES IDX 18 1 17 2 16 3 15 4 14 5 12 6 13 7 11 9 1 10 2 11 3 12 8 13
REMARK SMILES IDX 4 14 6 15 9 16 5 17 95 18 7 19 10 20 90 21 91 22 92 23 93 24
REMARK SMILES IDX 94 25 19 26 20 27 21 28 22 29 23 31 24 32 25 33 89 34 26 35
REMARK SMILES IDX 88 36 27 37 28 38 29 39 82 40 30 41 87 42 81 43 83 44 31 45
REMARK SMILES IDX 86 46 80 47 79 48 32 50 66 51 45 52 65 53 46 54 49 55 64 56
REMARK SMILES IDX 84 57 47 58 48 59 63 61 85 62 50 63 33 64 34 65 43 66 35 67
REMARK SMILES IDX 36 68 42 69 44 70 37 71 38 72 39 73 40 74 41 75 67 76 68 77
REMARK SMILES IDX 77 78 69 79 70 80 76 81 78 82 71 83 72 84 73 85 74 86 75 87
REMARK SMILES IDX 51 88 52 89 61 90 53 91 54 92 60 93 62 94 55 95 56 96 57 97
REMARK SMILES IDX 58 98 59 99
REMARK H PARENT 14 8 21 30 83 49 49 60
REMARK Flexibility Score: inf
ROOT
ATOM      1  C   UNL A   1      33.237  30.272  26.276  1.00  0.00     0.002 C 
ENDROOT
BRANCH   1   2
ATOM      2  C   UNL A   1      31.904  30.791  26.828  1.00  0.00     0.002 C 
BRANCH   2   3
ATOM      3  C   UNL A   1      31.780  32.313  26.924  1.00  0.00     0.021 C 
BRANCH   3   4
ATOM      4  C   UNL A   1      33.021  33.017  27.469  1.00  0.00     0.116 C 
BRANCH   4   5
ATOM      5  N   UNL A   1      32.706  34.329  28.010  1.00  0.00    -0.352 N 
ATOM      6  C   UNL A   1      33.029  35.066  29.099  1.00  0.00     0.251 C 
ATOM      7  O   UNL A   1      32.520  36.192  29.135  1.00  0.00    -0.270 OA
ATOM      8  H   UNL A   1      32.085  34.817  27.422  1.00  0.00     0.163 HD
BRANCH   6   9
ATOM      9  C   UNL A   1      33.925  34.630  30.216  1.00  0.00     0.067 C 
ATOM     10  C   UNL A   1      38.689  32.446  34.085  1.00  0.00     0.046 C 
ATOM     11  C   UNL A   1      37.828  32.898  32.936  1.00  0.00    -0.028 A 
ATOM     12  C   UNL A   1      36.481  33.169  33.188  1.00  0.00     0.052 A 
ATOM     13  C   UNL A   1      38.330  33.104  31.635  1.00  0.00     0.047 A 
ATOM     14  C   UNL A   1      35.648  33.621  32.171  1.00  0.00     0.128 A 
ATOM     15  C   UNL A   1      37.486  33.540  30.584  1.00  0.00    -0.021 A 
ATOM     16  Cl  UNL A   1      40.021  32.813  31.348  1.00  0.00    -0.084 Cl
ATOM     17  C   UNL A   1      36.121  33.795  30.868  1.00  0.00     0.022 A 
ATOM     18  O   UNL A   1      34.352  33.835  32.536  1.00  0.00    -0.475 OA
ATOM     19  C   UNL A   1      38.001  33.744  29.177  1.00  0.00     0.047 C 
ATOM     20  C   UNL A   1      35.150  34.206  29.848  1.00  0.00     0.026 C 
ATOM     21  C   UNL A   1      33.559  34.682  31.668  1.00  0.00     0.314 C 
BRANCH  21  22
ATOM     22  C   UNL A   1      33.531  36.115  32.227  1.00  0.00     0.429 C 
ATOM     23  F   UNL A   1      32.281  36.631  32.272  1.00  0.00    -0.167 F 
ATOM     24  F   UNL A   1      34.028  36.193  33.483  1.00  0.00    -0.167 F 
ATOM     25  F   UNL A   1      34.285  36.941  31.461  1.00  0.00    -0.167 F 
ENDBRANCH  21  22
ENDBRANCH   6   9
ENDBRANCH   4   5
ENDBRANCH   3   4
ENDBRANCH   2   3
ENDBRANCH   1   2
BRANCH   1  26
ATOM     26  C   UNL A   1      34.114  29.501  27.269  1.00  0.00     0.021 C 
BRANCH  26  27
ATOM     27  C   UNL A   1      35.338  30.259  27.777  1.00  0.00     0.116 C 
BRANCH  27  28
ATOM     28  N   UNL A   1      35.267  30.510  29.206  1.00  0.00    -0.352 N 
ATOM     29  C   UNL A   1      36.182  30.216  30.187  1.00  0.00     0.251 C 
ATOM     30  H   UNL A   1      34.446  30.954  29.516  1.00  0.00     0.163 HD
ATOM     31  O   UNL A   1      35.865  30.317  31.367  1.00  0.00    -0.269 OA
BRANCH  29  32
ATOM     32  C   UNL A   1      37.542  29.769  29.818  1.00  0.00     0.039 A 
ATOM     33  C   UNL A   1      37.925  29.813  28.474  1.00  0.00     0.014 A 
ATOM     34  C   UNL A   1      38.424  29.281  30.787  1.00  0.00     0.014 A 
ATOM     35  C   UNL A   1      39.213  29.416  28.108  1.00  0.00     0.010 A 
ATOM     36  C   UNL A   1      39.724  28.933  30.427  1.00  0.00     0.010 A 
ATOM     37  C   UNL A   1      40.129  28.996  29.085  1.00  0.00    -0.014 A 
BRANCH  37  38
ATOM     38  C   UNL A   1      41.517  28.611  28.728  1.00  0.00     0.031 A 
ATOM     39  C   UNL A   1      42.603  29.651  28.708  1.00  0.00     0.074 A 
ATOM     40  C   UNL A   1      41.783  27.342  28.363  1.00  0.00     0.049 A 
ATOM     41  N   UNL A   1      43.845  29.540  28.316  1.00  0.00    -0.248 NA
ATOM     42  C   UNL A   1      42.236  30.997  29.177  1.00  0.00     0.031 C 
ATOM     43  C   UNL A   1      40.808  26.250  28.329  1.00  0.00     0.029 A 
ATOM     44  N   UNL A   1      42.950  26.758  27.939  1.00  0.00    -0.354 N 
ATOM     45  C   UNL A   1      44.409  30.800  28.481  1.00  0.00     0.074 A 
ATOM     46  C   UNL A   1      43.360  31.671  28.969  1.00  0.00     0.031 C 
ATOM     47  C   UNL A   1      41.421  25.126  27.922  1.00  0.00     0.029 A 
ATOM     48  C   UNL A   1      42.819  25.426  27.627  1.00  0.00     0.049 A 
ATOM     49  H   UNL A   1      43.801  27.248  27.866  1.00  0.00     0.167 HD
ATOM     50  C   UNL A   1      45.687  31.190  28.262  1.00  0.00     0.037 A 
ATOM     51  C   UNL A   1      43.721  24.548  27.149  1.00  0.00     0.037 A 
ATOM     52  C   UNL A   1      46.727  30.314  27.787  1.00  0.00     0.049 A 
ATOM     53  C   UNL A   1      45.130  25.009  26.896  1.00  0.00     0.074 A 
ATOM     54  C   UNL A   1      48.057  30.610  27.540  1.00  0.00     0.029 A 
ATOM     55  N   UNL A   1      46.558  28.969  27.494  1.00  0.00    -0.354 N 
ATOM     56  N   UNL A   1      45.646  26.205  27.057  1.00  0.00    -0.248 NA
ATOM     57  C   UNL A   1      46.080  24.003  26.403  1.00  0.00     0.031 C 
ATOM     58  C   UNL A   1      48.684  29.451  27.071  1.00  0.00     0.029 A 
ATOM     59  C   UNL A   1      47.757  28.422  27.067  1.00  0.00     0.049 A 
ATOM     60  H   UNL A   1      45.709  28.475  27.578  1.00  0.00     0.167 HD
ATOM     61  C   UNL A   1      46.988  26.088  26.712  1.00  0.00     0.074 A 
ATOM     62  C   UNL A   1      47.204  24.704  26.342  1.00  0.00     0.031 C 
ATOM     63  C   UNL A   1      47.955  27.040  26.708  1.00  0.00     0.037 A 
BRANCH  50  64
ATOM     64  C   UNL A   1      46.035  32.626  28.541  1.00  0.00     0.058 A 
ATOM     65  C   UNL A   1      45.931  33.611  27.546  1.00  0.00     0.135 A 
ATOM     66  C   UNL A   1      46.433  33.032  29.826  1.00  0.00     0.135 A 
ATOM     67  F   UNL A   1      45.575  33.274  26.296  1.00  0.00    -0.206 F 
ATOM     68  C   UNL A   1      46.227  34.944  27.810  1.00  0.00     0.059 A 
ATOM     69  C   UNL A   1      46.708  34.365  30.118  1.00  0.00     0.059 A 
ATOM     70  F   UNL A   1      46.552  32.131  30.813  1.00  0.00    -0.206 F 
ATOM     71  C   UNL A   1      46.612  35.313  29.099  1.00  0.00     0.060 A 
BRANCH  71  72
ATOM     72  S   UNL A   1      46.973  37.051  29.427  1.00  0.00     0.124 S 
ATOM     73  O   UNL A   1      48.367  37.144  29.003  1.00  0.00    -0.237 OA
ATOM     74  O   UNL A   1      46.005  37.735  28.576  1.00  0.00    -0.237 OA
ATOM     75  O   UNL A   1      46.745  37.182  30.862  1.00  0.00    -0.744 OA
ENDBRANCH  71  72
ENDBRANCH  50  64
BRANCH  51  76
ATOM     76  C   UNL A   1      43.323  23.137  26.908  1.00  0.00     0.058 A 
ATOM     77  C   UNL A   1      43.193  22.642  25.602  1.00  0.00     0.135 A 
ATOM     78  C   UNL A   1      43.095  22.248  27.970  1.00  0.00     0.135 A 
ATOM     79  F   UNL A   1      43.394  23.456  24.555  1.00  0.00    -0.206 F 
ATOM     80  C   UNL A   1      42.845  21.318  25.356  1.00  0.00     0.059 A 
ATOM     81  C   UNL A   1      42.768  20.914  27.749  1.00  0.00     0.059 A 
ATOM     82  F   UNL A   1      43.222  22.669  29.239  1.00  0.00    -0.206 F 
ATOM     83  C   UNL A   1      42.640  20.460  26.437  1.00  0.00     0.060 A 
BRANCH  83  84
ATOM     84  S   UNL A   1      42.254  18.727  26.104  1.00  0.00     0.124 S 
ATOM     85  O   UNL A   1      40.846  18.806  25.731  1.00  0.00    -0.237 OA
ATOM     86  O   UNL A   1      43.185  18.408  25.026  1.00  0.00    -0.237 OA
ATOM     87  O   UNL A   1      42.534  18.071  27.377  1.00  0.00    -0.744 OA
ENDBRANCH  83  84
ENDBRANCH  51  76
BRANCH  63  88
ATOM     88  C   UNL A   1      49.343  26.606  26.331  1.00  0.00     0.058 A 
ATOM     89  C   UNL A   1      49.837  26.758  25.025  1.00  0.00     0.135 A 
ATOM     90  C   UNL A   1      50.203  26.063  27.299  1.00  0.00     0.135 A 
ATOM     91  F   UNL A   1      49.053  27.267  24.062  1.00  0.00    -0.206 F 
ATOM     92  C   UNL A   1      51.124  26.356  24.686  1.00  0.00     0.059 A 
ATOM     93  C   UNL A   1      51.503  25.678  26.987  1.00  0.00     0.059 A 
ATOM     94  F   UNL A   1      49.784  25.908  28.565  1.00  0.00    -0.206 F 
ATOM     95  C   UNL A   1      51.949  25.815  25.673  1.00  0.00     0.060 A 
BRANCH  95  96
ATOM     96  S   UNL A   1      53.621  25.306  25.222  1.00  0.00     0.124 S 
ATOM     97  O   UNL A   1      53.531  23.855  25.348  1.00  0.00    -0.237 OA
ATOM     98  O   UNL A   1      53.748  25.818  23.861  1.00  0.00    -0.237 OA
ATOM     99  O   UNL A   1      54.459  25.971  26.215  1.00  0.00    -0.744 OA
ENDBRANCH  95  96
ENDBRANCH  63  88
ENDBRANCH  37  38
ENDBRANCH  29  32
ENDBRANCH  27  28
ENDBRANCH  26  27
ENDBRANCH   1  26
TORSDOF 17
ENDMDL
