MODEL 1
REMARK VINA RESULT:     -11.3      0.000      0.000
REMARK SMILES COc1ccc(OCc2cccs2)c(C(=O)NCCCCCCNC(=O)c2ccc(-c3c4nc(c(-c5c(F)cc(S(=O)(=O)[O-])cc5F)c5ccc([nH]5)c(-c5c(F)cc(S(=O)(=O)[O-])cc5F)c5nc(c(-c6c(F)cc(S(=O)(=O)[O-])cc6F)c6ccc3[nH]6)C=C5)C=C4)cc2)c1
REMARK SMILES IDX 20 1 19 2 18 3 17 4 15 5 16 6 14 8 3 9 4 10 93 11 5 12 6 13
REMARK SMILES IDX 2 14 1 15 7 16 8 17 9 18 10 19 13 20 11 21 12 22 21 23 22 24
REMARK SMILES IDX 23 25 24 26 25 27 26 29 27 30 28 31 92 32 29 33 91 34 30 35
REMARK SMILES IDX 31 36 32 37 85 38 33 39 90 40 84 41 86 42 34 43 89 44 83 45
REMARK SMILES IDX 82 46 35 48 69 49 48 50 68 51 49 52 52 53 67 54 87 55 50 56
REMARK SMILES IDX 51 57 66 59 88 60 53 61 36 62 37 63 46 64 38 65 39 66 45 67
REMARK SMILES IDX 47 68 40 69 41 70 42 71 43 72 44 73 70 74 71 75 80 76 72 77
REMARK SMILES IDX 73 78 79 79 81 80 74 81 75 82 76 83 77 84 78 85 54 86 55 87
REMARK SMILES IDX 64 88 56 89 57 90 63 91 65 92 58 93 59 94 60 95 61 96 62 97
REMARK H PARENT 17 7 24 28 86 47 52 58
REMARK Flexibility Score: inf
ROOT
ATOM      1  C   UNL A   1      35.369  21.942  25.988  1.00  0.00     0.002 C 
ENDROOT
BRANCH   1   2
ATOM      2  C   UNL A   1      34.347  21.470  27.021  1.00  0.00     0.021 C 
BRANCH   2   3
ATOM      3  C   UNL A   1      33.575  22.574  27.728  1.00  0.00     0.116 C 
BRANCH   3   4
ATOM      4  N   UNL A   1      32.145  22.369  27.636  1.00  0.00    -0.352 N 
ATOM      5  C   UNL A   1      31.194  23.115  26.986  1.00  0.00     0.255 C 
ATOM      6  O   UNL A   1      30.165  23.329  27.625  1.00  0.00    -0.269 OA
ATOM      7  H   UNL A   1      31.805  21.576  28.110  1.00  0.00     0.163 HD
BRANCH   5   8
ATOM      8  C   UNL A   1      31.355  23.667  25.604  1.00  0.00     0.085 A 
ATOM      9  C   UNL A   1      31.011  25.541  24.061  1.00  0.00     0.119 A 
ATOM     10  C   UNL A   1      30.966  24.651  23.001  1.00  0.00     0.050 A 
ATOM     11  C   UNL A   1      31.240  25.043  25.342  1.00  0.00     0.064 A 
ATOM     12  C   UNL A   1      31.312  23.319  23.214  1.00  0.00     0.051 A 
ATOM     13  C   UNL A   1      31.601  22.835  24.502  1.00  0.00     0.132 A 
BRANCH   9  14
ATOM     14  O   UNL A   1      30.801  26.853  23.744  1.00  0.00    -0.497 OA
ATOM     15  C   UNL A   1      30.824  27.199  22.361  1.00  0.00     0.278 C 
ENDBRANCH   9  14
BRANCH  13  16
ATOM     16  O   UNL A   1      32.229  21.624  24.437  1.00  0.00    -0.487 OA
BRANCH  16  17
ATOM     17  C   UNL A   1      32.313  20.782  23.282  1.00  0.00     0.276 C 
BRANCH  17  18
ATOM     18  C   UNL A   1      32.794  19.357  23.476  1.00  0.00     0.042 A 
ATOM     19  C   UNL A   1      33.715  18.955  24.437  1.00  0.00     0.019 A 
ATOM     20  S   UNL A   1      32.406  18.028  22.468  1.00  0.00    -0.145 S 
ATOM     21  C   UNL A   1      34.182  17.622  24.249  1.00  0.00     0.012 A 
ATOM     22  C   UNL A   1      33.581  17.020  23.171  1.00  0.00     0.065 A 
ENDBRANCH  17  18
ENDBRANCH  16  17
ENDBRANCH  13  16
ENDBRANCH   5   8
ENDBRANCH   3   4
ENDBRANCH   2   3
ENDBRANCH   1   2
BRANCH   1  23
ATOM     23  C   UNL A   1      36.085  23.253  26.319  1.00  0.00     0.002 C 
BRANCH  23  24
ATOM     24  C   UNL A   1      37.465  23.433  25.683  1.00  0.00     0.021 C 
BRANCH  24  25
ATOM     25  C   UNL A   1      38.412  24.353  26.441  1.00  0.00     0.116 C 
BRANCH  25  26
ATOM     26  N   UNL A   1      39.800  24.129  26.087  1.00  0.00    -0.352 N 
ATOM     27  C   UNL A   1      40.915  24.801  26.521  1.00  0.00     0.251 C 
ATOM     28  H   UNL A   1      39.965  23.396  25.450  1.00  0.00     0.163 HD
ATOM     29  O   UNL A   1      41.999  24.604  25.986  1.00  0.00    -0.269 OA
BRANCH  27  30
ATOM     30  C   UNL A   1      40.788  25.779  27.624  1.00  0.00     0.039 A 
ATOM     31  C   UNL A   1      41.690  26.842  27.686  1.00  0.00     0.014 A 
ATOM     32  C   UNL A   1      39.787  25.646  28.590  1.00  0.00     0.014 A 
ATOM     33  C   UNL A   1      41.567  27.793  28.701  1.00  0.00     0.010 A 
ATOM     34  C   UNL A   1      39.615  26.637  29.552  1.00  0.00     0.010 A 
ATOM     35  C   UNL A   1      40.516  27.710  29.629  1.00  0.00    -0.014 A 
BRANCH  35  36
ATOM     36  C   UNL A   1      40.373  28.708  30.720  1.00  0.00     0.031 A 
ATOM     37  C   UNL A   1      41.243  28.602  31.946  1.00  0.00     0.074 A 
ATOM     38  C   UNL A   1      39.445  29.682  30.626  1.00  0.00     0.049 A 
ATOM     39  N   UNL A   1      41.226  29.325  33.036  1.00  0.00    -0.248 NA
ATOM     40  C   UNL A   1      42.249  27.526  31.959  1.00  0.00     0.031 C 
ATOM     41  C   UNL A   1      38.521  29.867  29.503  1.00  0.00     0.029 A 
ATOM     42  N   UNL A   1      39.121  30.697  31.490  1.00  0.00    -0.354 N 
ATOM     43  C   UNL A   1      42.211  28.791  33.860  1.00  0.00     0.074 A 
ATOM     44  C   UNL A   1      42.761  27.643  33.175  1.00  0.00     0.031 C 
ATOM     45  C   UNL A   1      37.751  30.941  29.738  1.00  0.00     0.029 A 
ATOM     46  C   UNL A   1      38.094  31.499  31.043  1.00  0.00     0.049 A 
ATOM     47  H   UNL A   1      39.578  30.839  32.349  1.00  0.00     0.167 HD
ATOM     48  C   UNL A   1      42.643  29.238  35.062  1.00  0.00     0.037 A 
ATOM     49  C   UNL A   1      37.495  32.555  31.625  1.00  0.00     0.037 A 
ATOM     50  C   UNL A   1      42.111  30.398  35.726  1.00  0.00     0.049 A 
ATOM     51  C   UNL A   1      37.981  33.015  32.977  1.00  0.00     0.074 A 
ATOM     52  C   UNL A   1      42.495  30.948  36.938  1.00  0.00     0.029 A 
ATOM     53  N   UNL A   1      41.088  31.194  35.232  1.00  0.00    -0.354 N 
ATOM     54  N   UNL A   1      38.940  32.521  33.722  1.00  0.00    -0.248 NA
ATOM     55  C   UNL A   1      37.308  34.184  33.563  1.00  0.00     0.031 C 
ATOM     56  C   UNL A   1      41.679  32.053  37.193  1.00  0.00     0.029 A 
ATOM     57  C   UNL A   1      40.824  32.226  36.116  1.00  0.00     0.049 A 
ATOM     58  H   UNL A   1      40.620  31.047  34.378  1.00  0.00     0.167 HD
ATOM     59  C   UNL A   1      39.017  33.345  34.840  1.00  0.00     0.074 A 
ATOM     60  C   UNL A   1      38.012  34.373  34.669  1.00  0.00     0.031 C 
ATOM     61  C   UNL A   1      39.842  33.260  35.912  1.00  0.00     0.037 A 
BRANCH  48  62
ATOM     62  C   UNL A   1      43.766  28.490  35.729  1.00  0.00     0.058 A 
ATOM     63  C   UNL A   1      43.514  27.424  36.605  1.00  0.00     0.135 A 
ATOM     64  C   UNL A   1      45.105  28.794  35.434  1.00  0.00     0.135 A 
ATOM     65  F   UNL A   1      42.254  27.103  36.938  1.00  0.00    -0.206 F 
ATOM     66  C   UNL A   1      44.550  26.691  37.175  1.00  0.00     0.059 A 
ATOM     67  C   UNL A   1      46.157  28.055  35.970  1.00  0.00     0.059 A 
ATOM     68  F   UNL A   1      45.403  29.808  34.606  1.00  0.00    -0.206 F 
ATOM     69  C   UNL A   1      45.868  27.008  36.845  1.00  0.00     0.060 A 
BRANCH  69  70
ATOM     70  S   UNL A   1      47.195  26.015  37.559  1.00  0.00     0.124 S 
ATOM     71  O   UNL A   1      48.050  27.047  38.140  1.00  0.00    -0.237 OA
ATOM     72  O   UNL A   1      46.477  25.178  38.512  1.00  0.00    -0.237 OA
ATOM     73  O   UNL A   1      47.754  25.313  36.407  1.00  0.00    -0.744 OA
ENDBRANCH  69  70
ENDBRANCH  48  62
BRANCH  49  74
ATOM     74  C   UNL A   1      36.375  33.263  30.945  1.00  0.00     0.058 A 
ATOM     75  C   UNL A   1      36.601  34.061  29.814  1.00  0.00     0.135 A 
ATOM     76  C   UNL A   1      35.063  33.194  31.440  1.00  0.00     0.135 A 
ATOM     77  F   UNL A   1      37.838  34.161  29.301  1.00  0.00    -0.206 F 
ATOM     78  C   UNL A   1      35.582  34.804  29.226  1.00  0.00     0.059 A 
ATOM     79  C   UNL A   1      34.020  33.900  30.850  1.00  0.00     0.059 A 
ATOM     80  F   UNL A   1      34.784  32.427  32.506  1.00  0.00    -0.206 F 
ATOM     81  C   UNL A   1      34.295  34.723  29.758  1.00  0.00     0.060 A 
BRANCH  81  82
ATOM     82  S   UNL A   1      32.979  35.699  28.999  1.00  0.00     0.124 S 
ATOM     83  O   UNL A   1      32.421  34.746  28.047  1.00  0.00    -0.237 OA
ATOM     84  O   UNL A   1      32.138  36.026  30.146  1.00  0.00    -0.237 OA
ATOM     85  O   UNL A   1      33.696  36.829  28.415  1.00  0.00    -0.744 OA
ENDBRANCH  81  82
ENDBRANCH  49  74
BRANCH  61  86
ATOM     86  C   UNL A   1      39.749  34.346  36.949  1.00  0.00     0.058 A 
ATOM     87  C   UNL A   1      38.956  34.212  38.098  1.00  0.00     0.135 A 
ATOM     88  C   UNL A   1      40.510  35.519  36.811  1.00  0.00     0.135 A 
ATOM     89  F   UNL A   1      38.207  33.113  38.278  1.00  0.00    -0.206 F 
ATOM     90  C   UNL A   1      38.895  35.216  39.060  1.00  0.00     0.059 A 
ATOM     91  C   UNL A   1      40.490  36.522  37.775  1.00  0.00     0.059 A 
ATOM     92  F   UNL A   1      41.296  35.693  35.737  1.00  0.00    -0.206 F 
ATOM     93  C   UNL A   1      39.668  36.366  38.889  1.00  0.00     0.060 A 
BRANCH  93  94
ATOM     94  S   UNL A   1      39.601  37.648  40.159  1.00  0.00     0.124 S 
ATOM     95  O   UNL A   1      39.066  36.907  41.296  1.00  0.00    -0.237 OA
ATOM     96  O   UNL A   1      40.999  38.054  40.266  1.00  0.00    -0.237 OA
ATOM     97  O   UNL A   1      38.706  38.649  39.585  1.00  0.00    -0.744 OA
ENDBRANCH  93  94
ENDBRANCH  61  86
ENDBRANCH  35  36
ENDBRANCH  27  30
ENDBRANCH  25  26
ENDBRANCH  24  25
ENDBRANCH  23  24
ENDBRANCH   1  23
TORSDOF 20
ENDMDL
MODEL 2
REMARK VINA RESULT:     -11.3      3.434      4.735
REMARK SMILES COc1ccc(OCc2cccs2)c(C(=O)NCCCCCCNC(=O)c2ccc(-c3c4nc(c(-c5c(F)cc(S(=O)(=O)[O-])cc5F)c5ccc([nH]5)c(-c5c(F)cc(S(=O)(=O)[O-])cc5F)c5nc(c(-c6c(F)cc(S(=O)(=O)[O-])cc6F)c6ccc3[nH]6)C=C5)C=C4)cc2)c1
REMARK SMILES IDX 20 1 19 2 18 3 17 4 15 5 16 6 14 8 3 9 4 10 93 11 5 12 6 13
REMARK SMILES IDX 2 14 1 15 7 16 8 17 9 18 10 19 13 20 11 21 12 22 21 23 22 24
REMARK SMILES IDX 23 25 24 26 25 27 26 29 27 30 28 31 92 32 29 33 91 34 30 35
REMARK SMILES IDX 31 36 32 37 85 38 33 39 90 40 84 41 86 42 34 43 89 44 83 45
REMARK SMILES IDX 82 46 35 48 69 49 48 50 68 51 49 52 52 53 67 54 87 55 50 56
REMARK SMILES IDX 51 57 66 59 88 60 53 61 36 62 37 63 46 64 38 65 39 66 45 67
REMARK SMILES IDX 47 68 40 69 41 70 42 71 43 72 44 73 70 74 71 75 80 76 72 77
REMARK SMILES IDX 73 78 79 79 81 80 74 81 75 82 76 83 77 84 78 85 54 86 55 87
REMARK SMILES IDX 64 88 56 89 57 90 63 91 65 92 58 93 59 94 60 95 61 96 62 97
REMARK H PARENT 17 7 24 28 86 47 52 58
REMARK Flexibility Score: inf
ROOT
ATOM      1  C   UNL A   1      34.098  25.480  23.858  1.00  0.00     0.002 C 
ENDROOT
BRANCH   1   2
ATOM      2  C   UNL A   1      33.468  26.052  22.589  1.00  0.00     0.021 C 
BRANCH   2   3
ATOM      3  C   UNL A   1      33.673  27.544  22.372  1.00  0.00     0.116 C 
BRANCH   3   4
ATOM      4  N   UNL A   1      32.419  28.225  22.129  1.00  0.00    -0.352 N 
ATOM      5  C   UNL A   1      31.279  28.256  22.891  1.00  0.00     0.255 C 
ATOM      6  O   UNL A   1      30.226  28.108  22.271  1.00  0.00    -0.269 OA
ATOM      7  H   UNL A   1      32.380  28.743  21.293  1.00  0.00     0.163 HD
BRANCH   5   8
ATOM      8  C   UNL A   1      31.262  28.439  24.377  1.00  0.00     0.085 A 
ATOM      9  C   UNL A   1      31.903  29.801  26.311  1.00  0.00     0.119 A 
ATOM     10  C   UNL A   1      31.911  28.664  27.102  1.00  0.00     0.050 A 
ATOM     11  C   UNL A   1      31.545  29.681  24.970  1.00  0.00     0.064 A 
ATOM     12  C   UNL A   1      31.406  27.472  26.586  1.00  0.00     0.051 A 
ATOM     13  C   UNL A   1      30.989  27.373  25.247  1.00  0.00     0.132 A 
BRANCH   9  14
ATOM     14  O   UNL A   1      32.277  30.959  26.934  1.00  0.00    -0.497 OA
ATOM     15  C   UNL A   1      33.581  30.995  27.510  1.00  0.00     0.278 C 
ENDBRANCH   9  14
BRANCH  13  16
ATOM     16  O   UNL A   1      30.235  26.251  25.054  1.00  0.00    -0.487 OA
BRANCH  16  17
ATOM     17  C   UNL A   1      30.267  25.068  25.860  1.00  0.00     0.276 C 
BRANCH  17  18
ATOM     18  C   UNL A   1      31.028  23.868  25.330  1.00  0.00     0.042 A 
ATOM     19  C   UNL A   1      31.112  23.512  23.989  1.00  0.00     0.019 A 
ATOM     20  S   UNL A   1      31.789  22.669  26.287  1.00  0.00    -0.145 S 
ATOM     21  C   UNL A   1      31.671  22.217  23.783  1.00  0.00     0.012 A 
ATOM     22  C   UNL A   1      32.035  21.626  24.967  1.00  0.00     0.065 A 
ENDBRANCH  17  18
ENDBRANCH  16  17
ENDBRANCH  13  16
ENDBRANCH   5   8
ENDBRANCH   3   4
ENDBRANCH   2   3
ENDBRANCH   1   2
BRANCH   1  23
ATOM     23  C   UNL A   1      34.832  24.148  23.688  1.00  0.00     0.002 C 
BRANCH  23  24
ATOM     24  C   UNL A   1      35.238  23.446  24.985  1.00  0.00     0.021 C 
BRANCH  24  25
ATOM     25  C   UNL A   1      36.514  23.968  25.631  1.00  0.00     0.116 C 
BRANCH  25  26
ATOM     26  N   UNL A   1      37.546  22.952  25.714  1.00  0.00    -0.352 N 
ATOM     27  C   UNL A   1      38.827  23.069  26.193  1.00  0.00     0.251 C 
ATOM     28  H   UNL A   1      37.293  22.060  25.383  1.00  0.00     0.163 HD
ATOM     29  O   UNL A   1      39.631  22.161  26.026  1.00  0.00    -0.269 OA
BRANCH  27  30
ATOM     30  C   UNL A   1      39.230  24.310  26.891  1.00  0.00     0.039 A 
ATOM     31  C   UNL A   1      38.858  24.482  28.225  1.00  0.00     0.014 A 
ATOM     32  C   UNL A   1      39.969  25.297  26.232  1.00  0.00     0.014 A 
ATOM     33  C   UNL A   1      39.256  25.631  28.909  1.00  0.00     0.010 A 
ATOM     34  C   UNL A   1      40.433  26.403  26.937  1.00  0.00     0.010 A 
ATOM     35  C   UNL A   1      40.065  26.591  28.278  1.00  0.00    -0.014 A 
BRANCH  35  36
ATOM     36  C   UNL A   1      40.493  27.824  28.988  1.00  0.00     0.031 A 
ATOM     37  C   UNL A   1      41.872  27.895  29.592  1.00  0.00     0.074 A 
ATOM     38  C   UNL A   1      39.638  28.857  29.119  1.00  0.00     0.049 A 
ATOM     39  N   UNL A   1      42.411  28.846  30.311  1.00  0.00    -0.248 NA
ATOM     40  C   UNL A   1      42.753  26.733  29.382  1.00  0.00     0.031 C 
ATOM     41  C   UNL A   1      38.266  28.894  28.606  1.00  0.00     0.029 A 
ATOM     42  N   UNL A   1      39.794  30.078  29.728  1.00  0.00    -0.354 N 
ATOM     43  C   UNL A   1      43.686  28.397  30.638  1.00  0.00     0.074 A 
ATOM     44  C   UNL A   1      43.817  27.062  30.098  1.00  0.00     0.031 C 
ATOM     45  C   UNL A   1      37.714  30.081  28.904  1.00  0.00     0.029 A 
ATOM     46  C   UNL A   1      38.674  30.876  29.662  1.00  0.00     0.049 A 
ATOM     47  H   UNL A   1      40.627  30.355  30.171  1.00  0.00     0.167 HD
ATOM     48  C   UNL A   1      44.670  29.051  31.297  1.00  0.00     0.037 A 
ATOM     49  C   UNL A   1      38.449  32.106  30.166  1.00  0.00     0.037 A 
ATOM     50  C   UNL A   1      44.544  30.390  31.807  1.00  0.00     0.049 A 
ATOM     51  C   UNL A   1      39.556  32.800  30.918  1.00  0.00     0.074 A 
ATOM     52  C   UNL A   1      45.490  31.152  32.471  1.00  0.00     0.029 A 
ATOM     53  N   UNL A   1      43.403  31.173  31.702  1.00  0.00    -0.354 N 
ATOM     54  N   UNL A   1      40.768  32.374  31.182  1.00  0.00    -0.248 NA
ATOM     55  C   UNL A   1      39.268  34.147  31.431  1.00  0.00     0.031 C 
ATOM     56  C   UNL A   1      44.910  32.380  32.800  1.00  0.00     0.029 A 
ATOM     57  C   UNL A   1      43.620  32.406  32.293  1.00  0.00     0.049 A 
ATOM     58  H   UNL A   1      42.563  30.893  31.270  1.00  0.00     0.167 HD
ATOM     59  C   UNL A   1      41.401  33.418  31.851  1.00  0.00     0.074 A 
ATOM     60  C   UNL A   1      40.440  34.497  31.942  1.00  0.00     0.031 C 
ATOM     61  C   UNL A   1      42.662  33.480  32.345  1.00  0.00     0.037 A 
BRANCH  48  62
ATOM     62  C   UNL A   1      45.985  28.342  31.481  1.00  0.00     0.058 A 
ATOM     63  C   UNL A   1      47.026  28.480  30.551  1.00  0.00     0.135 A 
ATOM     64  C   UNL A   1      46.233  27.579  32.633  1.00  0.00     0.135 A 
ATOM     65  F   UNL A   1      46.837  29.182  29.421  1.00  0.00    -0.206 F 
ATOM     66  C   UNL A   1      48.264  27.877  30.749  1.00  0.00     0.059 A 
ATOM     67  C   UNL A   1      47.474  26.990  32.867  1.00  0.00     0.059 A 
ATOM     68  F   UNL A   1      45.270  27.410  33.554  1.00  0.00    -0.206 F 
ATOM     69  C   UNL A   1      48.481  27.141  31.914  1.00  0.00     0.060 A 
BRANCH  69  70
ATOM     70  S   UNL A   1      50.108  26.405  32.174  1.00  0.00     0.124 S 
ATOM     71  O   UNL A   1      50.639  27.242  33.246  1.00  0.00    -0.237 OA
ATOM     72  O   UNL A   1      49.772  25.036  32.548  1.00  0.00    -0.237 OA
ATOM     73  O   UNL A   1      50.762  26.556  30.878  1.00  0.00    -0.744 OA
ENDBRANCH  69  70
ENDBRANCH  48  62
BRANCH  49  74
ATOM     74  C   UNL A   1      37.130  32.772  29.979  1.00  0.00     0.058 A 
ATOM     75  C   UNL A   1      36.882  33.591  28.868  1.00  0.00     0.135 A 
ATOM     76  C   UNL A   1      36.107  32.642  30.932  1.00  0.00     0.135 A 
ATOM     77  F   UNL A   1      37.827  33.749  27.928  1.00  0.00    -0.206 F 
ATOM     78  C   UNL A   1      35.690  34.296  28.730  1.00  0.00     0.059 A 
ATOM     79  C   UNL A   1      34.894  33.309  30.800  1.00  0.00     0.059 A 
ATOM     80  F   UNL A   1      36.281  31.853  32.004  1.00  0.00    -0.206 F 
ATOM     81  C   UNL A   1      34.705  34.155  29.708  1.00  0.00     0.060 A 
BRANCH  81  82
ATOM     82  S   UNL A   1      33.166  35.083  29.529  1.00  0.00     0.124 S 
ATOM     83  O   UNL A   1      32.601  34.970  30.869  1.00  0.00    -0.237 OA
ATOM     84  O   UNL A   1      33.648  36.406  29.146  1.00  0.00    -0.237 OA
ATOM     85  O   UNL A   1      32.457  34.355  28.481  1.00  0.00    -0.744 OA
ENDBRANCH  81  82
ENDBRANCH  49  74
BRANCH  61  86
ATOM     86  C   UNL A   1      43.104  34.778  32.963  1.00  0.00     0.058 A 
ATOM     87  C   UNL A   1      43.649  35.819  32.197  1.00  0.00     0.135 A 
ATOM     88  C   UNL A   1      42.931  34.997  34.340  1.00  0.00     0.135 A 
ATOM     89  F   UNL A   1      43.839  35.661  30.878  1.00  0.00    -0.206 F 
ATOM     90  C   UNL A   1      44.034  37.023  32.779  1.00  0.00     0.059 A 
ATOM     91  C   UNL A   1      43.279  36.204  34.938  1.00  0.00     0.059 A 
ATOM     92  F   UNL A   1      42.402  34.038  35.117  1.00  0.00    -0.206 F 
ATOM     93  C   UNL A   1      43.843  37.206  34.150  1.00  0.00     0.060 A 
BRANCH  93  94
ATOM     94  S   UNL A   1      44.322  38.783  34.886  1.00  0.00     0.124 S 
ATOM     95  O   UNL A   1      43.398  39.704  34.234  1.00  0.00    -0.237 OA
ATOM     96  O   UNL A   1      44.087  38.548  36.308  1.00  0.00    -0.237 OA
ATOM     97  O   UNL A   1      45.724  38.925  34.505  1.00  0.00    -0.744 OA
ENDBRANCH  93  94
ENDBRANCH  61  86
ENDBRANCH  35  36
ENDBRANCH  27  30
ENDBRANCH  25  26
ENDBRANCH  24  25
ENDBRANCH  23  24
ENDBRANCH   1  23
TORSDOF 20
ENDMDL
MODEL 3
REMARK VINA RESULT:     -11.1      5.256      7.041
REMARK SMILES COc1ccc(OCc2cccs2)c(C(=O)NCCCCCCNC(=O)c2ccc(-c3c4nc(c(-c5c(F)cc(S(=O)(=O)[O-])cc5F)c5ccc([nH]5)c(-c5c(F)cc(S(=O)(=O)[O-])cc5F)c5nc(c(-c6c(F)cc(S(=O)(=O)[O-])cc6F)c6ccc3[nH]6)C=C5)C=C4)cc2)c1
REMARK SMILES IDX 20 1 19 2 18 3 17 4 15 5 16 6 14 8 3 9 4 10 93 11 5 12 6 13
REMARK SMILES IDX 2 14 1 15 7 16 8 17 9 18 10 19 13 20 11 21 12 22 21 23 22 24
REMARK SMILES IDX 23 25 24 26 25 27 26 29 27 30 28 31 92 32 29 33 91 34 30 35
REMARK SMILES IDX 31 36 32 37 85 38 33 39 90 40 84 41 86 42 34 43 89 44 83 45
REMARK SMILES IDX 82 46 35 48 69 49 48 50 68 51 49 52 52 53 67 54 87 55 50 56
REMARK SMILES IDX 51 57 66 59 88 60 53 61 36 62 37 63 46 64 38 65 39 66 45 67
REMARK SMILES IDX 47 68 40 69 41 70 42 71 43 72 44 73 70 74 71 75 80 76 72 77
REMARK SMILES IDX 73 78 79 79 81 80 74 81 75 82 76 83 77 84 78 85 54 86 55 87
REMARK SMILES IDX 64 88 56 89 57 90 63 91 65 92 58 93 59 94 60 95 61 96 62 97
REMARK H PARENT 17 7 24 28 86 47 52 58
REMARK Flexibility Score: inf
ROOT
ATOM      1  C   UNL A   1      34.123  22.316  23.808  1.00  0.00     0.002 C 
ENDROOT
BRANCH   1   2
ATOM      2  C   UNL A   1      32.620  22.408  23.553  1.00  0.00     0.021 C 
BRANCH   2   3
ATOM      3  C   UNL A   1      32.073  23.816  23.363  1.00  0.00     0.116 C 
BRANCH   3   4
ATOM      4  N   UNL A   1      33.120  24.752  23.011  1.00  0.00    -0.352 N 
ATOM      5  C   UNL A   1      33.023  26.031  22.525  1.00  0.00     0.255 C 
ATOM      6  O   UNL A   1      33.776  26.299  21.590  1.00  0.00    -0.269 OA
ATOM      7  H   UNL A   1      34.038  24.420  23.139  1.00  0.00     0.163 HD
BRANCH   5   8
ATOM      8  C   UNL A   1      32.071  27.061  23.049  1.00  0.00     0.085 A 
ATOM      9  C   UNL A   1      30.188  28.567  22.606  1.00  0.00     0.119 A 
ATOM     10  C   UNL A   1      30.638  29.414  23.606  1.00  0.00     0.050 A 
ATOM     11  C   UNL A   1      30.887  27.387  22.365  1.00  0.00     0.064 A 
ATOM     12  C   UNL A   1      31.666  28.991  24.445  1.00  0.00     0.051 A 
ATOM     13  C   UNL A   1      32.328  27.769  24.232  1.00  0.00     0.132 A 
BRANCH   9  14
ATOM     14  O   UNL A   1      29.084  28.992  21.922  1.00  0.00    -0.497 OA
ATOM     15  C   UNL A   1      29.031  30.371  21.565  1.00  0.00     0.278 C 
ENDBRANCH   9  14
BRANCH  13  16
ATOM     16  O   UNL A   1      33.044  27.405  25.336  1.00  0.00    -0.487 OA
BRANCH  16  17
ATOM     17  C   UNL A   1      32.899  27.954  26.651  1.00  0.00     0.276 C 
BRANCH  17  18
ATOM     18  C   UNL A   1      33.696  29.198  26.993  1.00  0.00     0.042 A 
ATOM     19  C   UNL A   1      35.058  29.216  27.269  1.00  0.00     0.019 A 
ATOM     20  S   UNL A   1      33.044  30.762  27.240  1.00  0.00    -0.145 S 
ATOM     21  C   UNL A   1      35.510  30.458  27.800  1.00  0.00     0.012 A 
ATOM     22  C   UNL A   1      34.492  31.375  27.885  1.00  0.00     0.065 A 
ENDBRANCH  17  18
ENDBRANCH  16  17
ENDBRANCH  13  16
ENDBRANCH   5   8
ENDBRANCH   3   4
ENDBRANCH   2   3
ENDBRANCH   1   2
BRANCH   1  23
ATOM     23  C   UNL A   1      34.531  22.004  25.249  1.00  0.00     0.002 C 
BRANCH  23  24
ATOM     24  C   UNL A   1      34.946  23.209  26.096  1.00  0.00     0.021 C 
BRANCH  24  25
ATOM     25  C   UNL A   1      36.382  23.675  25.900  1.00  0.00     0.116 C 
BRANCH  25  26
ATOM     26  N   UNL A   1      37.332  22.583  25.988  1.00  0.00    -0.352 N 
ATOM     27  C   UNL A   1      38.674  22.635  26.273  1.00  0.00     0.251 C 
ATOM     28  H   UNL A   1      36.966  21.684  25.819  1.00  0.00     0.163 HD
ATOM     29  O   UNL A   1      39.372  21.640  26.130  1.00  0.00    -0.269 OA
BRANCH  27  30
ATOM     30  C   UNL A   1      39.268  23.910  26.734  1.00  0.00     0.039 A 
ATOM     31  C   UNL A   1      39.246  24.207  28.097  1.00  0.00     0.014 A 
ATOM     32  C   UNL A   1      39.842  24.805  25.825  1.00  0.00     0.014 A 
ATOM     33  C   UNL A   1      39.830  25.390  28.553  1.00  0.00     0.010 A 
ATOM     34  C   UNL A   1      40.494  25.942  26.290  1.00  0.00     0.010 A 
ATOM     35  C   UNL A   1      40.478  26.256  27.657  1.00  0.00    -0.014 A 
BRANCH  35  36
ATOM     36  C   UNL A   1      41.099  27.523  28.124  1.00  0.00     0.031 A 
ATOM     37  C   UNL A   1      42.595  27.686  28.059  1.00  0.00     0.074 A 
ATOM     38  C   UNL A   1      40.328  28.504  28.634  1.00  0.00     0.049 A 
ATOM     39  N   UNL A   1      43.337  28.679  28.480  1.00  0.00    -0.248 NA
ATOM     40  C   UNL A   1      43.362  26.578  27.465  1.00  0.00     0.031 C 
ATOM     41  C   UNL A   1      38.871  28.449  28.780  1.00  0.00     0.029 A 
ATOM     42  N   UNL A   1      40.661  29.739  29.130  1.00  0.00    -0.354 N 
ATOM     43  C   UNL A   1      44.650  28.313  28.205  1.00  0.00     0.074 A 
ATOM     44  C   UNL A   1      44.611  26.981  27.643  1.00  0.00     0.031 C 
ATOM     45  C   UNL A   1      38.436  29.604  29.308  1.00  0.00     0.029 A 
ATOM     46  C   UNL A   1      39.581  30.467  29.577  1.00  0.00     0.049 A 
ATOM     47  H   UNL A   1      41.586  30.073  29.164  1.00  0.00     0.167 HD
ATOM     48  C   UNL A   1      45.782  29.035  28.371  1.00  0.00     0.037 A 
ATOM     49  C   UNL A   1      39.527  31.687  30.146  1.00  0.00     0.037 A 
ATOM     50  C   UNL A   1      45.812  30.371  28.905  1.00  0.00     0.049 A 
ATOM     51  C   UNL A   1      40.808  32.458  30.343  1.00  0.00     0.074 A 
ATOM     52  C   UNL A   1      46.906  31.198  29.095  1.00  0.00     0.029 A 
ATOM     53  N   UNL A   1      44.697  31.080  29.326  1.00  0.00    -0.354 N 
ATOM     54  N   UNL A   1      42.035  32.111  30.040  1.00  0.00    -0.248 NA
ATOM     55  C   UNL A   1      40.694  33.792  30.951  1.00  0.00     0.031 C 
ATOM     56  C   UNL A   1      46.457  32.392  29.665  1.00  0.00     0.029 A 
ATOM     57  C   UNL A   1      45.077  32.332  29.779  1.00  0.00     0.049 A 
ATOM     58  H   UNL A   1      43.772  30.744  29.305  1.00  0.00     0.167 HD
ATOM     59  C   UNL A   1      42.833  33.200  30.376  1.00  0.00     0.074 A 
ATOM     60  C   UNL A   1      41.947  34.219  30.899  1.00  0.00     0.031 C 
ATOM     61  C   UNL A   1      44.176  33.346  30.264  1.00  0.00     0.037 A 
BRANCH  48  62
ATOM     62  C   UNL A   1      47.084  28.411  27.947  1.00  0.00     0.058 A 
ATOM     63  C   UNL A   1      47.848  27.638  28.835  1.00  0.00     0.135 A 
ATOM     64  C   UNL A   1      47.537  28.525  26.623  1.00  0.00     0.135 A 
ATOM     65  F   UNL A   1      47.473  27.512  30.118  1.00  0.00    -0.206 F 
ATOM     66  C   UNL A   1      49.020  27.009  28.429  1.00  0.00     0.059 A 
ATOM     67  C   UNL A   1      48.692  27.880  26.186  1.00  0.00     0.059 A 
ATOM     68  F   UNL A   1      46.847  29.258  25.732  1.00  0.00    -0.206 F 
ATOM     69  C   UNL A   1      49.429  27.128  27.100  1.00  0.00     0.060 A 
BRANCH  69  70
ATOM     70  S   UNL A   1      50.927  26.266  26.582  1.00  0.00     0.124 S 
ATOM     71  O   UNL A   1      51.964  27.078  27.214  1.00  0.00    -0.237 OA
ATOM     72  O   UNL A   1      50.732  24.937  27.149  1.00  0.00    -0.237 OA
ATOM     73  O   UNL A   1      50.876  26.339  25.125  1.00  0.00    -0.744 OA
ENDBRANCH  69  70
ENDBRANCH  48  62
BRANCH  49  74
ATOM     74  C   UNL A   1      38.223  32.268  30.571  1.00  0.00     0.058 A 
ATOM     75  C   UNL A   1      37.501  33.125  29.727  1.00  0.00     0.135 A 
ATOM     76  C   UNL A   1      37.695  32.018  31.848  1.00  0.00     0.135 A 
ATOM     77  F   UNL A   1      37.963  33.397  28.496  1.00  0.00    -0.206 F 
ATOM     78  C   UNL A   1      36.332  33.752  30.145  1.00  0.00     0.059 A 
ATOM     79  C   UNL A   1      36.510  32.605  32.278  1.00  0.00     0.059 A 
ATOM     80  F   UNL A   1      38.331  31.188  32.689  1.00  0.00    -0.206 F 
ATOM     81  C   UNL A   1      35.848  33.491  31.428  1.00  0.00     0.060 A 
BRANCH  81  82
ATOM     82  S   UNL A   1      34.337  34.317  31.970  1.00  0.00     0.124 S 
ATOM     83  O   UNL A   1      34.872  35.514  32.608  1.00  0.00    -0.237 OA
ATOM     84  O   UNL A   1      33.631  34.524  30.710  1.00  0.00    -0.237 OA
ATOM     85  O   UNL A   1      33.727  33.342  32.870  1.00  0.00    -0.744 OA
ENDBRANCH  81  82
ENDBRANCH  49  74
BRANCH  61  86
ATOM     86  C   UNL A   1      44.765  34.677  30.643  1.00  0.00     0.058 A 
ATOM     87  C   UNL A   1      44.873  35.732  29.725  1.00  0.00     0.135 A 
ATOM     88  C   UNL A   1      45.182  34.912  31.964  1.00  0.00     0.135 A 
ATOM     89  F   UNL A   1      44.492  35.560  28.450  1.00  0.00    -0.206 F 
ATOM     90  C   UNL A   1      45.401  36.965  30.095  1.00  0.00     0.059 A 
ATOM     91  C   UNL A   1      45.684  36.147  32.364  1.00  0.00     0.059 A 
ATOM     92  F   UNL A   1      45.090  33.941  32.886  1.00  0.00    -0.206 F 
ATOM     93  C   UNL A   1      45.802  37.162  31.417  1.00  0.00     0.060 A 
BRANCH  93  94
ATOM     94  S   UNL A   1      46.459  38.777  31.890  1.00  0.00     0.124 S 
ATOM     95  O   UNL A   1      46.563  39.441  30.595  1.00  0.00    -0.237 OA
ATOM     96  O   UNL A   1      45.423  39.286  32.783  1.00  0.00    -0.237 OA
ATOM     97  O   UNL A   1      47.728  38.452  32.533  1.00  0.00    -0.744 OA
ENDBRANCH  93  94
ENDBRANCH  61  86
ENDBRANCH  35  36
ENDBRANCH  27  30
ENDBRANCH  25  26
ENDBRANCH  24  25
ENDBRANCH  23  24
ENDBRANCH   1  23
TORSDOF 20
ENDMDL
