MODEL 1
REMARK VINA RESULT:     -12.2      0.000      0.000
REMARK SMILES O=C(NCCCCCCNC(=O)[C@H]1C[C@H]2CCCC[C@@H]2[N@@H+]1C1CCSCC1)c1ccc(-c2c3nc(c(-c4c(F)cc(S(=O)(=O)[O-])cc4F)c4ccc([nH]4)c(-c4c(F)cc(S(=O)(=O)[O-])cc4F)c4nc(c(-c5c(F)cc(S(=O)(=O)[O-])cc5F)c5ccc2[nH]5)C=C4)C=C3)cc1
REMARK SMILES IDX 5 1 4 2 3 3 1 4 2 5 28 7 29 8 93 9 30 10 92 11 31 12 32 13
REMARK SMILES IDX 33 14 86 15 34 16 91 17 85 18 87 19 35 20 90 21 84 22 83 23
REMARK SMILES IDX 36 25 70 26 49 27 69 28 50 29 53 30 68 31 88 32 51 33 52 34
REMARK SMILES IDX 67 36 89 37 54 38 37 39 38 40 47 41 39 42 40 43 46 44 48 45
REMARK SMILES IDX 41 46 42 47 43 48 44 49 45 50 71 51 72 52 81 53 73 54 74 55
REMARK SMILES IDX 80 56 82 57 75 58 76 59 77 60 78 61 79 62 55 63 56 64 65 65
REMARK SMILES IDX 57 66 58 67 64 68 66 69 59 70 60 71 61 72 62 73 63 74 6 75
REMARK SMILES IDX 7 76 8 77 9 78 10 79 11 80 12 82 13 83 14 84 21 85 15 86
REMARK SMILES IDX 20 87 16 89 19 90 17 91 18 92 22 93 23 94 27 95 24 96 26 97
REMARK SMILES IDX 25 98
REMARK H PARENT 3 6 87 24 53 35 10 81 21 88
REMARK Flexibility Score: inf
ROOT
ATOM      1  C   UNL A   1      34.375  29.982  26.820  1.00  0.00     0.021 C 
ENDROOT
BRANCH   1   2
ATOM      2  C   UNL A   1      35.205  29.469  27.993  1.00  0.00     0.116 C 
BRANCH   2   3
ATOM      3  N   UNL A   1      35.199  30.409  29.101  1.00  0.00    -0.352 N 
ATOM      4  O   UNL A   1      35.953  31.331  31.015  1.00  0.00    -0.269 OA
ATOM      5  C   UNL A   1      36.205  30.708  29.981  1.00  0.00     0.251 C 
ATOM      6  H   UNL A   1      34.357  30.899  29.239  1.00  0.00     0.163 HD
BRANCH   5   7
ATOM      7  C   UNL A   1      37.585  30.277  29.690  1.00  0.00     0.039 A 
ATOM      8  C   UNL A   1      38.062  30.267  28.374  1.00  0.00     0.014 A 
ATOM      9  C   UNL A   1      38.420  29.910  30.747  1.00  0.00     0.014 A 
ATOM     10  C   UNL A   1      39.341  29.792  28.105  1.00  0.00     0.010 A 
ATOM     11  C   UNL A   1      39.726  29.499  30.480  1.00  0.00     0.010 A 
ATOM     12  C   UNL A   1      40.191  29.422  29.156  1.00  0.00    -0.014 A 
BRANCH  12  13
ATOM     13  C   UNL A   1      41.592  29.021  28.881  1.00  0.00     0.031 A 
ATOM     14  C   UNL A   1      42.696  30.037  28.892  1.00  0.00     0.074 A 
ATOM     15  C   UNL A   1      41.850  27.737  28.567  1.00  0.00     0.049 A 
ATOM     16  N   UNL A   1      43.955  29.890  28.571  1.00  0.00    -0.248 NA
ATOM     17  C   UNL A   1      42.336  31.400  29.308  1.00  0.00     0.031 C 
ATOM     18  C   UNL A   1      40.850  26.667  28.518  1.00  0.00     0.029 A 
ATOM     19  N   UNL A   1      43.019  27.117  28.209  1.00  0.00    -0.354 N 
ATOM     20  C   UNL A   1      44.535  31.143  28.718  1.00  0.00     0.074 A 
ATOM     21  C   UNL A   1      43.482  32.044  29.138  1.00  0.00     0.031 C 
ATOM     22  C   UNL A   1      41.447  25.526  28.146  1.00  0.00     0.029 A 
ATOM     23  C   UNL A   1      42.854  25.796  27.870  1.00  0.00     0.049 A 
ATOM     24  H   UNL A   1      43.891  27.575  28.194  1.00  0.00     0.167 HD
ATOM     25  C   UNL A   1      45.825  31.504  28.519  1.00  0.00     0.037 A 
ATOM     26  C   UNL A   1      43.724  24.907  27.354  1.00  0.00     0.037 A 
ATOM     27  C   UNL A   1      46.858  30.591  28.097  1.00  0.00     0.049 A 
ATOM     28  C   UNL A   1      45.141  25.331  27.108  1.00  0.00     0.074 A 
ATOM     29  C   UNL A   1      48.205  30.843  27.908  1.00  0.00     0.029 A 
ATOM     30  N   UNL A   1      46.654  29.254  27.779  1.00  0.00    -0.354 N 
ATOM     31  N   UNL A   1      45.688  26.510  27.297  1.00  0.00    -0.248 NA
ATOM     32  C   UNL A   1      46.063  24.315  26.586  1.00  0.00     0.031 C 
ATOM     33  C   UNL A   1      48.804  29.676  27.422  1.00  0.00     0.029 A 
ATOM     34  C   UNL A   1      47.845  28.676  27.368  1.00  0.00     0.049 A 
ATOM     35  H   UNL A   1      45.791  28.786  27.837  1.00  0.00     0.167 HD
ATOM     36  C   UNL A   1      47.024  26.370  26.940  1.00  0.00     0.074 A 
ATOM     37  C   UNL A   1      47.202  24.994  26.524  1.00  0.00     0.031 C 
ATOM     38  C   UNL A   1      48.010  27.300  26.965  1.00  0.00     0.037 A 
BRANCH  25  39
ATOM     39  C   UNL A   1      46.180  32.954  28.714  1.00  0.00     0.058 A 
ATOM     40  C   UNL A   1      46.581  33.462  29.960  1.00  0.00     0.135 A 
ATOM     41  C   UNL A   1      46.111  33.853  27.637  1.00  0.00     0.135 A 
ATOM     42  F   UNL A   1      46.658  32.652  31.029  1.00  0.00    -0.206 F 
ATOM     43  C   UNL A   1      46.848  34.815  30.143  1.00  0.00     0.059 A 
ATOM     44  C   UNL A   1      46.403  35.205  27.789  1.00  0.00     0.059 A 
ATOM     45  F   UNL A   1      45.741  33.423  26.419  1.00  0.00    -0.206 F 
ATOM     46  C   UNL A   1      46.745  35.682  29.053  1.00  0.00     0.060 A 
BRANCH  46  47
ATOM     47  S   UNL A   1      47.039  37.443  29.319  1.00  0.00     0.124 S 
ATOM     48  O   UNL A   1      47.809  37.423  30.559  1.00  0.00    -0.237 OA
ATOM     49  O   UNL A   1      47.782  37.821  28.120  1.00  0.00    -0.237 OA
ATOM     50  O   UNL A   1      45.695  38.002  29.423  1.00  0.00    -0.744 OA
ENDBRANCH  46  47
ENDBRANCH  25  39
BRANCH  26  51
ATOM     51  C   UNL A   1      43.243  23.538  27.031  1.00  0.00     0.058 A 
ATOM     52  C   UNL A   1      43.054  23.132  25.705  1.00  0.00     0.135 A 
ATOM     53  C   UNL A   1      43.064  22.581  28.044  1.00  0.00     0.135 A 
ATOM     54  F   UNL A   1      43.210  24.013  24.705  1.00  0.00    -0.206 F 
ATOM     55  C   UNL A   1      42.715  21.820  25.389  1.00  0.00     0.059 A 
ATOM     56  C   UNL A   1      42.750  21.258  27.752  1.00  0.00     0.059 A 
ATOM     57  F   UNL A   1      43.254  22.918  29.329  1.00  0.00    -0.206 F 
ATOM     58  C   UNL A   1      42.579  20.888  26.420  1.00  0.00     0.060 A 
BRANCH  58  59
ATOM     59  S   UNL A   1      42.243  19.166  25.989  1.00  0.00     0.124 S 
ATOM     60  O   UNL A   1      43.082  18.990  24.809  1.00  0.00    -0.237 OA
ATOM     61  O   UNL A   1      42.676  18.460  27.191  1.00  0.00    -0.237 OA
ATOM     62  O   UNL A   1      40.804  19.154  25.748  1.00  0.00    -0.744 OA
ENDBRANCH  58  59
ENDBRANCH  26  51
BRANCH  38  63
ATOM     63  C   UNL A   1      49.394  26.862  26.574  1.00  0.00     0.058 A 
ATOM     64  C   UNL A   1      50.225  26.158  27.458  1.00  0.00     0.135 A 
ATOM     65  C   UNL A   1      49.848  27.056  25.259  1.00  0.00     0.135 A 
ATOM     66  F   UNL A   1      49.844  25.957  28.730  1.00  0.00    -0.206 F 
ATOM     67  C   UNL A   1      51.457  25.656  27.050  1.00  0.00     0.059 A 
ATOM     68  C   UNL A   1      51.063  26.542  24.823  1.00  0.00     0.059 A 
ATOM     69  F   UNL A   1      49.087  27.720  24.374  1.00  0.00    -0.206 F 
ATOM     70  C   UNL A   1      51.862  25.842  25.725  1.00  0.00     0.060 A 
BRANCH  70  71
ATOM     71  S   UNL A   1      53.418  25.106  25.184  1.00  0.00     0.124 S 
ATOM     72  O   UNL A   1      54.376  25.751  26.077  1.00  0.00    -0.237 OA
ATOM     73  O   UNL A   1      53.190  23.683  25.420  1.00  0.00    -0.237 OA
ATOM     74  O   UNL A   1      53.509  25.495  23.780  1.00  0.00    -0.744 OA
ENDBRANCH  70  71
ENDBRANCH  38  63
ENDBRANCH  12  13
ENDBRANCH   5   7
ENDBRANCH   2   3
ENDBRANCH   1   2
BRANCH   1  75
ATOM     75  C   UNL A   1      32.975  30.473  27.199  1.00  0.00     0.002 C 
BRANCH  75  76
ATOM     76  C   UNL A   1      31.829  29.558  26.763  1.00  0.00     0.002 C 
BRANCH  76  77
ATOM     77  C   UNL A   1      31.784  28.205  27.475  1.00  0.00     0.021 C 
BRANCH  77  78
ATOM     78  C   UNL A   1      32.052  27.010  26.561  1.00  0.00     0.116 C 
BRANCH  78  79
ATOM     79  N   UNL A   1      31.516  25.784  27.133  1.00  0.00    -0.351 N 
ATOM     80  C   UNL A   1      31.690  24.479  26.751  1.00  0.00     0.278 C 
ATOM     81  H   UNL A   1      30.939  25.912  27.921  1.00  0.00     0.163 HD
ATOM     82  O   UNL A   1      31.086  23.613  27.387  1.00  0.00    -0.268 OA
BRANCH  80  83
ATOM     83  C   UNL A   1      32.682  24.160  25.616  1.00  0.00     0.275 C 
ATOM     84  C   UNL A   1      34.033  23.760  26.236  1.00  0.00     0.085 C 
ATOM     85  N   UNL A   1      32.228  23.015  24.776  1.00  0.00    -0.320 N 
ATOM     86  C   UNL A   1      34.465  22.590  25.378  1.00  0.00     0.054 C 
ATOM     87  C   UNL A   1      33.132  21.900  25.107  1.00  0.00     0.188 C 
ATOM     88  H   UNL A   1      31.262  22.789  25.019  1.00  0.00     0.349 HD
ATOM     89  C   UNL A   1      35.484  21.636  25.979  1.00  0.00     0.010 C 
ATOM     90  C   UNL A   1      33.303  20.704  24.166  1.00  0.00     0.065 C 
ATOM     91  C   UNL A   1      35.682  20.443  25.039  1.00  0.00     0.001 C 
ATOM     92  C   UNL A   1      34.360  19.739  24.715  1.00  0.00     0.006 C 
BRANCH  85  93
ATOM     93  C   UNL A   1      31.927  23.245  23.349  1.00  0.00     0.186 C 
ATOM     94  C   UNL A   1      30.585  23.964  23.112  1.00  0.00     0.076 C 
ATOM     95  C   UNL A   1      33.023  23.825  22.428  1.00  0.00     0.076 C 
ATOM     96  C   UNL A   1      30.601  25.472  23.256  1.00  0.00     0.075 C 
ATOM     97  C   UNL A   1      33.285  25.321  22.508  1.00  0.00     0.075 C 
ATOM     98  S   UNL A   1      31.799  26.311  22.184  1.00  0.00    -0.162 SA
ENDBRANCH  85  93
ENDBRANCH  80  83
ENDBRANCH  78  79
ENDBRANCH  77  78
ENDBRANCH  76  77
ENDBRANCH  75  76
ENDBRANCH   1  75
TORSDOF 17
ENDMDL
MODEL 2
REMARK VINA RESULT:     -12.0      6.060     10.714
REMARK SMILES O=C(NCCCCCCNC(=O)[C@H]1C[C@H]2CCCC[C@@H]2[N@@H+]1C1CCSCC1)c1ccc(-c2c3nc(c(-c4c(F)cc(S(=O)(=O)[O-])cc4F)c4ccc([nH]4)c(-c4c(F)cc(S(=O)(=O)[O-])cc4F)c4nc(c(-c5c(F)cc(S(=O)(=O)[O-])cc5F)c5ccc2[nH]5)C=C4)C=C3)cc1
REMARK SMILES IDX 5 1 4 2 3 3 1 4 2 5 28 7 29 8 93 9 30 10 92 11 31 12 32 13
REMARK SMILES IDX 33 14 86 15 34 16 91 17 85 18 87 19 35 20 90 21 84 22 83 23
REMARK SMILES IDX 36 25 70 26 49 27 69 28 50 29 53 30 68 31 88 32 51 33 52 34
REMARK SMILES IDX 67 36 89 37 54 38 37 39 38 40 47 41 39 42 40 43 46 44 48 45
REMARK SMILES IDX 41 46 42 47 43 48 44 49 45 50 71 51 72 52 81 53 73 54 74 55
REMARK SMILES IDX 80 56 82 57 75 58 76 59 77 60 78 61 79 62 55 63 56 64 65 65
REMARK SMILES IDX 57 66 58 67 64 68 66 69 59 70 60 71 61 72 62 73 63 74 6 75
REMARK SMILES IDX 7 76 8 77 9 78 10 79 11 80 12 82 13 83 14 84 21 85 15 86
REMARK SMILES IDX 20 87 16 89 19 90 17 91 18 92 22 93 23 94 27 95 24 96 26 97
REMARK SMILES IDX 25 98
REMARK H PARENT 3 6 87 24 53 35 10 81 21 88
REMARK Flexibility Score: inf
ROOT
ATOM      1  C   UNL A   1      31.556  31.844  26.698  1.00  0.00     0.021 C 
ENDROOT
BRANCH   1   2
ATOM      2  C   UNL A   1      32.803  32.463  27.323  1.00  0.00     0.116 C 
BRANCH   2   3
ATOM      3  N   UNL A   1      32.609  33.874  27.613  1.00  0.00    -0.352 N 
ATOM      4  O   UNL A   1      32.714  35.746  28.864  1.00  0.00    -0.269 OA
ATOM      5  C   UNL A   1      33.181  34.637  28.595  1.00  0.00     0.251 C 
ATOM      6  H   UNL A   1      31.979  34.348  27.022  1.00  0.00     0.163 HD
BRANCH   5   7
ATOM      7  C   UNL A   1      34.353  34.126  29.331  1.00  0.00     0.039 A 
ATOM      8  C   UNL A   1      34.182  33.360  30.489  1.00  0.00     0.014 A 
ATOM      9  C   UNL A   1      35.633  34.389  28.839  1.00  0.00     0.014 A 
ATOM     10  C   UNL A   1      35.294  32.943  31.213  1.00  0.00     0.010 A 
ATOM     11  C   UNL A   1      36.746  33.911  29.531  1.00  0.00     0.010 A 
ATOM     12  C   UNL A   1      36.585  33.198  30.731  1.00  0.00    -0.014 A 
BRANCH  12  13
ATOM     13  C   UNL A   1      37.771  32.659  31.441  1.00  0.00     0.031 A 
ATOM     14  C   UNL A   1      38.516  31.475  30.900  1.00  0.00     0.074 A 
ATOM     15  C   UNL A   1      38.135  33.218  32.611  1.00  0.00     0.049 A 
ATOM     16  N   UNL A   1      39.502  30.805  31.437  1.00  0.00    -0.248 NA
ATOM     17  C   UNL A   1      38.090  30.970  29.586  1.00  0.00     0.031 C 
ATOM     18  C   UNL A   1      37.475  34.367  33.235  1.00  0.00     0.029 A 
ATOM     19  N   UNL A   1      39.129  32.884  33.495  1.00  0.00    -0.354 N 
ATOM     20  C   UNL A   1      39.799  29.783  30.545  1.00  0.00     0.074 A 
ATOM     21  C   UNL A   1      38.873  29.910  29.439  1.00  0.00     0.031 C 
ATOM     22  C   UNL A   1      38.079  34.640  34.400  1.00  0.00     0.029 A 
ATOM     23  C   UNL A   1      39.123  33.649  34.636  1.00  0.00     0.049 A 
ATOM     24  H   UNL A   1      39.782  32.166  33.327  1.00  0.00     0.167 HD
ATOM     25  C   UNL A   1      40.757  28.829  30.644  1.00  0.00     0.037 A 
ATOM     26  C   UNL A   1      39.845  33.542  35.768  1.00  0.00     0.037 A 
ATOM     27  C   UNL A   1      41.668  28.719  31.756  1.00  0.00     0.049 A 
ATOM     28  C   UNL A   1      40.878  32.460  35.875  1.00  0.00     0.074 A 
ATOM     29  C   UNL A   1      42.702  27.818  31.934  1.00  0.00     0.029 A 
ATOM     30  N   UNL A   1      41.640  29.524  32.887  1.00  0.00    -0.354 N 
ATOM     31  N   UNL A   1      41.181  31.528  35.002  1.00  0.00    -0.248 NA
ATOM     32  C   UNL A   1      41.671  32.412  37.109  1.00  0.00     0.031 C 
ATOM     33  C   UNL A   1      43.262  28.040  33.196  1.00  0.00     0.029 A 
ATOM     34  C   UNL A   1      42.620  29.122  33.780  1.00  0.00     0.049 A 
ATOM     35  H   UNL A   1      41.016  30.270  33.034  1.00  0.00     0.167 HD
ATOM     36  C   UNL A   1      42.217  30.797  35.571  1.00  0.00     0.074 A 
ATOM     37  C   UNL A   1      42.488  31.395  36.863  1.00  0.00     0.031 C 
ATOM     38  C   UNL A   1      42.885  29.733  35.062  1.00  0.00     0.037 A 
BRANCH  25  39
ATOM     39  C   UNL A   1      40.837  27.808  29.541  1.00  0.00     0.058 A 
ATOM     40  C   UNL A   1      39.904  26.765  29.421  1.00  0.00     0.135 A 
ATOM     41  C   UNL A   1      41.869  27.871  28.589  1.00  0.00     0.135 A 
ATOM     42  F   UNL A   1      38.901  26.649  30.306  1.00  0.00    -0.206 F 
ATOM     43  C   UNL A   1      40.023  25.792  28.433  1.00  0.00     0.059 A 
ATOM     44  C   UNL A   1      41.989  26.926  27.574  1.00  0.00     0.059 A 
ATOM     45  F   UNL A   1      42.785  28.851  28.648  1.00  0.00    -0.206 F 
ATOM     46  C   UNL A   1      41.076  25.875  27.521  1.00  0.00     0.060 A 
BRANCH  46  47
ATOM     47  S   UNL A   1      41.250  24.575  26.280  1.00  0.00     0.124 S 
ATOM     48  O   UNL A   1      42.332  23.777  26.848  1.00  0.00    -0.237 OA
ATOM     49  O   UNL A   1      39.931  23.951  26.293  1.00  0.00    -0.237 OA
ATOM     50  O   UNL A   1      41.582  25.307  25.062  1.00  0.00    -0.744 OA
ENDBRANCH  46  47
ENDBRANCH  25  39
BRANCH  26  51
ATOM     51  C   UNL A   1      39.582  34.493  36.878  1.00  0.00     0.058 A 
ATOM     52  C   UNL A   1      38.800  34.122  37.978  1.00  0.00     0.135 A 
ATOM     53  C   UNL A   1      40.194  35.758  36.904  1.00  0.00     0.135 A 
ATOM     54  F   UNL A   1      38.192  32.925  37.997  1.00  0.00    -0.206 F 
ATOM     55  C   UNL A   1      38.642  34.964  39.075  1.00  0.00     0.059 A 
ATOM     56  C   UNL A   1      40.072  36.607  37.999  1.00  0.00     0.059 A 
ATOM     57  F   UNL A   1      40.969  36.150  35.882  1.00  0.00    -0.206 F 
ATOM     58  C   UNL A   1      39.294  36.199  39.080  1.00  0.00     0.060 A 
BRANCH  58  59
ATOM     59  S   UNL A   1      39.167  37.237  40.554  1.00  0.00     0.124 S 
ATOM     60  O   UNL A   1      38.506  36.336  41.491  1.00  0.00    -0.237 OA
ATOM     61  O   UNL A   1      40.567  37.538  40.837  1.00  0.00    -0.237 OA
ATOM     62  O   UNL A   1      38.370  38.371  40.098  1.00  0.00    -0.744 OA
ENDBRANCH  58  59
ENDBRANCH  26  51
BRANCH  38  63
ATOM     63  C   UNL A   1      44.013  29.160  35.874  1.00  0.00     0.058 A 
ATOM     64  C   UNL A   1      45.296  29.727  35.864  1.00  0.00     0.135 A 
ATOM     65  C   UNL A   1      43.771  28.095  36.758  1.00  0.00     0.135 A 
ATOM     66  F   UNL A   1      45.582  30.737  35.028  1.00  0.00    -0.206 F 
ATOM     67  C   UNL A   1      46.300  29.261  36.707  1.00  0.00     0.059 A 
ATOM     68  C   UNL A   1      44.752  27.631  37.627  1.00  0.00     0.059 A 
ATOM     69  F   UNL A   1      42.558  27.521  36.809  1.00  0.00    -0.206 F 
ATOM     70  C   UNL A   1      46.014  28.221  37.595  1.00  0.00     0.060 A 
BRANCH  70  71
ATOM     71  S   UNL A   1      47.298  27.689  38.747  1.00  0.00     0.124 S 
ATOM     72  O   UNL A   1      46.932  26.295  38.974  1.00  0.00    -0.237 OA
ATOM     73  O   UNL A   1      48.519  27.908  37.977  1.00  0.00    -0.237 OA
ATOM     74  O   UNL A   1      47.119  28.579  39.891  1.00  0.00    -0.744 OA
ENDBRANCH  70  71
ENDBRANCH  38  63
ENDBRANCH  12  13
ENDBRANCH   5   7
ENDBRANCH   2   3
ENDBRANCH   1   2
BRANCH   1  75
ATOM     75  C   UNL A   1      31.784  30.474  26.052  1.00  0.00     0.002 C 
BRANCH  75  76
ATOM     76  C   UNL A   1      32.561  29.476  26.912  1.00  0.00     0.002 C 
BRANCH  76  77
ATOM     77  C   UNL A   1      31.765  28.239  27.335  1.00  0.00     0.021 C 
BRANCH  77  78
ATOM     78  C   UNL A   1      31.991  27.018  26.444  1.00  0.00     0.116 C 
BRANCH  78  79
ATOM     79  N   UNL A   1      31.523  25.804  27.095  1.00  0.00    -0.351 N 
ATOM     80  C   UNL A   1      31.742  24.489  26.776  1.00  0.00     0.278 C 
ATOM     81  H   UNL A   1      30.962  25.950  27.890  1.00  0.00     0.163 HD
ATOM     82  O   UNL A   1      31.192  23.633  27.474  1.00  0.00    -0.268 OA
BRANCH  80  83
ATOM     83  C   UNL A   1      32.718  24.150  25.633  1.00  0.00     0.275 C 
ATOM     84  C   UNL A   1      34.057  23.697  26.241  1.00  0.00     0.085 C 
ATOM     85  N   UNL A   1      32.220  23.032  24.781  1.00  0.00    -0.320 N 
ATOM     86  C   UNL A   1      34.445  22.524  25.367  1.00  0.00     0.054 C 
ATOM     87  C   UNL A   1      33.088  21.883  25.094  1.00  0.00     0.188 C 
ATOM     88  H   UNL A   1      31.249  22.836  25.026  1.00  0.00     0.349 HD
ATOM     89  C   UNL A   1      35.434  21.528  25.950  1.00  0.00     0.010 C 
ATOM     90  C   UNL A   1      33.214  20.694  24.137  1.00  0.00     0.065 C 
ATOM     91  C   UNL A   1      35.587  20.341  24.995  1.00  0.00     0.001 C 
ATOM     92  C   UNL A   1      34.240  19.687  24.668  1.00  0.00     0.006 C 
BRANCH  85  93
ATOM     93  C   UNL A   1      31.921  23.290  23.358  1.00  0.00     0.186 C 
ATOM     94  C   UNL A   1      30.565  23.986  23.132  1.00  0.00     0.076 C 
ATOM     95  C   UNL A   1      33.009  23.915  22.457  1.00  0.00     0.076 C 
ATOM     96  C   UNL A   1      30.549  25.490  23.313  1.00  0.00     0.075 C 
ATOM     97  C   UNL A   1      33.239  25.414  22.574  1.00  0.00     0.075 C 
ATOM     98  S   UNL A   1      31.734  26.380  22.267  1.00  0.00    -0.162 SA
ENDBRANCH  85  93
ENDBRANCH  80  83
ENDBRANCH  78  79
ENDBRANCH  77  78
ENDBRANCH  76  77
ENDBRANCH  75  76
ENDBRANCH   1  75
TORSDOF 17
ENDMDL
MODEL 3
REMARK VINA RESULT:     -12.0      2.493      3.542
REMARK SMILES O=C(NCCCCCCNC(=O)[C@H]1C[C@H]2CCCC[C@@H]2[N@@H+]1C1CCSCC1)c1ccc(-c2c3nc(c(-c4c(F)cc(S(=O)(=O)[O-])cc4F)c4ccc([nH]4)c(-c4c(F)cc(S(=O)(=O)[O-])cc4F)c4nc(c(-c5c(F)cc(S(=O)(=O)[O-])cc5F)c5ccc2[nH]5)C=C4)C=C3)cc1
REMARK SMILES IDX 5 1 4 2 3 3 1 4 2 5 28 7 29 8 93 9 30 10 92 11 31 12 32 13
REMARK SMILES IDX 33 14 86 15 34 16 91 17 85 18 87 19 35 20 90 21 84 22 83 23
REMARK SMILES IDX 36 25 70 26 49 27 69 28 50 29 53 30 68 31 88 32 51 33 52 34
REMARK SMILES IDX 67 36 89 37 54 38 37 39 38 40 47 41 39 42 40 43 46 44 48 45
REMARK SMILES IDX 41 46 42 47 43 48 44 49 45 50 71 51 72 52 81 53 73 54 74 55
REMARK SMILES IDX 80 56 82 57 75 58 76 59 77 60 78 61 79 62 55 63 56 64 65 65
REMARK SMILES IDX 57 66 58 67 64 68 66 69 59 70 60 71 61 72 62 73 63 74 6 75
REMARK SMILES IDX 7 76 8 77 9 78 10 79 11 80 12 82 13 83 14 84 21 85 15 86
REMARK SMILES IDX 20 87 16 89 19 90 17 91 18 92 22 93 23 94 27 95 24 96 26 97
REMARK SMILES IDX 25 98
REMARK H PARENT 3 6 87 24 53 35 10 81 21 88
REMARK Flexibility Score: inf
ROOT
ATOM      1  C   UNL A   1      32.978  27.834  25.810  1.00  0.00     0.021 C 
ENDROOT
BRANCH   1   2
ATOM      2  C   UNL A   1      33.927  28.250  26.929  1.00  0.00     0.116 C 
BRANCH   2   3
ATOM      3  N   UNL A   1      33.697  29.625  27.340  1.00  0.00    -0.352 N 
ATOM      4  O   UNL A   1      34.036  31.486  28.567  1.00  0.00    -0.269 OA
ATOM      5  C   UNL A   1      34.495  30.443  28.094  1.00  0.00     0.251 C 
ATOM      6  H   UNL A   1      32.850  30.024  27.035  1.00  0.00     0.163 HD
BRANCH   5   7
ATOM      7  C   UNL A   1      35.900  30.070  28.343  1.00  0.00     0.039 A 
ATOM      8  C   UNL A   1      36.848  30.156  27.317  1.00  0.00     0.014 A 
ATOM      9  C   UNL A   1      36.278  29.661  29.622  1.00  0.00     0.014 A 
ATOM     10  C   UNL A   1      38.154  29.734  27.544  1.00  0.00     0.010 A 
ATOM     11  C   UNL A   1      37.605  29.304  29.866  1.00  0.00     0.010 A 
ATOM     12  C   UNL A   1      38.549  29.323  28.824  1.00  0.00    -0.014 A 
BRANCH  12  13
ATOM     13  C   UNL A   1      39.966  28.979  29.097  1.00  0.00     0.031 A 
ATOM     14  C   UNL A   1      40.922  30.018  29.603  1.00  0.00     0.074 A 
ATOM     15  C   UNL A   1      40.393  27.730  28.831  1.00  0.00     0.049 A 
ATOM     16  N   UNL A   1      42.213  29.927  29.793  1.00  0.00    -0.248 NA
ATOM     17  C   UNL A   1      40.357  31.336  29.927  1.00  0.00     0.031 C 
ATOM     18  C   UNL A   1      39.550  26.643  28.328  1.00  0.00     0.029 A 
ATOM     19  N   UNL A   1      41.640  27.169  28.923  1.00  0.00    -0.354 N 
ATOM     20  C   UNL A   1      42.622  31.180  30.233  1.00  0.00     0.074 A 
ATOM     21  C   UNL A   1      41.443  32.020  30.261  1.00  0.00     0.031 C 
ATOM     22  C   UNL A   1      40.303  25.549  28.151  1.00  0.00     0.029 A 
ATOM     23  C   UNL A   1      41.690  25.874  28.467  1.00  0.00     0.049 A 
ATOM     24  H   UNL A   1      42.423  27.648  29.280  1.00  0.00     0.167 HD
ATOM     25  C   UNL A   1      43.867  31.587  30.578  1.00  0.00     0.037 A 
ATOM     26  C   UNL A   1      42.738  25.049  28.280  1.00  0.00     0.037 A 
ATOM     27  C   UNL A   1      45.029  30.735  30.541  1.00  0.00     0.049 A 
ATOM     28  C   UNL A   1      44.115  25.527  28.636  1.00  0.00     0.074 A 
ATOM     29  C   UNL A   1      46.328  31.034  30.912  1.00  0.00     0.029 A 
ATOM     30  N   UNL A   1      45.036  29.422  30.087  1.00  0.00    -0.354 N 
ATOM     31  N   UNL A   1      44.482  26.700  29.096  1.00  0.00    -0.248 NA
ATOM     32  C   UNL A   1      45.219  24.577  28.457  1.00  0.00     0.031 C 
ATOM     33  C   UNL A   1      47.130  29.923  30.629  1.00  0.00     0.029 A 
ATOM     34  C   UNL A   1      46.322  28.907  30.141  1.00  0.00     0.049 A 
ATOM     35  H   UNL A   1      44.245  28.929  29.772  1.00  0.00     0.167 HD
ATOM     36  C   UNL A   1      45.856  26.622  29.285  1.00  0.00     0.074 A 
ATOM     37  C   UNL A   1      46.255  25.286  28.888  1.00  0.00     0.031 C 
ATOM     38  C   UNL A   1      46.704  27.570  29.752  1.00  0.00     0.037 A 
BRANCH  25  39
ATOM     39  C   UNL A   1      44.040  33.026  30.986  1.00  0.00     0.058 A 
ATOM     40  C   UNL A   1      43.887  33.447  32.317  1.00  0.00     0.135 A 
ATOM     41  C   UNL A   1      44.359  34.001  30.027  1.00  0.00     0.135 A 
ATOM     42  F   UNL A   1      43.574  32.561  33.276  1.00  0.00    -0.206 F 
ATOM     43  C   UNL A   1      43.990  34.789  32.672  1.00  0.00     0.059 A 
ATOM     44  C   UNL A   1      44.497  35.345  30.365  1.00  0.00     0.059 A 
ATOM     45  F   UNL A   1      44.526  33.657  28.740  1.00  0.00    -0.206 F 
ATOM     46  C   UNL A   1      44.284  35.732  31.686  1.00  0.00     0.060 A 
BRANCH  46  47
ATOM     47  S   UNL A   1      44.358  37.475  32.152  1.00  0.00     0.124 S 
ATOM     48  O   UNL A   1      43.472  37.501  33.312  1.00  0.00    -0.237 OA
ATOM     49  O   UNL A   1      45.777  37.664  32.436  1.00  0.00    -0.237 OA
ATOM     50  O   UNL A   1      43.861  38.166  30.967  1.00  0.00    -0.744 OA
ENDBRANCH  46  47
ENDBRANCH  25  39
BRANCH  26  51
ATOM     51  C   UNL A   1      42.495  23.698  27.711  1.00  0.00     0.058 A 
ATOM     52  C   UNL A   1      42.494  23.486  26.328  1.00  0.00     0.135 A 
ATOM     53  C   UNL A   1      42.362  22.578  28.549  1.00  0.00     0.135 A 
ATOM     54  F   UNL A   1      42.615  24.526  25.489  1.00  0.00    -0.206 F 
ATOM     55  C   UNL A   1      42.381  22.207  25.790  1.00  0.00     0.059 A 
ATOM     56  C   UNL A   1      42.272  21.288  28.036  1.00  0.00     0.059 A 
ATOM     57  F   UNL A   1      42.377  22.730  29.882  1.00  0.00    -0.206 F 
ATOM     58  C   UNL A   1      42.284  21.114  26.654  1.00  0.00     0.060 A 
BRANCH  58  59
ATOM     59  S   UNL A   1      42.245  19.453  25.945  1.00  0.00     0.124 S 
ATOM     60  O   UNL A   1      43.141  19.600  24.804  1.00  0.00    -0.237 OA
ATOM     61  O   UNL A   1      42.744  18.638  27.048  1.00  0.00    -0.237 OA
ATOM     62  O   UNL A   1      40.835  19.259  25.620  1.00  0.00    -0.744 OA
ENDBRANCH  58  59
ENDBRANCH  26  51
BRANCH  38  63
ATOM     63  C   UNL A   1      48.152  27.199  29.910  1.00  0.00     0.058 A 
ATOM     64  C   UNL A   1      49.108  27.514  28.932  1.00  0.00     0.135 A 
ATOM     65  C   UNL A   1      48.603  26.618  31.106  1.00  0.00     0.135 A 
ATOM     66  F   UNL A   1      48.729  28.058  27.765  1.00  0.00    -0.206 F 
ATOM     67  C   UNL A   1      50.462  27.271  29.139  1.00  0.00     0.059 A 
ATOM     68  C   UNL A   1      49.953  26.389  31.344  1.00  0.00     0.059 A 
ATOM     69  F   UNL A   1      47.727  26.302  32.075  1.00  0.00    -0.206 F 
ATOM     70  C   UNL A   1      50.877  26.720  30.355  1.00  0.00     0.060 A 
BRANCH  70  71
ATOM     71  S   UNL A   1      52.644  26.495  30.646  1.00  0.00     0.124 S 
ATOM     72  O   UNL A   1      53.019  27.794  31.196  1.00  0.00    -0.237 OA
ATOM     73  O   UNL A   1      52.666  25.378  31.584  1.00  0.00    -0.237 OA
ATOM     74  O   UNL A   1      53.173  26.200  29.317  1.00  0.00    -0.744 OA
ENDBRANCH  70  71
ENDBRANCH  38  63
ENDBRANCH  12  13
ENDBRANCH   5   7
ENDBRANCH   2   3
ENDBRANCH   1   2
BRANCH   1  75
ATOM     75  C   UNL A   1      31.849  26.897  26.250  1.00  0.00     0.002 C 
BRANCH  75  76
ATOM     76  C   UNL A   1      30.993  26.340  25.111  1.00  0.00     0.002 C 
BRANCH  76  77
ATOM     77  C   UNL A   1      30.633  24.859  25.246  1.00  0.00     0.021 C 
BRANCH  77  78
ATOM     78  C   UNL A   1      31.841  23.924  25.276  1.00  0.00     0.116 C 
BRANCH  78  79
ATOM     79  N   UNL A   1      32.001  23.237  24.003  1.00  0.00    -0.351 N 
ATOM     80  C   UNL A   1      32.568  22.022  23.719  1.00  0.00     0.278 C 
ATOM     81  H   UNL A   1      31.646  23.722  23.223  1.00  0.00     0.163 HD
ATOM     82  O   UNL A   1      32.617  21.677  22.536  1.00  0.00    -0.268 OA
BRANCH  80  83
ATOM     83  C   UNL A   1      33.030  21.123  24.882  1.00  0.00     0.275 C 
ATOM     84  C   UNL A   1      32.004  19.992  25.075  1.00  0.00     0.085 C 
ATOM     85  N   UNL A   1      34.347  20.480  24.608  1.00  0.00    -0.320 N 
ATOM     86  C   UNL A   1      32.878  18.781  25.318  1.00  0.00     0.054 C 
ATOM     87  C   UNL A   1      34.050  19.055  24.381  1.00  0.00     0.188 C 
ATOM     88  H   UNL A   1      34.757  20.907  23.776  1.00  0.00     0.349 HD
ATOM     89  C   UNL A   1      32.254  17.420  25.061  1.00  0.00     0.010 C 
ATOM     90  C   UNL A   1      35.134  17.982  24.513  1.00  0.00     0.065 C 
ATOM     91  C   UNL A   1      33.322  16.332  25.210  1.00  0.00     0.001 C 
ATOM     92  C   UNL A   1      34.534  16.587  24.306  1.00  0.00     0.006 C 
BRANCH  85  93
ATOM     93  C   UNL A   1      35.500  20.804  25.472  1.00  0.00     0.186 C 
ATOM     94  C   UNL A   1      36.804  21.052  24.690  1.00  0.00     0.076 C 
ATOM     95  C   UNL A   1      35.333  21.853  26.595  1.00  0.00     0.076 C 
ATOM     96  C   UNL A   1      36.976  22.436  24.100  1.00  0.00     0.075 C 
ATOM     97  C   UNL A   1      35.354  23.319  26.192  1.00  0.00     0.075 C 
ATOM     98  S   UNL A   1      36.871  23.782  25.311  1.00  0.00    -0.162 SA
ENDBRANCH  85  93
ENDBRANCH  80  83
ENDBRANCH  78  79
ENDBRANCH  77  78
ENDBRANCH  76  77
ENDBRANCH  75  76
ENDBRANCH   1  75
TORSDOF 17
ENDMDL
