MODEL 1
REMARK VINA RESULT:     -10.8      0.000      0.000
REMARK SMILES CCn1cccc1C(=O)N(C)c1snc(C)c1C(=O)NCCCCCCNC(=O)c1ccc(-c2c3nc(c(-c4c(F)cc(S(=O)(=O)[O-])cc4F)c4ccc([nH]4)c(-c4c(F)cc(S(=O)(=O)[O-])cc4F)c4nc(c(-c5c(F)cc(S(=O)(=O)[O-])cc5F)c5ccc2[nH]5)C=C4)C=C3)cc1
REMARK SMILES IDX 23 1 22 2 21 3 20 4 18 5 19 6 17 8 12 9 13 10 14 11 15 12
REMARK SMILES IDX 16 13 10 14 11 15 8 16 9 17 7 18 3 19 4 20 5 21 6 22 2 23
REMARK SMILES IDX 1 24 24 25 25 26 26 27 27 28 28 29 29 31 30 32 31 33 95 34
REMARK SMILES IDX 32 35 94 36 33 37 34 38 35 39 88 40 36 41 93 42 87 43 89 44
REMARK SMILES IDX 37 45 92 46 86 47 85 48 38 50 72 51 51 52 71 53 52 54 55 55
REMARK SMILES IDX 70 56 90 57 53 58 54 59 69 61 91 62 56 63 39 64 40 65 49 66
REMARK SMILES IDX 41 67 42 68 48 69 50 70 43 71 44 72 45 73 46 74 47 75 73 76
REMARK SMILES IDX 74 77 83 78 75 79 76 80 82 81 84 82 77 83 78 84 79 85 80 86
REMARK SMILES IDX 81 87 57 88 58 89 67 90 59 91 60 92 66 93 68 94 61 95 62 96
REMARK SMILES IDX 63 97 64 98 65 99
REMARK H PARENT 20 7 27 30 89 49 55 60
REMARK Flexibility Score: inf
ROOT
ATOM      1  C   UNL A   1      32.080  27.546  25.392  1.00  0.00     0.002 C 
ENDROOT
BRANCH   1   2
ATOM      2  C   UNL A   1      31.415  26.732  26.504  1.00  0.00     0.021 C 
BRANCH   2   3
ATOM      3  C   UNL A   1      31.851  25.286  26.688  1.00  0.00     0.116 C 
BRANCH   3   4
ATOM      4  N   UNL A   1      30.810  24.313  26.830  1.00  0.00    -0.352 N 
ATOM      5  C   UNL A   1      30.642  23.092  26.225  1.00  0.00     0.256 C 
ATOM      6  O   UNL A   1      29.763  22.392  26.743  1.00  0.00    -0.269 OA
ATOM      7  H   UNL A   1      30.098  24.561  27.464  1.00  0.00     0.163 HD
BRANCH   5   8
ATOM      8  C   UNL A   1      31.351  22.614  25.027  1.00  0.00     0.097 A 
ATOM      9  C   UNL A   1      32.307  21.619  24.817  1.00  0.00     0.131 A 
ATOM     10  S   UNL A   1      32.579  21.423  23.130  1.00  0.00    -0.017 S 
ATOM     11  N   UNL A   1      31.712  22.725  22.654  1.00  0.00    -0.195 NA
ATOM     12  C   UNL A   1      31.146  23.281  23.725  1.00  0.00     0.066 A 
ATOM     13  C   UNL A   1      30.425  24.565  23.457  1.00  0.00     0.069 C 
BRANCH   9  14
ATOM     14  N   UNL A   1      33.112  20.786  25.617  1.00  0.00    -0.300 N 
ATOM     15  C   UNL A   1      32.782  19.368  25.589  1.00  0.00     0.154 C 
BRANCH  14  16
ATOM     16  C   UNL A   1      34.047  21.427  26.454  1.00  0.00     0.275 C 
ATOM     17  O   UNL A   1      33.691  21.645  27.623  1.00  0.00    -0.267 OA
BRANCH  16  18
ATOM     18  C   UNL A   1      35.389  21.951  26.049  1.00  0.00     0.107 A 
ATOM     19  N   UNL A   1      36.549  21.491  25.401  1.00  0.00    -0.344 N 
ATOM     20  C   UNL A   1      37.411  22.551  25.181  1.00  0.00     0.086 A 
ATOM     21  C   UNL A   1      36.897  23.685  25.736  1.00  0.00     0.020 A 
ATOM     22  C   UNL A   1      35.664  23.314  26.287  1.00  0.00     0.033 A 
BRANCH  19  23
ATOM     23  C   UNL A   1      36.910  20.151  24.967  1.00  0.00     0.119 C 
ATOM     24  C   UNL A   1      38.382  19.743  24.984  1.00  0.00     0.027 C 
ENDBRANCH  19  23
ENDBRANCH  16  18
ENDBRANCH  14  16
ENDBRANCH   9  14
ENDBRANCH   5   8
ENDBRANCH   3   4
ENDBRANCH   2   3
ENDBRANCH   1   2
BRANCH   1  25
ATOM     25  C   UNL A   1      33.610  27.681  25.398  1.00  0.00     0.002 C 
BRANCH  25  26
ATOM     26  C   UNL A   1      34.208  28.956  26.004  1.00  0.00     0.021 C 
BRANCH  26  27
ATOM     27  C   UNL A   1      33.911  29.170  27.479  1.00  0.00     0.116 C 
BRANCH  27  28
ATOM     28  N   UNL A   1      33.782  30.569  27.830  1.00  0.00    -0.352 N 
ATOM     29  C   UNL A   1      34.555  31.327  28.680  1.00  0.00     0.251 C 
ATOM     30  H   UNL A   1      33.035  31.046  27.400  1.00  0.00     0.163 HD
ATOM     31  O   UNL A   1      34.089  32.370  29.122  1.00  0.00    -0.269 OA
BRANCH  29  32
ATOM     32  C   UNL A   1      35.931  30.914  29.070  1.00  0.00     0.039 A 
ATOM     33  C   UNL A   1      36.988  31.258  28.213  1.00  0.00     0.014 A 
ATOM     34  C   UNL A   1      36.188  30.107  30.184  1.00  0.00     0.014 A 
ATOM     35  C   UNL A   1      38.279  30.815  28.483  1.00  0.00     0.010 A 
ATOM     36  C   UNL A   1      37.476  29.710  30.492  1.00  0.00     0.010 A 
ATOM     37  C   UNL A   1      38.514  30.047  29.627  1.00  0.00    -0.014 A 
BRANCH  37  38
ATOM     38  C   UNL A   1      39.885  29.622  29.959  1.00  0.00     0.031 A 
ATOM     39  C   UNL A   1      40.634  30.730  30.732  1.00  0.00     0.074 A 
ATOM     40  C   UNL A   1      40.226  28.370  29.515  1.00  0.00     0.049 A 
ATOM     41  N   UNL A   1      41.871  31.116  30.670  1.00  0.00    -0.248 NA
ATOM     42  C   UNL A   1      39.848  31.618  31.635  1.00  0.00     0.031 C 
ATOM     43  C   UNL A   1      39.302  27.430  28.829  1.00  0.00     0.029 A 
ATOM     44  N   UNL A   1      41.379  27.620  29.540  1.00  0.00    -0.354 N 
ATOM     45  C   UNL A   1      42.056  32.137  31.637  1.00  0.00     0.074 A 
ATOM     46  C   UNL A   1      40.748  32.493  32.095  1.00  0.00     0.031 C 
ATOM     47  C   UNL A   1      39.945  26.311  28.433  1.00  0.00     0.029 A 
ATOM     48  C   UNL A   1      41.340  26.400  28.806  1.00  0.00     0.049 A 
ATOM     49  H   UNL A   1      42.180  27.908  30.034  1.00  0.00     0.167 HD
ATOM     50  C   UNL A   1      43.286  32.528  32.096  1.00  0.00     0.037 A 
ATOM     51  C   UNL A   1      42.380  25.577  28.454  1.00  0.00     0.037 A 
ATOM     52  C   UNL A   1      44.293  31.725  31.488  1.00  0.00     0.049 A 
ATOM     53  C   UNL A   1      43.558  26.214  29.065  1.00  0.00     0.074 A 
ATOM     54  C   UNL A   1      44.845  31.721  30.235  1.00  0.00     0.029 A 
ATOM     55  N   UNL A   1      44.586  30.535  32.111  1.00  0.00    -0.354 N 
ATOM     56  N   UNL A   1      43.830  26.234  30.335  1.00  0.00    -0.248 NA
ATOM     57  C   UNL A   1      44.412  27.040  28.202  1.00  0.00     0.031 C 
ATOM     58  C   UNL A   1      45.016  30.346  29.963  1.00  0.00     0.029 A 
ATOM     59  C   UNL A   1      44.783  29.600  31.124  1.00  0.00     0.049 A 
ATOM     60  H   UNL A   1      44.644  30.382  33.082  1.00  0.00     0.167 HD
ATOM     61  C   UNL A   1      44.681  27.308  30.444  1.00  0.00     0.074 A 
ATOM     62  C   UNL A   1      45.220  27.549  29.125  1.00  0.00     0.031 C 
ATOM     63  C   UNL A   1      44.526  28.211  31.444  1.00  0.00     0.037 A 
BRANCH  50  64
ATOM     64  C   UNL A   1      43.738  33.411  33.235  1.00  0.00     0.058 A 
ATOM     65  C   UNL A   1      44.557  34.528  32.922  1.00  0.00     0.135 A 
ATOM     66  C   UNL A   1      43.691  33.048  34.588  1.00  0.00     0.135 A 
ATOM     67  F   UNL A   1      44.614  35.010  31.669  1.00  0.00    -0.206 F 
ATOM     68  C   UNL A   1      45.387  35.142  33.855  1.00  0.00     0.059 A 
ATOM     69  C   UNL A   1      44.486  33.682  35.553  1.00  0.00     0.059 A 
ATOM     70  F   UNL A   1      42.935  32.023  35.001  1.00  0.00    -0.206 F 
ATOM     71  C   UNL A   1      45.372  34.686  35.165  1.00  0.00     0.060 A 
BRANCH  71  72
ATOM     72  S   UNL A   1      46.551  35.402  36.332  1.00  0.00     0.124 S 
ATOM     73  O   UNL A   1      45.759  36.466  36.941  1.00  0.00    -0.237 OA
ATOM     74  O   UNL A   1      46.855  34.268  37.199  1.00  0.00    -0.237 OA
ATOM     75  O   UNL A   1      47.648  35.839  35.476  1.00  0.00    -0.744 OA
ENDBRANCH  71  72
ENDBRANCH  50  64
BRANCH  51  76
ATOM     76  C   UNL A   1      42.634  24.427  27.492  1.00  0.00     0.058 A 
ATOM     77  C   UNL A   1      42.562  24.470  26.094  1.00  0.00     0.135 A 
ATOM     78  C   UNL A   1      43.096  23.177  28.003  1.00  0.00     0.135 A 
ATOM     79  F   UNL A   1      41.985  25.501  25.465  1.00  0.00    -0.206 F 
ATOM     80  C   UNL A   1      43.078  23.441  25.276  1.00  0.00     0.059 A 
ATOM     81  C   UNL A   1      43.658  22.170  27.222  1.00  0.00     0.059 A 
ATOM     82  F   UNL A   1      43.048  22.887  29.310  1.00  0.00    -0.206 F 
ATOM     83  C   UNL A   1      43.681  22.324  25.852  1.00  0.00     0.060 A 
BRANCH  83  84
ATOM     84  S   UNL A   1      44.596  21.130  24.852  1.00  0.00     0.124 S 
ATOM     85  O   UNL A   1      43.782  19.927  24.990  1.00  0.00    -0.237 OA
ATOM     86  O   UNL A   1      44.592  21.755  23.533  1.00  0.00    -0.237 OA
ATOM     87  O   UNL A   1      45.903  21.083  25.502  1.00  0.00    -0.744 OA
ENDBRANCH  83  84
ENDBRANCH  51  76
BRANCH  63  88
ATOM     88  C   UNL A   1      43.767  27.702  32.660  1.00  0.00     0.058 A 
ATOM     89  C   UNL A   1      44.343  26.734  33.495  1.00  0.00     0.135 A 
ATOM     90  C   UNL A   1      42.455  28.087  32.989  1.00  0.00     0.135 A 
ATOM     91  F   UNL A   1      45.590  26.301  33.252  1.00  0.00    -0.206 F 
ATOM     92  C   UNL A   1      43.666  26.198  34.597  1.00  0.00     0.059 A 
ATOM     93  C   UNL A   1      41.757  27.578  34.088  1.00  0.00     0.059 A 
ATOM     94  F   UNL A   1      41.803  28.973  32.240  1.00  0.00    -0.206 F 
ATOM     95  C   UNL A   1      42.374  26.632  34.893  1.00  0.00     0.060 A 
BRANCH  95  96
ATOM     96  S   UNL A   1      41.529  25.973  36.349  1.00  0.00     0.124 S 
ATOM     97  O   UNL A   1      40.495  25.132  35.758  1.00  0.00    -0.237 OA
ATOM     98  O   UNL A   1      42.607  25.266  37.032  1.00  0.00    -0.237 OA
ATOM     99  O   UNL A   1      41.039  27.167  37.035  1.00  0.00    -0.744 OA
ENDBRANCH  95  96
ENDBRANCH  63  88
ENDBRANCH  37  38
ENDBRANCH  29  32
ENDBRANCH  27  28
ENDBRANCH  26  27
ENDBRANCH  25  26
ENDBRANCH   1  25
TORSDOF 20
ENDMDL
MODEL 2
REMARK VINA RESULT:     -10.7      1.649      2.604
REMARK SMILES CCn1cccc1C(=O)N(C)c1snc(C)c1C(=O)NCCCCCCNC(=O)c1ccc(-c2c3nc(c(-c4c(F)cc(S(=O)(=O)[O-])cc4F)c4ccc([nH]4)c(-c4c(F)cc(S(=O)(=O)[O-])cc4F)c4nc(c(-c5c(F)cc(S(=O)(=O)[O-])cc5F)c5ccc2[nH]5)C=C4)C=C3)cc1
REMARK SMILES IDX 23 1 22 2 21 3 20 4 18 5 19 6 17 8 12 9 13 10 14 11 15 12
REMARK SMILES IDX 16 13 10 14 11 15 8 16 9 17 7 18 3 19 4 20 5 21 6 22 2 23
REMARK SMILES IDX 1 24 24 25 25 26 26 27 27 28 28 29 29 31 30 32 31 33 95 34
REMARK SMILES IDX 32 35 94 36 33 37 34 38 35 39 88 40 36 41 93 42 87 43 89 44
REMARK SMILES IDX 37 45 92 46 86 47 85 48 38 50 72 51 51 52 71 53 52 54 55 55
REMARK SMILES IDX 70 56 90 57 53 58 54 59 69 61 91 62 56 63 39 64 40 65 49 66
REMARK SMILES IDX 41 67 42 68 48 69 50 70 43 71 44 72 45 73 46 74 47 75 73 76
REMARK SMILES IDX 74 77 83 78 75 79 76 80 82 81 84 82 77 83 78 84 79 85 80 86
REMARK SMILES IDX 81 87 57 88 58 89 67 90 59 91 60 92 66 93 68 94 61 95 62 96
REMARK SMILES IDX 63 97 64 98 65 99
REMARK H PARENT 20 7 27 30 89 49 55 60
REMARK Flexibility Score: inf
ROOT
ATOM      1  C   UNL A   1      34.017  28.239  25.149  1.00  0.00     0.002 C 
ENDROOT
BRANCH   1   2
ATOM      2  C   UNL A   1      34.069  28.810  23.731  1.00  0.00     0.021 C 
BRANCH   2   3
ATOM      3  C   UNL A   1      32.774  28.859  22.933  1.00  0.00     0.116 C 
BRANCH   3   4
ATOM      4  N   UNL A   1      32.524  27.766  22.043  1.00  0.00    -0.352 N 
ATOM      5  C   UNL A   1      31.837  26.593  22.242  1.00  0.00     0.256 C 
ATOM      6  O   UNL A   1      31.601  25.968  21.201  1.00  0.00    -0.269 OA
ATOM      7  H   UNL A   1      32.908  27.871  21.143  1.00  0.00     0.163 HD
BRANCH   5   8
ATOM      8  C   UNL A   1      31.446  26.029  23.544  1.00  0.00     0.097 A 
ATOM      9  C   UNL A   1      32.039  25.097  24.397  1.00  0.00     0.131 A 
ATOM     10  S   UNL A   1      31.166  25.027  25.878  1.00  0.00    -0.017 S 
ATOM     11  N   UNL A   1      29.911  25.956  25.391  1.00  0.00    -0.195 NA
ATOM     12  C   UNL A   1      30.152  26.395  24.156  1.00  0.00     0.066 A 
ATOM     13  C   UNL A   1      29.024  27.153  23.529  1.00  0.00     0.069 C 
BRANCH   9  14
ATOM     14  N   UNL A   1      33.118  24.195  24.338  1.00  0.00    -0.300 N 
ATOM     15  C   UNL A   1      34.403  24.711  24.787  1.00  0.00     0.154 C 
BRANCH  14  16
ATOM     16  C   UNL A   1      32.868  22.950  23.727  1.00  0.00     0.275 C 
ATOM     17  O   UNL A   1      32.055  22.943  22.788  1.00  0.00    -0.267 OA
BRANCH  16  18
ATOM     18  C   UNL A   1      33.413  21.623  24.156  1.00  0.00     0.107 A 
ATOM     19  N   UNL A   1      34.622  21.084  24.629  1.00  0.00    -0.344 N 
ATOM     20  C   UNL A   1      34.427  19.769  25.014  1.00  0.00     0.086 A 
ATOM     21  C   UNL A   1      33.146  19.394  24.735  1.00  0.00     0.020 A 
ATOM     22  C   UNL A   1      32.528  20.526  24.189  1.00  0.00     0.033 A 
BRANCH  19  23
ATOM     23  C   UNL A   1      35.934  21.697  24.756  1.00  0.00     0.119 C 
ATOM     24  C   UNL A   1      37.174  20.809  24.666  1.00  0.00     0.027 C 
ENDBRANCH  19  23
ENDBRANCH  16  18
ENDBRANCH  14  16
ENDBRANCH   9  14
ENDBRANCH   5   8
ENDBRANCH   3   4
ENDBRANCH   2   3
ENDBRANCH   1   2
BRANCH   1  25
ATOM     25  C   UNL A   1      32.816  28.595  26.038  1.00  0.00     0.002 C 
BRANCH  25  26
ATOM     26  C   UNL A   1      32.787  29.992  26.666  1.00  0.00     0.021 C 
BRANCH  26  27
ATOM     27  C   UNL A   1      34.080  30.427  27.334  1.00  0.00     0.116 C 
BRANCH  27  28
ATOM     28  N   UNL A   1      33.909  31.577  28.199  1.00  0.00    -0.352 N 
ATOM     29  C   UNL A   1      34.646  31.954  29.298  1.00  0.00     0.251 C 
ATOM     30  H   UNL A   1      33.159  32.171  27.968  1.00  0.00     0.163 HD
ATOM     31  O   UNL A   1      34.145  32.734  30.098  1.00  0.00    -0.269 OA
BRANCH  29  32
ATOM     32  C   UNL A   1      36.024  31.443  29.534  1.00  0.00     0.039 A 
ATOM     33  C   UNL A   1      36.210  30.508  30.564  1.00  0.00     0.014 A 
ATOM     34  C   UNL A   1      37.139  31.942  28.852  1.00  0.00     0.014 A 
ATOM     35  C   UNL A   1      37.491  30.070  30.887  1.00  0.00     0.010 A 
ATOM     36  C   UNL A   1      38.410  31.470  29.127  1.00  0.00     0.010 A 
ATOM     37  C   UNL A   1      38.584  30.553  30.160  1.00  0.00    -0.014 A 
BRANCH  37  38
ATOM     38  C   UNL A   1      39.939  30.053  30.449  1.00  0.00     0.031 A 
ATOM     39  C   UNL A   1      40.734  31.076  31.290  1.00  0.00     0.074 A 
ATOM     40  C   UNL A   1      40.228  28.824  29.916  1.00  0.00     0.049 A 
ATOM     41  N   UNL A   1      41.985  31.418  31.244  1.00  0.00    -0.248 NA
ATOM     42  C   UNL A   1      39.989  31.928  32.260  1.00  0.00     0.031 C 
ATOM     43  C   UNL A   1      39.265  27.970  29.174  1.00  0.00     0.029 A 
ATOM     44  N   UNL A   1      41.352  28.031  29.879  1.00  0.00    -0.354 N 
ATOM     45  C   UNL A   1      42.215  32.362  32.279  1.00  0.00     0.074 A 
ATOM     46  C   UNL A   1      40.924  32.734  32.771  1.00  0.00     0.031 C 
ATOM     47  C   UNL A   1      39.863  26.857  28.696  1.00  0.00     0.029 A 
ATOM     48  C   UNL A   1      41.262  26.868  29.062  1.00  0.00     0.049 A 
ATOM     49  H   UNL A   1      42.167  28.253  30.385  1.00  0.00     0.167 HD
ATOM     50  C   UNL A   1      43.462  32.673  32.753  1.00  0.00     0.037 A 
ATOM     51  C   UNL A   1      42.267  26.032  28.645  1.00  0.00     0.037 A 
ATOM     52  C   UNL A   1      44.434  31.877  32.082  1.00  0.00     0.049 A 
ATOM     53  C   UNL A   1      43.473  26.580  29.288  1.00  0.00     0.074 A 
ATOM     54  C   UNL A   1      44.977  31.939  30.827  1.00  0.00     0.029 A 
ATOM     55  N   UNL A   1      44.685  30.636  32.618  1.00  0.00    -0.354 N 
ATOM     56  N   UNL A   1      43.753  26.501  30.554  1.00  0.00    -0.248 NA
ATOM     57  C   UNL A   1      44.352  27.431  28.477  1.00  0.00     0.031 C 
ATOM     58  C   UNL A   1      45.094  30.582  30.458  1.00  0.00     0.029 A 
ATOM     59  C   UNL A   1      44.839  29.765  31.566  1.00  0.00     0.049 A 
ATOM     60  H   UNL A   1      44.743  30.414  33.575  1.00  0.00     0.167 HD
ATOM     61  C   UNL A   1      44.645  27.532  30.730  1.00  0.00     0.074 A 
ATOM     62  C   UNL A   1      45.185  27.843  29.426  1.00  0.00     0.031 C 
ATOM     63  C   UNL A   1      44.531  28.369  31.792  1.00  0.00     0.037 A 
BRANCH  50  64
ATOM     64  C   UNL A   1      43.955  33.457  33.946  1.00  0.00     0.058 A 
ATOM     65  C   UNL A   1      43.636  32.965  35.240  1.00  0.00     0.135 A 
ATOM     66  C   UNL A   1      44.414  34.780  33.891  1.00  0.00     0.135 A 
ATOM     67  F   UNL A   1      43.262  31.687  35.417  1.00  0.00    -0.206 F 
ATOM     68  C   UNL A   1      43.626  33.772  36.374  1.00  0.00     0.059 A 
ATOM     69  C   UNL A   1      44.454  35.597  35.030  1.00  0.00     0.059 A 
ATOM     70  F   UNL A   1      44.764  35.341  32.727  1.00  0.00    -0.206 F 
ATOM     71  C   UNL A   1      44.002  35.101  36.252  1.00  0.00     0.060 A 
BRANCH  71  72
ATOM     72  S   UNL A   1      43.855  36.167  37.703  1.00  0.00     0.124 S 
ATOM     73  O   UNL A   1      43.331  37.397  37.117  1.00  0.00    -0.237 OA
ATOM     74  O   UNL A   1      42.921  35.421  38.541  1.00  0.00    -0.237 OA
ATOM     75  O   UNL A   1      45.221  36.236  38.208  1.00  0.00    -0.744 OA
ENDBRANCH  71  72
ENDBRANCH  50  64
BRANCH  51  76
ATOM     76  C   UNL A   1      42.472  24.943  27.603  1.00  0.00     0.058 A 
ATOM     77  C   UNL A   1      42.643  25.122  26.224  1.00  0.00     0.135 A 
ATOM     78  C   UNL A   1      42.613  23.588  28.027  1.00  0.00     0.135 A 
ATOM     79  F   UNL A   1      42.371  26.296  25.642  1.00  0.00    -0.206 F 
ATOM     80  C   UNL A   1      43.099  24.088  25.377  1.00  0.00     0.059 A 
ATOM     81  C   UNL A   1      43.111  22.564  27.225  1.00  0.00     0.059 A 
ATOM     82  F   UNL A   1      42.297  23.199  29.269  1.00  0.00    -0.206 F 
ATOM     83  C   UNL A   1      43.389  22.829  25.901  1.00  0.00     0.060 A 
BRANCH  83  84
ATOM     84  S   UNL A   1      44.233  21.573  24.915  1.00  0.00     0.124 S 
ATOM     85  O   UNL A   1      45.555  21.537  25.530  1.00  0.00    -0.237 OA
ATOM     86  O   UNL A   1      43.398  20.393  25.126  1.00  0.00    -0.237 OA
ATOM     87  O   UNL A   1      44.183  22.122  23.562  1.00  0.00    -0.744 OA
ENDBRANCH  83  84
ENDBRANCH  51  76
BRANCH  63  88
ATOM     88  C   UNL A   1      43.761  27.805  32.976  1.00  0.00     0.058 A 
ATOM     89  C   UNL A   1      44.312  26.771  33.747  1.00  0.00     0.135 A 
ATOM     90  C   UNL A   1      42.460  28.203  33.332  1.00  0.00     0.135 A 
ATOM     91  F   UNL A   1      45.547  26.321  33.474  1.00  0.00    -0.206 F 
ATOM     92  C   UNL A   1      43.622  26.186  34.816  1.00  0.00     0.059 A 
ATOM     93  C   UNL A   1      41.750  27.645  34.399  1.00  0.00     0.059 A 
ATOM     94  F   UNL A   1      41.831  29.151  32.642  1.00  0.00    -0.206 F 
ATOM     95  C   UNL A   1      42.343  26.635  35.143  1.00  0.00     0.060 A 
BRANCH  95  96
ATOM     96  S   UNL A   1      41.483  25.909  36.557  1.00  0.00     0.124 S 
ATOM     97  O   UNL A   1      41.084  27.086  37.321  1.00  0.00    -0.237 OA
ATOM     98  O   UNL A   1      40.399  25.176  35.910  1.00  0.00    -0.237 OA
ATOM     99  O   UNL A   1      42.503  25.075  37.192  1.00  0.00    -0.744 OA
ENDBRANCH  95  96
ENDBRANCH  63  88
ENDBRANCH  37  38
ENDBRANCH  29  32
ENDBRANCH  27  28
ENDBRANCH  26  27
ENDBRANCH  25  26
ENDBRANCH   1  25
TORSDOF 20
ENDMDL
MODEL 3
REMARK VINA RESULT:     -10.6      1.707      2.460
REMARK SMILES CCn1cccc1C(=O)N(C)c1snc(C)c1C(=O)NCCCCCCNC(=O)c1ccc(-c2c3nc(c(-c4c(F)cc(S(=O)(=O)[O-])cc4F)c4ccc([nH]4)c(-c4c(F)cc(S(=O)(=O)[O-])cc4F)c4nc(c(-c5c(F)cc(S(=O)(=O)[O-])cc5F)c5ccc2[nH]5)C=C4)C=C3)cc1
REMARK SMILES IDX 23 1 22 2 21 3 20 4 18 5 19 6 17 8 12 9 13 10 14 11 15 12
REMARK SMILES IDX 16 13 10 14 11 15 8 16 9 17 7 18 3 19 4 20 5 21 6 22 2 23
REMARK SMILES IDX 1 24 24 25 25 26 26 27 27 28 28 29 29 31 30 32 31 33 95 34
REMARK SMILES IDX 32 35 94 36 33 37 34 38 35 39 88 40 36 41 93 42 87 43 89 44
REMARK SMILES IDX 37 45 92 46 86 47 85 48 38 50 72 51 51 52 71 53 52 54 55 55
REMARK SMILES IDX 70 56 90 57 53 58 54 59 69 61 91 62 56 63 39 64 40 65 49 66
REMARK SMILES IDX 41 67 42 68 48 69 50 70 43 71 44 72 45 73 46 74 47 75 73 76
REMARK SMILES IDX 74 77 83 78 75 79 76 80 82 81 84 82 77 83 78 84 79 85 80 86
REMARK SMILES IDX 81 87 57 88 58 89 67 90 59 91 60 92 66 93 68 94 61 95 62 96
REMARK SMILES IDX 63 97 64 98 65 99
REMARK H PARENT 20 7 27 30 89 49 55 60
REMARK Flexibility Score: inf
ROOT
ATOM      1  C   UNL A   1      32.267  28.155  23.596  1.00  0.00     0.002 C 
ENDROOT
BRANCH   1   2
ATOM      2  C   UNL A   1      33.242  27.453  22.648  1.00  0.00     0.021 C 
BRANCH   2   3
ATOM      3  C   UNL A   1      33.255  25.931  22.638  1.00  0.00     0.116 C 
BRANCH   3   4
ATOM      4  N   UNL A   1      31.992  25.277  22.473  1.00  0.00    -0.352 N 
ATOM      5  C   UNL A   1      31.207  24.610  23.382  1.00  0.00     0.256 C 
ATOM      6  O   UNL A   1      30.064  24.368  22.976  1.00  0.00    -0.269 OA
ATOM      7  H   UNL A   1      31.626  25.312  21.559  1.00  0.00     0.163 HD
BRANCH   5   8
ATOM      8  C   UNL A   1      31.635  24.129  24.706  1.00  0.00     0.097 A 
ATOM      9  C   UNL A   1      32.578  23.189  25.121  1.00  0.00     0.131 A 
ATOM     10  S   UNL A   1      32.741  23.245  26.832  1.00  0.00    -0.017 S 
ATOM     11  N   UNL A   1      31.478  24.249  27.101  1.00  0.00    -0.195 NA
ATOM     12  C   UNL A   1      30.963  24.618  25.928  1.00  0.00     0.066 A 
ATOM     13  C   UNL A   1      29.714  25.436  26.021  1.00  0.00     0.069 C 
BRANCH   9  14
ATOM     14  N   UNL A   1      33.380  22.204  24.512  1.00  0.00    -0.300 N 
ATOM     15  C   UNL A   1      34.458  22.696  23.666  1.00  0.00     0.154 C 
BRANCH  14  16
ATOM     16  C   UNL A   1      32.969  20.866  24.676  1.00  0.00     0.275 C 
ATOM     17  O   UNL A   1      31.790  20.682  25.017  1.00  0.00    -0.267 OA
BRANCH  16  18
ATOM     18  C   UNL A   1      33.837  19.651  24.568  1.00  0.00     0.107 A 
ATOM     19  N   UNL A   1      35.187  19.301  24.743  1.00  0.00    -0.344 N 
ATOM     20  C   UNL A   1      35.329  17.928  24.645  1.00  0.00     0.086 A 
ATOM     21  C   UNL A   1      34.129  17.363  24.327  1.00  0.00     0.020 A 
ATOM     22  C   UNL A   1      33.215  18.423  24.261  1.00  0.00     0.033 A 
BRANCH  19  23
ATOM     23  C   UNL A   1      36.345  20.140  25.001  1.00  0.00     0.119 C 
ATOM     24  C   UNL A   1      37.737  19.511  24.953  1.00  0.00     0.027 C 
ENDBRANCH  19  23
ENDBRANCH  16  18
ENDBRANCH  14  16
ENDBRANCH   9  14
ENDBRANCH   5   8
ENDBRANCH   3   4
ENDBRANCH   2   3
ENDBRANCH   1   2
BRANCH   1  25
ATOM     25  C   UNL A   1      32.451  27.966  25.109  1.00  0.00     0.002 C 
BRANCH  25  26
ATOM     26  C   UNL A   1      33.813  28.330  25.709  1.00  0.00     0.021 C 
BRANCH  26  27
ATOM     27  C   UNL A   1      33.812  28.579  27.208  1.00  0.00     0.116 C 
BRANCH  27  28
ATOM     28  N   UNL A   1      33.744  29.986  27.545  1.00  0.00    -0.352 N 
ATOM     29  C   UNL A   1      34.609  30.740  28.306  1.00  0.00     0.251 C 
ATOM     30  H   UNL A   1      32.970  30.472  27.179  1.00  0.00     0.163 HD
ATOM     31  O   UNL A   1      34.207  31.799  28.770  1.00  0.00    -0.269 OA
BRANCH  29  32
ATOM     32  C   UNL A   1      36.006  30.304  28.572  1.00  0.00     0.039 A 
ATOM     33  C   UNL A   1      36.934  30.396  27.523  1.00  0.00     0.014 A 
ATOM     34  C   UNL A   1      36.392  29.707  29.777  1.00  0.00     0.014 A 
ATOM     35  C   UNL A   1      38.229  29.914  27.691  1.00  0.00     0.010 A 
ATOM     36  C   UNL A   1      37.692  29.277  29.973  1.00  0.00     0.010 A 
ATOM     37  C   UNL A   1      38.600  29.362  28.921  1.00  0.00    -0.014 A 
BRANCH  37  38
ATOM     38  C   UNL A   1      39.984  28.903  29.135  1.00  0.00     0.031 A 
ATOM     39  C   UNL A   1      40.879  30.063  29.621  1.00  0.00     0.074 A 
ATOM     40  C   UNL A   1      40.204  27.579  28.851  1.00  0.00     0.049 A 
ATOM     41  N   UNL A   1      42.112  30.354  29.339  1.00  0.00    -0.248 NA
ATOM     42  C   UNL A   1      40.266  31.125  30.469  1.00  0.00     0.031 C 
ATOM     43  C   UNL A   1      39.153  26.610  28.446  1.00  0.00     0.029 A 
ATOM     44  N   UNL A   1      41.315  26.769  28.843  1.00  0.00    -0.354 N 
ATOM     45  C   UNL A   1      42.474  31.494  30.103  1.00  0.00     0.074 A 
ATOM     46  C   UNL A   1      41.259  31.998  30.665  1.00  0.00     0.031 C 
ATOM     47  C   UNL A   1      39.686  25.404  28.149  1.00  0.00     0.029 A 
ATOM     48  C   UNL A   1      41.122  25.458  28.320  1.00  0.00     0.049 A 
ATOM     49  H   UNL A   1      42.189  27.074  29.178  1.00  0.00     0.167 HD
ATOM     50  C   UNL A   1      43.772  31.868  30.332  1.00  0.00     0.037 A 
ATOM     51  C   UNL A   1      42.065  24.526  27.969  1.00  0.00     0.037 A 
ATOM     52  C   UNL A   1      44.649  30.920  29.731  1.00  0.00     0.049 A 
ATOM     53  C   UNL A   1      43.344  25.170  28.315  1.00  0.00     0.074 A 
ATOM     54  C   UNL A   1      45.021  30.694  28.433  1.00  0.00     0.029 A 
ATOM     55  N   UNL A   1      44.972  29.819  30.489  1.00  0.00    -0.354 N 
ATOM     56  N   UNL A   1      43.789  25.360  29.520  1.00  0.00    -0.248 NA
ATOM     57  C   UNL A   1      44.105  25.801  27.230  1.00  0.00     0.031 C 
ATOM     58  C   UNL A   1      45.093  29.286  28.359  1.00  0.00     0.029 A 
ATOM     59  C   UNL A   1      44.989  28.737  29.643  1.00  0.00     0.049 A 
ATOM     60  H   UNL A   1      45.157  29.810  31.456  1.00  0.00     0.167 HD
ATOM     61  C   UNL A   1      44.693  26.381  29.349  1.00  0.00     0.074 A 
ATOM     62  C   UNL A   1      45.055  26.388  27.949  1.00  0.00     0.031 C 
ATOM     63  C   UNL A   1      44.718  27.432  30.207  1.00  0.00     0.037 A 
BRANCH  50  64
ATOM     64  C   UNL A   1      44.416  32.880  31.250  1.00  0.00     0.058 A 
ATOM     65  C   UNL A   1      45.204  33.903  30.660  1.00  0.00     0.135 A 
ATOM     66  C   UNL A   1      44.567  32.712  32.634  1.00  0.00     0.135 A 
ATOM     67  F   UNL A   1      45.080  34.202  29.356  1.00  0.00    -0.206 F 
ATOM     68  C   UNL A   1      46.183  34.601  31.360  1.00  0.00     0.059 A 
ATOM     69  C   UNL A   1      45.517  33.437  33.367  1.00  0.00     0.059 A 
ATOM     70  F   UNL A   1      43.858  31.791  33.299  1.00  0.00    -0.206 F 
ATOM     71  C   UNL A   1      46.358  34.335  32.710  1.00  0.00     0.060 A 
BRANCH  71  72
ATOM     72  S   UNL A   1      47.719  35.151  33.573  1.00  0.00     0.124 S 
ATOM     73  O   UNL A   1      48.750  34.118  33.548  1.00  0.00    -0.237 OA
ATOM     74  O   UNL A   1      47.971  36.312  32.724  1.00  0.00    -0.237 OA
ATOM     75  O   UNL A   1      47.154  35.453  34.883  1.00  0.00    -0.744 OA
ENDBRANCH  71  72
ENDBRANCH  50  64
BRANCH  51  76
ATOM     76  C   UNL A   1      42.134  23.232  27.174  1.00  0.00     0.058 A 
ATOM     77  C   UNL A   1      42.652  23.066  25.883  1.00  0.00     0.135 A 
ATOM     78  C   UNL A   1      41.736  22.009  27.792  1.00  0.00     0.135 A 
ATOM     79  F   UNL A   1      42.906  24.122  25.101  1.00  0.00    -0.206 F 
ATOM     80  C   UNL A   1      42.927  21.794  25.334  1.00  0.00     0.059 A 
ATOM     81  C   UNL A   1      42.042  20.744  27.297  1.00  0.00     0.059 A 
ATOM     82  F   UNL A   1      41.046  21.989  28.941  1.00  0.00    -0.206 F 
ATOM     83  C   UNL A   1      42.675  20.641  26.077  1.00  0.00     0.060 A 
BRANCH  83  84
ATOM     84  S   UNL A   1      43.266  19.024  25.530  1.00  0.00     0.124 S 
ATOM     85  O   UNL A   1      43.738  19.310  24.180  1.00  0.00    -0.237 OA
ATOM     86  O   UNL A   1      44.299  18.717  26.515  1.00  0.00    -0.237 OA
ATOM     87  O   UNL A   1      42.072  18.186  25.616  1.00  0.00    -0.744 OA
ENDBRANCH  83  84
ENDBRANCH  51  76
BRANCH  63  88
ATOM     88  C   UNL A   1      44.113  27.159  31.575  1.00  0.00     0.058 A 
ATOM     89  C   UNL A   1      44.741  26.270  32.459  1.00  0.00     0.135 A 
ATOM     90  C   UNL A   1      42.890  27.694  32.017  1.00  0.00     0.135 A 
ATOM     91  F   UNL A   1      45.909  25.704  32.117  1.00  0.00    -0.206 F 
ATOM     92  C   UNL A   1      44.198  25.949  33.708  1.00  0.00     0.059 A 
ATOM     93  C   UNL A   1      42.327  27.400  33.263  1.00  0.00     0.059 A 
ATOM     94  F   UNL A   1      42.194  28.521  31.241  1.00  0.00    -0.206 F 
ATOM     95  C   UNL A   1      42.993  26.526  34.109  1.00  0.00     0.060 A 
BRANCH  95  96
ATOM     96  S   UNL A   1      42.328  26.145  35.746  1.00  0.00     0.124 S 
ATOM     97  O   UNL A   1      41.576  24.920  35.503  1.00  0.00    -0.237 OA
ATOM     98  O   UNL A   1      43.543  25.996  36.540  1.00  0.00    -0.237 OA
ATOM     99  O   UNL A   1      41.516  27.317  36.071  1.00  0.00    -0.744 OA
ENDBRANCH  95  96
ENDBRANCH  63  88
ENDBRANCH  37  38
ENDBRANCH  29  32
ENDBRANCH  27  28
ENDBRANCH  26  27
ENDBRANCH  25  26
ENDBRANCH   1  25
TORSDOF 20
ENDMDL
