MODEL 1
REMARK VINA RESULT:     -13.8      0.000      0.000
REMARK SMILES C[C@]12C(=O)N(c3ccc(C(=O)NCCCCCCNC(=O)c4ccc(-c5c6nc(c(-c7c(F)cc(S(=O)(=O)[O-])cc7F)c7ccc([nH]7)c(-c7c(F)cc(S(=O)(=O)[O-])cc7F)c7nc(c(-c8c(F)cc(S(=O)(=O)[O-])cc8F)c8ccc5[nH]8)C=C7)C=C6)cc4)cc3)C(=O)[C@H]1[C@H]1c3ccccc3[C@@H]2c2ccccc21
REMARK SMILES IDX 16 1 15 2 14 3 13 4 12 5 10 6 11 7 9 9 6 10 7 11 89 12 8 13
REMARK SMILES IDX 88 14 5 15 1 16 2 17 3 18 92 19 100 20 4 21 90 22 93 23
REMARK SMILES IDX 99 24 101 25 91 26 94 27 106 28 98 29 102 30 95 31 105 32
REMARK SMILES IDX 97 33 103 34 96 35 104 36 17 37 18 38 19 39 20 40 21 42
REMARK SMILES IDX 22 43 23 44 87 45 24 46 86 47 25 48 26 49 27 50 80 51 28 52
REMARK SMILES IDX 85 53 79 54 81 55 29 56 84 57 78 58 77 59 30 61 64 62 43 63
REMARK SMILES IDX 63 64 44 65 47 66 62 67 82 68 45 69 46 70 61 72 83 73 48 74
REMARK SMILES IDX 31 75 32 76 41 77 33 78 34 79 40 80 42 81 35 82 36 83 37 84
REMARK SMILES IDX 38 85 39 86 65 87 66 88 75 89 67 90 68 91 74 92 76 93 69 94
REMARK SMILES IDX 70 95 71 96 72 97 73 98 49 99 50 100 59 101 51 102 52 103
REMARK SMILES IDX 58 104 60 105 53 106 54 107 55 108 56 109 57 110
REMARK H PARENT 12 8 19 41 81 60 47 71
REMARK Flexibility Score: inf
ROOT
ATOM      1  C   UNL A   1      41.170  22.062  27.880  1.00  0.00     0.002 C 
ENDROOT
BRANCH   1   2
ATOM      2  C   UNL A   1      39.999  22.080  26.894  1.00  0.00     0.002 C 
BRANCH   2   3
ATOM      3  C   UNL A   1      39.113  23.327  26.878  1.00  0.00     0.021 C 
BRANCH   3   4
ATOM      4  C   UNL A   1      37.968  23.340  25.875  1.00  0.00     0.116 C 
BRANCH   4   5
ATOM      5  N   UNL A   1      37.180  22.126  25.893  1.00  0.00    -0.352 N 
ATOM      6  C   UNL A   1      35.876  21.923  25.525  1.00  0.00     0.251 C 
ATOM      7  O   UNL A   1      35.364  20.817  25.696  1.00  0.00    -0.269 OA
ATOM      8  H   UNL A   1      37.652  21.326  26.218  1.00  0.00     0.163 HD
BRANCH   6   9
ATOM      9  C   UNL A   1      35.056  23.020  24.959  1.00  0.00     0.039 A 
ATOM     10  C   UNL A   1      33.599  25.112  23.728  1.00  0.00     0.052 A 
ATOM     11  C   UNL A   1      33.975  23.964  23.011  1.00  0.00     0.027 A 
ATOM     12  C   UNL A   1      33.948  25.178  25.086  1.00  0.00     0.027 A 
ATOM     13  C   UNL A   1      34.693  22.929  23.617  1.00  0.00     0.016 A 
ATOM     14  C   UNL A   1      34.704  24.162  25.684  1.00  0.00     0.016 A 
BRANCH  10  15
ATOM     15  N   UNL A   1      33.102  26.262  23.070  1.00  0.00    -0.250 N 
ATOM     16  C   UNL A   1      32.568  29.426  22.078  1.00  0.00     0.024 C 
ATOM     17  C   UNL A   1      32.073  28.307  23.016  1.00  0.00     0.071 C 
ATOM     18  C   UNL A   1      33.281  27.541  23.480  1.00  0.00     0.241 C 
ATOM     19  C   UNL A   1      31.125  27.311  22.190  1.00  0.00     0.107 C 
ATOM     20  C   UNL A   1      31.417  28.849  24.338  1.00  0.00     0.066 C 
ATOM     21  O   UNL A   1      34.201  28.044  24.099  1.00  0.00    -0.273 OA
ATOM     22  C   UNL A   1      32.272  26.283  21.984  1.00  0.00     0.238 C 
ATOM     23  C   UNL A   1      29.704  27.489  22.910  1.00  0.00     0.063 C 
ATOM     24  C   UNL A   1      30.862  27.624  25.076  1.00  0.00    -0.036 A 
ATOM     25  C   UNL A   1      30.234  29.683  23.889  1.00  0.00    -0.036 A 
ATOM     26  O   UNL A   1      32.389  25.606  20.967  1.00  0.00    -0.274 OA
ATOM     27  C   UNL A   1      29.903  26.907  24.321  1.00  0.00    -0.036 A 
ATOM     28  C   UNL A   1      29.335  28.961  23.073  1.00  0.00    -0.036 A 
ATOM     29  C   UNL A   1      31.308  27.125  26.293  1.00  0.00     0.005 A 
ATOM     30  C   UNL A   1      29.995  31.005  24.234  1.00  0.00     0.005 A 
ATOM     31  C   UNL A   1      29.381  25.704  24.778  1.00  0.00     0.004 A 
ATOM     32  C   UNL A   1      28.185  29.574  22.595  1.00  0.00     0.004 A 
ATOM     33  C   UNL A   1      30.791  25.909  26.748  1.00  0.00     0.000 A 
ATOM     34  C   UNL A   1      28.840  31.617  23.753  1.00  0.00     0.000 A 
ATOM     35  C   UNL A   1      29.832  25.207  25.999  1.00  0.00     0.000 A 
ATOM     36  C   UNL A   1      27.943  30.908  22.939  1.00  0.00     0.000 A 
ENDBRANCH  10  15
ENDBRANCH   6   9
ENDBRANCH   4   5
ENDBRANCH   3   4
ENDBRANCH   2   3
ENDBRANCH   1   2
BRANCH   1  37
ATOM     37  C   UNL A   1      42.579  22.083  27.289  1.00  0.00     0.021 C 
BRANCH  37  38
ATOM     38  C   UNL A   1      43.219  23.452  27.108  1.00  0.00     0.116 C 
BRANCH  38  39
ATOM     39  N   UNL A   1      42.657  24.213  26.007  1.00  0.00    -0.352 N 
ATOM     40  C   UNL A   1      42.008  25.427  26.035  1.00  0.00     0.251 C 
ATOM     41  H   UNL A   1      42.756  23.805  25.116  1.00  0.00     0.163 HD
ATOM     42  O   UNL A   1      41.514  25.882  25.008  1.00  0.00    -0.269 OA
BRANCH  40  43
ATOM     43  C   UNL A   1      41.865  26.160  27.316  1.00  0.00     0.039 A 
ATOM     44  C   UNL A   1      40.859  25.832  28.228  1.00  0.00     0.014 A 
ATOM     45  C   UNL A   1      42.738  27.216  27.591  1.00  0.00     0.014 A 
ATOM     46  C   UNL A   1      40.624  26.660  29.324  1.00  0.00     0.010 A 
ATOM     47  C   UNL A   1      42.549  27.998  28.736  1.00  0.00     0.010 A 
ATOM     48  C   UNL A   1      41.460  27.757  29.587  1.00  0.00    -0.014 A 
BRANCH  48  49
ATOM     49  C   UNL A   1      41.172  28.640  30.748  1.00  0.00     0.031 A 
ATOM     50  C   UNL A   1      42.044  28.611  31.977  1.00  0.00     0.074 A 
ATOM     51  C   UNL A   1      40.148  29.513  30.675  1.00  0.00     0.049 A 
ATOM     52  N   UNL A   1      41.951  29.324  33.071  1.00  0.00    -0.248 NA
ATOM     53  C   UNL A   1      43.166  27.658  31.980  1.00  0.00     0.031 C 
ATOM     54  C   UNL A   1      39.237  29.646  29.536  1.00  0.00     0.029 A 
ATOM     55  N   UNL A   1      39.718  30.471  31.557  1.00  0.00    -0.354 N 
ATOM     56  C   UNL A   1      42.985  28.898  33.897  1.00  0.00     0.074 A 
ATOM     57  C   UNL A   1      43.681  27.845  33.188  1.00  0.00     0.031 C 
ATOM     58  C   UNL A   1      38.391  30.662  29.766  1.00  0.00     0.029 A 
ATOM     59  C   UNL A   1      38.663  31.218  31.089  1.00  0.00     0.049 A 
ATOM     60  H   UNL A   1      40.126  30.611  32.442  1.00  0.00     0.167 HD
ATOM     61  C   UNL A   1      43.333  29.351  35.126  1.00  0.00     0.037 A 
ATOM     62  C   UNL A   1      37.982  32.230  31.658  1.00  0.00     0.037 A 
ATOM     63  C   UNL A   1      42.653  30.413  35.822  1.00  0.00     0.049 A 
ATOM     64  C   UNL A   1      38.366  32.694  33.033  1.00  0.00     0.074 A 
ATOM     65  C   UNL A   1      42.938  30.948  37.067  1.00  0.00     0.029 A 
ATOM     66  N   UNL A   1      41.555  31.107  35.333  1.00  0.00    -0.354 N 
ATOM     67  N   UNL A   1      39.341  32.270  33.801  1.00  0.00    -0.248 NA
ATOM     68  C   UNL A   1      37.553  33.765  33.625  1.00  0.00     0.031 C 
ATOM     69  C   UNL A   1      41.995  31.944  37.343  1.00  0.00     0.029 A 
ATOM     70  C   UNL A   1      41.144  32.055  36.256  1.00  0.00     0.049 A 
ATOM     71  H   UNL A   1      41.132  30.950  34.459  1.00  0.00     0.167 HD
ATOM     72  C   UNL A   1      39.263  33.025  34.964  1.00  0.00     0.074 A 
ATOM     73  C   UNL A   1      38.156  33.944  34.792  1.00  0.00     0.031 C 
ATOM     74  C   UNL A   1      40.036  32.958  36.075  1.00  0.00     0.037 A 
BRANCH  61  75
ATOM     75  C   UNL A   1      44.503  28.695  35.806  1.00  0.00     0.058 A 
ATOM     76  C   UNL A   1      45.815  29.152  35.614  1.00  0.00     0.135 A 
ATOM     77  C   UNL A   1      44.304  27.626  36.696  1.00  0.00     0.135 A 
ATOM     78  F   UNL A   1      46.062  30.160  34.762  1.00  0.00    -0.206 F 
ATOM     79  C   UNL A   1      46.894  28.559  36.264  1.00  0.00     0.059 A 
ATOM     80  C   UNL A   1      45.366  27.031  37.373  1.00  0.00     0.059 A 
ATOM     81  F   UNL A   1      43.068  27.152  36.917  1.00  0.00    -0.206 F 
ATOM     82  C   UNL A   1      46.659  27.498  37.139  1.00  0.00     0.060 A 
BRANCH  82  83
ATOM     83  S   UNL A   1      48.070  26.740  37.973  1.00  0.00     0.124 S 
ATOM     84  O   UNL A   1      49.044  27.827  37.940  1.00  0.00    -0.237 OA
ATOM     85  O   UNL A   1      47.522  26.422  39.288  1.00  0.00    -0.237 OA
ATOM     86  O   UNL A   1      48.385  25.588  37.133  1.00  0.00    -0.744 OA
ENDBRANCH  82  83
ENDBRANCH  61  75
BRANCH  62  87
ATOM     87  C   UNL A   1      36.872  32.874  30.910  1.00  0.00     0.058 A 
ATOM     88  C   UNL A   1      35.539  32.520  31.157  1.00  0.00     0.135 A 
ATOM     89  C   UNL A   1      37.119  33.894  29.978  1.00  0.00     0.135 A 
ATOM     90  F   UNL A   1      35.255  31.544  32.035  1.00  0.00    -0.206 F 
ATOM     91  C   UNL A   1      34.486  33.158  30.513  1.00  0.00     0.059 A 
ATOM     92  C   UNL A   1      36.083  34.563  29.337  1.00  0.00     0.059 A 
ATOM     93  F   UNL A   1      38.379  34.276  29.720  1.00  0.00    -0.206 F 
ATOM     94  C   UNL A   1      34.768  34.186  29.610  1.00  0.00     0.060 A 
BRANCH  94  95
ATOM     95  S   UNL A   1      33.391  35.069  28.844  1.00  0.00     0.124 S 
ATOM     96  O   UNL A   1      34.087  36.123  28.116  1.00  0.00    -0.237 OA
ATOM     97  O   UNL A   1      32.774  34.028  28.028  1.00  0.00    -0.237 OA
ATOM     98  O   UNL A   1      32.599  35.508  29.990  1.00  0.00    -0.744 OA
ENDBRANCH  94  95
ENDBRANCH  62  87
BRANCH  74  99
ATOM     99  C   UNL A   1      39.717  33.907  37.195  1.00  0.00     0.058 A 
ATOM    100  C   UNL A   1      38.870  33.534  38.248  1.00  0.00     0.135 A 
ATOM    101  C   UNL A   1      40.310  35.179  37.243  1.00  0.00     0.135 A 
ATOM    102  F   UNL A   1      38.273  32.332  38.243  1.00  0.00    -0.206 F 
ATOM    103  C   UNL A   1      38.611  34.395  39.309  1.00  0.00     0.059 A 
ATOM    104  C   UNL A   1      40.080  36.048  38.305  1.00  0.00     0.059 A 
ATOM    105  F   UNL A   1      41.134  35.579  36.262  1.00  0.00    -0.206 F 
ATOM    106  C   UNL A   1      39.222  35.651  39.330  1.00  0.00     0.060 A 
BRANCH 106 107
ATOM    107  S   UNL A   1      38.909  36.743  40.732  1.00  0.00     0.124 S 
ATOM    108  O   UNL A   1      38.027  35.920  41.554  1.00  0.00    -0.237 OA
ATOM    109  O   UNL A   1      40.250  36.962  41.265  1.00  0.00    -0.237 OA
ATOM    110  O   UNL A   1      38.286  37.913  40.120  1.00  0.00    -0.744 OA
ENDBRANCH 106 107
ENDBRANCH  74  99
ENDBRANCH  48  49
ENDBRANCH  40  43
ENDBRANCH  38  39
ENDBRANCH  37  38
ENDBRANCH   1  37
TORSDOF 17
ENDMDL
MODEL 2
REMARK VINA RESULT:     -13.7      1.162      2.371
REMARK SMILES C[C@]12C(=O)N(c3ccc(C(=O)NCCCCCCNC(=O)c4ccc(-c5c6nc(c(-c7c(F)cc(S(=O)(=O)[O-])cc7F)c7ccc([nH]7)c(-c7c(F)cc(S(=O)(=O)[O-])cc7F)c7nc(c(-c8c(F)cc(S(=O)(=O)[O-])cc8F)c8ccc5[nH]8)C=C7)C=C6)cc4)cc3)C(=O)[C@H]1[C@H]1c3ccccc3[C@@H]2c2ccccc21
REMARK SMILES IDX 16 1 15 2 14 3 13 4 12 5 10 6 11 7 9 9 6 10 7 11 89 12 8 13
REMARK SMILES IDX 88 14 5 15 1 16 2 17 3 18 92 19 100 20 4 21 90 22 93 23
REMARK SMILES IDX 99 24 101 25 91 26 94 27 106 28 98 29 102 30 95 31 105 32
REMARK SMILES IDX 97 33 103 34 96 35 104 36 17 37 18 38 19 39 20 40 21 42
REMARK SMILES IDX 22 43 23 44 87 45 24 46 86 47 25 48 26 49 27 50 80 51 28 52
REMARK SMILES IDX 85 53 79 54 81 55 29 56 84 57 78 58 77 59 30 61 64 62 43 63
REMARK SMILES IDX 63 64 44 65 47 66 62 67 82 68 45 69 46 70 61 72 83 73 48 74
REMARK SMILES IDX 31 75 32 76 41 77 33 78 34 79 40 80 42 81 35 82 36 83 37 84
REMARK SMILES IDX 38 85 39 86 65 87 66 88 75 89 67 90 68 91 74 92 76 93 69 94
REMARK SMILES IDX 70 95 71 96 72 97 73 98 49 99 50 100 59 101 51 102 52 103
REMARK SMILES IDX 58 104 60 105 53 106 54 107 55 108 56 109 57 110
REMARK H PARENT 12 8 19 41 81 60 47 71
REMARK Flexibility Score: inf
ROOT
ATOM      1  C   UNL A   1      40.796  22.147  28.011  1.00  0.00     0.002 C 
ENDROOT
BRANCH   1   2
ATOM      2  C   UNL A   1      40.988  20.925  27.110  1.00  0.00     0.002 C 
BRANCH   2   3
ATOM      3  C   UNL A   1      40.247  20.917  25.771  1.00  0.00     0.021 C 
BRANCH   3   4
ATOM      4  C   UNL A   1      38.818  21.442  25.776  1.00  0.00     0.116 C 
BRANCH   4   5
ATOM      5  N   UNL A   1      37.853  20.473  25.301  1.00  0.00    -0.352 N 
ATOM      6  C   UNL A   1      36.503  20.605  25.105  1.00  0.00     0.251 C 
ATOM      7  O   UNL A   1      35.842  19.623  24.768  1.00  0.00    -0.269 OA
ATOM      8  H   UNL A   1      38.222  19.587  25.085  1.00  0.00     0.163 HD
BRANCH   6   9
ATOM      9  C   UNL A   1      35.815  21.898  25.329  1.00  0.00     0.039 A 
ATOM     10  C   UNL A   1      34.354  24.272  25.819  1.00  0.00     0.052 A 
ATOM     11  C   UNL A   1      34.382  23.226  26.757  1.00  0.00     0.027 A 
ATOM     12  C   UNL A   1      35.097  24.113  24.639  1.00  0.00     0.027 A 
ATOM     13  C   UNL A   1      35.104  22.054  26.517  1.00  0.00     0.016 A 
ATOM     14  C   UNL A   1      35.786  22.922  24.379  1.00  0.00     0.016 A 
BRANCH  10  15
ATOM     15  N   UNL A   1      33.434  25.341  25.937  1.00  0.00    -0.250 N 
ATOM     16  C   UNL A   1      30.736  27.201  26.674  1.00  0.00     0.024 C 
ATOM     17  C   UNL A   1      31.408  26.348  25.580  1.00  0.00     0.071 C 
ATOM     18  C   UNL A   1      32.125  25.218  26.265  1.00  0.00     0.241 C 
ATOM     19  C   UNL A   1      32.493  27.246  24.809  1.00  0.00     0.107 C 
ATOM     20  C   UNL A   1      30.381  25.643  24.622  1.00  0.00     0.066 C 
ATOM     21  O   UNL A   1      31.567  24.392  26.965  1.00  0.00    -0.273 OA
ATOM     22  C   UNL A   1      33.668  26.653  25.635  1.00  0.00     0.238 C 
ATOM     23  C   UNL A   1      31.906  27.313  23.318  1.00  0.00     0.063 C 
ATOM     24  C   UNL A   1      31.211  24.963  23.525  1.00  0.00    -0.036 A 
ATOM     25  C   UNL A   1      29.599  26.765  23.970  1.00  0.00    -0.036 A 
ATOM     26  O   UNL A   1      34.653  27.309  25.962  1.00  0.00    -0.274 OA
ATOM     27  C   UNL A   1      32.008  25.871  22.789  1.00  0.00    -0.036 A 
ATOM     28  C   UNL A   1      30.429  27.698  23.310  1.00  0.00    -0.036 A 
ATOM     29  C   UNL A   1      31.330  23.596  23.313  1.00  0.00     0.005 A 
ATOM     30  C   UNL A   1      28.219  26.898  23.967  1.00  0.00     0.005 A 
ATOM     31  C   UNL A   1      32.916  25.424  21.838  1.00  0.00     0.004 A 
ATOM     32  C   UNL A   1      29.868  28.776  22.641  1.00  0.00     0.004 A 
ATOM     33  C   UNL A   1      32.251  23.145  22.363  1.00  0.00     0.000 A 
ATOM     34  C   UNL A   1      27.658  27.982  23.295  1.00  0.00     0.000 A 
ATOM     35  C   UNL A   1      33.033  24.051  21.628  1.00  0.00     0.000 A 
ATOM     36  C   UNL A   1      28.477  28.914  22.639  1.00  0.00     0.000 A 
ENDBRANCH  10  15
ENDBRANCH   6   9
ENDBRANCH   4   5
ENDBRANCH   3   4
ENDBRANCH   2   3
ENDBRANCH   1   2
BRANCH   1  37
ATOM     37  C   UNL A   1      42.032  22.997  28.304  1.00  0.00     0.021 C 
BRANCH  37  38
ATOM     38  C   UNL A   1      42.892  23.379  27.108  1.00  0.00     0.116 C 
BRANCH  38  39
ATOM     39  N   UNL A   1      42.149  24.037  26.048  1.00  0.00    -0.352 N 
ATOM     40  C   UNL A   1      41.400  25.191  26.103  1.00  0.00     0.251 C 
ATOM     41  H   UNL A   1      42.187  23.598  25.168  1.00  0.00     0.163 HD
ATOM     42  O   UNL A   1      40.759  25.554  25.122  1.00  0.00    -0.269 OA
BRANCH  40  43
ATOM     43  C   UNL A   1      41.330  25.969  27.364  1.00  0.00     0.039 A 
ATOM     44  C   UNL A   1      40.256  25.822  28.245  1.00  0.00     0.014 A 
ATOM     45  C   UNL A   1      42.347  26.885  27.650  1.00  0.00     0.014 A 
ATOM     46  C   UNL A   1      40.116  26.702  29.316  1.00  0.00     0.010 A 
ATOM     47  C   UNL A   1      42.243  27.714  28.773  1.00  0.00     0.010 A 
ATOM     48  C   UNL A   1      41.103  27.663  29.588  1.00  0.00    -0.014 A 
BRANCH  48  49
ATOM     49  C   UNL A   1      40.917  28.609  30.721  1.00  0.00     0.031 A 
ATOM     50  C   UNL A   1      41.867  28.611  31.890  1.00  0.00     0.074 A 
ATOM     51  C   UNL A   1      39.914  29.509  30.672  1.00  0.00     0.049 A 
ATOM     52  N   UNL A   1      41.866  29.376  32.952  1.00  0.00    -0.248 NA
ATOM     53  C   UNL A   1      42.960  27.625  31.867  1.00  0.00     0.031 C 
ATOM     54  C   UNL A   1      38.934  29.616  29.590  1.00  0.00     0.029 A 
ATOM     55  N   UNL A   1      39.570  30.519  31.533  1.00  0.00    -0.354 N 
ATOM     56  C   UNL A   1      42.941  28.958  33.729  1.00  0.00     0.074 A 
ATOM     57  C   UNL A   1      43.558  27.852  33.029  1.00  0.00     0.031 C 
ATOM     58  C   UNL A   1      38.134  30.667  29.824  1.00  0.00     0.029 A 
ATOM     59  C   UNL A   1      38.508  31.275  31.098  1.00  0.00     0.049 A 
ATOM     60  H   UNL A   1      40.040  30.688  32.381  1.00  0.00     0.167 HD
ATOM     61  C   UNL A   1      43.382  29.457  34.910  1.00  0.00     0.037 A 
ATOM     62  C   UNL A   1      37.895  32.333  31.660  1.00  0.00     0.037 A 
ATOM     63  C   UNL A   1      42.779  30.571  35.596  1.00  0.00     0.049 A 
ATOM     64  C   UNL A   1      38.382  32.849  32.983  1.00  0.00     0.074 A 
ATOM     65  C   UNL A   1      43.161  31.154  36.792  1.00  0.00     0.029 A 
ATOM     66  N   UNL A   1      41.671  31.275  35.146  1.00  0.00    -0.354 N 
ATOM     67  N   UNL A   1      39.393  32.432  33.705  1.00  0.00    -0.248 NA
ATOM     68  C   UNL A   1      37.639  33.971  33.574  1.00  0.00     0.031 C 
ATOM     69  C   UNL A   1      42.266  32.190  37.080  1.00  0.00     0.029 A 
ATOM     70  C   UNL A   1      41.348  32.277  36.046  1.00  0.00     0.049 A 
ATOM     71  H   UNL A   1      41.186  31.090  34.310  1.00  0.00     0.167 HD
ATOM     72  C   UNL A   1      39.413  33.243  34.834  1.00  0.00     0.074 A 
ATOM     73  C   UNL A   1      38.323  34.186  34.689  1.00  0.00     0.031 C 
ATOM     74  C   UNL A   1      40.255  33.204  35.894  1.00  0.00     0.037 A 
BRANCH  61  75
ATOM     75  C   UNL A   1      44.575  28.798  35.544  1.00  0.00     0.058 A 
ATOM     76  C   UNL A   1      44.433  27.736  36.450  1.00  0.00     0.135 A 
ATOM     77  C   UNL A   1      45.877  29.203  35.207  1.00  0.00     0.135 A 
ATOM     78  F   UNL A   1      43.210  27.320  36.817  1.00  0.00    -0.206 F 
ATOM     79  C   UNL A   1      45.540  27.111  37.018  1.00  0.00     0.059 A 
ATOM     80  C   UNL A   1      46.999  28.578  35.747  1.00  0.00     0.059 A 
ATOM     81  F   UNL A   1      46.069  30.213  34.345  1.00  0.00    -0.206 F 
ATOM     82  C   UNL A   1      46.819  27.541  36.662  1.00  0.00     0.060 A 
BRANCH  82  83
ATOM     83  S   UNL A   1      48.243  26.720  37.408  1.00  0.00     0.124 S 
ATOM     84  O   UNL A   1      47.641  25.483  37.896  1.00  0.00    -0.237 OA
ATOM     85  O   UNL A   1      49.150  26.577  36.274  1.00  0.00    -0.237 OA
ATOM     86  O   UNL A   1      48.676  27.658  38.439  1.00  0.00    -0.744 OA
ENDBRANCH  82  83
ENDBRANCH  61  75
BRANCH  62  87
ATOM     87  C   UNL A   1      36.755  32.976  30.956  1.00  0.00     0.058 A 
ATOM     88  C   UNL A   1      35.437  32.776  31.389  1.00  0.00     0.135 A 
ATOM     89  C   UNL A   1      36.967  33.845  29.874  1.00  0.00     0.135 A 
ATOM     90  F   UNL A   1      35.187  31.947  32.415  1.00  0.00    -0.206 F 
ATOM     91  C   UNL A   1      34.367  33.420  30.781  1.00  0.00     0.059 A 
ATOM     92  C   UNL A   1      35.915  34.518  29.263  1.00  0.00     0.059 A 
ATOM     93  F   UNL A   1      38.213  34.077  29.433  1.00  0.00    -0.206 F 
ATOM     94  C   UNL A   1      34.617  34.298  29.723  1.00  0.00     0.060 A 
BRANCH  94  95
ATOM     95  S   UNL A   1      33.230  35.198  28.997  1.00  0.00     0.124 S 
ATOM     96  O   UNL A   1      33.910  36.310  28.345  1.00  0.00    -0.237 OA
ATOM     97  O   UNL A   1      32.644  34.197  28.111  1.00  0.00    -0.237 OA
ATOM     98  O   UNL A   1      32.415  35.547  30.158  1.00  0.00    -0.744 OA
ENDBRANCH  94  95
ENDBRANCH  62  87
BRANCH  74  99
ATOM     99  C   UNL A   1      40.038  34.214  36.985  1.00  0.00     0.058 A 
ATOM    100  C   UNL A   1      40.549  35.516  36.886  1.00  0.00     0.135 A 
ATOM    101  C   UNL A   1      39.263  33.893  38.111  1.00  0.00     0.135 A 
ATOM    102  F   UNL A   1      41.303  35.868  35.833  1.00  0.00    -0.206 F 
ATOM    103  C   UNL A   1      40.310  36.465  37.874  1.00  0.00     0.059 A 
ATOM    104  C   UNL A   1      38.995  34.832  39.101  1.00  0.00     0.059 A 
ATOM    105  F   UNL A   1      38.745  32.661  38.247  1.00  0.00    -0.206 F 
ATOM    106  C   UNL A   1      39.529  36.114  38.978  1.00  0.00     0.060 A 
BRANCH 106 107
ATOM    107  S   UNL A   1      39.193  37.368  40.232  1.00  0.00     0.124 S 
ATOM    108  O   UNL A   1      38.324  38.287  39.504  1.00  0.00    -0.237 OA
ATOM    109  O   UNL A   1      38.551  36.590  41.288  1.00  0.00    -0.237 OA
ATOM    110  O   UNL A   1      40.519  37.884  40.561  1.00  0.00    -0.744 OA
ENDBRANCH 106 107
ENDBRANCH  74  99
ENDBRANCH  48  49
ENDBRANCH  40  43
ENDBRANCH  38  39
ENDBRANCH  37  38
ENDBRANCH   1  37
TORSDOF 17
ENDMDL
MODEL 3
REMARK VINA RESULT:     -13.7      0.862      2.113
REMARK SMILES C[C@]12C(=O)N(c3ccc(C(=O)NCCCCCCNC(=O)c4ccc(-c5c6nc(c(-c7c(F)cc(S(=O)(=O)[O-])cc7F)c7ccc([nH]7)c(-c7c(F)cc(S(=O)(=O)[O-])cc7F)c7nc(c(-c8c(F)cc(S(=O)(=O)[O-])cc8F)c8ccc5[nH]8)C=C7)C=C6)cc4)cc3)C(=O)[C@H]1[C@H]1c3ccccc3[C@@H]2c2ccccc21
REMARK SMILES IDX 16 1 15 2 14 3 13 4 12 5 10 6 11 7 9 9 6 10 7 11 89 12 8 13
REMARK SMILES IDX 88 14 5 15 1 16 2 17 3 18 92 19 100 20 4 21 90 22 93 23
REMARK SMILES IDX 99 24 101 25 91 26 94 27 106 28 98 29 102 30 95 31 105 32
REMARK SMILES IDX 97 33 103 34 96 35 104 36 17 37 18 38 19 39 20 40 21 42
REMARK SMILES IDX 22 43 23 44 87 45 24 46 86 47 25 48 26 49 27 50 80 51 28 52
REMARK SMILES IDX 85 53 79 54 81 55 29 56 84 57 78 58 77 59 30 61 64 62 43 63
REMARK SMILES IDX 63 64 44 65 47 66 62 67 82 68 45 69 46 70 61 72 83 73 48 74
REMARK SMILES IDX 31 75 32 76 41 77 33 78 34 79 40 80 42 81 35 82 36 83 37 84
REMARK SMILES IDX 38 85 39 86 65 87 66 88 75 89 67 90 68 91 74 92 76 93 69 94
REMARK SMILES IDX 70 95 71 96 72 97 73 98 49 99 50 100 59 101 51 102 52 103
REMARK SMILES IDX 58 104 60 105 53 106 54 107 55 108 56 109 57 110
REMARK H PARENT 12 8 19 41 81 60 47 71
REMARK Flexibility Score: inf
ROOT
ATOM      1  C   UNL A   1      40.546  22.135  27.661  1.00  0.00     0.002 C 
ENDROOT
BRANCH   1   2
ATOM      2  C   UNL A   1      39.521  22.178  26.525  1.00  0.00     0.002 C 
BRANCH   2   3
ATOM      3  C   UNL A   1      38.639  23.423  26.421  1.00  0.00     0.021 C 
BRANCH   3   4
ATOM      4  C   UNL A   1      37.661  23.474  25.255  1.00  0.00     0.116 C 
BRANCH   4   5
ATOM      5  N   UNL A   1      37.047  22.195  24.970  1.00  0.00    -0.352 N 
ATOM      6  C   UNL A   1      35.730  21.883  24.753  1.00  0.00     0.251 C 
ATOM      7  O   UNL A   1      35.403  20.706  24.605  1.00  0.00    -0.269 OA
ATOM      8  H   UNL A   1      37.670  21.434  24.923  1.00  0.00     0.163 HD
BRANCH   6   9
ATOM      9  C   UNL A   1      34.685  22.933  24.733  1.00  0.00     0.039 A 
ATOM     10  C   UNL A   1      32.590  24.835  24.815  1.00  0.00     0.052 A 
ATOM     11  C   UNL A   1      33.088  24.247  25.990  1.00  0.00     0.027 A 
ATOM     12  C   UNL A   1      33.183  24.468  23.597  1.00  0.00     0.027 A 
ATOM     13  C   UNL A   1      34.123  23.309  25.951  1.00  0.00     0.016 A 
ATOM     14  C   UNL A   1      34.192  23.496  23.553  1.00  0.00     0.016 A 
BRANCH  10  15
ATOM     15  N   UNL A   1      31.389  25.584  24.819  1.00  0.00    -0.250 N 
ATOM     16  C   UNL A   1      28.352  26.803  24.059  1.00  0.00     0.024 C 
ATOM     17  C   UNL A   1      29.869  27.021  23.886  1.00  0.00     0.071 C 
ATOM     18  C   UNL A   1      30.512  25.666  23.788  1.00  0.00     0.241 C 
ATOM     19  C   UNL A   1      30.443  27.764  25.189  1.00  0.00     0.107 C 
ATOM     20  C   UNL A   1      30.245  27.736  22.538  1.00  0.00     0.066 C 
ATOM     21  O   UNL A   1      30.242  24.853  22.922  1.00  0.00    -0.273 OA
ATOM     22  C   UNL A   1      30.962  26.432  25.800  1.00  0.00     0.238 C 
ATOM     23  C   UNL A   1      30.952  29.167  24.605  1.00  0.00     0.063 C 
ATOM     24  C   UNL A   1      31.756  27.997  22.596  1.00  0.00    -0.036 A 
ATOM     25  C   UNL A   1      29.549  29.082  22.586  1.00  0.00    -0.036 A 
ATOM     26  O   UNL A   1      30.963  26.207  27.007  1.00  0.00    -0.274 OA
ATOM     27  C   UNL A   1      32.138  28.807  23.692  1.00  0.00    -0.036 A 
ATOM     28  C   UNL A   1      29.892  29.833  23.732  1.00  0.00    -0.036 A 
ATOM     29  C   UNL A   1      32.721  27.418  21.784  1.00  0.00     0.005 A 
ATOM     30  C   UNL A   1      28.684  29.582  21.626  1.00  0.00     0.005 A 
ATOM     31  C   UNL A   1      33.476  29.049  23.975  1.00  0.00     0.004 A 
ATOM     32  C   UNL A   1      29.357  31.100  23.917  1.00  0.00     0.004 A 
ATOM     33  C   UNL A   1      34.068  27.654  22.074  1.00  0.00     0.000 A 
ATOM     34  C   UNL A   1      28.149  30.855  21.814  1.00  0.00     0.000 A 
ATOM     35  C   UNL A   1      34.442  28.466  23.157  1.00  0.00     0.000 A 
ATOM     36  C   UNL A   1      28.482  31.607  22.951  1.00  0.00     0.000 A 
ENDBRANCH  10  15
ENDBRANCH   6   9
ENDBRANCH   4   5
ENDBRANCH   3   4
ENDBRANCH   2   3
ENDBRANCH   1   2
BRANCH   1  37
ATOM     37  C   UNL A   1      42.010  21.934  27.272  1.00  0.00     0.021 C 
BRANCH  37  38
ATOM     38  C   UNL A   1      42.833  23.196  27.052  1.00  0.00     0.116 C 
BRANCH  38  39
ATOM     39  N   UNL A   1      42.373  23.999  25.933  1.00  0.00    -0.352 N 
ATOM     40  C   UNL A   1      41.838  25.268  25.940  1.00  0.00     0.251 C 
ATOM     41  H   UNL A   1      42.456  23.579  25.047  1.00  0.00     0.163 HD
ATOM     42  O   UNL A   1      41.416  25.761  24.899  1.00  0.00    -0.269 OA
BRANCH  40  43
ATOM     43  C   UNL A   1      41.731  26.019  27.214  1.00  0.00     0.039 A 
ATOM     44  C   UNL A   1      40.673  25.794  28.099  1.00  0.00     0.014 A 
ATOM     45  C   UNL A   1      42.693  26.989  27.510  1.00  0.00     0.014 A 
ATOM     46  C   UNL A   1      40.487  26.646  29.185  1.00  0.00     0.010 A 
ATOM     47  C   UNL A   1      42.547  27.792  28.648  1.00  0.00     0.010 A 
ATOM     48  C   UNL A   1      41.417  27.660  29.468  1.00  0.00    -0.014 A 
BRANCH  48  49
ATOM     49  C   UNL A   1      41.182  28.573  30.618  1.00  0.00     0.031 A 
ATOM     50  C   UNL A   1      42.110  28.576  31.805  1.00  0.00     0.074 A 
ATOM     51  C   UNL A   1      40.155  29.444  30.569  1.00  0.00     0.049 A 
ATOM     52  N   UNL A   1      42.067  29.317  32.884  1.00  0.00    -0.248 NA
ATOM     53  C   UNL A   1      43.233  27.623  31.781  1.00  0.00     0.031 C 
ATOM     54  C   UNL A   1      39.191  29.547  29.472  1.00  0.00     0.029 A 
ATOM     55  N   UNL A   1      39.765  30.425  31.446  1.00  0.00    -0.354 N 
ATOM     56  C   UNL A   1      43.139  28.912  33.671  1.00  0.00     0.074 A 
ATOM     57  C   UNL A   1      43.802  27.841  32.958  1.00  0.00     0.031 C 
ATOM     58  C   UNL A   1      38.357  30.569  29.714  1.00  0.00     0.029 A 
ATOM     59  C   UNL A   1      38.689  31.159  31.008  1.00  0.00     0.049 A 
ATOM     60  H   UNL A   1      40.214  30.588  32.307  1.00  0.00     0.167 HD
ATOM     61  C   UNL A   1      43.543  29.397  34.871  1.00  0.00     0.037 A 
ATOM     62  C   UNL A   1      38.035  32.186  31.582  1.00  0.00     0.037 A 
ATOM     63  C   UNL A   1      42.895  30.477  35.570  1.00  0.00     0.049 A 
ATOM     64  C   UNL A   1      38.482  32.686  32.924  1.00  0.00     0.074 A 
ATOM     65  C   UNL A   1      43.238  31.044  36.786  1.00  0.00     0.029 A 
ATOM     66  N   UNL A   1      41.776  31.158  35.115  1.00  0.00    -0.354 N 
ATOM     67  N   UNL A   1      39.492  32.282  33.657  1.00  0.00    -0.248 NA
ATOM     68  C   UNL A   1      37.696  33.772  33.526  1.00  0.00     0.031 C 
ATOM     69  C   UNL A   1      42.308  32.047  37.080  1.00  0.00     0.029 A 
ATOM     70  C   UNL A   1      41.407  32.130  36.030  1.00  0.00     0.049 A 
ATOM     71  H   UNL A   1      41.312  30.979  34.265  1.00  0.00     0.167 HD
ATOM     72  C   UNL A   1      39.466  33.067  34.803  1.00  0.00     0.074 A 
ATOM     73  C   UNL A   1      38.352  33.981  34.659  1.00  0.00     0.031 C 
ATOM     74  C   UNL A   1      40.290  33.029  35.878  1.00  0.00     0.037 A 
BRANCH  61  75
ATOM     75  C   UNL A   1      44.744  28.759  35.513  1.00  0.00     0.058 A 
ATOM     76  C   UNL A   1      46.042  29.241  35.286  1.00  0.00     0.135 A 
ATOM     77  C   UNL A   1      44.590  27.682  36.401  1.00  0.00     0.135 A 
ATOM     78  F   UNL A   1      46.245  30.258  34.433  1.00  0.00    -0.206 F 
ATOM     79  C   UNL A   1      47.150  28.664  35.900  1.00  0.00     0.059 A 
ATOM     80  C   UNL A   1      45.683  27.102  37.043  1.00  0.00     0.059 A 
ATOM     81  F   UNL A   1      43.371  27.183  36.654  1.00  0.00    -0.206 F 
ATOM     82  C   UNL A   1      46.960  27.594  36.775  1.00  0.00     0.060 A 
BRANCH  82  83
ATOM     83  S   UNL A   1      48.408  26.857  37.563  1.00  0.00     0.124 S 
ATOM     84  O   UNL A   1      47.840  26.373  38.818  1.00  0.00    -0.237 OA
ATOM     85  O   UNL A   1      48.795  25.827  36.604  1.00  0.00    -0.237 OA
ATOM     86  O   UNL A   1      49.337  27.976  37.683  1.00  0.00    -0.744 OA
ENDBRANCH  82  83
ENDBRANCH  61  75
BRANCH  62  87
ATOM     87  C   UNL A   1      36.890  32.811  30.870  1.00  0.00     0.058 A 
ATOM     88  C   UNL A   1      35.570  32.473  31.196  1.00  0.00     0.135 A 
ATOM     89  C   UNL A   1      37.093  33.798  29.892  1.00  0.00     0.135 A 
ATOM     90  F   UNL A   1      35.328  31.529  32.120  1.00  0.00    -0.206 F 
ATOM     91  C   UNL A   1      34.488  33.095  30.585  1.00  0.00     0.059 A 
ATOM     92  C   UNL A   1      36.028  34.450  29.282  1.00  0.00     0.059 A 
ATOM     93  F   UNL A   1      38.340  34.163  29.557  1.00  0.00    -0.206 F 
ATOM     94  C   UNL A   1      34.728  34.090  29.634  1.00  0.00     0.060 A 
BRANCH  94  95
ATOM     95  S   UNL A   1      33.317  34.954  28.910  1.00  0.00     0.124 S 
ATOM     96  O   UNL A   1      33.963  36.110  28.300  1.00  0.00    -0.237 OA
ATOM     97  O   UNL A   1      32.786  33.956  27.986  1.00  0.00    -0.237 OA
ATOM     98  O   UNL A   1      32.471  35.238  30.066  1.00  0.00    -0.744 OA
ENDBRANCH  94  95
ENDBRANCH  62  87
BRANCH  74  99
ATOM     99  C   UNL A   1      40.023  34.006  36.986  1.00  0.00     0.058 A 
ATOM    100  C   UNL A   1      40.569  35.298  36.967  1.00  0.00     0.135 A 
ATOM    101  C   UNL A   1      39.168  33.667  38.047  1.00  0.00     0.135 A 
ATOM    102  F   UNL A   1      41.398  35.667  35.979  1.00  0.00    -0.206 F 
ATOM    103  C   UNL A   1      40.285  36.220  37.969  1.00  0.00     0.059 A 
ATOM    104  C   UNL A   1      38.855  34.580  39.049  1.00  0.00     0.059 A 
ATOM    105  F   UNL A   1      38.615  32.445  38.106  1.00  0.00    -0.206 F 
ATOM    106  C   UNL A   1      39.425  35.852  39.006  1.00  0.00     0.060 A 
BRANCH 106 107
ATOM    107  S   UNL A   1      39.034  37.070  40.279  1.00  0.00     0.124 S 
ATOM    108  O   UNL A   1      40.359  37.380  40.807  1.00  0.00    -0.237 OA
ATOM    109  O   UNL A   1      38.393  38.133  39.509  1.00  0.00    -0.237 OA
ATOM    110  O   UNL A   1      38.150  36.343  41.186  1.00  0.00    -0.744 OA
ENDBRANCH 106 107
ENDBRANCH  74  99
ENDBRANCH  48  49
ENDBRANCH  40  43
ENDBRANCH  38  39
ENDBRANCH  37  38
ENDBRANCH   1  37
TORSDOF 17
ENDMDL
