MODEL 1
REMARK VINA RESULT:     -11.7      0.000      0.000
REMARK SMILES Cc1c(C(=O)NCCCCCCNC(=O)c2ccc(-c3c4nc(c(-c5c(F)cc(S(=O)(=O)[O-])cc5F)c5ccc([nH]5)c(-c5c(F)cc(S(=O)(=O)[O-])cc5F)c5nc(c(-c6c(F)cc(S(=O)(=O)[O-])cc6F)c6ccc3[nH]6)C=C5)C=C4)cc2)nnn1-c1ccc(Cl)cc1[N+](=O)[O-]
REMARK SMILES IDX 10 1 9 2 8 3 7 4 6 5 4 6 5 7 3 9 1 10 2 11 84 12 82 13 83 14
REMARK SMILES IDX 85 15 86 16 91 17 87 18 90 19 88 20 89 21 92 22 93 23 94 24
REMARK SMILES IDX 11 25 12 26 13 27 14 28 15 30 16 31 17 32 81 33 18 34 80 35
REMARK SMILES IDX 19 36 20 37 21 38 74 39 22 40 79 41 73 42 75 43 23 44 78 45
REMARK SMILES IDX 72 46 71 47 24 49 58 50 37 51 57 52 38 53 41 54 56 55 76 56
REMARK SMILES IDX 39 57 40 58 55 60 77 61 42 62 25 63 26 64 35 65 27 66 28 67
REMARK SMILES IDX 34 68 36 69 29 70 30 71 31 72 32 73 33 74 59 75 60 76 69 77
REMARK SMILES IDX 61 78 62 79 68 80 70 81 63 82 64 83 65 84 66 85 67 86 43 87
REMARK SMILES IDX 44 88 53 89 45 90 46 91 52 92 54 93 47 94 48 95 49 96 50 97
REMARK SMILES IDX 51 98
REMARK H PARENT 6 8 13 29 75 48 41 59
REMARK Flexibility Score: inf
ROOT
ATOM      1  C   UNL A   1      40.979  20.839  27.048  1.00  0.00     0.002 C 
ENDROOT
BRANCH   1   2
ATOM      2  C   UNL A   1      40.234  22.003  26.370  1.00  0.00     0.002 C 
BRANCH   2   3
ATOM      3  C   UNL A   1      38.705  21.890  26.377  1.00  0.00     0.021 C 
BRANCH   3   4
ATOM      4  C   UNL A   1      38.106  21.747  24.978  1.00  0.00     0.116 C 
BRANCH   4   5
ATOM      5  N   UNL A   1      37.092  20.730  24.960  1.00  0.00    -0.351 N 
ATOM      6  C   UNL A   1      35.725  20.766  24.984  1.00  0.00     0.273 C 
ATOM      7  O   UNL A   1      35.196  19.650  24.908  1.00  0.00    -0.267 OA
ATOM      8  H   UNL A   1      37.458  19.817  24.922  1.00  0.00     0.163 HD
BRANCH   6   9
ATOM      9  C   UNL A   1      34.905  21.984  25.026  1.00  0.00     0.173 A 
ATOM     10  C   UNL A   1      34.021  22.657  27.461  1.00  0.00     0.069 C 
ATOM     11  C   UNL A   1      34.293  22.772  26.005  1.00  0.00     0.075 A 
ATOM     12  N   UNL A   1      33.786  23.844  25.284  1.00  0.00    -0.210 N 
ATOM     13  N   UNL A   1      34.559  22.519  23.792  1.00  0.00    -0.124 NA
ATOM     14  N   UNL A   1      33.806  23.584  23.970  1.00  0.00    -0.061 NA
BRANCH  12  15
ATOM     15  C   UNL A   1      33.214  25.043  25.755  1.00  0.00     0.144 A 
ATOM     16  C   UNL A   1      34.047  26.166  25.847  1.00  0.00     0.037 A 
ATOM     17  C   UNL A   1      31.858  25.154  26.100  1.00  0.00     0.296 A 
ATOM     18  C   UNL A   1      33.514  27.398  26.234  1.00  0.00     0.023 A 
ATOM     19  C   UNL A   1      31.327  26.387  26.507  1.00  0.00     0.108 A 
ATOM     20  C   UNL A   1      32.161  27.502  26.562  1.00  0.00     0.048 A 
ATOM     21  Cl  UNL A   1      31.520  29.015  27.067  1.00  0.00    -0.084 Cl
BRANCH  17  22
ATOM     22  N   UNL A   1      30.974  23.995  26.178  1.00  0.00     0.065 N 
ATOM     23  O   UNL A   1      30.611  23.637  27.306  1.00  0.00    -0.258 OA
ATOM     24  O   UNL A   1      30.664  23.432  25.122  1.00  0.00    -0.258 OA
ENDBRANCH  17  22
ENDBRANCH  12  15
ENDBRANCH   6   9
ENDBRANCH   4   5
ENDBRANCH   3   4
ENDBRANCH   2   3
ENDBRANCH   1   2
BRANCH   1  25
ATOM     25  C   UNL A   1      41.659  19.829  26.108  1.00  0.00     0.021 C 
BRANCH  25  26
ATOM     26  C   UNL A   1      43.076  19.489  26.533  1.00  0.00     0.116 C 
BRANCH  26  27
ATOM     27  N   UNL A   1      44.029  19.653  25.425  1.00  0.00    -0.352 N 
ATOM     28  C   UNL A   1      44.367  20.784  24.695  1.00  0.00     0.251 C 
ATOM     29  H   UNL A   1      44.501  18.831  25.159  1.00  0.00     0.163 HD
ATOM     30  O   UNL A   1      44.891  20.684  23.600  1.00  0.00    -0.269 OA
BRANCH  28  31
ATOM     31  C   UNL A   1      44.101  22.106  25.288  1.00  0.00     0.039 A 
ATOM     32  C   UNL A   1      43.212  23.039  24.741  1.00  0.00     0.014 A 
ATOM     33  C   UNL A   1      44.766  22.386  26.466  1.00  0.00     0.014 A 
ATOM     34  C   UNL A   1      43.036  24.252  25.409  1.00  0.00     0.010 A 
ATOM     35  C   UNL A   1      44.279  23.351  27.281  1.00  0.00     0.010 A 
ATOM     36  C   UNL A   1      43.610  24.395  26.675  1.00  0.00    -0.014 A 
BRANCH  36  37
ATOM     37  C   UNL A   1      43.546  25.591  27.490  1.00  0.00     0.031 A 
ATOM     38  C   UNL A   1      44.536  26.614  27.098  1.00  0.00     0.074 A 
ATOM     39  C   UNL A   1      42.446  25.851  28.236  1.00  0.00     0.049 A 
ATOM     40  N   UNL A   1      45.612  26.937  27.731  1.00  0.00    -0.248 NA
ATOM     41  C   UNL A   1      44.457  27.172  25.736  1.00  0.00     0.031 C 
ATOM     42  C   UNL A   1      41.228  25.040  28.389  1.00  0.00     0.029 A 
ATOM     43  N   UNL A   1      42.124  26.993  28.904  1.00  0.00    -0.354 N 
ATOM     44  C   UNL A   1      46.178  27.954  26.974  1.00  0.00     0.074 A 
ATOM     45  C   UNL A   1      45.624  27.816  25.656  1.00  0.00     0.031 C 
ATOM     46  C   UNL A   1      40.236  25.800  28.905  1.00  0.00     0.029 A 
ATOM     47  C   UNL A   1      40.768  27.109  29.228  1.00  0.00     0.049 A 
ATOM     48  H   UNL A   1      42.790  27.679  29.139  1.00  0.00     0.167 HD
ATOM     49  C   UNL A   1      46.784  29.022  27.566  1.00  0.00     0.037 A 
ATOM     50  C   UNL A   1      40.158  28.256  29.633  1.00  0.00     0.037 A 
ATOM     51  C   UNL A   1      46.979  28.777  28.979  1.00  0.00     0.049 A 
ATOM     52  C   UNL A   1      41.251  29.136  30.157  1.00  0.00     0.074 A 
ATOM     53  C   UNL A   1      47.590  27.769  29.704  1.00  0.00     0.029 A 
ATOM     54  N   UNL A   1      46.120  29.400  29.857  1.00  0.00    -0.354 N 
ATOM     55  N   UNL A   1      41.978  28.831  31.204  1.00  0.00    -0.248 NA
ATOM     56  C   UNL A   1      41.882  30.053  29.215  1.00  0.00     0.031 C 
ATOM     57  C   UNL A   1      46.701  27.512  30.790  1.00  0.00     0.029 A 
ATOM     58  C   UNL A   1      45.664  28.445  30.734  1.00  0.00     0.049 A 
ATOM     59  H   UNL A   1      45.878  30.355  29.858  1.00  0.00     0.167 HD
ATOM     60  C   UNL A   1      43.283  29.152  30.843  1.00  0.00     0.074 A 
ATOM     61  C   UNL A   1      43.151  29.954  29.626  1.00  0.00     0.031 C 
ATOM     62  C   UNL A   1      44.359  28.485  31.363  1.00  0.00     0.037 A 
BRANCH  49  63
ATOM     63  C   UNL A   1      46.842  30.415  26.983  1.00  0.00     0.058 A 
ATOM     64  C   UNL A   1      48.076  31.096  26.985  1.00  0.00     0.135 A 
ATOM     65  C   UNL A   1      45.717  31.208  26.659  1.00  0.00     0.135 A 
ATOM     66  F   UNL A   1      49.214  30.446  27.277  1.00  0.00    -0.206 F 
ATOM     67  C   UNL A   1      48.175  32.470  26.764  1.00  0.00     0.059 A 
ATOM     68  C   UNL A   1      45.800  32.565  26.375  1.00  0.00     0.059 A 
ATOM     69  F   UNL A   1      44.464  30.742  26.691  1.00  0.00    -0.206 F 
ATOM     70  C   UNL A   1      47.026  33.198  26.473  1.00  0.00     0.060 A 
BRANCH  70  71
ATOM     71  S   UNL A   1      47.130  34.983  26.285  1.00  0.00     0.124 S 
ATOM     72  O   UNL A   1      48.248  35.110  25.356  1.00  0.00    -0.237 OA
ATOM     73  O   UNL A   1      45.811  35.306  25.750  1.00  0.00    -0.237 OA
ATOM     74  O   UNL A   1      47.381  35.449  27.644  1.00  0.00    -0.744 OA
ENDBRANCH  70  71
ENDBRANCH  49  63
BRANCH  50  75
ATOM     75  C   UNL A   1      38.824  28.765  29.181  1.00  0.00     0.058 A 
ATOM     76  C   UNL A   1      37.757  28.953  30.082  1.00  0.00     0.135 A 
ATOM     77  C   UNL A   1      38.641  29.334  27.902  1.00  0.00     0.135 A 
ATOM     78  F   UNL A   1      37.833  28.457  31.327  1.00  0.00    -0.206 F 
ATOM     79  C   UNL A   1      36.620  29.712  29.758  1.00  0.00     0.059 A 
ATOM     80  C   UNL A   1      37.515  30.075  27.551  1.00  0.00     0.059 A 
ATOM     81  F   UNL A   1      39.598  29.278  26.965  1.00  0.00    -0.206 F 
ATOM     82  C   UNL A   1      36.523  30.293  28.494  1.00  0.00     0.060 A 
BRANCH  82  83
ATOM     83  S   UNL A   1      35.188  31.459  28.125  1.00  0.00     0.124 S 
ATOM     84  O   UNL A   1      34.616  31.695  29.446  1.00  0.00    -0.237 OA
ATOM     85  O   UNL A   1      35.909  32.577  27.528  1.00  0.00    -0.237 OA
ATOM     86  O   UNL A   1      34.337  30.713  27.199  1.00  0.00    -0.744 OA
ENDBRANCH  82  83
ENDBRANCH  50  75
BRANCH  62  87
ATOM     87  C   UNL A   1      44.157  27.542  32.527  1.00  0.00     0.058 A 
ATOM     88  C   UNL A   1      43.934  27.945  33.857  1.00  0.00     0.135 A 
ATOM     89  C   UNL A   1      43.979  26.179  32.244  1.00  0.00     0.135 A 
ATOM     90  F   UNL A   1      43.970  29.239  34.199  1.00  0.00    -0.206 F 
ATOM     91  C   UNL A   1      43.591  27.037  34.861  1.00  0.00     0.059 A 
ATOM     92  C   UNL A   1      43.604  25.259  33.220  1.00  0.00     0.059 A 
ATOM     93  F   UNL A   1      44.108  25.734  30.983  1.00  0.00    -0.206 F 
ATOM     94  C   UNL A   1      43.425  25.693  34.532  1.00  0.00     0.060 A 
BRANCH  94  95
ATOM     95  S   UNL A   1      42.920  24.526  35.813  1.00  0.00     0.124 S 
ATOM     96  O   UNL A   1      42.949  25.358  37.012  1.00  0.00    -0.237 OA
ATOM     97  O   UNL A   1      41.595  24.111  35.360  1.00  0.00    -0.237 OA
ATOM     98  O   UNL A   1      43.945  23.486  35.752  1.00  0.00    -0.744 OA
ENDBRANCH  94  95
ENDBRANCH  62  87
ENDBRANCH  36  37
ENDBRANCH  28  31
ENDBRANCH  26  27
ENDBRANCH  25  26
ENDBRANCH   1  25
TORSDOF 18
ENDMDL
MODEL 2
REMARK VINA RESULT:     -11.6      3.053      9.333
REMARK SMILES Cc1c(C(=O)NCCCCCCNC(=O)c2ccc(-c3c4nc(c(-c5c(F)cc(S(=O)(=O)[O-])cc5F)c5ccc([nH]5)c(-c5c(F)cc(S(=O)(=O)[O-])cc5F)c5nc(c(-c6c(F)cc(S(=O)(=O)[O-])cc6F)c6ccc3[nH]6)C=C5)C=C4)cc2)nnn1-c1ccc(Cl)cc1[N+](=O)[O-]
REMARK SMILES IDX 10 1 9 2 8 3 7 4 6 5 4 6 5 7 3 9 1 10 2 11 84 12 82 13 83 14
REMARK SMILES IDX 85 15 86 16 91 17 87 18 90 19 88 20 89 21 92 22 93 23 94 24
REMARK SMILES IDX 11 25 12 26 13 27 14 28 15 30 16 31 17 32 81 33 18 34 80 35
REMARK SMILES IDX 19 36 20 37 21 38 74 39 22 40 79 41 73 42 75 43 23 44 78 45
REMARK SMILES IDX 72 46 71 47 24 49 58 50 37 51 57 52 38 53 41 54 56 55 76 56
REMARK SMILES IDX 39 57 40 58 55 60 77 61 42 62 25 63 26 64 35 65 27 66 28 67
REMARK SMILES IDX 34 68 36 69 29 70 30 71 31 72 32 73 33 74 59 75 60 76 69 77
REMARK SMILES IDX 61 78 62 79 68 80 70 81 63 82 64 83 65 84 66 85 67 86 43 87
REMARK SMILES IDX 44 88 53 89 45 90 46 91 52 92 54 93 47 94 48 95 49 96 50 97
REMARK SMILES IDX 51 98
REMARK H PARENT 6 8 13 29 75 48 41 59
REMARK Flexibility Score: inf
ROOT
ATOM      1  C   UNL A   1      34.316  30.186  27.559  1.00  0.00     0.002 C 
ENDROOT
BRANCH   1   2
ATOM      2  C   UNL A   1      33.806  29.295  26.412  1.00  0.00     0.002 C 
BRANCH   2   3
ATOM      3  C   UNL A   1      32.281  29.173  26.309  1.00  0.00     0.021 C 
BRANCH   3   4
ATOM      4  C   UNL A   1      31.811  28.634  24.958  1.00  0.00     0.116 C 
BRANCH   4   5
ATOM      5  N   UNL A   1      32.765  28.940  23.928  1.00  0.00    -0.351 N 
ATOM      6  C   UNL A   1      33.586  28.170  23.150  1.00  0.00     0.273 C 
ATOM      7  O   UNL A   1      34.243  28.819  22.326  1.00  0.00    -0.267 OA
ATOM      8  H   UNL A   1      32.844  29.904  23.745  1.00  0.00     0.163 HD
BRANCH   6   9
ATOM      9  C   UNL A   1      33.673  26.705  23.192  1.00  0.00     0.173 A 
ATOM     10  C   UNL A   1      34.100  25.676  25.626  1.00  0.00     0.069 C 
ATOM     11  C   UNL A   1      33.803  25.715  24.171  1.00  0.00     0.075 A 
ATOM     12  N   UNL A   1      33.691  24.534  23.450  1.00  0.00    -0.210 N 
ATOM     13  N   UNL A   1      33.694  26.067  21.958  1.00  0.00    -0.124 NA
ATOM     14  N   UNL A   1      33.802  24.767  22.136  1.00  0.00    -0.061 NA
BRANCH  12  15
ATOM     15  C   UNL A   1      33.576  23.211  23.922  1.00  0.00     0.144 A 
ATOM     16  C   UNL A   1      32.290  22.737  24.214  1.00  0.00     0.037 A 
ATOM     17  C   UNL A   1      34.681  22.360  24.078  1.00  0.00     0.296 A 
ATOM     18  C   UNL A   1      32.112  21.410  24.612  1.00  0.00     0.023 A 
ATOM     19  C   UNL A   1      34.504  21.033  24.495  1.00  0.00     0.108 A 
ATOM     20  C   UNL A   1      33.216  20.567  24.750  1.00  0.00     0.048 A 
ATOM     21  Cl  UNL A   1      32.990  18.943  25.270  1.00  0.00    -0.084 Cl
BRANCH  17  22
ATOM     22  N   UNL A   1      36.056  22.833  23.945  1.00  0.00     0.065 N 
ATOM     23  O   UNL A   1      36.657  23.124  24.987  1.00  0.00    -0.258 OA
ATOM     24  O   UNL A   1      36.524  22.936  22.805  1.00  0.00    -0.258 OA
ENDBRANCH  17  22
ENDBRANCH  12  15
ENDBRANCH   6   9
ENDBRANCH   4   5
ENDBRANCH   3   4
ENDBRANCH   2   3
ENDBRANCH   1   2
BRANCH   1  25
ATOM     25  C   UNL A   1      33.735  31.608  27.622  1.00  0.00     0.021 C 
BRANCH  25  26
ATOM     26  C   UNL A   1      34.738  32.634  28.118  1.00  0.00     0.116 C 
BRANCH  26  27
ATOM     27  N   UNL A   1      34.472  33.025  29.511  1.00  0.00    -0.352 N 
ATOM     28  C   UNL A   1      34.926  32.469  30.698  1.00  0.00     0.251 C 
ATOM     29  H   UNL A   1      33.878  33.802  29.616  1.00  0.00     0.163 HD
ATOM     30  O   UNL A   1      34.340  32.676  31.747  1.00  0.00    -0.269 OA
BRANCH  28  31
ATOM     31  C   UNL A   1      36.146  31.644  30.665  1.00  0.00     0.039 A 
ATOM     32  C   UNL A   1      36.138  30.244  30.619  1.00  0.00     0.014 A 
ATOM     33  C   UNL A   1      37.343  32.334  30.651  1.00  0.00     0.014 A 
ATOM     34  C   UNL A   1      37.364  29.579  30.575  1.00  0.00     0.010 A 
ATOM     35  C   UNL A   1      38.455  31.708  30.200  1.00  0.00     0.010 A 
ATOM     36  C   UNL A   1      38.520  30.343  30.393  1.00  0.00    -0.014 A 
BRANCH  36  37
ATOM     37  C   UNL A   1      39.870  29.817  30.350  1.00  0.00     0.031 A 
ATOM     38  C   UNL A   1      40.450  29.598  31.690  1.00  0.00     0.074 A 
ATOM     39  C   UNL A   1      40.343  29.244  29.219  1.00  0.00     0.049 A 
ATOM     40  N   UNL A   1      41.361  30.303  32.269  1.00  0.00    -0.248 NA
ATOM     41  C   UNL A   1      39.780  28.639  32.589  1.00  0.00     0.031 C 
ATOM     42  C   UNL A   1      39.672  29.085  27.919  1.00  0.00     0.029 A 
ATOM     43  N   UNL A   1      41.492  28.535  29.044  1.00  0.00    -0.354 N 
ATOM     44  C   UNL A   1      41.573  29.678  33.491  1.00  0.00     0.074 A 
ATOM     45  C   UNL A   1      40.389  28.907  33.746  1.00  0.00     0.031 C 
ATOM     46  C   UNL A   1      40.317  28.153  27.184  1.00  0.00     0.029 A 
ATOM     47  C   UNL A   1      41.506  27.733  27.897  1.00  0.00     0.049 A 
ATOM     48  H   UNL A   1      42.250  28.583  29.671  1.00  0.00     0.167 HD
ATOM     49  C   UNL A   1      42.824  29.571  34.021  1.00  0.00     0.037 A 
ATOM     50  C   UNL A   1      42.401  26.737  27.653  1.00  0.00     0.037 A 
ATOM     51  C   UNL A   1      43.756  30.412  33.300  1.00  0.00     0.049 A 
ATOM     52  C   UNL A   1      43.590  27.036  28.514  1.00  0.00     0.074 A 
ATOM     53  C   UNL A   1      43.785  31.757  32.978  1.00  0.00     0.029 A 
ATOM     54  N   UNL A   1      44.612  29.797  32.413  1.00  0.00    -0.354 N 
ATOM     55  N   UNL A   1      44.330  28.108  28.368  1.00  0.00    -0.248 NA
ATOM     56  C   UNL A   1      43.616  26.447  29.848  1.00  0.00     0.031 C 
ATOM     57  C   UNL A   1      44.228  31.797  31.622  1.00  0.00     0.029 A 
ATOM     58  C   UNL A   1      44.552  30.497  31.232  1.00  0.00     0.049 A 
ATOM     59  H   UNL A   1      45.166  29.003  32.592  1.00  0.00     0.167 HD
ATOM     60  C   UNL A   1      44.556  28.569  29.661  1.00  0.00     0.074 A 
ATOM     61  C   UNL A   1      44.138  27.470  30.532  1.00  0.00     0.031 C 
ATOM     62  C   UNL A   1      44.754  29.897  29.928  1.00  0.00     0.037 A 
BRANCH  49  63
ATOM     63  C   UNL A   1      43.292  28.442  34.910  1.00  0.00     0.058 A 
ATOM     64  C   UNL A   1      43.926  28.761  36.128  1.00  0.00     0.135 A 
ATOM     65  C   UNL A   1      43.382  27.086  34.521  1.00  0.00     0.135 A 
ATOM     66  F   UNL A   1      43.906  30.018  36.600  1.00  0.00    -0.206 F 
ATOM     67  C   UNL A   1      44.659  27.827  36.859  1.00  0.00     0.059 A 
ATOM     68  C   UNL A   1      44.056  26.125  35.265  1.00  0.00     0.059 A 
ATOM     69  F   UNL A   1      42.910  26.629  33.357  1.00  0.00    -0.206 F 
ATOM     70  C   UNL A   1      44.729  26.512  36.409  1.00  0.00     0.060 A 
BRANCH  70  71
ATOM     71  S   UNL A   1      45.752  25.326  37.291  1.00  0.00     0.124 S 
ATOM     72  O   UNL A   1      44.741  24.490  37.929  1.00  0.00    -0.237 OA
ATOM     73  O   UNL A   1      46.501  24.707  36.202  1.00  0.00    -0.237 OA
ATOM     74  O   UNL A   1      46.539  26.164  38.190  1.00  0.00    -0.744 OA
ENDBRANCH  70  71
ENDBRANCH  49  63
BRANCH  50  75
ATOM     75  C   UNL A   1      42.096  25.380  27.098  1.00  0.00     0.058 A 
ATOM     76  C   UNL A   1      42.931  24.765  26.143  1.00  0.00     0.135 A 
ATOM     77  C   UNL A   1      41.126  24.538  27.684  1.00  0.00     0.135 A 
ATOM     78  F   UNL A   1      43.890  25.475  25.531  1.00  0.00    -0.206 F 
ATOM     79  C   UNL A   1      42.852  23.393  25.845  1.00  0.00     0.059 A 
ATOM     80  C   UNL A   1      41.018  23.181  27.391  1.00  0.00     0.059 A 
ATOM     81  F   UNL A   1      40.303  24.980  28.646  1.00  0.00    -0.206 F 
ATOM     82  C   UNL A   1      41.906  22.604  26.497  1.00  0.00     0.060 A 
BRANCH  82  83
ATOM     83  S   UNL A   1      41.931  20.804  26.307  1.00  0.00     0.124 S 
ATOM     84  O   UNL A   1      40.563  20.524  25.884  1.00  0.00    -0.237 OA
ATOM     85  O   UNL A   1      42.967  20.613  25.297  1.00  0.00    -0.237 OA
ATOM     86  O   UNL A   1      42.282  20.330  27.644  1.00  0.00    -0.744 OA
ENDBRANCH  82  83
ENDBRANCH  50  75
BRANCH  62  87
ATOM     87  C   UNL A   1      44.969  30.861  28.783  1.00  0.00     0.058 A 
ATOM     88  C   UNL A   1      43.941  31.536  28.099  1.00  0.00     0.135 A 
ATOM     89  C   UNL A   1      46.283  31.270  28.506  1.00  0.00     0.135 A 
ATOM     90  F   UNL A   1      42.654  31.294  28.378  1.00  0.00    -0.206 F 
ATOM     91  C   UNL A   1      44.204  32.537  27.161  1.00  0.00     0.059 A 
ATOM     92  C   UNL A   1      46.570  32.287  27.601  1.00  0.00     0.059 A 
ATOM     93  F   UNL A   1      47.311  30.717  29.172  1.00  0.00    -0.206 F 
ATOM     94  C   UNL A   1      45.525  32.909  26.920  1.00  0.00     0.060 A 
BRANCH  94  95
ATOM     95  S   UNL A   1      45.868  34.245  25.755  1.00  0.00     0.124 S 
ATOM     96  O   UNL A   1      47.306  34.107  25.549  1.00  0.00    -0.237 OA
ATOM     97  O   UNL A   1      45.028  33.894  24.613  1.00  0.00    -0.237 OA
ATOM     98  O   UNL A   1      45.454  35.444  26.479  1.00  0.00    -0.744 OA
ENDBRANCH  94  95
ENDBRANCH  62  87
ENDBRANCH  36  37
ENDBRANCH  28  31
ENDBRANCH  26  27
ENDBRANCH  25  26
ENDBRANCH   1  25
TORSDOF 18
ENDMDL
MODEL 3
REMARK VINA RESULT:     -11.1      2.084      2.861
REMARK SMILES Cc1c(C(=O)NCCCCCCNC(=O)c2ccc(-c3c4nc(c(-c5c(F)cc(S(=O)(=O)[O-])cc5F)c5ccc([nH]5)c(-c5c(F)cc(S(=O)(=O)[O-])cc5F)c5nc(c(-c6c(F)cc(S(=O)(=O)[O-])cc6F)c6ccc3[nH]6)C=C5)C=C4)cc2)nnn1-c1ccc(Cl)cc1[N+](=O)[O-]
REMARK SMILES IDX 10 1 9 2 8 3 7 4 6 5 4 6 5 7 3 9 1 10 2 11 84 12 82 13 83 14
REMARK SMILES IDX 85 15 86 16 91 17 87 18 90 19 88 20 89 21 92 22 93 23 94 24
REMARK SMILES IDX 11 25 12 26 13 27 14 28 15 30 16 31 17 32 81 33 18 34 80 35
REMARK SMILES IDX 19 36 20 37 21 38 74 39 22 40 79 41 73 42 75 43 23 44 78 45
REMARK SMILES IDX 72 46 71 47 24 49 58 50 37 51 57 52 38 53 41 54 56 55 76 56
REMARK SMILES IDX 39 57 40 58 55 60 77 61 42 62 25 63 26 64 35 65 27 66 28 67
REMARK SMILES IDX 34 68 36 69 29 70 30 71 31 72 32 73 33 74 59 75 60 76 69 77
REMARK SMILES IDX 61 78 62 79 68 80 70 81 63 82 64 83 65 84 66 85 67 86 43 87
REMARK SMILES IDX 44 88 53 89 45 90 46 91 52 92 54 93 47 94 48 95 49 96 50 97
REMARK SMILES IDX 51 98
REMARK H PARENT 6 8 13 29 75 48 41 59
REMARK Flexibility Score: inf
ROOT
ATOM      1  C   UNL A   1      40.118  21.822  26.879  1.00  0.00     0.002 C 
ENDROOT
BRANCH   1   2
ATOM      2  C   UNL A   1      38.873  22.277  26.096  1.00  0.00     0.002 C 
BRANCH   2   3
ATOM      3  C   UNL A   1      38.168  21.175  25.295  1.00  0.00     0.021 C 
BRANCH   3   4
ATOM      4  C   UNL A   1      36.905  21.663  24.586  1.00  0.00     0.116 C 
BRANCH   4   5
ATOM      5  N   UNL A   1      35.746  20.971  25.077  1.00  0.00    -0.351 N 
ATOM      6  C   UNL A   1      34.432  21.323  25.220  1.00  0.00     0.273 C 
ATOM      7  O   UNL A   1      33.716  20.411  25.649  1.00  0.00    -0.267 OA
ATOM      8  H   UNL A   1      35.939  20.052  25.372  1.00  0.00     0.163 HD
BRANCH   6   9
ATOM      9  C   UNL A   1      33.853  22.622  24.852  1.00  0.00     0.173 A 
ATOM     10  C   UNL A   1      31.977  22.512  22.946  1.00  0.00     0.069 C 
ATOM     11  C   UNL A   1      32.838  23.088  24.011  1.00  0.00     0.075 A 
ATOM     12  N   UNL A   1      32.794  24.448  24.285  1.00  0.00    -0.210 N 
ATOM     13  N   UNL A   1      34.468  23.735  25.409  1.00  0.00    -0.124 NA
ATOM     14  N   UNL A   1      33.874  24.829  24.978  1.00  0.00    -0.061 NA
BRANCH  12  15
ATOM     15  C   UNL A   1      31.854  25.410  23.864  1.00  0.00     0.144 A 
ATOM     16  C   UNL A   1      30.720  25.602  24.664  1.00  0.00     0.037 A 
ATOM     17  C   UNL A   1      32.027  26.188  22.708  1.00  0.00     0.296 A 
ATOM     18  C   UNL A   1      29.795  26.596  24.335  1.00  0.00     0.023 A 
ATOM     19  C   UNL A   1      31.089  27.173  22.367  1.00  0.00     0.108 A 
ATOM     20  C   UNL A   1      29.983  27.374  23.191  1.00  0.00     0.048 A 
ATOM     21  Cl  UNL A   1      28.824  28.575  22.776  1.00  0.00    -0.084 Cl
BRANCH  17  22
ATOM     22  N   UNL A   1      33.098  25.934  21.749  1.00  0.00     0.065 N 
ATOM     23  O   UNL A   1      34.145  26.579  21.889  1.00  0.00    -0.258 OA
ATOM     24  O   UNL A   1      32.886  25.113  20.849  1.00  0.00    -0.258 OA
ENDBRANCH  17  22
ENDBRANCH  12  15
ENDBRANCH   6   9
ENDBRANCH   4   5
ENDBRANCH   3   4
ENDBRANCH   2   3
ENDBRANCH   1   2
BRANCH   1  25
ATOM     25  C   UNL A   1      40.895  20.634  26.287  1.00  0.00     0.021 C 
BRANCH  25  26
ATOM     26  C   UNL A   1      42.375  20.673  26.620  1.00  0.00     0.116 C 
BRANCH  26  27
ATOM     27  N   UNL A   1      43.178  21.124  25.473  1.00  0.00    -0.352 N 
ATOM     28  C   UNL A   1      43.511  22.407  25.062  1.00  0.00     0.251 C 
ATOM     29  H   UNL A   1      43.536  20.401  24.908  1.00  0.00     0.163 HD
ATOM     30  O   UNL A   1      43.869  22.621  23.917  1.00  0.00    -0.269 OA
BRANCH  28  31
ATOM     31  C   UNL A   1      43.444  23.498  26.050  1.00  0.00     0.039 A 
ATOM     32  C   UNL A   1      44.343  23.641  27.114  1.00  0.00     0.014 A 
ATOM     33  C   UNL A   1      42.439  24.427  25.858  1.00  0.00     0.014 A 
ATOM     34  C   UNL A   1      44.181  24.730  27.972  1.00  0.00     0.010 A 
ATOM     35  C   UNL A   1      42.558  25.648  26.428  1.00  0.00     0.010 A 
ATOM     36  C   UNL A   1      43.253  25.712  27.619  1.00  0.00    -0.014 A 
BRANCH  36  37
ATOM     37  C   UNL A   1      42.944  26.889  28.406  1.00  0.00     0.031 A 
ATOM     38  C   UNL A   1      43.904  27.992  28.203  1.00  0.00     0.074 A 
ATOM     39  C   UNL A   1      41.708  27.050  28.936  1.00  0.00     0.049 A 
ATOM     40  N   UNL A   1      44.815  28.392  29.023  1.00  0.00    -0.248 NA
ATOM     41  C   UNL A   1      44.032  28.560  26.848  1.00  0.00     0.031 C 
ATOM     42  C   UNL A   1      40.552  26.143  28.863  1.00  0.00     0.029 A 
ATOM     43  N   UNL A   1      41.178  28.154  29.531  1.00  0.00    -0.354 N 
ATOM     44  C   UNL A   1      45.427  29.461  28.381  1.00  0.00     0.074 A 
ATOM     45  C   UNL A   1      45.137  29.296  26.984  1.00  0.00     0.031 C 
ATOM     46  C   UNL A   1      39.424  26.815  29.185  1.00  0.00     0.029 A 
ATOM     47  C   UNL A   1      39.780  28.157  29.599  1.00  0.00     0.049 A 
ATOM     48  H   UNL A   1      41.731  28.888  29.884  1.00  0.00     0.167 HD
ATOM     49  C   UNL A   1      45.825  30.566  29.073  1.00  0.00     0.037 A 
ATOM     50  C   UNL A   1      39.016  29.247  29.883  1.00  0.00     0.037 A 
ATOM     51  C   UNL A   1      45.776  30.318  30.498  1.00  0.00     0.049 A 
ATOM     52  C   UNL A   1      39.919  30.205  30.598  1.00  0.00     0.074 A 
ATOM     53  C   UNL A   1      46.322  29.352  31.325  1.00  0.00     0.029 A 
ATOM     54  N   UNL A   1      44.722  30.859  31.202  1.00  0.00    -0.354 N 
ATOM     55  N   UNL A   1      40.463  29.944  31.762  1.00  0.00    -0.248 NA
ATOM     56  C   UNL A   1      40.637  31.181  29.787  1.00  0.00     0.031 C 
ATOM     57  C   UNL A   1      45.272  29.011  32.228  1.00  0.00     0.029 A 
ATOM     58  C   UNL A   1      44.192  29.860  31.981  1.00  0.00     0.049 A 
ATOM     59  H   UNL A   1      44.408  31.791  31.156  1.00  0.00     0.167 HD
ATOM     60  C   UNL A   1      41.781  30.373  31.647  1.00  0.00     0.074 A 
ATOM     61  C   UNL A   1      41.812  31.178  30.426  1.00  0.00     0.031 C 
ATOM     62  C   UNL A   1      42.794  29.787  32.358  1.00  0.00     0.037 A 
BRANCH  49  63
ATOM     63  C   UNL A   1      45.876  31.967  28.508  1.00  0.00     0.058 A 
ATOM     64  C   UNL A   1      47.050  32.725  28.693  1.00  0.00     0.135 A 
ATOM     65  C   UNL A   1      44.762  32.689  28.024  1.00  0.00     0.135 A 
ATOM     66  F   UNL A   1      48.173  32.146  29.147  1.00  0.00    -0.206 F 
ATOM     67  C   UNL A   1      47.091  34.105  28.492  1.00  0.00     0.059 A 
ATOM     68  C   UNL A   1      44.797  34.052  27.760  1.00  0.00     0.059 A 
ATOM     69  F   UNL A   1      43.551  32.144  27.871  1.00  0.00    -0.206 F 
ATOM     70  C   UNL A   1      45.951  34.761  28.038  1.00  0.00     0.060 A 
BRANCH  70  71
ATOM     71  S   UNL A   1      45.966  36.551  27.872  1.00  0.00     0.124 S 
ATOM     72  O   UNL A   1      44.539  36.846  27.800  1.00  0.00    -0.237 OA
ATOM     73  O   UNL A   1      46.645  36.961  29.096  1.00  0.00    -0.237 OA
ATOM     74  O   UNL A   1      46.718  36.767  26.640  1.00  0.00    -0.744 OA
ENDBRANCH  70  71
ENDBRANCH  49  63
BRANCH  50  75
ATOM     75  C   UNL A   1      37.751  29.654  29.191  1.00  0.00     0.058 A 
ATOM     76  C   UNL A   1      37.666  29.730  27.786  1.00  0.00     0.135 A 
ATOM     77  C   UNL A   1      36.518  29.720  29.875  1.00  0.00     0.135 A 
ATOM     78  F   UNL A   1      38.780  29.670  27.040  1.00  0.00    -0.206 F 
ATOM     79  C   UNL A   1      36.437  29.797  27.108  1.00  0.00     0.059 A 
ATOM     80  C   UNL A   1      35.289  29.805  29.225  1.00  0.00     0.059 A 
ATOM     81  F   UNL A   1      36.449  29.606  31.209  1.00  0.00    -0.206 F 
ATOM     82  C   UNL A   1      35.251  29.806  27.840  1.00  0.00     0.060 A 
BRANCH  82  83
ATOM     83  S   UNL A   1      33.656  29.661  26.996  1.00  0.00     0.124 S 
ATOM     84  O   UNL A   1      33.087  30.990  27.187  1.00  0.00    -0.237 OA
ATOM     85  O   UNL A   1      34.055  29.323  25.634  1.00  0.00    -0.237 OA
ATOM     86  O   UNL A   1      32.988  28.583  27.724  1.00  0.00    -0.744 OA
ENDBRANCH  82  83
ENDBRANCH  50  75
BRANCH  62  87
ATOM     87  C   UNL A   1      42.458  28.815  33.466  1.00  0.00     0.058 A 
ATOM     88  C   UNL A   1      42.640  27.421  33.392  1.00  0.00     0.135 A 
ATOM     89  C   UNL A   1      42.131  29.342  34.725  1.00  0.00     0.135 A 
ATOM     90  F   UNL A   1      43.061  26.841  32.262  1.00  0.00    -0.206 F 
ATOM     91  C   UNL A   1      42.467  26.590  34.502  1.00  0.00     0.059 A 
ATOM     92  C   UNL A   1      41.987  28.538  35.853  1.00  0.00     0.059 A 
ATOM     93  F   UNL A   1      42.010  30.670  34.885  1.00  0.00    -0.206 F 
ATOM     94  C   UNL A   1      42.143  27.159  35.731  1.00  0.00     0.060 A 
BRANCH  94  95
ATOM     95  S   UNL A   1      41.980  26.096  37.181  1.00  0.00     0.124 S 
ATOM     96  O   UNL A   1      43.128  26.500  37.986  1.00  0.00    -0.237 OA
ATOM     97  O   UNL A   1      40.671  26.475  37.708  1.00  0.00    -0.237 OA
ATOM     98  O   UNL A   1      42.052  24.747  36.626  1.00  0.00    -0.744 OA
ENDBRANCH  94  95
ENDBRANCH  62  87
ENDBRANCH  36  37
ENDBRANCH  28  31
ENDBRANCH  26  27
ENDBRANCH  25  26
ENDBRANCH   1  25
TORSDOF 18
ENDMDL
