MODEL 1
REMARK VINA RESULT:     -11.8      0.000      0.000
REMARK SMILES CCc1ccc(NC(=O)c2c(C(=O)NCCCCCCNC(=O)c3ccc(-c4c5nc(c(-c6c(F)cc(S(=O)(=O)[O-])cc6F)c6ccc([nH]6)c(-c6c(F)cc(S(=O)(=O)[O-])cc6F)c6nc(c(-c7c(F)cc(S(=O)(=O)[O-])cc7F)c7ccc4[nH]7)C=C6)C=C5)cc3)cnn2C)cc1
REMARK SMILES IDX 17 1 16 2 15 3 14 4 12 5 13 6 11 8 10 9 92 10 90 11 91 12
REMARK SMILES IDX 93 13 8 14 7 15 9 17 6 18 3 19 4 20 95 21 5 22 94 23 2 24
REMARK SMILES IDX 1 25 18 26 19 27 20 28 21 29 22 30 23 32 24 33 25 34 89 35
REMARK SMILES IDX 26 36 88 37 27 38 28 39 29 40 82 41 30 42 87 43 81 44 83 45
REMARK SMILES IDX 31 46 86 47 80 48 79 49 32 51 66 52 45 53 65 54 46 55 49 56
REMARK SMILES IDX 64 57 84 58 47 59 48 60 63 62 85 63 50 64 33 65 34 66 43 67
REMARK SMILES IDX 35 68 36 69 42 70 44 71 37 72 38 73 39 74 40 75 41 76 67 77
REMARK SMILES IDX 68 78 77 79 69 80 70 81 76 82 78 83 71 84 72 85 73 86 74 87
REMARK SMILES IDX 75 88 51 89 52 90 61 91 53 92 54 93 60 94 62 95 55 96 56 97
REMARK SMILES IDX 57 98 58 99 59 100
REMARK H PARENT 14 7 7 16 21 31 83 50 49 61
REMARK Flexibility Score: inf
ROOT
ATOM      1  C   UNL A   1      31.860  28.137  27.315  1.00  0.00     0.002 C 
ENDROOT
BRANCH   1   2
ATOM      2  C   UNL A   1      31.174  27.070  26.461  1.00  0.00     0.021 C 
BRANCH   2   3
ATOM      3  C   UNL A   1      31.781  25.672  26.480  1.00  0.00     0.116 C 
BRANCH   3   4
ATOM      4  N   UNL A   1      30.850  24.604  26.731  1.00  0.00    -0.352 N 
ATOM      5  C   UNL A   1      31.034  23.247  26.823  1.00  0.00     0.255 C 
ATOM      6  O   UNL A   1      30.008  22.587  27.016  1.00  0.00    -0.269 OA
ATOM      7  H   UNL A   1      29.919  24.897  26.858  1.00  0.00     0.163 HD
BRANCH   5   8
ATOM      8  C   UNL A   1      32.312  22.557  26.654  1.00  0.00     0.090 A 
ATOM      9  C   UNL A   1      32.864  21.696  25.703  1.00  0.00     0.138 A 
ATOM     10  N   UNL A   1      34.164  21.469  26.104  1.00  0.00    -0.262 N 
ATOM     11  C   UNL A   1      33.371  22.712  27.594  1.00  0.00     0.149 A 
ATOM     12  N   UNL A   1      34.469  22.027  27.287  1.00  0.00    -0.180 NA
ATOM     13  C   UNL A   1      35.185  20.686  25.441  1.00  0.00     0.174 C 
BRANCH   9  14
ATOM     14  C   UNL A   1      32.338  21.174  24.475  1.00  0.00     0.274 C 
ATOM     15  N   UNL A   1      32.255  21.973  23.349  1.00  0.00    -0.321 N 
ATOM     16  H   UNL A   1      31.888  21.507  22.564  1.00  0.00     0.170 HD
ATOM     17  O   UNL A   1      31.926  20.020  24.387  1.00  0.00    -0.267 OA
BRANCH  15  18
ATOM     18  C   UNL A   1      32.588  23.321  23.099  1.00  0.00     0.041 A 
ATOM     19  C   UNL A   1      33.008  26.117  23.101  1.00  0.00    -0.048 A 
ATOM     20  C   UNL A   1      34.085  25.225  23.129  1.00  0.00     0.006 A 
ATOM     21  C   UNL A   1      31.725  25.589  22.934  1.00  0.00     0.006 A 
ATOM     22  C   UNL A   1      33.878  23.843  23.093  1.00  0.00     0.026 A 
ATOM     23  C   UNL A   1      31.519  24.204  22.922  1.00  0.00     0.026 A 
BRANCH  19  24
ATOM     24  C   UNL A   1      33.276  27.577  23.380  1.00  0.00     0.032 C 
ATOM     25  C   UNL A   1      33.963  28.368  22.277  1.00  0.00     0.009 C 
ENDBRANCH  19  24
ENDBRANCH  15  18
ENDBRANCH   9  14
ENDBRANCH   5   8
ENDBRANCH   3   4
ENDBRANCH   2   3
ENDBRANCH   1   2
BRANCH   1  26
ATOM     26  C   UNL A   1      33.321  28.461  26.995  1.00  0.00     0.002 C 
BRANCH  26  27
ATOM     27  C   UNL A   1      33.814  29.873  27.321  1.00  0.00     0.021 C 
BRANCH  27  28
ATOM     28  C   UNL A   1      35.226  29.991  27.884  1.00  0.00     0.116 C 
BRANCH  28  29
ATOM     29  N   UNL A   1      35.262  30.477  29.251  1.00  0.00    -0.352 N 
ATOM     30  C   UNL A   1      36.286  30.444  30.168  1.00  0.00     0.251 C 
ATOM     31  H   UNL A   1      34.429  30.891  29.570  1.00  0.00     0.163 HD
ATOM     32  O   UNL A   1      36.080  30.813  31.321  1.00  0.00    -0.269 OA
BRANCH  30  33
ATOM     33  C   UNL A   1      37.626  29.942  29.784  1.00  0.00     0.039 A 
ATOM     34  C   UNL A   1      37.997  29.984  28.437  1.00  0.00     0.014 A 
ATOM     35  C   UNL A   1      38.509  29.419  30.733  1.00  0.00     0.014 A 
ATOM     36  C   UNL A   1      39.272  29.560  28.050  1.00  0.00     0.010 A 
ATOM     37  C   UNL A   1      39.804  29.062  30.356  1.00  0.00     0.010 A 
ATOM     38  C   UNL A   1      40.198  29.126  29.012  1.00  0.00    -0.014 A 
BRANCH  38  39
ATOM     39  C   UNL A   1      41.581  28.738  28.628  1.00  0.00     0.031 A 
ATOM     40  C   UNL A   1      42.681  29.765  28.613  1.00  0.00     0.074 A 
ATOM     41  C   UNL A   1      41.836  27.475  28.236  1.00  0.00     0.049 A 
ATOM     42  N   UNL A   1      43.934  29.631  28.259  1.00  0.00    -0.248 NA
ATOM     43  C   UNL A   1      42.317  31.128  29.030  1.00  0.00     0.031 C 
ATOM     44  C   UNL A   1      40.849  26.395  28.172  1.00  0.00     0.029 A 
ATOM     45  N   UNL A   1      43.001  26.885  27.814  1.00  0.00    -0.354 N 
ATOM     46  C   UNL A   1      44.504  30.891  28.397  1.00  0.00     0.074 A 
ATOM     47  C   UNL A   1      43.446  31.787  28.811  1.00  0.00     0.031 C 
ATOM     48  C   UNL A   1      41.457  25.268  27.770  1.00  0.00     0.029 A 
ATOM     49  C   UNL A   1      42.865  25.550  27.509  1.00  0.00     0.049 A 
ATOM     50  H   UNL A   1      43.854  27.371  27.737  1.00  0.00     0.167 HD
ATOM     51  C   UNL A   1      45.796  31.264  28.219  1.00  0.00     0.037 A 
ATOM     52  C   UNL A   1      43.772  24.657  27.069  1.00  0.00     0.037 A 
ATOM     53  C   UNL A   1      46.847  30.366  27.818  1.00  0.00     0.049 A 
ATOM     54  C   UNL A   1      45.195  25.095  26.855  1.00  0.00     0.074 A 
ATOM     55  C   UNL A   1      48.195  30.633  27.654  1.00  0.00     0.029 A 
ATOM     56  N   UNL A   1      46.668  29.024  27.512  1.00  0.00    -0.354 N 
ATOM     57  N   UNL A   1      45.729  26.279  27.039  1.00  0.00    -0.248 NA
ATOM     58  C   UNL A   1      46.138  24.076  26.375  1.00  0.00     0.031 C 
ATOM     59  C   UNL A   1      48.822  29.465  27.206  1.00  0.00     0.029 A 
ATOM     60  C   UNL A   1      47.875  28.456  27.137  1.00  0.00     0.049 A 
ATOM     61  H   UNL A   1      45.809  28.545  27.554  1.00  0.00     0.167 HD
ATOM     62  C   UNL A   1      47.076  26.142  26.726  1.00  0.00     0.074 A 
ATOM     63  C   UNL A   1      47.275  24.757  26.345  1.00  0.00     0.031 C 
ATOM     64  C   UNL A   1      48.060  27.075  26.757  1.00  0.00     0.037 A 
BRANCH  51  65
ATOM     65  C   UNL A   1      46.129  32.714  28.450  1.00  0.00     0.058 A 
ATOM     66  C   UNL A   1      46.490  33.196  29.720  1.00  0.00     0.135 A 
ATOM     67  C   UNL A   1      46.067  33.640  27.396  1.00  0.00     0.135 A 
ATOM     68  F   UNL A   1      46.555  32.357  30.767  1.00  0.00    -0.206 F 
ATOM     69  C   UNL A   1      46.721  34.549  29.949  1.00  0.00     0.059 A 
ATOM     70  C   UNL A   1      46.325  34.993  27.596  1.00  0.00     0.059 A 
ATOM     71  F   UNL A   1      45.734  33.237  26.160  1.00  0.00    -0.206 F 
ATOM     72  C   UNL A   1      46.624  35.441  28.882  1.00  0.00     0.060 A 
BRANCH  72  73
ATOM     73  S   UNL A   1      46.872  37.201  29.201  1.00  0.00     0.124 S 
ATOM     74  O   UNL A   1      48.038  37.482  28.368  1.00  0.00    -0.237 OA
ATOM     75  O   UNL A   1      45.614  37.784  28.745  1.00  0.00    -0.237 OA
ATOM     76  O   UNL A   1      47.101  37.256  30.640  1.00  0.00    -0.744 OA
ENDBRANCH  72  73
ENDBRANCH  51  65
BRANCH  52  77
ATOM     77  C   UNL A   1      43.364  23.244  26.852  1.00  0.00     0.058 A 
ATOM     78  C   UNL A   1      43.263  22.721  25.555  1.00  0.00     0.135 A 
ATOM     79  C   UNL A   1      43.114  22.378  27.928  1.00  0.00     0.135 A 
ATOM     80  F   UNL A   1      43.484  23.512  24.494  1.00  0.00    -0.206 F 
ATOM     81  C   UNL A   1      42.929  21.390  25.330  1.00  0.00     0.059 A 
ATOM     82  C   UNL A   1      42.800  21.037  27.729  1.00  0.00     0.059 A 
ATOM     83  F   UNL A   1      43.211  22.828  29.190  1.00  0.00    -0.206 F 
ATOM     84  C   UNL A   1      42.708  20.553  26.425  1.00  0.00     0.060 A 
BRANCH  84  85
ATOM     85  S   UNL A   1      42.353  18.809  26.120  1.00  0.00     0.124 S 
ATOM     86  O   UNL A   1      42.630  18.220  27.426  1.00  0.00    -0.237 OA
ATOM     87  O   UNL A   1      40.949  18.848  25.721  1.00  0.00    -0.237 OA
ATOM     88  O   UNL A   1      43.290  18.457  25.058  1.00  0.00    -0.744 OA
ENDBRANCH  84  85
ENDBRANCH  52  77
BRANCH  64  89
ATOM     89  C   UNL A   1      49.450  26.629  26.396  1.00  0.00     0.058 A 
ATOM     90  C   UNL A   1      50.257  25.922  27.300  1.00  0.00     0.135 A 
ATOM     91  C   UNL A   1      49.962  26.870  25.110  1.00  0.00     0.135 A 
ATOM     92  F   UNL A   1      49.818  25.672  28.544  1.00  0.00    -0.206 F 
ATOM     93  C   UNL A   1      51.530  25.486  26.950  1.00  0.00     0.059 A 
ATOM     94  C   UNL A   1      51.222  26.421  24.730  1.00  0.00     0.059 A 
ATOM     95  F   UNL A   1      49.228  27.535  24.203  1.00  0.00    -0.206 F 
ATOM     96  C   UNL A   1      52.005  25.739  25.661  1.00  0.00     0.060 A 
BRANCH  96  97
ATOM     97  S   UNL A   1      53.645  25.136  25.207  1.00  0.00     0.124 S 
ATOM     98  O   UNL A   1      53.723  25.528  23.803  1.00  0.00    -0.237 OA
ATOM     99  O   UNL A   1      54.513  25.873  26.119  1.00  0.00    -0.237 OA
ATOM    100  O   UNL A   1      53.560  23.700  25.454  1.00  0.00    -0.744 OA
ENDBRANCH  96  97
ENDBRANCH  64  89
ENDBRANCH  38  39
ENDBRANCH  30  33
ENDBRANCH  28  29
ENDBRANCH  27  28
ENDBRANCH  26  27
ENDBRANCH   1  26
TORSDOF 19
ENDMDL
MODEL 2
REMARK VINA RESULT:     -11.8      1.253      2.924
REMARK SMILES CCc1ccc(NC(=O)c2c(C(=O)NCCCCCCNC(=O)c3ccc(-c4c5nc(c(-c6c(F)cc(S(=O)(=O)[O-])cc6F)c6ccc([nH]6)c(-c6c(F)cc(S(=O)(=O)[O-])cc6F)c6nc(c(-c7c(F)cc(S(=O)(=O)[O-])cc7F)c7ccc4[nH]7)C=C6)C=C5)cc3)cnn2C)cc1
REMARK SMILES IDX 17 1 16 2 15 3 14 4 12 5 13 6 11 8 10 9 92 10 90 11 91 12
REMARK SMILES IDX 93 13 8 14 7 15 9 17 6 18 3 19 4 20 95 21 5 22 94 23 2 24
REMARK SMILES IDX 1 25 18 26 19 27 20 28 21 29 22 30 23 32 24 33 25 34 89 35
REMARK SMILES IDX 26 36 88 37 27 38 28 39 29 40 82 41 30 42 87 43 81 44 83 45
REMARK SMILES IDX 31 46 86 47 80 48 79 49 32 51 66 52 45 53 65 54 46 55 49 56
REMARK SMILES IDX 64 57 84 58 47 59 48 60 63 62 85 63 50 64 33 65 34 66 43 67
REMARK SMILES IDX 35 68 36 69 42 70 44 71 37 72 38 73 39 74 40 75 41 76 67 77
REMARK SMILES IDX 68 78 77 79 69 80 70 81 76 82 78 83 71 84 72 85 73 86 74 87
REMARK SMILES IDX 75 88 51 89 52 90 61 91 53 92 54 93 60 94 62 95 55 96 56 97
REMARK SMILES IDX 57 98 58 99 59 100
REMARK H PARENT 14 7 7 16 21 31 83 50 49 61
REMARK Flexibility Score: inf
ROOT
ATOM      1  C   UNL A   1      32.489  27.167  25.583  1.00  0.00     0.002 C 
ENDROOT
BRANCH   1   2
ATOM      2  C   UNL A   1      31.423  26.673  26.562  1.00  0.00     0.021 C 
BRANCH   2   3
ATOM      3  C   UNL A   1      30.189  26.008  25.964  1.00  0.00     0.116 C 
BRANCH   3   4
ATOM      4  N   UNL A   1      30.022  24.618  26.295  1.00  0.00    -0.352 N 
ATOM      5  C   UNL A   1      30.674  23.496  25.846  1.00  0.00     0.255 C 
ATOM      6  O   UNL A   1      30.264  22.427  26.308  1.00  0.00    -0.269 OA
ATOM      7  H   UNL A   1      29.318  24.439  26.959  1.00  0.00     0.163 HD
BRANCH   5   8
ATOM      8  C   UNL A   1      31.742  23.486  24.848  1.00  0.00     0.090 A 
ATOM      9  C   UNL A   1      33.118  23.248  24.860  1.00  0.00     0.138 A 
ATOM     10  N   UNL A   1      33.528  23.320  23.545  1.00  0.00    -0.262 N 
ATOM     11  C   UNL A   1      31.476  23.744  23.472  1.00  0.00     0.149 A 
ATOM     12  N   UNL A   1      32.555  23.685  22.695  1.00  0.00    -0.180 NA
ATOM     13  C   UNL A   1      34.853  23.101  23.003  1.00  0.00     0.174 C 
BRANCH   9  14
ATOM     14  C   UNL A   1      34.011  22.889  25.923  1.00  0.00     0.274 C 
ATOM     15  N   UNL A   1      34.384  21.571  26.113  1.00  0.00    -0.321 N 
ATOM     16  H   UNL A   1      35.007  21.444  26.864  1.00  0.00     0.170 HD
ATOM     17  O   UNL A   1      34.452  23.725  26.708  1.00  0.00    -0.267 OA
BRANCH  15  18
ATOM     18  C   UNL A   1      34.053  20.372  25.448  1.00  0.00     0.041 A 
ATOM     19  C   UNL A   1      33.692  17.721  24.531  1.00  0.00    -0.048 A 
ATOM     20  C   UNL A   1      32.606  18.492  24.960  1.00  0.00     0.006 A 
ATOM     21  C   UNL A   1      34.940  18.343  24.439  1.00  0.00     0.006 A 
ATOM     22  C   UNL A   1      32.781  19.813  25.381  1.00  0.00     0.026 A 
ATOM     23  C   UNL A   1      35.116  19.660  24.883  1.00  0.00     0.026 A 
BRANCH  19  24
ATOM     24  C   UNL A   1      33.484  16.241  24.317  1.00  0.00     0.032 C 
ATOM     25  C   UNL A   1      32.725  15.493  25.403  1.00  0.00     0.009 C 
ENDBRANCH  19  24
ENDBRANCH  15  18
ENDBRANCH   9  14
ENDBRANCH   5   8
ENDBRANCH   3   4
ENDBRANCH   2   3
ENDBRANCH   1   2
BRANCH   1  26
ATOM     26  C   UNL A   1      33.832  27.610  26.170  1.00  0.00     0.002 C 
BRANCH  26  27
ATOM     27  C   UNL A   1      33.803  28.702  27.242  1.00  0.00     0.021 C 
BRANCH  27  28
ATOM     28  C   UNL A   1      35.092  29.489  27.451  1.00  0.00     0.116 C 
BRANCH  28  29
ATOM     29  N   UNL A   1      35.126  30.215  28.708  1.00  0.00    -0.352 N 
ATOM     30  C   UNL A   1      36.164  30.395  29.590  1.00  0.00     0.251 C 
ATOM     31  H   UNL A   1      34.278  30.642  28.967  1.00  0.00     0.163 HD
ATOM     32  O   UNL A   1      35.959  30.957  30.663  1.00  0.00    -0.269 OA
BRANCH  30  33
ATOM     33  C   UNL A   1      37.522  29.894  29.269  1.00  0.00     0.039 A 
ATOM     34  C   UNL A   1      37.915  29.833  27.930  1.00  0.00     0.014 A 
ATOM     35  C   UNL A   1      38.399  29.469  30.272  1.00  0.00     0.014 A 
ATOM     36  C   UNL A   1      39.205  29.408  27.599  1.00  0.00     0.010 A 
ATOM     37  C   UNL A   1      39.706  29.112  29.947  1.00  0.00     0.010 A 
ATOM     38  C   UNL A   1      40.123  29.075  28.607  1.00  0.00    -0.014 A 
BRANCH  38  39
ATOM     39  C   UNL A   1      41.520  28.688  28.279  1.00  0.00     0.031 A 
ATOM     40  C   UNL A   1      42.612  29.724  28.264  1.00  0.00     0.074 A 
ATOM     41  C   UNL A   1      41.798  27.416  27.936  1.00  0.00     0.049 A 
ATOM     42  N   UNL A   1      43.876  29.590  27.953  1.00  0.00    -0.248 NA
ATOM     43  C   UNL A   1      42.224  31.096  28.625  1.00  0.00     0.031 C 
ATOM     44  C   UNL A   1      40.823  26.325  27.877  1.00  0.00     0.029 A 
ATOM     45  N   UNL A   1      42.981  26.823  27.569  1.00  0.00    -0.354 N 
ATOM     46  C   UNL A   1      44.431  30.860  28.068  1.00  0.00     0.074 A 
ATOM     47  C   UNL A   1      43.353  31.759  28.421  1.00  0.00     0.031 C 
ATOM     48  C   UNL A   1      41.453  25.191  27.530  1.00  0.00     0.029 A 
ATOM     49  C   UNL A   1      42.865  25.478  27.303  1.00  0.00     0.049 A 
ATOM     50  H   UNL A   1      43.831  27.314  27.503  1.00  0.00     0.167 HD
ATOM     51  C   UNL A   1      45.724  31.239  27.917  1.00  0.00     0.037 A 
ATOM     52  C   UNL A   1      43.793  24.580  26.919  1.00  0.00     0.037 A 
ATOM     53  C   UNL A   1      46.795  30.338  27.578  1.00  0.00     0.049 A 
ATOM     54  C   UNL A   1      45.218  25.024  26.735  1.00  0.00     0.074 A 
ATOM     55  C   UNL A   1      48.145  30.613  27.447  1.00  0.00     0.029 A 
ATOM     56  N   UNL A   1      46.637  28.986  27.309  1.00  0.00    -0.354 N 
ATOM     57  N   UNL A   1      45.736  26.218  26.898  1.00  0.00    -0.248 NA
ATOM     58  C   UNL A   1      46.184  23.999  26.317  1.00  0.00     0.031 C 
ATOM     59  C   UNL A   1      48.795  29.437  27.055  1.00  0.00     0.029 A 
ATOM     60  C   UNL A   1      47.860  28.417  26.990  1.00  0.00     0.049 A 
ATOM     61  H   UNL A   1      45.780  28.500  27.341  1.00  0.00     0.167 HD
ATOM     62  C   UNL A   1      47.093  26.084  26.630  1.00  0.00     0.074 A 
ATOM     63  C   UNL A   1      47.315  24.690  26.300  1.00  0.00     0.031 C 
ATOM     64  C   UNL A   1      48.067  27.027  26.661  1.00  0.00     0.037 A 
BRANCH  51  65
ATOM     65  C   UNL A   1      46.038  32.699  28.112  1.00  0.00     0.058 A 
ATOM     66  C   UNL A   1      45.955  33.619  27.053  1.00  0.00     0.135 A 
ATOM     67  C   UNL A   1      46.445  33.183  29.365  1.00  0.00     0.135 A 
ATOM     68  F   UNL A   1      45.582  33.210  25.830  1.00  0.00    -0.206 F 
ATOM     69  C   UNL A   1      46.320  34.952  27.215  1.00  0.00     0.059 A 
ATOM     70  C   UNL A   1      46.784  34.520  29.558  1.00  0.00     0.059 A 
ATOM     71  F   UNL A   1      46.535  32.352  30.415  1.00  0.00    -0.206 F 
ATOM     72  C   UNL A   1      46.745  35.390  28.469  1.00  0.00     0.060 A 
BRANCH  72  73
ATOM     73  S   UNL A   1      47.267  37.108  28.654  1.00  0.00     0.124 S 
ATOM     74  O   UNL A   1      48.585  36.945  29.262  1.00  0.00    -0.237 OA
ATOM     75  O   UNL A   1      47.261  37.589  27.276  1.00  0.00    -0.237 OA
ATOM     76  O   UNL A   1      46.244  37.682  29.521  1.00  0.00    -0.744 OA
ENDBRANCH  72  73
ENDBRANCH  51  65
BRANCH  52  77
ATOM     77  C   UNL A   1      43.404  23.157  26.736  1.00  0.00     0.058 A 
ATOM     78  C   UNL A   1      43.302  22.604  25.451  1.00  0.00     0.135 A 
ATOM     79  C   UNL A   1      43.172  22.311  27.833  1.00  0.00     0.135 A 
ATOM     80  F   UNL A   1      43.505  23.375  24.372  1.00  0.00    -0.206 F 
ATOM     81  C   UNL A   1      42.985  21.264  25.257  1.00  0.00     0.059 A 
ATOM     82  C   UNL A   1      42.876  20.962  27.665  1.00  0.00     0.059 A 
ATOM     83  F   UNL A   1      43.271  22.790  29.083  1.00  0.00    -0.206 F 
ATOM     84  C   UNL A   1      42.783  20.448  26.372  1.00  0.00     0.060 A 
BRANCH  84  85
ATOM     85  S   UNL A   1      42.451  18.693  26.108  1.00  0.00     0.124 S 
ATOM     86  O   UNL A   1      41.048  18.716  25.709  1.00  0.00    -0.237 OA
ATOM     87  O   UNL A   1      43.409  18.355  25.059  1.00  0.00    -0.237 OA
ATOM     88  O   UNL A   1      42.727  18.100  27.413  1.00  0.00    -0.744 OA
ENDBRANCH  84  85
ENDBRANCH  52  77
BRANCH  64  89
ATOM     89  C   UNL A   1      49.471  26.582  26.357  1.00  0.00     0.058 A 
ATOM     90  C   UNL A   1      50.263  25.930  27.314  1.00  0.00     0.135 A 
ATOM     91  C   UNL A   1      50.014  26.769  25.074  1.00  0.00     0.135 A 
ATOM     92  F   UNL A   1      49.796  25.735  28.557  1.00  0.00    -0.206 F 
ATOM     93  C   UNL A   1      51.551  25.496  27.017  1.00  0.00     0.059 A 
ATOM     94  C   UNL A   1      51.289  26.318  24.748  1.00  0.00     0.059 A 
ATOM     95  F   UNL A   1      49.295  27.379  24.118  1.00  0.00    -0.206 F 
ATOM     96  C   UNL A   1      52.055  25.692  25.730  1.00  0.00     0.060 A 
BRANCH  96  97
ATOM     97  S   UNL A   1      53.714  25.090  25.347  1.00  0.00     0.124 S 
ATOM     98  O   UNL A   1      53.910  25.611  23.997  1.00  0.00    -0.237 OA
ATOM     99  O   UNL A   1      54.521  25.715  26.390  1.00  0.00    -0.237 OA
ATOM    100  O   UNL A   1      53.580  23.640  25.448  1.00  0.00    -0.744 OA
ENDBRANCH  96  97
ENDBRANCH  64  89
ENDBRANCH  38  39
ENDBRANCH  30  33
ENDBRANCH  28  29
ENDBRANCH  27  28
ENDBRANCH  26  27
ENDBRANCH   1  26
TORSDOF 19
ENDMDL
MODEL 3
REMARK VINA RESULT:     -11.6      6.497     11.812
REMARK SMILES CCc1ccc(NC(=O)c2c(C(=O)NCCCCCCNC(=O)c3ccc(-c4c5nc(c(-c6c(F)cc(S(=O)(=O)[O-])cc6F)c6ccc([nH]6)c(-c6c(F)cc(S(=O)(=O)[O-])cc6F)c6nc(c(-c7c(F)cc(S(=O)(=O)[O-])cc7F)c7ccc4[nH]7)C=C6)C=C5)cc3)cnn2C)cc1
REMARK SMILES IDX 17 1 16 2 15 3 14 4 12 5 13 6 11 8 10 9 92 10 90 11 91 12
REMARK SMILES IDX 93 13 8 14 7 15 9 17 6 18 3 19 4 20 95 21 5 22 94 23 2 24
REMARK SMILES IDX 1 25 18 26 19 27 20 28 21 29 22 30 23 32 24 33 25 34 89 35
REMARK SMILES IDX 26 36 88 37 27 38 28 39 29 40 82 41 30 42 87 43 81 44 83 45
REMARK SMILES IDX 31 46 86 47 80 48 79 49 32 51 66 52 45 53 65 54 46 55 49 56
REMARK SMILES IDX 64 57 84 58 47 59 48 60 63 62 85 63 50 64 33 65 34 66 43 67
REMARK SMILES IDX 35 68 36 69 42 70 44 71 37 72 38 73 39 74 40 75 41 76 67 77
REMARK SMILES IDX 68 78 77 79 69 80 70 81 76 82 78 83 71 84 72 85 73 86 74 87
REMARK SMILES IDX 75 88 51 89 52 90 61 91 53 92 54 93 60 94 62 95 55 96 56 97
REMARK SMILES IDX 57 98 58 99 59 100
REMARK H PARENT 14 7 7 16 21 31 83 50 49 61
REMARK Flexibility Score: inf
ROOT
ATOM      1  C   UNL A   1      39.672  21.832  26.487  1.00  0.00     0.002 C 
ENDROOT
BRANCH   1   2
ATOM      2  C   UNL A   1      39.172  23.274  26.571  1.00  0.00     0.021 C 
BRANCH   2   3
ATOM      3  C   UNL A   1      37.764  23.551  26.058  1.00  0.00     0.116 C 
BRANCH   3   4
ATOM      4  N   UNL A   1      37.593  23.421  24.636  1.00  0.00    -0.352 N 
ATOM      5  C   UNL A   1      36.550  22.931  23.891  1.00  0.00     0.255 C 
ATOM      6  O   UNL A   1      36.731  22.924  22.670  1.00  0.00    -0.269 OA
ATOM      7  H   UNL A   1      38.358  23.737  24.103  1.00  0.00     0.163 HD
BRANCH   5   8
ATOM      8  C   UNL A   1      35.309  22.383  24.438  1.00  0.00     0.090 A 
ATOM      9  C   UNL A   1      33.949  22.509  24.148  1.00  0.00     0.138 A 
ATOM     10  N   UNL A   1      33.296  21.647  25.005  1.00  0.00    -0.262 N 
ATOM     11  C   UNL A   1      35.318  21.463  25.525  1.00  0.00     0.149 A 
ATOM     12  N   UNL A   1      34.108  21.052  25.894  1.00  0.00    -0.180 NA
ATOM     13  C   UNL A   1      31.879  21.359  25.083  1.00  0.00     0.174 C 
BRANCH   9  14
ATOM     14  C   UNL A   1      33.257  23.252  23.134  1.00  0.00     0.274 C 
ATOM     15  N   UNL A   1      32.773  24.519  23.399  1.00  0.00    -0.321 N 
ATOM     16  H   UNL A   1      32.326  24.937  22.627  1.00  0.00     0.170 HD
ATOM     17  O   UNL A   1      33.052  22.784  22.017  1.00  0.00    -0.267 OA
BRANCH  15  18
ATOM     18  C   UNL A   1      32.790  25.336  24.549  1.00  0.00     0.041 A 
ATOM     19  C   UNL A   1      32.732  27.396  26.484  1.00  0.00    -0.048 A 
ATOM     20  C   UNL A   1      31.768  26.382  26.480  1.00  0.00     0.006 A 
ATOM     21  C   UNL A   1      33.802  27.287  25.592  1.00  0.00     0.006 A 
ATOM     22  C   UNL A   1      31.817  25.345  25.544  1.00  0.00     0.026 A 
ATOM     23  C   UNL A   1      33.835  26.260  24.641  1.00  0.00     0.026 A 
BRANCH  19  24
ATOM     24  C   UNL A   1      32.497  28.607  27.356  1.00  0.00     0.032 C 
ATOM     25  C   UNL A   1      31.735  29.764  26.727  1.00  0.00     0.009 C 
ENDBRANCH  19  24
ENDBRANCH  15  18
ENDBRANCH   9  14
ENDBRANCH   5   8
ENDBRANCH   3   4
ENDBRANCH   2   3
ENDBRANCH   1   2
BRANCH   1  26
ATOM     26  C   UNL A   1      40.946  21.483  27.261  1.00  0.00     0.002 C 
BRANCH  26  27
ATOM     27  C   UNL A   1      41.613  22.608  28.057  1.00  0.00     0.021 C 
BRANCH  27  28
ATOM     28  C   UNL A   1      42.854  23.241  27.437  1.00  0.00     0.116 C 
BRANCH  28  29
ATOM     29  N   UNL A   1      42.566  24.043  26.261  1.00  0.00    -0.352 N 
ATOM     30  C   UNL A   1      42.085  25.327  26.171  1.00  0.00     0.251 C 
ATOM     31  H   UNL A   1      42.741  23.601  25.400  1.00  0.00     0.163 HD
ATOM     32  O   UNL A   1      41.802  25.793  25.070  1.00  0.00    -0.269 OA
BRANCH  30  33
ATOM     33  C   UNL A   1      41.877  26.142  27.392  1.00  0.00     0.039 A 
ATOM     34  C   UNL A   1      42.811  27.134  27.702  1.00  0.00     0.014 A 
ATOM     35  C   UNL A   1      40.784  25.926  28.236  1.00  0.00     0.014 A 
ATOM     36  C   UNL A   1      42.618  27.949  28.821  1.00  0.00     0.010 A 
ATOM     37  C   UNL A   1      40.556  26.785  29.311  1.00  0.00     0.010 A 
ATOM     38  C   UNL A   1      41.471  27.803  29.617  1.00  0.00    -0.014 A 
BRANCH  38  39
ATOM     39  C   UNL A   1      41.213  28.706  30.769  1.00  0.00     0.031 A 
ATOM     40  C   UNL A   1      42.051  28.606  32.015  1.00  0.00     0.074 A 
ATOM     41  C   UNL A   1      40.188  29.579  30.718  1.00  0.00     0.049 A 
ATOM     42  N   UNL A   1      41.946  29.268  33.139  1.00  0.00    -0.248 NA
ATOM     43  C   UNL A   1      43.134  27.611  32.003  1.00  0.00     0.031 C 
ATOM     44  C   UNL A   1      39.280  29.749  29.581  1.00  0.00     0.029 A 
ATOM     45  N   UNL A   1      39.734  30.484  31.644  1.00  0.00    -0.354 N 
ATOM     46  C   UNL A   1      42.939  28.764  33.971  1.00  0.00     0.074 A 
ATOM     47  C   UNL A   1      43.597  27.700  33.242  1.00  0.00     0.031 C 
ATOM     48  C   UNL A   1      38.401  30.723  29.864  1.00  0.00     0.029 A 
ATOM     49  C   UNL A   1      38.654  31.220  31.213  1.00  0.00     0.049 A 
ATOM     50  H   UNL A   1      40.143  30.597  32.532  1.00  0.00     0.167 HD
ATOM     51  C   UNL A   1      43.288  29.165  35.219  1.00  0.00     0.037 A 
ATOM     52  C   UNL A   1      37.948  32.183  31.835  1.00  0.00     0.037 A 
ATOM     53  C   UNL A   1      42.638  30.232  35.935  1.00  0.00     0.049 A 
ATOM     54  C   UNL A   1      38.336  32.599  33.228  1.00  0.00     0.074 A 
ATOM     55  C   UNL A   1      42.944  30.745  37.182  1.00  0.00     0.029 A 
ATOM     56  N   UNL A   1      41.543  30.946  35.468  1.00  0.00    -0.354 N 
ATOM     57  N   UNL A   1      39.310  32.147  33.981  1.00  0.00    -0.248 NA
ATOM     58  C   UNL A   1      37.529  33.655  33.854  1.00  0.00     0.031 C 
ATOM     59  C   UNL A   1      42.007  31.739  37.489  1.00  0.00     0.029 A 
ATOM     60  C   UNL A   1      41.147  31.880  36.412  1.00  0.00     0.049 A 
ATOM     61  H   UNL A   1      41.112  30.810  34.593  1.00  0.00     0.167 HD
ATOM     62  C   UNL A   1      39.253  32.883  35.159  1.00  0.00     0.074 A 
ATOM     63  C   UNL A   1      38.150  33.813  35.015  1.00  0.00     0.031 C 
ATOM     64  C   UNL A   1      40.045  32.800  36.257  1.00  0.00     0.037 A 
BRANCH  51  65
ATOM     65  C   UNL A   1      44.422  28.429  35.883  1.00  0.00     0.058 A 
ATOM     66  C   UNL A   1      45.759  28.824  35.711  1.00  0.00     0.135 A 
ATOM     67  C   UNL A   1      44.173  27.304  36.685  1.00  0.00     0.135 A 
ATOM     68  F   UNL A   1      46.057  29.887  34.946  1.00  0.00    -0.206 F 
ATOM     69  C   UNL A   1      46.811  28.098  36.261  1.00  0.00     0.059 A 
ATOM     70  C   UNL A   1      45.207  26.581  37.272  1.00  0.00     0.059 A 
ATOM     71  F   UNL A   1      42.914  26.884  36.890  1.00  0.00    -0.206 F 
ATOM     72  C   UNL A   1      46.524  26.970  37.030  1.00  0.00     0.060 A 
BRANCH  72  73
ATOM     73  S   UNL A   1      47.898  26.005  37.694  1.00  0.00     0.124 S 
ATOM     74  O   UNL A   1      49.044  26.797  37.258  1.00  0.00    -0.237 OA
ATOM     75  O   UNL A   1      47.628  26.020  39.129  1.00  0.00    -0.237 OA
ATOM     76  O   UNL A   1      47.748  24.708  37.044  1.00  0.00    -0.744 OA
ENDBRANCH  72  73
ENDBRANCH  51  65
BRANCH  52  77
ATOM     77  C   UNL A   1      36.833  32.856  31.117  1.00  0.00     0.058 A 
ATOM     78  C   UNL A   1      37.097  33.804  30.118  1.00  0.00     0.135 A 
ATOM     79  C   UNL A   1      35.492  32.535  31.378  1.00  0.00     0.135 A 
ATOM     80  F   UNL A   1      38.363  34.150  29.840  1.00  0.00    -0.206 F 
ATOM     81  C   UNL A   1      36.072  34.411  29.401  1.00  0.00     0.059 A 
ATOM     82  C   UNL A   1      34.450  33.112  30.658  1.00  0.00     0.059 A 
ATOM     83  F   UNL A   1      35.189  31.623  32.315  1.00  0.00    -0.206 F 
ATOM     84  C   UNL A   1      34.750  34.051  29.672  1.00  0.00     0.060 A 
BRANCH  84  85
ATOM     85  S   UNL A   1      33.434  34.788  28.680  1.00  0.00     0.124 S 
ATOM     86  O   UNL A   1      34.119  35.929  28.083  1.00  0.00    -0.237 OA
ATOM     87  O   UNL A   1      33.092  33.699  27.770  1.00  0.00    -0.237 OA
ATOM     88  O   UNL A   1      32.411  35.113  29.669  1.00  0.00    -0.744 OA
ENDBRANCH  84  85
ENDBRANCH  52  77
BRANCH  64  89
ATOM     89  C   UNL A   1      39.770  33.758  37.383  1.00  0.00     0.058 A 
ATOM     90  C   UNL A   1      38.985  33.394  38.488  1.00  0.00     0.135 A 
ATOM     91  C   UNL A   1      40.338  35.043  37.378  1.00  0.00     0.135 A 
ATOM     92  F   UNL A   1      38.412  32.181  38.539  1.00  0.00    -0.206 F 
ATOM     93  C   UNL A   1      38.758  34.276  39.539  1.00  0.00     0.059 A 
ATOM     94  C   UNL A   1      40.146  35.931  38.431  1.00  0.00     0.059 A 
ATOM     95  F   UNL A   1      41.104  35.439  36.349  1.00  0.00    -0.206 F 
ATOM     96  C   UNL A   1      39.345  35.543  39.504  1.00  0.00     0.060 A 
BRANCH  96  97
ATOM     97  S   UNL A   1      39.073  36.664  40.892  1.00  0.00     0.124 S 
ATOM     98  O   UNL A   1      40.392  36.681  41.518  1.00  0.00    -0.237 OA
ATOM     99  O   UNL A   1      38.674  37.898  40.223  1.00  0.00    -0.237 OA
ATOM    100  O   UNL A   1      38.021  36.005  41.660  1.00  0.00    -0.744 OA
ENDBRANCH  96  97
ENDBRANCH  64  89
ENDBRANCH  38  39
ENDBRANCH  30  33
ENDBRANCH  28  29
ENDBRANCH  27  28
ENDBRANCH  26  27
ENDBRANCH   1  26
TORSDOF 19
ENDMDL
