MODEL 1
REMARK VINA RESULT:     -11.8      0.000      0.000
REMARK SMILES CS(=O)(=O)c1ccc(/C=C(/C(=O)NCCCCCCNC(=O)c2ccc(-c3c4nc(c(-c5c(F)cc(S(=O)(=O)[O-])cc5F)c5ccc([nH]5)c(-c5c(F)cc(S(=O)(=O)[O-])cc5F)c5nc(c(-c6c(F)cc(S(=O)(=O)[O-])cc6F)c6ccc3[nH]6)C=C5)C=C4)cc2)c2cccc(-c3ccc(S(C)(=O)=O)cc3)c2)cc1
REMARK SMILES IDX 16 1 15 2 14 3 13 4 11 5 12 6 10 8 9 9 8 10 5 11 6 12 106 13
REMARK SMILES IDX 7 14 105 15 2 16 1 17 3 18 4 19 89 20 90 21 104 22 91 23
REMARK SMILES IDX 93 24 92 25 94 26 95 27 103 28 96 29 102 30 97 31 98 32
REMARK SMILES IDX 99 33 100 34 101 35 17 36 18 37 19 38 20 39 21 40 22 42
REMARK SMILES IDX 23 43 24 44 88 45 25 46 87 47 26 48 27 49 28 50 81 51 29 52
REMARK SMILES IDX 86 53 80 54 82 55 30 56 85 57 79 58 78 59 31 61 65 62 44 63
REMARK SMILES IDX 64 64 45 65 48 66 63 67 83 68 46 69 47 70 62 72 84 73 49 74
REMARK SMILES IDX 32 75 33 76 42 77 34 78 35 79 41 80 43 81 36 82 37 83 38 84
REMARK SMILES IDX 39 85 40 86 66 87 67 88 76 89 68 90 69 91 75 92 77 93 70 94
REMARK SMILES IDX 71 95 72 96 73 97 74 98 50 99 51 100 60 101 52 102 53 103
REMARK SMILES IDX 59 104 61 105 54 106 55 107 56 108 57 109 58 110
REMARK H PARENT 13 7 20 41 82 60 48 71
REMARK Flexibility Score: inf
ROOT
ATOM      1  C   UNL A   1      32.867  28.507  22.833  1.00  0.00     0.002 C 
ENDROOT
BRANCH   1   2
ATOM      2  C   UNL A   1      31.436  28.177  23.294  1.00  0.00     0.021 C 
BRANCH   2   3
ATOM      3  C   UNL A   1      30.922  26.831  22.777  1.00  0.00     0.116 C 
BRANCH   3   4
ATOM      4  N   UNL A   1      31.737  26.398  21.658  1.00  0.00    -0.352 N 
ATOM      5  C   UNL A   1      32.576  25.352  21.443  1.00  0.00     0.251 C 
ATOM      6  O   UNL A   1      33.187  25.369  20.371  1.00  0.00    -0.269 OA
ATOM      7  H   UNL A   1      31.669  26.998  20.881  1.00  0.00     0.163 HD
BRANCH   5   8
ATOM      8  C   UNL A   1      32.702  24.169  22.379  1.00  0.00     0.047 C 
ATOM      9  C   UNL A   1      32.065  22.996  22.149  1.00  0.00     0.022 C 
BRANCH   9  10
ATOM     10  C   UNL A   1      32.181  21.708  22.872  1.00  0.00    -0.025 A 
ATOM     11  C   UNL A   1      32.519  19.193  24.087  1.00  0.00     0.067 A 
ATOM     12  C   UNL A   1      32.519  20.349  24.869  1.00  0.00     0.021 A 
ATOM     13  C   UNL A   1      32.313  19.277  22.709  1.00  0.00     0.021 A 
ATOM     14  C   UNL A   1      32.330  21.598  24.261  1.00  0.00     0.009 A 
ATOM     15  C   UNL A   1      32.144  20.529  22.109  1.00  0.00     0.009 A 
BRANCH  11  16
ATOM     16  S   UNL A   1      32.763  17.594  24.827  1.00  0.00     0.175 S 
ATOM     17  C   UNL A   1      33.701  16.650  23.656  1.00  0.00     0.163 C 
ATOM     18  O   UNL A   1      31.461  16.963  24.929  1.00  0.00    -0.224 OA
ATOM     19  O   UNL A   1      33.592  17.804  25.998  1.00  0.00    -0.224 OA
ENDBRANCH  11  16
ENDBRANCH   9  10
BRANCH   8  20
ATOM     20  C   UNL A   1      33.426  24.402  23.657  1.00  0.00    -0.012 A 
ATOM     21  C   UNL A   1      32.724  24.955  24.741  1.00  0.00     0.009 A 
ATOM     22  C   UNL A   1      34.748  23.983  23.852  1.00  0.00     0.017 A 
ATOM     23  C   UNL A   1      33.318  25.075  25.992  1.00  0.00     0.001 A 
ATOM     24  C   UNL A   1      35.335  24.021  25.130  1.00  0.00    -0.018 A 
ATOM     25  C   UNL A   1      34.611  24.599  26.188  1.00  0.00     0.009 A 
BRANCH  24  26
ATOM     26  C   UNL A   1      36.616  23.346  25.381  1.00  0.00    -0.018 A 
ATOM     27  C   UNL A   1      37.606  23.999  26.139  1.00  0.00     0.010 A 
ATOM     28  C   UNL A   1      36.860  22.034  24.947  1.00  0.00     0.010 A 
ATOM     29  C   UNL A   1      38.802  23.363  26.465  1.00  0.00     0.021 A 
ATOM     30  C   UNL A   1      38.059  21.387  25.265  1.00  0.00     0.021 A 
ATOM     31  C   UNL A   1      39.022  22.059  26.019  1.00  0.00     0.067 A 
BRANCH  31  32
ATOM     32  S   UNL A   1      40.532  21.250  26.480  1.00  0.00     0.175 S 
ATOM     33  C   UNL A   1      40.262  19.562  26.005  1.00  0.00     0.163 C 
ATOM     34  O   UNL A   1      41.575  21.798  25.637  1.00  0.00    -0.224 OA
ATOM     35  O   UNL A   1      40.634  21.285  27.928  1.00  0.00    -0.224 OA
ENDBRANCH  31  32
ENDBRANCH  24  26
ENDBRANCH   8  20
ENDBRANCH   5   8
ENDBRANCH   3   4
ENDBRANCH   2   3
ENDBRANCH   1   2
BRANCH   1  36
ATOM     36  C   UNL A   1      33.957  28.284  23.888  1.00  0.00     0.002 C 
BRANCH  36  37
ATOM     37  C   UNL A   1      33.469  28.317  25.338  1.00  0.00     0.021 C 
BRANCH  37  38
ATOM     38  C   UNL A   1      34.480  28.882  26.331  1.00  0.00     0.116 C 
BRANCH  38  39
ATOM     39  N   UNL A   1      34.129  30.228  26.754  1.00  0.00    -0.352 N 
ATOM     40  C   UNL A   1      34.687  30.990  27.751  1.00  0.00     0.251 C 
ATOM     41  H   UNL A   1      33.389  30.651  26.259  1.00  0.00     0.163 HD
ATOM     42  O   UNL A   1      34.136  32.024  28.118  1.00  0.00    -0.269 OA
BRANCH  40  43
ATOM     43  C   UNL A   1      35.946  30.550  28.388  1.00  0.00     0.039 A 
ATOM     44  C   UNL A   1      37.151  31.127  27.981  1.00  0.00     0.014 A 
ATOM     45  C   UNL A   1      35.933  29.569  29.383  1.00  0.00     0.014 A 
ATOM     46  C   UNL A   1      38.341  30.759  28.614  1.00  0.00     0.010 A 
ATOM     47  C   UNL A   1      37.111  29.248  30.054  1.00  0.00     0.010 A 
ATOM     48  C   UNL A   1      38.327  29.838  29.674  1.00  0.00    -0.014 A 
BRANCH  48  49
ATOM     49  C   UNL A   1      39.569  29.470  30.397  1.00  0.00     0.031 A 
ATOM     50  C   UNL A   1      39.945  30.194  31.661  1.00  0.00     0.074 A 
ATOM     51  C   UNL A   1      40.395  28.541  29.877  1.00  0.00     0.049 A 
ATOM     52  N   UNL A   1      41.033  30.093  32.379  1.00  0.00    -0.248 NA
ATOM     53  C   UNL A   1      38.979  31.182  32.170  1.00  0.00     0.031 C 
ATOM     54  C   UNL A   1      40.159  27.799  28.637  1.00  0.00     0.029 A 
ATOM     55  N   UNL A   1      41.608  28.074  30.317  1.00  0.00    -0.354 N 
ATOM     56  C   UNL A   1      40.893  31.015  33.410  1.00  0.00     0.074 A 
ATOM     57  C   UNL A   1      39.634  31.696  33.200  1.00  0.00     0.031 C 
ATOM     58  C   UNL A   1      41.187  26.962  28.423  1.00  0.00     0.029 A 
ATOM     59  C   UNL A   1      42.171  27.133  29.487  1.00  0.00     0.049 A 
ATOM     60  H   UNL A   1      42.035  28.383  31.149  1.00  0.00     0.167 HD
ATOM     61  C   UNL A   1      41.729  31.257  34.449  1.00  0.00     0.037 A 
ATOM     62  C   UNL A   1      43.352  26.489  29.570  1.00  0.00     0.037 A 
ATOM     63  C   UNL A   1      42.966  30.554  34.668  1.00  0.00     0.049 A 
ATOM     64  C   UNL A   1      44.263  26.772  30.733  1.00  0.00     0.074 A 
ATOM     65  C   UNL A   1      43.856  30.683  35.720  1.00  0.00     0.029 A 
ATOM     66  N   UNL A   1      43.488  29.587  33.820  1.00  0.00    -0.354 N 
ATOM     67  N   UNL A   1      44.090  27.607  31.730  1.00  0.00    -0.248 NA
ATOM     68  C   UNL A   1      45.526  26.023  30.788  1.00  0.00     0.031 C 
ATOM     69  C   UNL A   1      44.932  29.821  35.491  1.00  0.00     0.029 A 
ATOM     70  C   UNL A   1      44.694  29.123  34.318  1.00  0.00     0.049 A 
ATOM     71  H   UNL A   1      43.063  29.276  32.987  1.00  0.00     0.167 HD
ATOM     72  C   UNL A   1      45.209  27.466  32.542  1.00  0.00     0.074 A 
ATOM     73  C   UNL A   1      46.049  26.461  31.926  1.00  0.00     0.031 C 
ATOM     74  C   UNL A   1      45.512  28.111  33.696  1.00  0.00     0.037 A 
BRANCH  61  75
ATOM     75  C   UNL A   1      41.329  32.323  35.429  1.00  0.00     0.058 A 
ATOM     76  C   UNL A   1      40.354  32.089  36.413  1.00  0.00     0.135 A 
ATOM     77  C   UNL A   1      41.943  33.586  35.404  1.00  0.00     0.135 A 
ATOM     78  F   UNL A   1      39.725  30.905  36.473  1.00  0.00    -0.206 F 
ATOM     79  C   UNL A   1      39.981  33.079  37.316  1.00  0.00     0.059 A 
ATOM     80  C   UNL A   1      41.603  34.582  36.314  1.00  0.00     0.059 A 
ATOM     81  F   UNL A   1      42.881  33.862  34.484  1.00  0.00    -0.206 F 
ATOM     82  C   UNL A   1      40.610  34.324  37.256  1.00  0.00     0.060 A 
BRANCH  82  83
ATOM     83  S   UNL A   1      40.110  35.600  38.432  1.00  0.00     0.124 S 
ATOM     84  O   UNL A   1      39.075  34.905  39.192  1.00  0.00    -0.237 OA
ATOM     85  O   UNL A   1      41.352  35.867  39.152  1.00  0.00    -0.237 OA
ATOM     86  O   UNL A   1      39.639  36.685  37.577  1.00  0.00    -0.744 OA
ENDBRANCH  82  83
ENDBRANCH  61  75
BRANCH  62  87
ATOM     87  C   UNL A   1      43.729  25.497  28.528  1.00  0.00     0.058 A 
ATOM     88  C   UNL A   1      44.277  25.913  27.306  1.00  0.00     0.135 A 
ATOM     89  C   UNL A   1      43.572  24.120  28.741  1.00  0.00     0.135 A 
ATOM     90  F   UNL A   1      44.441  27.221  27.055  1.00  0.00    -0.206 F 
ATOM     91  C   UNL A   1      44.644  24.999  26.324  1.00  0.00     0.059 A 
ATOM     92  C   UNL A   1      43.953  23.184  27.784  1.00  0.00     0.059 A 
ATOM     93  F   UNL A   1      43.069  23.671  29.901  1.00  0.00    -0.206 F 
ATOM     94  C   UNL A   1      44.481  23.634  26.574  1.00  0.00     0.060 A 
BRANCH  94  95
ATOM     95  S   UNL A   1      45.016  22.454  25.317  1.00  0.00     0.124 S 
ATOM     96  O   UNL A   1      44.359  21.232  25.764  1.00  0.00    -0.237 OA
ATOM     97  O   UNL A   1      44.491  23.051  24.092  1.00  0.00    -0.237 OA
ATOM     98  O   UNL A   1      46.471  22.473  25.439  1.00  0.00    -0.744 OA
ENDBRANCH  94  95
ENDBRANCH  62  87
BRANCH  74  99
ATOM     99  C   UNL A   1      46.787  27.727  34.391  1.00  0.00     0.058 A 
ATOM    100  C   UNL A   1      47.992  28.402  34.144  1.00  0.00     0.135 A 
ATOM    101  C   UNL A   1      46.786  26.718  35.368  1.00  0.00     0.135 A 
ATOM    102  F   UNL A   1      48.046  29.369  33.215  1.00  0.00    -0.206 F 
ATOM    103  C   UNL A   1      49.157  28.082  34.834  1.00  0.00     0.059 A 
ATOM    104  C   UNL A   1      47.934  26.397  36.085  1.00  0.00     0.059 A 
ATOM    105  F   UNL A   1      45.657  26.048  35.647  1.00  0.00    -0.206 F 
ATOM    106  C   UNL A   1      49.116  27.080  35.806  1.00  0.00     0.060 A 
BRANCH 106 107
ATOM    107  S   UNL A   1      50.622  26.710  36.732  1.00  0.00     0.124 S 
ATOM    108  O   UNL A   1      51.649  27.269  35.861  1.00  0.00    -0.237 OA
ATOM    109  O   UNL A   1      50.400  27.420  37.988  1.00  0.00    -0.237 OA
ATOM    110  O   UNL A   1      50.608  25.254  36.833  1.00  0.00    -0.744 OA
ENDBRANCH 106 107
ENDBRANCH  74  99
ENDBRANCH  48  49
ENDBRANCH  40  43
ENDBRANCH  38  39
ENDBRANCH  37  38
ENDBRANCH  36  37
ENDBRANCH   1  36
TORSDOF 21
ENDMDL
MODEL 2
REMARK VINA RESULT:     -11.4      6.128     11.724
REMARK SMILES CS(=O)(=O)c1ccc(/C=C(/C(=O)NCCCCCCNC(=O)c2ccc(-c3c4nc(c(-c5c(F)cc(S(=O)(=O)[O-])cc5F)c5ccc([nH]5)c(-c5c(F)cc(S(=O)(=O)[O-])cc5F)c5nc(c(-c6c(F)cc(S(=O)(=O)[O-])cc6F)c6ccc3[nH]6)C=C5)C=C4)cc2)c2cccc(-c3ccc(S(C)(=O)=O)cc3)c2)cc1
REMARK SMILES IDX 16 1 15 2 14 3 13 4 11 5 12 6 10 8 9 9 8 10 5 11 6 12 106 13
REMARK SMILES IDX 7 14 105 15 2 16 1 17 3 18 4 19 89 20 90 21 104 22 91 23
REMARK SMILES IDX 93 24 92 25 94 26 95 27 103 28 96 29 102 30 97 31 98 32
REMARK SMILES IDX 99 33 100 34 101 35 17 36 18 37 19 38 20 39 21 40 22 42
REMARK SMILES IDX 23 43 24 44 88 45 25 46 87 47 26 48 27 49 28 50 81 51 29 52
REMARK SMILES IDX 86 53 80 54 82 55 30 56 85 57 79 58 78 59 31 61 65 62 44 63
REMARK SMILES IDX 64 64 45 65 48 66 63 67 83 68 46 69 47 70 62 72 84 73 49 74
REMARK SMILES IDX 32 75 33 76 42 77 34 78 35 79 41 80 43 81 36 82 37 83 38 84
REMARK SMILES IDX 39 85 40 86 66 87 67 88 76 89 68 90 69 91 75 92 77 93 70 94
REMARK SMILES IDX 71 95 72 96 73 97 74 98 50 99 51 100 60 101 52 102 53 103
REMARK SMILES IDX 59 104 61 105 54 106 55 107 56 108 57 109 58 110
REMARK H PARENT 13 7 20 41 82 60 48 71
REMARK Flexibility Score: inf
ROOT
ATOM      1  C   UNL A   1      38.814  34.176  29.162  1.00  0.00     0.002 C 
ENDROOT
BRANCH   1   2
ATOM      2  C   UNL A   1      39.841  33.395  30.001  1.00  0.00     0.021 C 
BRANCH   2   3
ATOM      3  C   UNL A   1      40.588  34.264  31.018  1.00  0.00     0.116 C 
BRANCH   3   4
ATOM      4  N   UNL A   1      41.722  33.528  31.543  1.00  0.00    -0.352 N 
ATOM      5  C   UNL A   1      42.108  33.136  32.783  1.00  0.00     0.251 C 
ATOM      6  O   UNL A   1      43.216  32.598  32.854  1.00  0.00    -0.269 OA
ATOM      7  H   UNL A   1      42.356  33.252  30.841  1.00  0.00     0.163 HD
BRANCH   5   8
ATOM      8  C   UNL A   1      41.225  33.236  34.010  1.00  0.00     0.047 C 
ATOM      9  C   UNL A   1      41.671  33.753  35.180  1.00  0.00     0.022 C 
BRANCH   9  10
ATOM     10  C   UNL A   1      40.918  34.050  36.420  1.00  0.00    -0.025 A 
ATOM     11  C   UNL A   1      39.658  34.553  38.885  1.00  0.00     0.067 A 
ATOM     12  C   UNL A   1      39.445  35.413  37.807  1.00  0.00     0.021 A 
ATOM     13  C   UNL A   1      40.462  33.422  38.734  1.00  0.00     0.021 A 
ATOM     14  C   UNL A   1      40.060  35.146  36.575  1.00  0.00     0.009 A 
ATOM     15  C   UNL A   1      41.086  33.176  37.507  1.00  0.00     0.009 A 
BRANCH  11  16
ATOM     16  S   UNL A   1      38.898  34.867  40.462  1.00  0.00     0.175 S 
ATOM     17  C   UNL A   1      40.112  34.445  41.684  1.00  0.00     0.163 C 
ATOM     18  O   UNL A   1      37.807  33.923  40.611  1.00  0.00    -0.224 OA
ATOM     19  O   UNL A   1      38.671  36.297  40.533  1.00  0.00    -0.224 OA
ENDBRANCH  11  16
ENDBRANCH   9  10
BRANCH   8  20
ATOM     20  C   UNL A   1      39.890  32.585  33.926  1.00  0.00    -0.012 A 
ATOM     21  C   UNL A   1      39.712  31.326  34.524  1.00  0.00     0.009 A 
ATOM     22  C   UNL A   1      38.777  33.234  33.377  1.00  0.00     0.017 A 
ATOM     23  C   UNL A   1      38.456  30.733  34.585  1.00  0.00     0.001 A 
ATOM     24  C   UNL A   1      37.488  32.686  33.503  1.00  0.00    -0.018 A 
ATOM     25  C   UNL A   1      37.349  31.416  34.089  1.00  0.00     0.009 A 
BRANCH  24  26
ATOM     26  C   UNL A   1      36.303  33.485  33.160  1.00  0.00    -0.018 A 
ATOM     27  C   UNL A   1      35.060  32.846  32.998  1.00  0.00     0.010 A 
ATOM     28  C   UNL A   1      36.356  34.884  33.056  1.00  0.00     0.010 A 
ATOM     29  C   UNL A   1      33.900  33.576  32.751  1.00  0.00     0.021 A 
ATOM     30  C   UNL A   1      35.199  35.627  32.803  1.00  0.00     0.021 A 
ATOM     31  C   UNL A   1      33.980  34.966  32.649  1.00  0.00     0.067 A 
BRANCH  31  32
ATOM     32  S   UNL A   1      32.485  35.882  32.375  1.00  0.00     0.175 S 
ATOM     33  C   UNL A   1      32.502  36.193  30.629  1.00  0.00     0.163 C 
ATOM     34  O   UNL A   1      31.385  34.985  32.667  1.00  0.00    -0.224 OA
ATOM     35  O   UNL A   1      32.616  37.162  33.048  1.00  0.00    -0.224 OA
ENDBRANCH  31  32
ENDBRANCH  24  26
ENDBRANCH   8  20
ENDBRANCH   5   8
ENDBRANCH   3   4
ENDBRANCH   2   3
ENDBRANCH   1   2
BRANCH   1  36
ATOM     36  C   UNL A   1      37.426  34.314  29.799  1.00  0.00     0.002 C 
BRANCH  36  37
ATOM     37  C   UNL A   1      36.267  33.817  28.932  1.00  0.00     0.021 C 
BRANCH  37  38
ATOM     38  C   UNL A   1      36.291  32.319  28.644  1.00  0.00     0.116 C 
BRANCH  38  39
ATOM     39  N   UNL A   1      35.873  31.540  29.798  1.00  0.00    -0.352 N 
ATOM     40  C   UNL A   1      36.511  30.484  30.400  1.00  0.00     0.251 C 
ATOM     41  H   UNL A   1      35.015  31.805  30.203  1.00  0.00     0.163 HD
ATOM     42  O   UNL A   1      35.923  29.803  31.236  1.00  0.00    -0.269 OA
BRANCH  40  43
ATOM     43  C   UNL A   1      37.905  30.163  30.025  1.00  0.00     0.039 A 
ATOM     44  C   UNL A   1      38.861  30.009  31.031  1.00  0.00     0.014 A 
ATOM     45  C   UNL A   1      38.263  30.017  28.682  1.00  0.00     0.014 A 
ATOM     46  C   UNL A   1      40.169  29.652  30.692  1.00  0.00     0.010 A 
ATOM     47  C   UNL A   1      39.551  29.603  28.350  1.00  0.00     0.010 A 
ATOM     48  C   UNL A   1      40.516  29.419  29.352  1.00  0.00    -0.014 A 
BRANCH  48  49
ATOM     49  C   UNL A   1      41.885  28.988  28.970  1.00  0.00     0.031 A 
ATOM     50  C   UNL A   1      43.006  29.990  28.941  1.00  0.00     0.074 A 
ATOM     51  C   UNL A   1      42.100  27.718  28.576  1.00  0.00     0.049 A 
ATOM     52  N   UNL A   1      44.240  29.837  28.537  1.00  0.00    -0.248 NA
ATOM     53  C   UNL A   1      42.689  31.352  29.402  1.00  0.00     0.031 C 
ATOM     54  C   UNL A   1      41.083  26.665  28.524  1.00  0.00     0.029 A 
ATOM     55  N   UNL A   1      43.241  27.100  28.130  1.00  0.00    -0.354 N 
ATOM     56  C   UNL A   1      44.842  31.083  28.677  1.00  0.00     0.074 A 
ATOM     57  C   UNL A   1      43.825  31.991  29.161  1.00  0.00     0.031 C 
ATOM     58  C   UNL A   1      41.649  25.529  28.083  1.00  0.00     0.029 A 
ATOM     59  C   UNL A   1      43.056  25.781  27.787  1.00  0.00     0.049 A 
ATOM     60  H   UNL A   1      44.110  27.557  28.062  1.00  0.00     0.167 HD
ATOM     61  C   UNL A   1      46.129  31.433  28.441  1.00  0.00     0.037 A 
ATOM     62  C   UNL A   1      43.920  24.880  27.281  1.00  0.00     0.037 A 
ATOM     63  C   UNL A   1      47.143  30.516  27.988  1.00  0.00     0.049 A 
ATOM     64  C   UNL A   1      45.346  25.290  27.030  1.00  0.00     0.074 A 
ATOM     65  C   UNL A   1      48.489  30.758  27.775  1.00  0.00     0.029 A 
ATOM     66  N   UNL A   1      46.922  29.182  27.679  1.00  0.00    -0.354 N 
ATOM     67  N   UNL A   1      45.912  26.458  27.219  1.00  0.00    -0.248 NA
ATOM     68  C   UNL A   1      46.253  24.261  26.503  1.00  0.00     0.031 C 
ATOM     69  C   UNL A   1      49.076  29.579  27.305  1.00  0.00     0.029 A 
ATOM     70  C   UNL A   1      48.105  28.591  27.264  1.00  0.00     0.049 A 
ATOM     71  H   UNL A   1      46.054  28.722  27.746  1.00  0.00     0.167 HD
ATOM     72  C   UNL A   1      47.245  26.298  26.858  1.00  0.00     0.074 A 
ATOM     73  C   UNL A   1      47.403  24.919  26.446  1.00  0.00     0.031 C 
ATOM     74  C   UNL A   1      48.247  27.212  26.869  1.00  0.00     0.037 A 
BRANCH  61  75
ATOM     75  C   UNL A   1      46.514  32.867  28.675  1.00  0.00     0.058 A 
ATOM     76  C   UNL A   1      46.415  33.830  27.659  1.00  0.00     0.135 A 
ATOM     77  C   UNL A   1      46.964  33.290  29.936  1.00  0.00     0.135 A 
ATOM     78  F   UNL A   1      46.005  33.477  26.430  1.00  0.00    -0.206 F 
ATOM     79  C   UNL A   1      46.778  35.156  27.875  1.00  0.00     0.059 A 
ATOM     80  C   UNL A   1      47.308  34.616  30.182  1.00  0.00     0.059 A 
ATOM     81  F   UNL A   1      47.077  32.410  30.944  1.00  0.00    -0.206 F 
ATOM     82  C   UNL A   1      47.226  35.538  29.140  1.00  0.00     0.060 A 
BRANCH  82  83
ATOM     83  S   UNL A   1      47.698  37.261  29.404  1.00  0.00     0.124 S 
ATOM     84  O   UNL A   1      46.431  37.846  29.834  1.00  0.00    -0.237 OA
ATOM     85  O   UNL A   1      48.726  37.150  30.435  1.00  0.00    -0.237 OA
ATOM     86  O   UNL A   1      48.174  37.688  28.093  1.00  0.00    -0.744 OA
ENDBRANCH  82  83
ENDBRANCH  61  75
BRANCH  62  87
ATOM     87  C   UNL A   1      43.464  23.493  26.998  1.00  0.00     0.058 A 
ATOM     88  C   UNL A   1      43.248  23.063  25.681  1.00  0.00     0.135 A 
ATOM     89  C   UNL A   1      43.257  22.567  28.032  1.00  0.00     0.135 A 
ATOM     90  F   UNL A   1      43.428  23.915  24.660  1.00  0.00    -0.206 F 
ATOM     91  C   UNL A   1      42.831  21.767  25.397  1.00  0.00     0.059 A 
ATOM     92  C   UNL A   1      42.862  21.258  27.772  1.00  0.00     0.059 A 
ATOM     93  F   UNL A   1      43.468  22.925  29.308  1.00  0.00    -0.206 F 
ATOM     94  C   UNL A   1      42.643  20.870  26.451  1.00  0.00     0.060 A 
BRANCH  94  95
ATOM     95  S   UNL A   1      42.158  19.174  26.067  1.00  0.00     0.124 S 
ATOM     96  O   UNL A   1      43.011  18.876  24.923  1.00  0.00    -0.237 OA
ATOM     97  O   UNL A   1      42.484  18.473  27.306  1.00  0.00    -0.237 OA
ATOM     98  O   UNL A   1      40.731  19.291  25.781  1.00  0.00    -0.744 OA
ENDBRANCH  94  95
ENDBRANCH  62  87
BRANCH  74  99
ATOM     99  C   UNL A   1      49.614  26.746  26.457  1.00  0.00     0.058 A 
ATOM    100  C   UNL A   1      50.487  26.133  27.368  1.00  0.00     0.135 A 
ATOM    101  C   UNL A   1      50.027  26.854  25.120  1.00  0.00     0.135 A 
ATOM    102  F   UNL A   1      50.142  26.014  28.659  1.00  0.00    -0.206 F 
ATOM    103  C   UNL A   1      51.730  25.650  26.968  1.00  0.00     0.059 A 
ATOM    104  C   UNL A   1      51.255  26.358  24.693  1.00  0.00     0.059 A 
ATOM    105  F   UNL A   1      49.225  27.426  24.208  1.00  0.00    -0.206 F 
ATOM    106  C   UNL A   1      52.102  25.764  25.627  1.00  0.00     0.060 A 
BRANCH 106 107
ATOM    107  S   UNL A   1      53.695  25.087  25.110  1.00  0.00     0.124 S 
ATOM    108  O   UNL A   1      54.595  25.654  26.108  1.00  0.00    -0.237 OA
ATOM    109  O   UNL A   1      53.469  23.648  25.205  1.00  0.00    -0.237 OA
ATOM    110  O   UNL A   1      53.857  25.601  23.754  1.00  0.00    -0.744 OA
ENDBRANCH 106 107
ENDBRANCH  74  99
ENDBRANCH  48  49
ENDBRANCH  40  43
ENDBRANCH  38  39
ENDBRANCH  37  38
ENDBRANCH  36  37
ENDBRANCH   1  36
TORSDOF 21
ENDMDL
MODEL 3
REMARK VINA RESULT:     -11.2      3.215      8.841
REMARK SMILES CS(=O)(=O)c1ccc(/C=C(/C(=O)NCCCCCCNC(=O)c2ccc(-c3c4nc(c(-c5c(F)cc(S(=O)(=O)[O-])cc5F)c5ccc([nH]5)c(-c5c(F)cc(S(=O)(=O)[O-])cc5F)c5nc(c(-c6c(F)cc(S(=O)(=O)[O-])cc6F)c6ccc3[nH]6)C=C5)C=C4)cc2)c2cccc(-c3ccc(S(C)(=O)=O)cc3)c2)cc1
REMARK SMILES IDX 16 1 15 2 14 3 13 4 11 5 12 6 10 8 9 9 8 10 5 11 6 12 106 13
REMARK SMILES IDX 7 14 105 15 2 16 1 17 3 18 4 19 89 20 90 21 104 22 91 23
REMARK SMILES IDX 93 24 92 25 94 26 95 27 103 28 96 29 102 30 97 31 98 32
REMARK SMILES IDX 99 33 100 34 101 35 17 36 18 37 19 38 20 39 21 40 22 42
REMARK SMILES IDX 23 43 24 44 88 45 25 46 87 47 26 48 27 49 28 50 81 51 29 52
REMARK SMILES IDX 86 53 80 54 82 55 30 56 85 57 79 58 78 59 31 61 65 62 44 63
REMARK SMILES IDX 64 64 45 65 48 66 63 67 83 68 46 69 47 70 62 72 84 73 49 74
REMARK SMILES IDX 32 75 33 76 42 77 34 78 35 79 41 80 43 81 36 82 37 83 38 84
REMARK SMILES IDX 39 85 40 86 66 87 67 88 76 89 68 90 69 91 75 92 77 93 70 94
REMARK SMILES IDX 71 95 72 96 73 97 74 98 50 99 51 100 60 101 52 102 53 103
REMARK SMILES IDX 59 104 61 105 54 106 55 107 56 108 57 109 58 110
REMARK H PARENT 13 7 20 41 82 60 48 71
REMARK Flexibility Score: inf
ROOT
ATOM      1  C   UNL A   1      41.967  21.904  27.568  1.00  0.00     0.002 C 
ENDROOT
BRANCH   1   2
ATOM      2  C   UNL A   1      41.091  22.603  26.514  1.00  0.00     0.021 C 
BRANCH   2   3
ATOM      3  C   UNL A   1      39.619  22.181  26.564  1.00  0.00     0.116 C 
BRANCH   3   4
ATOM      4  N   UNL A   1      38.775  23.358  26.497  1.00  0.00    -0.352 N 
ATOM      5  C   UNL A   1      37.488  23.584  26.130  1.00  0.00     0.251 C 
ATOM      6  O   UNL A   1      37.138  24.767  26.108  1.00  0.00    -0.269 OA
ATOM      7  H   UNL A   1      39.240  24.179  26.779  1.00  0.00     0.163 HD
BRANCH   5   8
ATOM      8  C   UNL A   1      36.484  22.482  25.861  1.00  0.00     0.047 C 
ATOM      9  C   UNL A   1      36.807  21.368  25.162  1.00  0.00     0.022 C 
BRANCH   9  10
ATOM     10  C   UNL A   1      36.005  20.145  24.925  1.00  0.00    -0.025 A 
ATOM     11  C   UNL A   1      34.595  17.728  24.624  1.00  0.00     0.067 A 
ATOM     12  C   UNL A   1      33.918  18.945  24.531  1.00  0.00     0.021 A 
ATOM     13  C   UNL A   1      35.976  17.707  24.826  1.00  0.00     0.021 A 
ATOM     14  C   UNL A   1      34.629  20.147  24.662  1.00  0.00     0.009 A 
ATOM     15  C   UNL A   1      36.673  18.910  24.975  1.00  0.00     0.009 A 
BRANCH  11  16
ATOM     16  S   UNL A   1      33.721  16.188  24.469  1.00  0.00     0.175 S 
ATOM     17  C   UNL A   1      32.253  16.357  25.448  1.00  0.00     0.163 C 
ATOM     18  O   UNL A   1      34.532  15.166  25.103  1.00  0.00    -0.224 OA
ATOM     19  O   UNL A   1      33.321  16.077  23.080  1.00  0.00    -0.224 OA
ENDBRANCH  11  16
ENDBRANCH   9  10
BRANCH   8  20
ATOM     20  C   UNL A   1      35.076  22.751  26.254  1.00  0.00    -0.012 A 
ATOM     21  C   UNL A   1      34.559  22.119  27.397  1.00  0.00     0.009 A 
ATOM     22  C   UNL A   1      34.286  23.702  25.594  1.00  0.00     0.017 A 
ATOM     23  C   UNL A   1      33.293  22.433  27.879  1.00  0.00     0.001 A 
ATOM     24  C   UNL A   1      33.039  24.090  26.115  1.00  0.00    -0.018 A 
ATOM     25  C   UNL A   1      32.544  23.422  27.249  1.00  0.00     0.009 A 
BRANCH  24  26
ATOM     26  C   UNL A   1      32.337  25.260  25.572  1.00  0.00    -0.018 A 
ATOM     27  C   UNL A   1      33.079  26.305  24.990  1.00  0.00     0.010 A 
ATOM     28  C   UNL A   1      30.935  25.340  25.548  1.00  0.00     0.010 A 
ATOM     29  C   UNL A   1      32.447  27.394  24.393  1.00  0.00     0.021 A 
ATOM     30  C   UNL A   1      30.291  26.431  24.956  1.00  0.00     0.021 A 
ATOM     31  C   UNL A   1      31.053  27.451  24.386  1.00  0.00     0.067 A 
BRANCH  31  32
ATOM     32  S   UNL A   1      30.266  28.825  23.584  1.00  0.00     0.175 S 
ATOM     33  C   UNL A   1      31.261  29.088  22.139  1.00  0.00     0.163 C 
ATOM     34  O   UNL A   1      28.959  28.368  23.159  1.00  0.00    -0.224 OA
ATOM     35  O   UNL A   1      30.420  29.989  24.439  1.00  0.00    -0.224 OA
ENDBRANCH  31  32
ENDBRANCH  24  26
ENDBRANCH   8  20
ENDBRANCH   5   8
ENDBRANCH   3   4
ENDBRANCH   2   3
ENDBRANCH   1   2
BRANCH   1  36
ATOM     36  C   UNL A   1      42.921  22.827  28.336  1.00  0.00     0.002 C 
BRANCH  36  37
ATOM     37  C   UNL A   1      44.260  23.092  27.643  1.00  0.00     0.021 C 
BRANCH  37  38
ATOM     38  C   UNL A   1      44.493  24.550  27.257  1.00  0.00     0.116 C 
BRANCH  38  39
ATOM     39  N   UNL A   1      43.712  24.931  26.091  1.00  0.00    -0.352 N 
ATOM     40  C   UNL A   1      42.623  25.765  26.019  1.00  0.00     0.251 C 
ATOM     41  H   UNL A   1      44.003  24.537  25.236  1.00  0.00     0.163 HD
ATOM     42  O   UNL A   1      41.953  25.816  24.993  1.00  0.00    -0.269 OA
BRANCH  40  43
ATOM     43  C   UNL A   1      42.257  26.588  27.192  1.00  0.00     0.039 A 
ATOM     44  C   UNL A   1      41.311  26.100  28.096  1.00  0.00     0.014 A 
ATOM     45  C   UNL A   1      42.847  27.839  27.393  1.00  0.00     0.014 A 
ATOM     46  C   UNL A   1      40.997  26.844  29.236  1.00  0.00     0.010 A 
ATOM     47  C   UNL A   1      42.579  28.551  28.560  1.00  0.00     0.010 A 
ATOM     48  C   UNL A   1      41.649  28.061  29.491  1.00  0.00    -0.014 A 
BRANCH  48  49
ATOM     49  C   UNL A   1      41.373  28.846  30.720  1.00  0.00     0.031 A 
ATOM     50  C   UNL A   1      40.229  29.822  30.746  1.00  0.00     0.074 A 
ATOM     51  C   UNL A   1      42.195  28.737  31.782  1.00  0.00     0.049 A 
ATOM     52  N   UNL A   1      39.889  30.672  31.680  1.00  0.00    -0.248 NA
ATOM     53  C   UNL A   1      39.370  29.867  29.551  1.00  0.00     0.031 C 
ATOM     54  C   UNL A   1      43.361  27.853  31.861  1.00  0.00     0.029 A 
ATOM     55  N   UNL A   1      42.187  29.384  32.992  1.00  0.00    -0.354 N 
ATOM     56  C   UNL A   1      38.791  31.364  31.181  1.00  0.00     0.074 A 
ATOM     57  C   UNL A   1      38.550  30.866  29.844  1.00  0.00     0.031 C 
ATOM     58  C   UNL A   1      43.947  28.007  33.060  1.00  0.00     0.029 A 
ATOM     59  C   UNL A   1      43.223  29.021  33.819  1.00  0.00     0.049 A 
ATOM     60  H   UNL A   1      41.502  30.046  33.244  1.00  0.00     0.167 HD
ATOM     61  C   UNL A   1      38.042  32.314  31.789  1.00  0.00     0.037 A 
ATOM     62  C   UNL A   1      43.559  29.465  35.046  1.00  0.00     0.037 A 
ATOM     63  C   UNL A   1      38.270  32.784  33.131  1.00  0.00     0.049 A 
ATOM     64  C   UNL A   1      42.710  30.520  35.704  1.00  0.00     0.074 A 
ATOM     65  C   UNL A   1      37.532  33.701  33.859  1.00  0.00     0.029 A 
ATOM     66  N   UNL A   1      39.313  32.371  33.947  1.00  0.00    -0.354 N 
ATOM     67  N   UNL A   1      41.643  31.125  35.239  1.00  0.00    -0.248 NA
ATOM     68  C   UNL A   1      43.105  30.948  37.052  1.00  0.00     0.031 C 
ATOM     69  C   UNL A   1      38.149  33.869  35.103  1.00  0.00     0.029 A 
ATOM     70  C   UNL A   1      39.247  33.026  35.166  1.00  0.00     0.049 A 
ATOM     71  H   UNL A   1      39.999  31.710  33.698  1.00  0.00     0.167 HD
ATOM     72  C   UNL A   1      41.225  31.986  36.247  1.00  0.00     0.074 A 
ATOM     73  C   UNL A   1      42.150  31.819  37.349  1.00  0.00     0.031 C 
ATOM     74  C   UNL A   1      40.170  32.837  36.258  1.00  0.00     0.037 A 
BRANCH  61  75
ATOM     75  C   UNL A   1      36.901  32.905  31.009  1.00  0.00     0.058 A 
ATOM     76  C   UNL A   1      35.573  32.510  31.235  1.00  0.00     0.135 A 
ATOM     77  C   UNL A   1      37.133  33.896  30.041  1.00  0.00     0.135 A 
ATOM     78  F   UNL A   1      35.295  31.557  32.138  1.00  0.00    -0.206 F 
ATOM     79  C   UNL A   1      34.518  33.054  30.508  1.00  0.00     0.059 A 
ATOM     80  C   UNL A   1      36.092  34.472  29.320  1.00  0.00     0.059 A 
ATOM     81  F   UNL A   1      38.384  34.310  29.785  1.00  0.00    -0.206 F 
ATOM     82  C   UNL A   1      34.789  34.032  29.550  1.00  0.00     0.060 A 
BRANCH  82  83
ATOM     83  S   UNL A   1      33.411  34.724  28.610  1.00  0.00     0.124 S 
ATOM     84  O   UNL A   1      34.047  35.869  27.965  1.00  0.00    -0.237 OA
ATOM     85  O   UNL A   1      33.048  33.621  27.726  1.00  0.00    -0.237 OA
ATOM     86  O   UNL A   1      32.428  35.049  29.638  1.00  0.00    -0.744 OA
ENDBRANCH  82  83
ENDBRANCH  61  75
BRANCH  62  87
ATOM     87  C   UNL A   1      44.744  28.897  35.741  1.00  0.00     0.058 A 
ATOM     88  C   UNL A   1      44.612  27.795  36.599  1.00  0.00     0.135 A 
ATOM     89  C   UNL A   1      46.028  29.426  35.546  1.00  0.00     0.135 A 
ATOM     90  F   UNL A   1      43.402  27.259  36.822  1.00  0.00    -0.206 F 
ATOM     91  C   UNL A   1      45.711  27.244  37.250  1.00  0.00     0.059 A 
ATOM     92  C   UNL A   1      47.147  28.878  36.169  1.00  0.00     0.059 A 
ATOM     93  F   UNL A   1      46.208  30.468  34.721  1.00  0.00    -0.206 F 
ATOM     94  C   UNL A   1      46.976  27.791  37.026  1.00  0.00     0.060 A 
BRANCH  94  95
ATOM     95  S   UNL A   1      48.403  27.032  37.830  1.00  0.00     0.124 S 
ATOM     96  O   UNL A   1      48.871  26.118  36.795  1.00  0.00    -0.237 OA
ATOM     97  O   UNL A   1      49.257  28.186  38.096  1.00  0.00    -0.237 OA
ATOM     98  O   UNL A   1      47.824  26.405  39.014  1.00  0.00    -0.744 OA
ENDBRANCH  94  95
ENDBRANCH  62  87
BRANCH  74  99
ATOM     99  C   UNL A   1      39.931  33.630  37.511  1.00  0.00     0.058 A 
ATOM    100  C   UNL A   1      40.619  34.826  37.768  1.00  0.00     0.135 A 
ATOM    101  C   UNL A   1      38.952  33.224  38.432  1.00  0.00     0.135 A 
ATOM    102  F   UNL A   1      41.571  35.252  36.923  1.00  0.00    -0.206 F 
ATOM    103  C   UNL A   1      40.352  35.587  38.902  1.00  0.00     0.059 A 
ATOM    104  C   UNL A   1      38.653  33.981  39.560  1.00  0.00     0.059 A 
ATOM    105  F   UNL A   1      38.260  32.092  38.228  1.00  0.00    -0.206 F 
ATOM    106  C   UNL A   1      39.363  35.158  39.789  1.00  0.00     0.060 A 
BRANCH 106 107
ATOM    107  S   UNL A   1      38.988  36.181  41.229  1.00  0.00     0.124 S 
ATOM    108  O   UNL A   1      37.876  35.452  41.828  1.00  0.00    -0.237 OA
ATOM    109  O   UNL A   1      40.244  36.145  41.974  1.00  0.00    -0.237 OA
ATOM    110  O   UNL A   1      38.651  37.476  40.647  1.00  0.00    -0.744 OA
ENDBRANCH 106 107
ENDBRANCH  74  99
ENDBRANCH  48  49
ENDBRANCH  40  43
ENDBRANCH  38  39
ENDBRANCH  37  38
ENDBRANCH  36  37
ENDBRANCH   1  36
TORSDOF 21
ENDMDL
