MODEL 1
REMARK VINA RESULT:     -11.5      0.000      0.000
REMARK SMILES CC(=O)Nc1cccc(-c2ccc(F)c(C(=O)NCCCCCCNC(=O)c3ccc(-c4c5nc(c(-c6c(F)cc(S(=O)(=O)[O-])cc6F)c6ccc([nH]6)c(-c6c(F)cc(S(=O)(=O)[O-])cc6F)c6nc(c(-c7c(F)cc(S(=O)(=O)[O-])cc7F)c7ccc4[nH]7)C=C6)C=C5)cc3)c2)c1
REMARK SMILES IDX 22 1 21 2 20 3 19 4 18 5 16 6 17 7 15 9 10 10 11 11 94 12
REMARK SMILES IDX 12 13 13 14 14 15 9 16 5 17 6 18 95 19 7 20 8 21 4 22 1 23
REMARK SMILES IDX 2 24 3 25 23 27 24 28 25 29 26 30 27 32 28 33 29 34 93 35
REMARK SMILES IDX 30 36 92 37 31 38 32 39 33 40 86 41 34 42 91 43 85 44 87 45
REMARK SMILES IDX 35 46 90 47 84 48 83 49 36 51 70 52 49 53 69 54 50 55 53 56
REMARK SMILES IDX 68 57 88 58 51 59 52 60 67 62 89 63 54 64 37 65 38 66 47 67
REMARK SMILES IDX 39 68 40 69 46 70 48 71 41 72 42 73 43 74 44 75 45 76 71 77
REMARK SMILES IDX 72 78 81 79 73 80 74 81 80 82 82 83 75 84 76 85 77 86 78 87
REMARK SMILES IDX 79 88 55 89 56 90 65 91 57 92 58 93 64 94 66 95 59 96 60 97
REMARK SMILES IDX 61 98 62 99 63 100
REMARK H PARENT 18 8 4 26 25 31 87 50 53 61
REMARK Flexibility Score: inf
ROOT
ATOM      1  C   UNL A   1      34.469  33.022  28.458  1.00  0.00     0.002 C 
ENDROOT
BRANCH   1   2
ATOM      2  C   UNL A   1      34.103  31.620  27.966  1.00  0.00     0.002 C 
BRANCH   2   3
ATOM      3  C   UNL A   1      35.213  30.574  28.003  1.00  0.00     0.021 C 
BRANCH   3   4
ATOM      4  C   UNL A   1      34.928  29.246  27.313  1.00  0.00     0.116 C 
BRANCH   4   5
ATOM      5  N   UNL A   1      34.536  29.353  25.913  1.00  0.00    -0.352 N 
ATOM      6  C   UNL A   1      33.716  28.573  25.118  1.00  0.00     0.254 C 
ATOM      7  O   UNL A   1      33.526  28.938  23.960  1.00  0.00    -0.269 OA
ATOM      8  H   UNL A   1      34.929  30.125  25.447  1.00  0.00     0.163 HD
BRANCH   6   9
ATOM      9  C   UNL A   1      33.096  27.310  25.605  1.00  0.00     0.076 A 
ATOM     10  C   UNL A   1      33.243  24.887  25.951  1.00  0.00    -0.017 A 
ATOM     11  C   UNL A   1      31.862  24.847  26.175  1.00  0.00     0.012 A 
ATOM     12  C   UNL A   1      33.846  26.148  25.792  1.00  0.00     0.025 A 
ATOM     13  C   UNL A   1      31.114  26.027  26.167  1.00  0.00     0.041 A 
ATOM     14  C   UNL A   1      31.724  27.242  25.844  1.00  0.00     0.135 A 
ATOM     15  F   UNL A   1      30.940  28.324  25.744  1.00  0.00    -0.206 F 
BRANCH  10  16
ATOM     16  C   UNL A   1      34.059  23.677  25.733  1.00  0.00    -0.016 A 
ATOM     17  C   UNL A   1      34.269  21.239  25.862  1.00  0.00     0.041 A 
ATOM     18  C   UNL A   1      35.657  21.356  25.783  1.00  0.00     0.026 A 
ATOM     19  C   UNL A   1      33.490  22.399  25.854  1.00  0.00     0.034 A 
ATOM     20  C   UNL A   1      36.245  22.610  25.615  1.00  0.00     0.003 A 
ATOM     21  C   UNL A   1      35.452  23.761  25.584  1.00  0.00     0.009 A 
BRANCH  17  22
ATOM     22  N   UNL A   1      33.719  19.962  26.048  1.00  0.00    -0.326 N 
ATOM     23  C   UNL A   1      32.656  19.624  23.822  1.00  0.00     0.114 C 
ATOM     24  C   UNL A   1      32.848  19.252  25.270  1.00  0.00     0.221 C 
ATOM     25  O   UNL A   1      32.266  18.278  25.749  1.00  0.00    -0.275 OA
ATOM     26  H   UNL A   1      34.005  19.504  26.871  1.00  0.00     0.169 HD
ENDBRANCH  17  22
ENDBRANCH  10  16
ENDBRANCH   6   9
ENDBRANCH   4   5
ENDBRANCH   3   4
ENDBRANCH   2   3
ENDBRANCH   1   2
BRANCH   1  27
ATOM     27  C   UNL A   1      33.376  34.089  28.355  1.00  0.00     0.021 C 
BRANCH  27  28
ATOM     28  C   UNL A   1      33.702  35.439  28.989  1.00  0.00     0.116 C 
BRANCH  28  29
ATOM     29  N   UNL A   1      32.796  35.784  30.071  1.00  0.00    -0.352 N 
ATOM     30  C   UNL A   1      32.845  35.435  31.399  1.00  0.00     0.251 C 
ATOM     31  H   UNL A   1      32.034  36.352  29.814  1.00  0.00     0.163 HD
ATOM     32  O   UNL A   1      31.893  35.687  32.130  1.00  0.00    -0.269 OA
BRANCH  30  33
ATOM     33  C   UNL A   1      34.034  34.740  31.943  1.00  0.00     0.039 A 
ATOM     34  C   UNL A   1      33.929  33.388  32.279  1.00  0.00     0.014 A 
ATOM     35  C   UNL A   1      35.243  35.415  32.135  1.00  0.00     0.014 A 
ATOM     36  C   UNL A   1      35.050  32.699  32.747  1.00  0.00     0.010 A 
ATOM     37  C   UNL A   1      36.377  34.711  32.534  1.00  0.00     0.010 A 
ATOM     38  C   UNL A   1      36.294  33.345  32.845  1.00  0.00    -0.014 A 
BRANCH  38  39
ATOM     39  C   UNL A   1      37.515  32.608  33.271  1.00  0.00     0.031 A 
ATOM     40  C   UNL A   1      38.218  32.985  34.549  1.00  0.00     0.074 A 
ATOM     41  C   UNL A   1      38.016  31.635  32.484  1.00  0.00     0.049 A 
ATOM     42  N   UNL A   1      39.335  32.516  35.045  1.00  0.00    -0.248 NA
ATOM     43  C   UNL A   1      37.598  34.041  35.366  1.00  0.00     0.031 C 
ATOM     44  C   UNL A   1      37.447  31.203  31.204  1.00  0.00     0.029 A 
ATOM     45  N   UNL A   1      39.124  30.837  32.636  1.00  0.00    -0.354 N 
ATOM     46  C   UNL A   1      39.549  33.217  36.227  1.00  0.00     0.074 A 
ATOM     47  C   UNL A   1      38.481  34.185  36.343  1.00  0.00     0.031 C 
ATOM     48  C   UNL A   1      38.197  30.209  30.701  1.00  0.00     0.029 A 
ATOM     49  C   UNL A   1      39.323  29.960  31.594  1.00  0.00     0.049 A 
ATOM     50  H   UNL A   1      39.721  30.889  33.417  1.00  0.00     0.167 HD
ATOM     51  C   UNL A   1      40.529  33.047  37.146  1.00  0.00     0.037 A 
ATOM     52  C   UNL A   1      40.308  29.066  31.377  1.00  0.00     0.037 A 
ATOM     53  C   UNL A   1      41.579  32.068  37.035  1.00  0.00     0.049 A 
ATOM     54  C   UNL A   1      41.405  28.925  32.401  1.00  0.00     0.074 A 
ATOM     55  C   UNL A   1      42.603  31.801  37.928  1.00  0.00     0.029 A 
ATOM     56  N   UNL A   1      41.737  31.190  35.974  1.00  0.00    -0.354 N 
ATOM     57  N   UNL A   1      41.564  29.566  33.535  1.00  0.00    -0.248 NA
ATOM     58  C   UNL A   1      42.455  27.934  32.120  1.00  0.00     0.031 C 
ATOM     59  C   UNL A   1      43.405  30.792  37.386  1.00  0.00     0.029 A 
ATOM     60  C   UNL A   1      42.849  30.391  36.182  1.00  0.00     0.049 A 
ATOM     61  H   UNL A   1      41.146  31.141  35.188  1.00  0.00     0.167 HD
ATOM     62  C   UNL A   1      42.707  29.028  34.117  1.00  0.00     0.074 A 
ATOM     63  C   UNL A   1      43.192  28.002  33.219  1.00  0.00     0.031 C 
ATOM     64  C   UNL A   1      43.304  29.354  35.290  1.00  0.00     0.037 A 
BRANCH  51  65
ATOM     65  C   UNL A   1      40.506  33.920  38.371  1.00  0.00     0.058 A 
ATOM     66  C   UNL A   1      41.220  35.128  38.420  1.00  0.00     0.135 A 
ATOM     67  C   UNL A   1      39.699  33.593  39.474  1.00  0.00     0.135 A 
ATOM     68  F   UNL A   1      42.021  35.483  37.402  1.00  0.00    -0.206 F 
ATOM     69  C   UNL A   1      41.146  35.974  39.522  1.00  0.00     0.059 A 
ATOM     70  C   UNL A   1      39.588  34.438  40.574  1.00  0.00     0.059 A 
ATOM     71  F   UNL A   1      38.997  32.449  39.481  1.00  0.00    -0.206 F 
ATOM     72  C   UNL A   1      40.319  35.625  40.590  1.00  0.00     0.060 A 
BRANCH  72  73
ATOM     73  S   UNL A   1      40.201  36.758  41.989  1.00  0.00     0.124 S 
ATOM     74  O   UNL A   1      40.340  38.053  41.330  1.00  0.00    -0.237 OA
ATOM     75  O   UNL A   1      38.876  36.457  42.522  1.00  0.00    -0.237 OA
ATOM     76  O   UNL A   1      41.320  36.367  42.841  1.00  0.00    -0.744 OA
ENDBRANCH  72  73
ENDBRANCH  51  65
BRANCH  52  77
ATOM     77  C   UNL A   1      40.317  28.231  30.143  1.00  0.00     0.058 A 
ATOM     78  C   UNL A   1      39.501  27.095  30.032  1.00  0.00     0.135 A 
ATOM     79  C   UNL A   1      41.174  28.523  29.069  1.00  0.00     0.135 A 
ATOM     80  F   UNL A   1      38.666  26.770  31.031  1.00  0.00    -0.206 F 
ATOM     81  C   UNL A   1      39.567  26.252  28.927  1.00  0.00     0.059 A 
ATOM     82  C   UNL A   1      41.233  27.715  27.938  1.00  0.00     0.059 A 
ATOM     83  F   UNL A   1      41.963  29.607  29.116  1.00  0.00    -0.206 F 
ATOM     84  C   UNL A   1      40.443  26.567  27.888  1.00  0.00     0.060 A 
BRANCH  84  85
ATOM     85  S   UNL A   1      40.534  25.458  26.466  1.00  0.00     0.124 S 
ATOM     86  O   UNL A   1      41.534  24.495  26.913  1.00  0.00    -0.237 OA
ATOM     87  O   UNL A   1      39.165  24.960  26.377  1.00  0.00    -0.237 OA
ATOM     88  O   UNL A   1      40.946  26.337  25.378  1.00  0.00    -0.744 OA
ENDBRANCH  84  85
ENDBRANCH  52  77
BRANCH  64  89
ATOM     89  C   UNL A   1      44.515  28.561  35.701  1.00  0.00     0.058 A 
ATOM     90  C   UNL A   1      44.408  27.383  36.456  1.00  0.00     0.135 A 
ATOM     91  C   UNL A   1      45.796  28.959  35.285  1.00  0.00     0.135 A 
ATOM     92  F   UNL A   1      43.208  26.960  36.883  1.00  0.00    -0.206 F 
ATOM     93  C   UNL A   1      45.532  26.641  36.806  1.00  0.00     0.059 A 
ATOM     94  C   UNL A   1      46.930  28.216  35.596  1.00  0.00     0.059 A 
ATOM     95  F   UNL A   1      45.953  30.072  34.550  1.00  0.00    -0.206 F 
ATOM     96  C   UNL A   1      46.789  27.065  36.368  1.00  0.00     0.060 A 
BRANCH  96  97
ATOM     97  S   UNL A   1      48.232  26.070  36.798  1.00  0.00     0.124 S 
ATOM     98  O   UNL A   1      47.781  24.727  36.449  1.00  0.00    -0.237 OA
ATOM     99  O   UNL A   1      49.267  26.636  35.938  1.00  0.00    -0.237 OA
ATOM    100  O   UNL A   1      48.406  26.323  38.225  1.00  0.00    -0.744 OA
ENDBRANCH  96  97
ENDBRANCH  64  89
ENDBRANCH  38  39
ENDBRANCH  30  33
ENDBRANCH  28  29
ENDBRANCH  27  28
ENDBRANCH   1  27
TORSDOF 18
ENDMDL
MODEL 2
REMARK VINA RESULT:     -11.5      2.785      9.032
REMARK SMILES CC(=O)Nc1cccc(-c2ccc(F)c(C(=O)NCCCCCCNC(=O)c3ccc(-c4c5nc(c(-c6c(F)cc(S(=O)(=O)[O-])cc6F)c6ccc([nH]6)c(-c6c(F)cc(S(=O)(=O)[O-])cc6F)c6nc(c(-c7c(F)cc(S(=O)(=O)[O-])cc7F)c7ccc4[nH]7)C=C6)C=C5)cc3)c2)c1
REMARK SMILES IDX 22 1 21 2 20 3 19 4 18 5 16 6 17 7 15 9 10 10 11 11 94 12
REMARK SMILES IDX 12 13 13 14 14 15 9 16 5 17 6 18 95 19 7 20 8 21 4 22 1 23
REMARK SMILES IDX 2 24 3 25 23 27 24 28 25 29 26 30 27 32 28 33 29 34 93 35
REMARK SMILES IDX 30 36 92 37 31 38 32 39 33 40 86 41 34 42 91 43 85 44 87 45
REMARK SMILES IDX 35 46 90 47 84 48 83 49 36 51 70 52 49 53 69 54 50 55 53 56
REMARK SMILES IDX 68 57 88 58 51 59 52 60 67 62 89 63 54 64 37 65 38 66 47 67
REMARK SMILES IDX 39 68 40 69 46 70 48 71 41 72 42 73 43 74 44 75 45 76 71 77
REMARK SMILES IDX 72 78 81 79 73 80 74 81 80 82 82 83 75 84 76 85 77 86 78 87
REMARK SMILES IDX 79 88 55 89 56 90 65 91 57 92 58 93 64 94 66 95 59 96 60 97
REMARK SMILES IDX 61 98 62 99 63 100
REMARK H PARENT 18 8 4 26 25 31 87 50 53 61
REMARK Flexibility Score: inf
ROOT
ATOM      1  C   UNL A   1      40.938  20.434  27.110  1.00  0.00     0.002 C 
ENDROOT
BRANCH   1   2
ATOM      2  C   UNL A   1      40.068  20.641  25.869  1.00  0.00     0.002 C 
BRANCH   2   3
ATOM      3  C   UNL A   1      38.635  21.107  26.112  1.00  0.00     0.021 C 
BRANCH   3   4
ATOM      4  C   UNL A   1      38.379  22.607  26.033  1.00  0.00     0.116 C 
BRANCH   4   5
ATOM      5  N   UNL A   1      37.923  23.084  24.734  1.00  0.00    -0.352 N 
ATOM      6  C   UNL A   1      36.661  23.190  24.177  1.00  0.00     0.254 C 
ATOM      7  O   UNL A   1      36.571  23.683  23.054  1.00  0.00    -0.269 OA
ATOM      8  H   UNL A   1      38.648  23.386  24.142  1.00  0.00     0.163 HD
BRANCH   6   9
ATOM      9  C   UNL A   1      35.437  22.705  24.871  1.00  0.00     0.076 A 
ATOM     10  C   UNL A   1      33.608  21.079  25.028  1.00  0.00    -0.017 A 
ATOM     11  C   UNL A   1      32.937  21.936  25.907  1.00  0.00     0.012 A 
ATOM     12  C   UNL A   1      34.908  21.436  24.626  1.00  0.00     0.025 A 
ATOM     13  C   UNL A   1      33.528  23.137  26.306  1.00  0.00     0.041 A 
ATOM     14  C   UNL A   1      34.751  23.533  25.758  1.00  0.00     0.135 A 
ATOM     15  F   UNL A   1      35.219  24.744  26.093  1.00  0.00    -0.206 F 
BRANCH  10  16
ATOM     16  C   UNL A   1      32.968  19.908  24.398  1.00  0.00    -0.016 A 
ATOM     17  C   UNL A   1      32.505  17.502  24.432  1.00  0.00     0.041 A 
ATOM     18  C   UNL A   1      32.179  17.547  23.077  1.00  0.00     0.026 A 
ATOM     19  C   UNL A   1      32.911  18.676  25.070  1.00  0.00     0.034 A 
ATOM     20  C   UNL A   1      32.182  18.765  22.396  1.00  0.00     0.003 A 
ATOM     21  C   UNL A   1      32.566  19.938  23.054  1.00  0.00     0.009 A 
BRANCH  17  22
ATOM     22  N   UNL A   1      32.508  16.255  25.074  1.00  0.00    -0.326 N 
ATOM     23  C   UNL A   1      34.959  15.843  25.206  1.00  0.00     0.114 C 
ATOM     24  C   UNL A   1      33.530  15.374  25.295  1.00  0.00     0.221 C 
ATOM     25  O   UNL A   1      33.270  14.215  25.616  1.00  0.00    -0.275 OA
ATOM     26  H   UNL A   1      31.632  15.966  25.420  1.00  0.00     0.169 HD
ENDBRANCH  17  22
ENDBRANCH  10  16
ENDBRANCH   6   9
ENDBRANCH   4   5
ENDBRANCH   3   4
ENDBRANCH   2   3
ENDBRANCH   1   2
BRANCH   1  27
ATOM     27  C   UNL A   1      42.169  21.336  27.239  1.00  0.00     0.021 C 
BRANCH  27  28
ATOM     28  C   UNL A   1      41.888  22.814  27.495  1.00  0.00     0.116 C 
BRANCH  28  29
ATOM     29  N   UNL A   1      41.985  23.620  26.291  1.00  0.00    -0.352 N 
ATOM     30  C   UNL A   1      41.799  24.972  26.124  1.00  0.00     0.251 C 
ATOM     31  H   UNL A   1      42.219  23.125  25.473  1.00  0.00     0.163 HD
ATOM     32  O   UNL A   1      41.760  25.446  24.995  1.00  0.00    -0.269 OA
BRANCH  30  33
ATOM     33  C   UNL A   1      41.625  25.850  27.305  1.00  0.00     0.039 A 
ATOM     34  C   UNL A   1      42.634  26.765  27.618  1.00  0.00     0.014 A 
ATOM     35  C   UNL A   1      40.484  25.766  28.108  1.00  0.00     0.014 A 
ATOM     36  C   UNL A   1      42.469  27.636  28.697  1.00  0.00     0.010 A 
ATOM     37  C   UNL A   1      40.291  26.683  29.138  1.00  0.00     0.010 A 
ATOM     38  C   UNL A   1      41.281  27.629  29.446  1.00  0.00    -0.014 A 
BRANCH  38  39
ATOM     39  C   UNL A   1      41.059  28.600  30.551  1.00  0.00     0.031 A 
ATOM     40  C   UNL A   1      41.883  28.514  31.810  1.00  0.00     0.074 A 
ATOM     41  C   UNL A   1      40.083  29.524  30.442  1.00  0.00     0.049 A 
ATOM     42  N   UNL A   1      41.783  29.216  32.910  1.00  0.00    -0.248 NA
ATOM     43  C   UNL A   1      42.943  27.494  31.845  1.00  0.00     0.031 C 
ATOM     44  C   UNL A   1      39.193  29.685  29.289  1.00  0.00     0.029 A 
ATOM     45  N   UNL A   1      39.668  30.501  31.315  1.00  0.00    -0.354 N 
ATOM     46  C   UNL A   1      42.764  28.725  33.764  1.00  0.00     0.074 A 
ATOM     47  C   UNL A   1      43.407  27.624  33.080  1.00  0.00     0.031 C 
ATOM     48  C   UNL A   1      38.353  30.708  29.518  1.00  0.00     0.029 A 
ATOM     49  C   UNL A   1      38.612  31.250  30.848  1.00  0.00     0.049 A 
ATOM     50  H   UNL A   1      40.087  30.650  32.193  1.00  0.00     0.167 HD
ATOM     51  C   UNL A   1      43.117  29.169  34.993  1.00  0.00     0.037 A 
ATOM     52  C   UNL A   1      37.922  32.250  31.430  1.00  0.00     0.037 A 
ATOM     53  C   UNL A   1      42.487  30.278  35.662  1.00  0.00     0.049 A 
ATOM     54  C   UNL A   1      38.314  32.700  32.814  1.00  0.00     0.074 A 
ATOM     55  C   UNL A   1      42.791  30.821  36.899  1.00  0.00     0.029 A 
ATOM     56  N   UNL A   1      41.432  31.019  35.151  1.00  0.00    -0.354 N 
ATOM     57  N   UNL A   1      39.276  32.251  33.587  1.00  0.00    -0.248 NA
ATOM     58  C   UNL A   1      37.534  33.797  33.404  1.00  0.00     0.031 C 
ATOM     59  C   UNL A   1      41.893  31.861  37.154  1.00  0.00     0.029 A 
ATOM     60  C   UNL A   1      41.065  32.003  36.052  1.00  0.00     0.049 A 
ATOM     61  H   UNL A   1      41.008  30.867  34.275  1.00  0.00     0.167 HD
ATOM     62  C   UNL A   1      39.237  33.036  34.734  1.00  0.00     0.074 A 
ATOM     63  C   UNL A   1      38.169  33.994  34.550  1.00  0.00     0.031 C 
ATOM     64  C   UNL A   1      40.015  32.969  35.843  1.00  0.00     0.037 A 
BRANCH  51  65
ATOM     65  C   UNL A   1      44.254  28.476  35.695  1.00  0.00     0.058 A 
ATOM     66  C   UNL A   1      44.026  27.397  36.563  1.00  0.00     0.135 A 
ATOM     67  C   UNL A   1      45.587  28.837  35.436  1.00  0.00     0.135 A 
ATOM     68  F   UNL A   1      42.772  27.020  36.860  1.00  0.00    -0.206 F 
ATOM     69  C   UNL A   1      45.077  26.707  37.158  1.00  0.00     0.059 A 
ATOM     70  C   UNL A   1      46.654  28.143  35.998  1.00  0.00     0.059 A 
ATOM     71  F   UNL A   1      45.861  29.864  34.616  1.00  0.00    -0.206 F 
ATOM     72  C   UNL A   1      46.388  27.081  36.861  1.00  0.00     0.060 A 
BRANCH  72  73
ATOM     73  S   UNL A   1      47.738  26.144  37.608  1.00  0.00     0.124 S 
ATOM     74  O   UNL A   1      47.980  26.903  38.830  1.00  0.00    -0.237 OA
ATOM     75  O   UNL A   1      47.137  24.826  37.789  1.00  0.00    -0.237 OA
ATOM     76  O   UNL A   1      48.798  26.215  36.606  1.00  0.00    -0.744 OA
ENDBRANCH  72  73
ENDBRANCH  51  65
BRANCH  52  77
ATOM     77  C   UNL A   1      36.786  32.902  30.720  1.00  0.00     0.058 A 
ATOM     78  C   UNL A   1      37.004  33.958  29.821  1.00  0.00     0.135 A 
ATOM     79  C   UNL A   1      35.457  32.516  30.960  1.00  0.00     0.135 A 
ATOM     80  F   UNL A   1      38.255  34.366  29.559  1.00  0.00    -0.206 F 
ATOM     81  C   UNL A   1      35.948  34.638  29.223  1.00  0.00     0.059 A 
ATOM     82  C   UNL A   1      34.385  33.159  30.347  1.00  0.00     0.059 A 
ATOM     83  F   UNL A   1      35.192  31.502  31.797  1.00  0.00    -0.206 F 
ATOM     84  C   UNL A   1      34.641  34.236  29.499  1.00  0.00     0.060 A 
BRANCH  84  85
ATOM     85  S   UNL A   1      33.278  35.138  28.732  1.00  0.00     0.124 S 
ATOM     86  O   UNL A   1      32.634  34.086  27.954  1.00  0.00    -0.237 OA
ATOM     87  O   UNL A   1      32.535  35.617  29.894  1.00  0.00    -0.237 OA
ATOM     88  O   UNL A   1      33.952  36.174  27.958  1.00  0.00    -0.744 OA
ENDBRANCH  84  85
ENDBRANCH  52  77
BRANCH  64  89
ATOM     89  C   UNL A   1      39.782  33.992  36.921  1.00  0.00     0.058 A 
ATOM     90  C   UNL A   1      38.973  33.722  38.036  1.00  0.00     0.135 A 
ATOM     91  C   UNL A   1      40.421  35.241  36.862  1.00  0.00     0.135 A 
ATOM     92  F   UNL A   1      38.336  32.546  38.140  1.00  0.00    -0.206 F 
ATOM     93  C   UNL A   1      38.786  34.665  39.041  1.00  0.00     0.059 A 
ATOM     94  C   UNL A   1      40.274  36.187  37.871  1.00  0.00     0.059 A 
ATOM     95  F   UNL A   1      41.215  35.546  35.822  1.00  0.00    -0.206 F 
ATOM     96  C   UNL A   1      39.445  35.894  38.952  1.00  0.00     0.060 A 
BRANCH  96  97
ATOM     97  S   UNL A   1      39.222  37.091  40.284  1.00  0.00     0.124 S 
ATOM     98  O   UNL A   1      38.598  38.206  39.578  1.00  0.00    -0.237 OA
ATOM     99  O   UNL A   1      38.361  36.367  41.213  1.00  0.00    -0.237 OA
ATOM    100  O   UNL A   1      40.583  37.331  40.756  1.00  0.00    -0.744 OA
ENDBRANCH  96  97
ENDBRANCH  64  89
ENDBRANCH  38  39
ENDBRANCH  30  33
ENDBRANCH  28  29
ENDBRANCH  27  28
ENDBRANCH   1  27
TORSDOF 18
ENDMDL
MODEL 3
REMARK VINA RESULT:     -11.4      6.437     11.020
REMARK SMILES CC(=O)Nc1cccc(-c2ccc(F)c(C(=O)NCCCCCCNC(=O)c3ccc(-c4c5nc(c(-c6c(F)cc(S(=O)(=O)[O-])cc6F)c6ccc([nH]6)c(-c6c(F)cc(S(=O)(=O)[O-])cc6F)c6nc(c(-c7c(F)cc(S(=O)(=O)[O-])cc7F)c7ccc4[nH]7)C=C6)C=C5)cc3)c2)c1
REMARK SMILES IDX 22 1 21 2 20 3 19 4 18 5 16 6 17 7 15 9 10 10 11 11 94 12
REMARK SMILES IDX 12 13 13 14 14 15 9 16 5 17 6 18 95 19 7 20 8 21 4 22 1 23
REMARK SMILES IDX 2 24 3 25 23 27 24 28 25 29 26 30 27 32 28 33 29 34 93 35
REMARK SMILES IDX 30 36 92 37 31 38 32 39 33 40 86 41 34 42 91 43 85 44 87 45
REMARK SMILES IDX 35 46 90 47 84 48 83 49 36 51 70 52 49 53 69 54 50 55 53 56
REMARK SMILES IDX 68 57 88 58 51 59 52 60 67 62 89 63 54 64 37 65 38 66 47 67
REMARK SMILES IDX 39 68 40 69 46 70 48 71 41 72 42 73 43 74 44 75 45 76 71 77
REMARK SMILES IDX 72 78 81 79 73 80 74 81 80 82 82 83 75 84 76 85 77 86 78 87
REMARK SMILES IDX 79 88 55 89 56 90 65 91 57 92 58 93 64 94 66 95 59 96 60 97
REMARK SMILES IDX 61 98 62 99 63 100
REMARK H PARENT 18 8 4 26 25 31 87 50 53 61
REMARK Flexibility Score: inf
ROOT
ATOM      1  C   UNL A   1      35.049  30.714  27.621  1.00  0.00     0.002 C 
ENDROOT
BRANCH   1   2
ATOM      2  C   UNL A   1      33.599  30.378  27.268  1.00  0.00     0.002 C 
BRANCH   2   3
ATOM      3  C   UNL A   1      33.311  28.928  26.886  1.00  0.00     0.021 C 
BRANCH   3   4
ATOM      4  C   UNL A   1      31.846  28.515  26.822  1.00  0.00     0.116 C 
BRANCH   4   5
ATOM      5  N   UNL A   1      31.351  28.209  25.486  1.00  0.00    -0.352 N 
ATOM      6  C   UNL A   1      31.171  27.012  24.816  1.00  0.00     0.254 C 
ATOM      7  O   UNL A   1      30.682  27.056  23.688  1.00  0.00    -0.269 OA
ATOM      8  H   UNL A   1      31.099  29.003  24.962  1.00  0.00     0.163 HD
BRANCH   6   9
ATOM      9  C   UNL A   1      31.574  25.702  25.396  1.00  0.00     0.076 A 
ATOM     10  C   UNL A   1      33.168  23.842  25.493  1.00  0.00    -0.017 A 
ATOM     11  C   UNL A   1      32.218  23.079  26.180  1.00  0.00     0.012 A 
ATOM     12  C   UNL A   1      32.860  25.188  25.225  1.00  0.00     0.025 A 
ATOM     13  C   UNL A   1      30.981  23.634  26.519  1.00  0.00     0.041 A 
ATOM     14  C   UNL A   1      30.651  24.923  26.092  1.00  0.00     0.135 A 
ATOM     15  F   UNL A   1      29.412  25.365  26.350  1.00  0.00    -0.206 F 
BRANCH  10  16
ATOM     16  C   UNL A   1      34.400  23.268  24.918  1.00  0.00    -0.016 A 
ATOM     17  C   UNL A   1      36.712  22.521  25.237  1.00  0.00     0.041 A 
ATOM     18  C   UNL A   1      36.927  22.602  23.862  1.00  0.00     0.026 A 
ATOM     19  C   UNL A   1      35.459  22.870  25.749  1.00  0.00     0.034 A 
ATOM     20  C   UNL A   1      35.879  22.950  23.009  1.00  0.00     0.003 A 
ATOM     21  C   UNL A   1      34.623  23.273  23.532  1.00  0.00     0.009 A 
BRANCH  17  22
ATOM     22  N   UNL A   1      37.796  22.185  26.061  1.00  0.00    -0.326 N 
ATOM     23  C   UNL A   1      38.586  24.464  26.681  1.00  0.00     0.114 C 
ATOM     24  C   UNL A   1      38.780  22.972  26.594  1.00  0.00     0.221 C 
ATOM     25  O   UNL A   1      39.796  22.444  27.047  1.00  0.00    -0.275 OA
ATOM     26  H   UNL A   1      37.861  21.230  26.291  1.00  0.00     0.169 HD
ENDBRANCH  17  22
ENDBRANCH  10  16
ENDBRANCH   6   9
ENDBRANCH   4   5
ENDBRANCH   3   4
ENDBRANCH   2   3
ENDBRANCH   1   2
BRANCH   1  27
ATOM     27  C   UNL A   1      35.310  32.121  28.167  1.00  0.00     0.021 C 
BRANCH  27  28
ATOM     28  C   UNL A   1      36.383  32.227  29.247  1.00  0.00     0.116 C 
BRANCH  28  29
ATOM     29  N   UNL A   1      36.068  31.445  30.431  1.00  0.00    -0.352 N 
ATOM     30  C   UNL A   1      36.720  30.359  30.963  1.00  0.00     0.251 C 
ATOM     31  H   UNL A   1      35.268  31.738  30.925  1.00  0.00     0.163 HD
ATOM     32  O   UNL A   1      36.205  29.728  31.878  1.00  0.00    -0.269 OA
BRANCH  30  33
ATOM     33  C   UNL A   1      38.032  29.939  30.419  1.00  0.00     0.039 A 
ATOM     34  C   UNL A   1      38.186  29.838  29.033  1.00  0.00     0.014 A 
ATOM     35  C   UNL A   1      39.103  29.633  31.264  1.00  0.00     0.014 A 
ATOM     36  C   UNL A   1      39.428  29.491  28.496  1.00  0.00     0.010 A 
ATOM     37  C   UNL A   1      40.358  29.358  30.725  1.00  0.00     0.010 A 
ATOM     38  C   UNL A   1      40.535  29.283  29.335  1.00  0.00    -0.014 A 
BRANCH  38  39
ATOM     39  C   UNL A   1      41.882  28.986  28.776  1.00  0.00     0.031 A 
ATOM     40  C   UNL A   1      42.221  27.590  28.322  1.00  0.00     0.074 A 
ATOM     41  C   UNL A   1      42.813  29.959  28.726  1.00  0.00     0.049 A 
ATOM     42  N   UNL A   1      43.360  27.119  27.884  1.00  0.00    -0.248 NA
ATOM     43  C   UNL A   1      41.145  26.587  28.386  1.00  0.00     0.031 C 
ATOM     44  C   UNL A   1      42.619  31.342  29.171  1.00  0.00     0.029 A 
ATOM     45  N   UNL A   1      44.115  29.936  28.287  1.00  0.00    -0.354 N 
ATOM     46  C   UNL A   1      43.139  25.771  27.621  1.00  0.00     0.074 A 
ATOM     47  C   UNL A   1      41.775  25.485  28.007  1.00  0.00     0.031 C 
ATOM     48  C   UNL A   1      43.750  32.035  28.965  1.00  0.00     0.029 A 
ATOM     49  C   UNL A   1      44.765  31.143  28.414  1.00  0.00     0.049 A 
ATOM     50  H   UNL A   1      44.543  29.131  27.916  1.00  0.00     0.167 HD
ATOM     51  C   UNL A   1      43.985  24.864  27.079  1.00  0.00     0.037 A 
ATOM     52  C   UNL A   1      46.037  31.487  28.132  1.00  0.00     0.037 A 
ATOM     53  C   UNL A   1      45.337  25.160  26.678  1.00  0.00     0.049 A 
ATOM     54  C   UNL A   1      46.967  30.446  27.564  1.00  0.00     0.074 A 
ATOM     55  C   UNL A   1      46.264  24.313  26.095  1.00  0.00     0.029 A 
ATOM     56  N   UNL A   1      45.952  26.395  26.810  1.00  0.00    -0.354 N 
ATOM     57  N   UNL A   1      46.724  29.188  27.280  1.00  0.00    -0.248 NA
ATOM     58  C   UNL A   1      48.343  30.872  27.270  1.00  0.00     0.031 C 
ATOM     59  C   UNL A   1      47.455  25.025  25.914  1.00  0.00     0.029 A 
ATOM     60  C   UNL A   1      47.251  26.330  26.333  1.00  0.00     0.049 A 
ATOM     61  H   UNL A   1      45.528  27.200  27.186  1.00  0.00     0.167 HD
ATOM     62  C   UNL A   1      47.903  28.686  26.740  1.00  0.00     0.074 A 
ATOM     63  C   UNL A   1      48.854  29.777  26.724  1.00  0.00     0.031 C 
ATOM     64  C   UNL A   1      48.177  27.434  26.298  1.00  0.00     0.037 A 
BRANCH  51  65
ATOM     65  C   UNL A   1      43.475  23.465  26.861  1.00  0.00     0.058 A 
ATOM     66  C   UNL A   1      43.171  22.991  25.576  1.00  0.00     0.135 A 
ATOM     67  C   UNL A   1      43.368  22.564  27.934  1.00  0.00     0.135 A 
ATOM     68  F   UNL A   1      43.238  23.814  24.516  1.00  0.00    -0.206 F 
ATOM     69  C   UNL A   1      42.768  21.677  25.361  1.00  0.00     0.059 A 
ATOM     70  C   UNL A   1      42.994  21.238  27.738  1.00  0.00     0.059 A 
ATOM     71  F   UNL A   1      43.645  22.966  29.184  1.00  0.00    -0.206 F 
ATOM     72  C   UNL A   1      42.692  20.805  26.448  1.00  0.00     0.060 A 
BRANCH  72  73
ATOM     73  S   UNL A   1      42.211  19.093  26.142  1.00  0.00     0.124 S 
ATOM     74  O   UNL A   1      42.545  18.463  27.415  1.00  0.00    -0.237 OA
ATOM     75  O   UNL A   1      40.786  19.218  25.851  1.00  0.00    -0.237 OA
ATOM     76  O   UNL A   1      43.047  18.700  25.011  1.00  0.00    -0.744 OA
ENDBRANCH  72  73
ENDBRANCH  51  65
BRANCH  52  77
ATOM     77  C   UNL A   1      46.521  32.874  28.380  1.00  0.00     0.058 A 
ATOM     78  C   UNL A   1      47.016  33.254  29.638  1.00  0.00     0.135 A 
ATOM     79  C   UNL A   1      46.455  33.860  27.382  1.00  0.00     0.135 A 
ATOM     80  F   UNL A   1      47.097  32.350  30.626  1.00  0.00    -0.206 F 
ATOM     81  C   UNL A   1      47.382  34.568  29.912  1.00  0.00     0.059 A 
ATOM     82  C   UNL A   1      46.848  35.174  27.622  1.00  0.00     0.059 A 
ATOM     83  F   UNL A   1      46.006  33.547  26.158  1.00  0.00    -0.206 F 
ATOM     84  C   UNL A   1      47.287  35.523  28.899  1.00  0.00     0.060 A 
BRANCH  84  85
ATOM     85  S   UNL A   1      47.748  37.228  29.271  1.00  0.00     0.124 S 
ATOM     86  O   UNL A   1      47.688  37.841  27.949  1.00  0.00    -0.237 OA
ATOM     87  O   UNL A   1      46.705  37.631  30.209  1.00  0.00    -0.237 OA
ATOM     88  O   UNL A   1      49.082  37.099  29.847  1.00  0.00    -0.744 OA
ENDBRANCH  84  85
ENDBRANCH  52  77
BRANCH  64  89
ATOM     89  C   UNL A   1      49.539  27.185  25.708  1.00  0.00     0.058 A 
ATOM     90  C   UNL A   1      50.619  26.753  26.493  1.00  0.00     0.135 A 
ATOM     91  C   UNL A   1      49.748  27.331  24.327  1.00  0.00     0.135 A 
ATOM     92  F   UNL A   1      50.475  26.602  27.818  1.00  0.00    -0.206 F 
ATOM     93  C   UNL A   1      51.866  26.499  25.932  1.00  0.00     0.059 A 
ATOM     94  C   UNL A   1      50.978  27.052  23.740  1.00  0.00     0.059 A 
ATOM     95  F   UNL A   1      48.744  27.731  23.529  1.00  0.00    -0.206 F 
ATOM     96  C   UNL A   1      52.035  26.647  24.553  1.00  0.00     0.060 A 
BRANCH  96  97
ATOM     97  S   UNL A   1      53.649  26.276  23.836  1.00  0.00     0.124 S 
ATOM     98  O   UNL A   1      53.297  25.992  22.448  1.00  0.00    -0.237 OA
ATOM     99  O   UNL A   1      54.383  27.517  24.063  1.00  0.00    -0.237 OA
ATOM    100  O   UNL A   1      54.111  25.130  24.613  1.00  0.00    -0.744 OA
ENDBRANCH  96  97
ENDBRANCH  64  89
ENDBRANCH  38  39
ENDBRANCH  30  33
ENDBRANCH  28  29
ENDBRANCH  27  28
ENDBRANCH   1  27
TORSDOF 18
ENDMDL
