MODEL 1
REMARK VINA RESULT:     -12.4      0.000      0.000
REMARK SMILES CC[NH2+][C@@]1(C(=O)NCCCCCCNC(=O)c2ccc(-c3c4nc(c(-c5c(F)cc(S(=O)(=O)[O-])cc5F)c5ccc([nH]5)c(-c5c(F)cc(S(=O)(=O)[O-])cc5F)c5nc(c(-c6c(F)cc(S(=O)(=O)[O-])cc6F)c6ccc3[nH]6)C=C5)C=C4)cc2)CC[C@@H](n2cnc3ccccc32)C1
REMARK SMILES IDX 11 1 10 2 9 3 8 4 7 5 5 6 6 7 4 9 83 10 95 11 84 12 85 13
REMARK SMILES IDX 3 14 2 17 1 18 86 19 87 20 94 21 88 22 89 23 93 24 90 25
REMARK SMILES IDX 92 26 91 27 12 28 13 29 14 30 15 31 16 33 17 34 18 35 82 36
REMARK SMILES IDX 19 37 81 38 20 39 21 40 22 41 75 42 23 43 80 44 74 45 76 46
REMARK SMILES IDX 24 47 79 48 73 49 72 50 25 52 59 53 38 54 58 55 39 56 42 57
REMARK SMILES IDX 57 58 77 59 40 60 41 61 56 63 78 64 43 65 26 66 27 67 36 68
REMARK SMILES IDX 28 69 29 70 35 71 37 72 30 73 31 74 32 75 33 76 34 77 60 78
REMARK SMILES IDX 61 79 70 80 62 81 63 82 69 83 71 84 64 85 65 86 66 87 67 88
REMARK SMILES IDX 68 89 44 90 45 91 54 92 46 93 47 94 53 95 55 96 48 97 49 98
REMARK SMILES IDX 50 99 51 100 52 101
REMARK H PARENT 7 8 3 15 3 16 14 32 76 51 42 62
REMARK Flexibility Score: inf
ROOT
ATOM      1  C   UNL A   1      33.384  28.452  26.071  1.00  0.00     0.002 C 
ENDROOT
BRANCH   1   2
ATOM      2  C   UNL A   1      32.024  28.517  25.363  1.00  0.00     0.002 C 
BRANCH   2   3
ATOM      3  C   UNL A   1      32.022  28.294  23.849  1.00  0.00     0.021 C 
BRANCH   3   4
ATOM      4  C   UNL A   1      30.705  27.802  23.240  1.00  0.00     0.116 C 
BRANCH   4   5
ATOM      5  N   UNL A   1      30.564  26.351  23.077  1.00  0.00    -0.351 N 
ATOM      6  C   UNL A   1      31.668  25.541  22.887  1.00  0.00     0.281 C 
ATOM      7  O   UNL A   1      32.189  25.599  21.762  1.00  0.00    -0.268 OA
ATOM      8  H   UNL A   1      29.666  25.947  23.104  1.00  0.00     0.163 HD
BRANCH   6   9
ATOM      9  C   UNL A   1      32.356  24.597  24.247  1.00  0.00     0.177 C 
ATOM     10  C   UNL A   1      34.058  25.280  24.246  1.00  0.00     0.081 C 
ATOM     11  C   UNL A   1      33.004  23.478  22.947  1.00  0.00     0.104 C 
ATOM     12  C   UNL A   1      35.060  24.221  23.707  1.00  0.00     0.033 C 
ATOM     13  C   UNL A   1      34.277  22.916  23.546  1.00  0.00     0.096 C 
BRANCH   9  14
ATOM     14  N   UNL A   1      31.256  24.006  25.938  1.00  0.00    -0.334 N 
ATOM     15  H   UNL A   1      31.686  24.586  26.658  1.00  0.00     0.347 HD
ATOM     16  H   UNL A   1      30.395  23.948  25.394  1.00  0.00     0.347 HD
BRANCH  14  17
ATOM     17  C   UNL A   1      30.861  22.751  26.775  1.00  0.00     0.257 C 
ATOM     18  C   UNL A   1      29.416  22.930  27.268  1.00  0.00     0.071 C 
ENDBRANCH  14  17
ENDBRANCH   9  14
BRANCH  13  19
ATOM     19  N   UNL A   1      33.879  22.274  24.813  1.00  0.00    -0.327 N 
ATOM     20  C   UNL A   1      33.328  20.982  24.820  1.00  0.00     0.200 A 
ATOM     21  C   UNL A   1      34.957  22.247  25.716  1.00  0.00     0.068 A 
ATOM     22  N   UNL A   1      34.231  20.008  24.777  1.00  0.00    -0.237 NA
ATOM     23  C   UNL A   1      35.405  20.634  25.103  1.00  0.00     0.088 A 
ATOM     24  C   UNL A   1      36.274  23.446  26.185  1.00  0.00     0.028 A 
ATOM     25  C   UNL A   1      37.175  20.228  24.817  1.00  0.00     0.030 A 
ATOM     26  C   UNL A   1      38.010  22.968  26.057  1.00  0.00     0.002 A 
ATOM     27  C   UNL A   1      38.468  21.395  25.312  1.00  0.00     0.002 A 
ENDBRANCH  13  19
ENDBRANCH   6   9
ENDBRANCH   4   5
ENDBRANCH   3   4
ENDBRANCH   2   3
ENDBRANCH   1   2
BRANCH   1  28
ATOM     28  C   UNL A   1      33.793  29.663  26.919  1.00  0.00     0.021 C 
BRANCH  28  29
ATOM     29  C   UNL A   1      35.173  29.604  27.572  1.00  0.00     0.116 C 
BRANCH  29  30
ATOM     30  N   UNL A   1      35.196  30.198  28.895  1.00  0.00    -0.352 N 
ATOM     31  C   UNL A   1      36.234  30.314  29.787  1.00  0.00     0.251 C 
ATOM     32  H   UNL A   1      34.339  30.573  29.199  1.00  0.00     0.163 HD
ATOM     33  O   UNL A   1      36.014  30.745  30.916  1.00  0.00    -0.269 OA
BRANCH  31  34
ATOM     34  C   UNL A   1      37.612  29.903  29.418  1.00  0.00     0.039 A 
ATOM     35  C   UNL A   1      38.486  29.524  30.443  1.00  0.00     0.014 A 
ATOM     36  C   UNL A   1      38.068  29.940  28.096  1.00  0.00     0.014 A 
ATOM     37  C   UNL A   1      39.795  29.135  30.142  1.00  0.00     0.010 A 
ATOM     38  C   UNL A   1      39.367  29.518  27.791  1.00  0.00     0.010 A 
ATOM     39  C   UNL A   1      40.241  29.115  28.812  1.00  0.00    -0.014 A 
BRANCH  39  40
ATOM     40  C   UNL A   1      41.629  28.702  28.484  1.00  0.00     0.031 A 
ATOM     41  C   UNL A   1      42.743  29.710  28.506  1.00  0.00     0.074 A 
ATOM     42  C   UNL A   1      41.890  27.428  28.136  1.00  0.00     0.049 A 
ATOM     43  N   UNL A   1      43.998  29.560  28.164  1.00  0.00    -0.248 NA
ATOM     44  C   UNL A   1      42.395  31.067  28.953  1.00  0.00     0.031 C 
ATOM     45  C   UNL A   1      40.899  26.353  28.051  1.00  0.00     0.029 A 
ATOM     46  N   UNL A   1      43.070  26.823  27.783  1.00  0.00    -0.354 N 
ATOM     47  C   UNL A   1      44.583  30.810  28.318  1.00  0.00     0.074 A 
ATOM     48  C   UNL A   1      43.547  31.704  28.792  1.00  0.00     0.031 C 
ATOM     49  C   UNL A   1      41.517  25.218  27.679  1.00  0.00     0.029 A 
ATOM     50  C   UNL A   1      42.940  25.489  27.487  1.00  0.00     0.049 A 
ATOM     51  H   UNL A   1      43.930  27.302  27.745  1.00  0.00     0.167 HD
ATOM     52  C   UNL A   1      45.863  31.183  28.080  1.00  0.00     0.037 A 
ATOM     53  C   UNL A   1      43.861  24.585  27.103  1.00  0.00     0.037 A 
ATOM     54  C   UNL A   1      46.908  30.297  27.642  1.00  0.00     0.049 A 
ATOM     55  C   UNL A   1      45.297  24.997  26.950  1.00  0.00     0.074 A 
ATOM     56  C   UNL A   1      48.229  30.592  27.354  1.00  0.00     0.029 A 
ATOM     57  N   UNL A   1      46.752  28.934  27.450  1.00  0.00    -0.354 N 
ATOM     58  N   UNL A   1      45.826  26.188  27.078  1.00  0.00    -0.248 NA
ATOM     59  C   UNL A   1      46.260  23.941  26.608  1.00  0.00     0.031 C 
ATOM     60  C   UNL A   1      48.878  29.403  26.997  1.00  0.00     0.029 A 
ATOM     61  C   UNL A   1      47.958  28.368  27.069  1.00  0.00     0.049 A 
ATOM     62  H   UNL A   1      45.909  28.439  27.568  1.00  0.00     0.167 HD
ATOM     63  C   UNL A   1      47.184  26.027  26.832  1.00  0.00     0.074 A 
ATOM     64  C   UNL A   1      47.399  24.621  26.560  1.00  0.00     0.031 C 
ATOM     65  C   UNL A   1      48.160  26.965  26.821  1.00  0.00     0.037 A 
BRANCH  52  66
ATOM     66  C   UNL A   1      46.186  32.633  28.274  1.00  0.00     0.058 A 
ATOM     67  C   UNL A   1      46.057  33.556  27.222  1.00  0.00     0.135 A 
ATOM     68  C   UNL A   1      46.655  33.093  29.518  1.00  0.00     0.135 A 
ATOM     69  F   UNL A   1      45.631  33.151  26.014  1.00  0.00    -0.206 F 
ATOM     70  C   UNL A   1      46.411  34.890  27.389  1.00  0.00     0.059 A 
ATOM     71  C   UNL A   1      47.005  34.425  29.708  1.00  0.00     0.059 A 
ATOM     72  F   UNL A   1      46.801  32.242  30.547  1.00  0.00    -0.206 F 
ATOM     73  C   UNL A   1      46.898  35.310  28.631  1.00  0.00     0.060 A 
BRANCH  73  74
ATOM     74  S   UNL A   1      47.401  37.033  28.851  1.00  0.00     0.124 S 
ATOM     75  O   UNL A   1      47.909  37.013  30.220  1.00  0.00    -0.237 OA
ATOM     76  O   UNL A   1      48.407  37.219  27.809  1.00  0.00    -0.237 OA
ATOM     77  O   UNL A   1      46.156  37.767  28.650  1.00  0.00    -0.744 OA
ENDBRANCH  73  74
ENDBRANCH  52  66
BRANCH  53  78
ATOM     78  C   UNL A   1      43.448  23.184  26.854  1.00  0.00     0.058 A 
ATOM     79  C   UNL A   1      43.415  22.670  25.548  1.00  0.00     0.135 A 
ATOM     80  C   UNL A   1      43.115  22.332  27.918  1.00  0.00     0.135 A 
ATOM     81  F   UNL A   1      43.724  23.457  24.507  1.00  0.00    -0.206 F 
ATOM     82  C   UNL A   1      43.065  21.347  25.301  1.00  0.00     0.059 A 
ATOM     83  C   UNL A   1      42.769  21.004  27.696  1.00  0.00     0.059 A 
ATOM     84  F   UNL A   1      43.144  22.785  29.181  1.00  0.00    -0.206 F 
ATOM     85  C   UNL A   1      42.745  20.522  26.383  1.00  0.00     0.060 A 
BRANCH  85  86
ATOM     86  S   UNL A   1      42.366  18.778  26.088  1.00  0.00     0.124 S 
ATOM     87  O   UNL A   1      42.618  18.197  27.401  1.00  0.00    -0.237 OA
ATOM     88  O   UNL A   1      40.969  18.819  25.667  1.00  0.00    -0.237 OA
ATOM     89  O   UNL A   1      43.314  18.415  25.038  1.00  0.00    -0.744 OA
ENDBRANCH  85  86
ENDBRANCH  53  78
BRANCH  65  90
ATOM     90  C   UNL A   1      49.553  26.498  26.521  1.00  0.00     0.058 A 
ATOM     91  C   UNL A   1      50.399  26.044  27.545  1.00  0.00     0.135 A 
ATOM     92  C   UNL A   1      50.029  26.470  25.201  1.00  0.00     0.135 A 
ATOM     93  F   UNL A   1      49.984  26.058  28.823  1.00  0.00    -0.206 F 
ATOM     94  C   UNL A   1      51.682  25.582  27.270  1.00  0.00     0.059 A 
ATOM     95  C   UNL A   1      51.307  26.006  24.904  1.00  0.00     0.059 A 
ATOM     96  F   UNL A   1      49.253  26.896  24.192  1.00  0.00    -0.206 F 
ATOM     97  C   UNL A   1      52.128  25.573  25.946  1.00  0.00     0.060 A 
BRANCH  97  98
ATOM     98  S   UNL A   1      53.782  24.943  25.577  1.00  0.00     0.124 S 
ATOM     99  O   UNL A   1      54.164  25.772  24.440  1.00  0.00    -0.237 OA
ATOM    100  O   UNL A   1      54.511  25.194  26.817  1.00  0.00    -0.237 OA
ATOM    101  O   UNL A   1      53.539  23.534  25.278  1.00  0.00    -0.744 OA
ENDBRANCH  97  98
ENDBRANCH  65  90
ENDBRANCH  39  40
ENDBRANCH  31  34
ENDBRANCH  29  30
ENDBRANCH  28  29
ENDBRANCH   1  28
TORSDOF 19
ENDMDL
MODEL 2
REMARK VINA RESULT:     -12.4      2.490      3.183
REMARK SMILES CC[NH2+][C@@]1(C(=O)NCCCCCCNC(=O)c2ccc(-c3c4nc(c(-c5c(F)cc(S(=O)(=O)[O-])cc5F)c5ccc([nH]5)c(-c5c(F)cc(S(=O)(=O)[O-])cc5F)c5nc(c(-c6c(F)cc(S(=O)(=O)[O-])cc6F)c6ccc3[nH]6)C=C5)C=C4)cc2)CC[C@@H](n2cnc3ccccc32)C1
REMARK SMILES IDX 11 1 10 2 9 3 8 4 7 5 5 6 6 7 4 9 83 10 95 11 84 12 85 13
REMARK SMILES IDX 3 14 2 17 1 18 86 19 87 20 94 21 88 22 89 23 93 24 90 25
REMARK SMILES IDX 92 26 91 27 12 28 13 29 14 30 15 31 16 33 17 34 18 35 82 36
REMARK SMILES IDX 19 37 81 38 20 39 21 40 22 41 75 42 23 43 80 44 74 45 76 46
REMARK SMILES IDX 24 47 79 48 73 49 72 50 25 52 59 53 38 54 58 55 39 56 42 57
REMARK SMILES IDX 57 58 77 59 40 60 41 61 56 63 78 64 43 65 26 66 27 67 36 68
REMARK SMILES IDX 28 69 29 70 35 71 37 72 30 73 31 74 32 75 33 76 34 77 60 78
REMARK SMILES IDX 61 79 70 80 62 81 63 82 69 83 71 84 64 85 65 86 66 87 67 88
REMARK SMILES IDX 68 89 44 90 45 91 54 92 46 93 47 94 53 95 55 96 48 97 49 98
REMARK SMILES IDX 50 99 51 100 52 101
REMARK H PARENT 7 8 3 15 3 16 14 32 76 51 42 62
REMARK Flexibility Score: inf
ROOT
ATOM      1  C   UNL A   1      31.382  28.018  26.172  1.00  0.00     0.002 C 
ENDROOT
BRANCH   1   2
ATOM      2  C   UNL A   1      31.528  28.308  24.672  1.00  0.00     0.002 C 
BRANCH   2   3
ATOM      3  C   UNL A   1      30.269  28.163  23.815  1.00  0.00     0.021 C 
BRANCH   3   4
ATOM      4  C   UNL A   1      30.471  27.581  22.412  1.00  0.00     0.116 C 
BRANCH   4   5
ATOM      5  N   UNL A   1      30.508  26.118  22.312  1.00  0.00    -0.351 N 
ATOM      6  C   UNL A   1      31.708  25.431  22.301  1.00  0.00     0.281 C 
ATOM      7  O   UNL A   1      32.358  25.502  21.247  1.00  0.00    -0.268 OA
ATOM      8  H   UNL A   1      29.663  25.617  22.251  1.00  0.00     0.163 HD
BRANCH   6   9
ATOM      9  C   UNL A   1      32.315  24.627  23.784  1.00  0.00     0.177 C 
ATOM     10  C   UNL A   1      33.954  25.442  23.909  1.00  0.00     0.081 C 
ATOM     11  C   UNL A   1      33.177  23.489  22.634  1.00  0.00     0.104 C 
ATOM     12  C   UNL A   1      35.081  24.437  23.546  1.00  0.00     0.033 C 
ATOM     13  C   UNL A   1      34.417  23.066  23.395  1.00  0.00     0.096 C 
BRANCH   9  14
ATOM     14  N   UNL A   1      31.089  24.051  25.391  1.00  0.00    -0.334 N 
ATOM     15  H   UNL A   1      30.763  24.961  25.718  1.00  0.00     0.347 HD
ATOM     16  H   UNL A   1      30.748  23.239  24.877  1.00  0.00     0.347 HD
BRANCH  14  17
ATOM     17  C   UNL A   1      31.106  23.251  26.730  1.00  0.00     0.257 C 
ATOM     18  C   UNL A   1      29.657  22.894  27.101  1.00  0.00     0.071 C 
ENDBRANCH  14  17
ENDBRANCH   9  14
BRANCH  13  19
ATOM     19  N   UNL A   1      33.936  22.470  24.656  1.00  0.00    -0.327 N 
ATOM     20  C   UNL A   1      33.414  21.167  24.679  1.00  0.00     0.200 A 
ATOM     21  C   UNL A   1      34.941  22.509  25.639  1.00  0.00     0.068 A 
ATOM     22  N   UNL A   1      34.338  20.215  24.749  1.00  0.00    -0.237 NA
ATOM     23  C   UNL A   1      35.469  20.883  25.136  1.00  0.00     0.088 A 
ATOM     24  C   UNL A   1      36.191  23.760  26.153  1.00  0.00     0.028 A 
ATOM     25  C   UNL A   1      37.265  20.510  25.006  1.00  0.00     0.030 A 
ATOM     26  C   UNL A   1      37.941  23.321  26.181  1.00  0.00     0.002 A 
ATOM     27  C   UNL A   1      38.490  21.729  25.546  1.00  0.00     0.002 A 
ENDBRANCH  13  19
ENDBRANCH   6   9
ENDBRANCH   4   5
ENDBRANCH   3   4
ENDBRANCH   2   3
ENDBRANCH   1   2
BRANCH   1  28
ATOM     28  C   UNL A   1      32.572  27.354  26.878  1.00  0.00     0.021 C 
BRANCH  28  29
ATOM     29  C   UNL A   1      33.862  28.169  26.953  1.00  0.00     0.116 C 
BRANCH  29  30
ATOM     30  N   UNL A   1      33.637  29.544  27.355  1.00  0.00    -0.352 N 
ATOM     31  C   UNL A   1      34.473  30.415  28.009  1.00  0.00     0.251 C 
ATOM     32  H   UNL A   1      32.751  29.907  27.125  1.00  0.00     0.163 HD
ATOM     33  O   UNL A   1      34.043  31.508  28.370  1.00  0.00    -0.269 OA
BRANCH  31  34
ATOM     34  C   UNL A   1      35.879  30.048  28.312  1.00  0.00     0.039 A 
ATOM     35  C   UNL A   1      36.824  30.145  27.284  1.00  0.00     0.014 A 
ATOM     36  C   UNL A   1      36.265  29.561  29.566  1.00  0.00     0.014 A 
ATOM     37  C   UNL A   1      38.159  29.804  27.523  1.00  0.00     0.010 A 
ATOM     38  C   UNL A   1      37.607  29.252  29.814  1.00  0.00     0.010 A 
ATOM     39  C   UNL A   1      38.564  29.369  28.794  1.00  0.00    -0.014 A 
BRANCH  39  40
ATOM     40  C   UNL A   1      39.980  29.006  29.056  1.00  0.00     0.031 A 
ATOM     41  C   UNL A   1      40.911  30.003  29.686  1.00  0.00     0.074 A 
ATOM     42  C   UNL A   1      40.441  27.792  28.704  1.00  0.00     0.049 A 
ATOM     43  N   UNL A   1      42.197  29.903  29.911  1.00  0.00    -0.248 NA
ATOM     44  C   UNL A   1      40.323  31.286  30.099  1.00  0.00     0.031 C 
ATOM     45  C   UNL A   1      39.652  26.737  28.064  1.00  0.00     0.029 A 
ATOM     46  N   UNL A   1      41.692  27.242  28.831  1.00  0.00    -0.354 N 
ATOM     47  C   UNL A   1      42.581  31.120  30.457  1.00  0.00     0.074 A 
ATOM     48  C   UNL A   1      41.390  31.940  30.536  1.00  0.00     0.031 C 
ATOM     49  C   UNL A   1      40.437  25.665  27.863  1.00  0.00     0.029 A 
ATOM     50  C   UNL A   1      41.784  25.961  28.347  1.00  0.00     0.049 A 
ATOM     51  H   UNL A   1      42.453  27.722  29.232  1.00  0.00     0.167 HD
ATOM     52  C   UNL A   1      43.813  31.524  30.849  1.00  0.00     0.037 A 
ATOM     53  C   UNL A   1      42.834  25.118  28.296  1.00  0.00     0.037 A 
ATOM     54  C   UNL A   1      44.996  30.707  30.807  1.00  0.00     0.049 A 
ATOM     55  C   UNL A   1      44.166  25.549  28.837  1.00  0.00     0.074 A 
ATOM     56  C   UNL A   1      46.291  31.039  31.163  1.00  0.00     0.029 A 
ATOM     57  N   UNL A   1      45.022  29.382  30.401  1.00  0.00    -0.354 N 
ATOM     58  N   UNL A   1      44.515  26.712  29.329  1.00  0.00    -0.248 NA
ATOM     59  C   UNL A   1      45.245  24.550  28.824  1.00  0.00     0.031 C 
ATOM     60  C   UNL A   1      47.101  29.910  30.983  1.00  0.00     0.029 A 
ATOM     61  C   UNL A   1      46.305  28.875  30.518  1.00  0.00     0.049 A 
ATOM     62  H   UNL A   1      44.242  28.875  30.077  1.00  0.00     0.167 HD
ATOM     63  C   UNL A   1      45.853  26.588  29.682  1.00  0.00     0.074 A 
ATOM     64  C   UNL A   1      46.249  25.231  29.362  1.00  0.00     0.031 C 
ATOM     65  C   UNL A   1      46.679  27.519  30.214  1.00  0.00     0.037 A 
BRANCH  52  66
ATOM     66  C   UNL A   1      43.932  32.933  31.341  1.00  0.00     0.058 A 
ATOM     67  C   UNL A   1      44.118  34.003  30.449  1.00  0.00     0.135 A 
ATOM     68  C   UNL A   1      43.885  33.208  32.720  1.00  0.00     0.135 A 
ATOM     69  F   UNL A   1      44.188  33.778  29.126  1.00  0.00    -0.206 F 
ATOM     70  C   UNL A   1      44.285  35.304  30.912  1.00  0.00     0.059 A 
ATOM     71  C   UNL A   1      44.040  34.503  33.202  1.00  0.00     0.059 A 
ATOM     72  F   UNL A   1      43.718  32.213  33.607  1.00  0.00    -0.206 F 
ATOM     73  C   UNL A   1      44.259  35.539  32.290  1.00  0.00     0.060 A 
BRANCH  73  74
ATOM     74  S   UNL A   1      44.516  37.220  32.908  1.00  0.00     0.124 S 
ATOM     75  O   UNL A   1      43.203  37.524  33.469  1.00  0.00    -0.237 OA
ATOM     76  O   UNL A   1      45.593  37.054  33.880  1.00  0.00    -0.237 OA
ATOM     77  O   UNL A   1      44.875  37.961  31.703  1.00  0.00    -0.744 OA
ENDBRANCH  73  74
ENDBRANCH  52  66
BRANCH  53  78
ATOM     78  C   UNL A   1      42.654  23.765  27.722  1.00  0.00     0.058 A 
ATOM     79  C   UNL A   1      42.733  23.560  26.336  1.00  0.00     0.135 A 
ATOM     80  C   UNL A   1      42.438  22.653  28.552  1.00  0.00     0.135 A 
ATOM     81  F   UNL A   1      42.936  24.600  25.512  1.00  0.00    -0.206 F 
ATOM     82  C   UNL A   1      42.604  22.290  25.784  1.00  0.00     0.059 A 
ATOM     83  C   UNL A   1      42.313  21.374  28.024  1.00  0.00     0.059 A 
ATOM     84  F   UNL A   1      42.367  22.809  29.883  1.00  0.00    -0.206 F 
ATOM     85  C   UNL A   1      42.395  21.203  26.638  1.00  0.00     0.060 A 
BRANCH  85  86
ATOM     86  S   UNL A   1      42.306  19.535  25.946  1.00  0.00     0.124 S 
ATOM     87  O   UNL A   1      43.181  19.651  24.786  1.00  0.00    -0.237 OA
ATOM     88  O   UNL A   1      42.803  18.706  27.039  1.00  0.00    -0.237 OA
ATOM     89  O   UNL A   1      40.882  19.381  25.656  1.00  0.00    -0.744 OA
ENDBRANCH  85  86
ENDBRANCH  53  78
BRANCH  65  90
ATOM     90  C   UNL A   1      48.090  27.098  30.498  1.00  0.00     0.058 A 
ATOM     91  C   UNL A   1      49.118  27.350  29.576  1.00  0.00     0.135 A 
ATOM     92  C   UNL A   1      48.420  26.474  31.710  1.00  0.00     0.135 A 
ATOM     93  F   UNL A   1      48.845  27.942  28.402  1.00  0.00    -0.206 F 
ATOM     94  C   UNL A   1      50.434  26.989  29.845  1.00  0.00     0.059 A 
ATOM     95  C   UNL A   1      49.731  26.108  32.002  1.00  0.00     0.059 A 
ATOM     96  F   UNL A   1      47.467  26.213  32.619  1.00  0.00    -0.206 F 
ATOM     97  C   UNL A   1      50.728  26.363  31.059  1.00  0.00     0.060 A 
BRANCH  97  98
ATOM     98  S   UNL A   1      52.441  25.918  31.431  1.00  0.00     0.124 S 
ATOM     99  O   UNL A   1      53.044  25.940  30.103  1.00  0.00    -0.237 OA
ATOM    100  O   UNL A   1      52.865  26.983  32.336  1.00  0.00    -0.237 OA
ATOM    101  O   UNL A   1      52.314  24.600  32.046  1.00  0.00    -0.744 OA
ENDBRANCH  97  98
ENDBRANCH  65  90
ENDBRANCH  39  40
ENDBRANCH  31  34
ENDBRANCH  29  30
ENDBRANCH  28  29
ENDBRANCH   1  28
TORSDOF 19
ENDMDL
MODEL 3
REMARK VINA RESULT:     -12.1      6.396     12.045
REMARK SMILES CC[NH2+][C@@]1(C(=O)NCCCCCCNC(=O)c2ccc(-c3c4nc(c(-c5c(F)cc(S(=O)(=O)[O-])cc5F)c5ccc([nH]5)c(-c5c(F)cc(S(=O)(=O)[O-])cc5F)c5nc(c(-c6c(F)cc(S(=O)(=O)[O-])cc6F)c6ccc3[nH]6)C=C5)C=C4)cc2)CC[C@@H](n2cnc3ccccc32)C1
REMARK SMILES IDX 11 1 10 2 9 3 8 4 7 5 5 6 6 7 4 9 83 10 95 11 84 12 85 13
REMARK SMILES IDX 3 14 2 17 1 18 86 19 87 20 94 21 88 22 89 23 93 24 90 25
REMARK SMILES IDX 92 26 91 27 12 28 13 29 14 30 15 31 16 33 17 34 18 35 82 36
REMARK SMILES IDX 19 37 81 38 20 39 21 40 22 41 75 42 23 43 80 44 74 45 76 46
REMARK SMILES IDX 24 47 79 48 73 49 72 50 25 52 59 53 38 54 58 55 39 56 42 57
REMARK SMILES IDX 57 58 77 59 40 60 41 61 56 63 78 64 43 65 26 66 27 67 36 68
REMARK SMILES IDX 28 69 29 70 35 71 37 72 30 73 31 74 32 75 33 76 34 77 60 78
REMARK SMILES IDX 61 79 70 80 62 81 63 82 69 83 71 84 64 85 65 86 66 87 67 88
REMARK SMILES IDX 68 89 44 90 45 91 54 92 46 93 47 94 53 95 55 96 48 97 49 98
REMARK SMILES IDX 50 99 51 100 52 101
REMARK H PARENT 7 8 3 15 3 16 14 32 76 51 42 62
REMARK Flexibility Score: inf
ROOT
ATOM      1  C   UNL A   1      39.283  21.302  25.761  1.00  0.00     0.002 C 
ENDROOT
BRANCH   1   2
ATOM      2  C   UNL A   1      38.097  22.276  25.726  1.00  0.00     0.002 C 
BRANCH   2   3
ATOM      3  C   UNL A   1      36.703  21.661  25.593  1.00  0.00     0.021 C 
BRANCH   3   4
ATOM      4  C   UNL A   1      35.990  21.886  24.255  1.00  0.00     0.116 C 
BRANCH   4   5
ATOM      5  N   UNL A   1      35.687  23.278  23.904  1.00  0.00    -0.351 N 
ATOM      6  C   UNL A   1      34.500  23.618  23.282  1.00  0.00     0.281 C 
ATOM      7  O   UNL A   1      34.417  23.316  22.081  1.00  0.00    -0.268 OA
ATOM      8  H   UNL A   1      36.340  23.983  24.116  1.00  0.00     0.163 HD
BRANCH   6   9
ATOM      9  C   UNL A   1      33.140  24.313  24.221  1.00  0.00     0.177 C 
ATOM     10  C   UNL A   1      31.884  24.412  22.888  1.00  0.00     0.081 C 
ATOM     11  C   UNL A   1      33.702  25.926  23.557  1.00  0.00     0.104 C 
ATOM     12  C   UNL A   1      31.655  25.893  22.477  1.00  0.00     0.033 C 
ATOM     13  C   UNL A   1      32.434  26.752  23.476  1.00  0.00     0.096 C 
BRANCH   9  14
ATOM     14  N   UNL A   1      32.771  23.880  26.245  1.00  0.00    -0.334 N 
ATOM     15  H   UNL A   1      33.668  24.132  26.661  1.00  0.00     0.347 HD
ATOM     16  H   UNL A   1      31.816  24.232  26.176  1.00  0.00     0.347 HD
BRANCH  14  17
ATOM     17  C   UNL A   1      32.323  22.730  27.198  1.00  0.00     0.257 C 
ATOM     18  C   UNL A   1      33.554  22.237  27.977  1.00  0.00     0.071 C 
ENDBRANCH  14  17
ENDBRANCH   9  14
BRANCH  13  19
ATOM     19  N   UNL A   1      31.876  26.773  24.841  1.00  0.00    -0.327 N 
ATOM     20  C   UNL A   1      32.540  27.449  25.876  1.00  0.00     0.200 A 
ATOM     21  C   UNL A   1      30.559  27.267  24.831  1.00  0.00     0.068 A 
ATOM     22  N   UNL A   1      32.300  28.755  25.913  1.00  0.00    -0.237 NA
ATOM     23  C   UNL A   1      31.191  28.907  25.124  1.00  0.00     0.088 A 
ATOM     24  C   UNL A   1      29.103  27.030  23.727  1.00  0.00     0.028 A 
ATOM     25  C   UNL A   1      30.471  30.335  24.217  1.00  0.00     0.030 A 
ATOM     26  C   UNL A   1      28.302  28.463  22.978  1.00  0.00     0.002 A 
ATOM     27  C   UNL A   1      29.019  30.105  23.161  1.00  0.00     0.002 A 
ENDBRANCH  13  19
ENDBRANCH   6   9
ENDBRANCH   4   5
ENDBRANCH   3   4
ENDBRANCH   2   3
ENDBRANCH   1   2
BRANCH   1  28
ATOM     28  C   UNL A   1      40.302  21.477  26.894  1.00  0.00     0.021 C 
BRANCH  28  29
ATOM     29  C   UNL A   1      40.675  22.913  27.261  1.00  0.00     0.116 C 
BRANCH  29  30
ATOM     30  N   UNL A   1      41.313  23.625  26.170  1.00  0.00    -0.352 N 
ATOM     31  C   UNL A   1      41.613  24.960  26.050  1.00  0.00     0.251 C 
ATOM     32  H   UNL A   1      41.568  23.068  25.400  1.00  0.00     0.163 HD
ATOM     33  O   UNL A   1      42.046  25.388  24.983  1.00  0.00    -0.269 OA
BRANCH  31  34
ATOM     34  C   UNL A   1      41.397  25.899  27.179  1.00  0.00     0.039 A 
ATOM     35  C   UNL A   1      42.314  26.941  27.359  1.00  0.00     0.014 A 
ATOM     36  C   UNL A   1      40.345  25.737  28.088  1.00  0.00     0.014 A 
ATOM     37  C   UNL A   1      42.153  27.845  28.413  1.00  0.00     0.010 A 
ATOM     38  C   UNL A   1      40.164  26.661  29.123  1.00  0.00     0.010 A 
ATOM     39  C   UNL A   1      41.068  27.722  29.294  1.00  0.00    -0.014 A 
BRANCH  39  40
ATOM     40  C   UNL A   1      40.888  28.679  30.416  1.00  0.00     0.031 A 
ATOM     41  C   UNL A   1      41.769  28.594  31.630  1.00  0.00     0.074 A 
ATOM     42  C   UNL A   1      39.916  29.608  30.361  1.00  0.00     0.049 A 
ATOM     43  N   UNL A   1      41.707  29.280  32.743  1.00  0.00    -0.248 NA
ATOM     44  C   UNL A   1      42.848  27.595  31.594  1.00  0.00     0.031 C 
ATOM     45  C   UNL A   1      38.975  29.785  29.253  1.00  0.00     0.029 A 
ATOM     46  N   UNL A   1      39.554  30.574  31.264  1.00  0.00    -0.354 N 
ATOM     47  C   UNL A   1      42.712  28.773  33.556  1.00  0.00     0.074 A 
ATOM     48  C   UNL A   1      43.374  27.727  32.804  1.00  0.00     0.031 C 
ATOM     49  C   UNL A   1      38.150  30.807  29.540  1.00  0.00     0.029 A 
ATOM     50  C   UNL A   1      38.494  31.345  30.855  1.00  0.00     0.049 A 
ATOM     51  H   UNL A   1      40.012  30.704  32.127  1.00  0.00     0.167 HD
ATOM     52  C   UNL A   1      43.050  29.137  34.816  1.00  0.00     0.037 A 
ATOM     53  C   UNL A   1      37.869  32.369  31.467  1.00  0.00     0.037 A 
ATOM     54  C   UNL A   1      42.423  30.197  35.559  1.00  0.00     0.049 A 
ATOM     55  C   UNL A   1      38.332  32.827  32.819  1.00  0.00     0.074 A 
ATOM     56  C   UNL A   1      42.685  30.622  36.850  1.00  0.00     0.029 A 
ATOM     57  N   UNL A   1      41.420  31.016  35.066  1.00  0.00    -0.354 N 
ATOM     58  N   UNL A   1      39.269  32.321  33.581  1.00  0.00    -0.248 NA
ATOM     59  C   UNL A   1      37.656  34.001  33.391  1.00  0.00     0.031 C 
ATOM     60  C   UNL A   1      41.846  31.707  37.135  1.00  0.00     0.029 A 
ATOM     61  C   UNL A   1      41.066  31.958  36.017  1.00  0.00     0.049 A 
ATOM     62  H   UNL A   1      41.017  30.939  34.170  1.00  0.00     0.167 HD
ATOM     63  C   UNL A   1      39.296  33.111  34.723  1.00  0.00     0.074 A 
ATOM     64  C   UNL A   1      38.292  34.140  34.548  1.00  0.00     0.031 C 
ATOM     65  C   UNL A   1      40.078  32.986  35.822  1.00  0.00     0.037 A 
BRANCH  52  66
ATOM     66  C   UNL A   1      44.146  28.353  35.470  1.00  0.00     0.058 A 
ATOM     67  C   UNL A   1      45.492  28.740  35.346  1.00  0.00     0.135 A 
ATOM     68  C   UNL A   1      43.845  27.192  36.204  1.00  0.00     0.135 A 
ATOM     69  F   UNL A   1      45.821  29.833  34.637  1.00  0.00    -0.206 F 
ATOM     70  C   UNL A   1      46.512  27.979  35.907  1.00  0.00     0.059 A 
ATOM     71  C   UNL A   1      44.850  26.423  36.780  1.00  0.00     0.059 A 
ATOM     72  F   UNL A   1      42.572  26.783  36.339  1.00  0.00    -0.206 F 
ATOM     73  C   UNL A   1      46.180  26.816  36.608  1.00  0.00     0.060 A 
BRANCH  73  74
ATOM     74  S   UNL A   1      47.499  25.794  37.307  1.00  0.00     0.124 S 
ATOM     75  O   UNL A   1      47.609  26.347  38.654  1.00  0.00    -0.237 OA
ATOM     76  O   UNL A   1      46.951  24.444  37.224  1.00  0.00    -0.237 OA
ATOM     77  O   UNL A   1      48.627  26.063  36.420  1.00  0.00    -0.744 OA
ENDBRANCH  73  74
ENDBRANCH  52  66
BRANCH  53  78
ATOM     78  C   UNL A   1      36.740  33.044  30.786  1.00  0.00     0.058 A 
ATOM     79  C   UNL A   1      35.418  32.819  31.199  1.00  0.00     0.135 A 
ATOM     80  C   UNL A   1      36.969  33.950  29.738  1.00  0.00     0.135 A 
ATOM     81  F   UNL A   1      35.162  31.957  32.195  1.00  0.00    -0.206 F 
ATOM     82  C   UNL A   1      34.350  33.474  30.595  1.00  0.00     0.059 A 
ATOM     83  C   UNL A   1      35.918  34.622  29.125  1.00  0.00     0.059 A 
ATOM     84  F   UNL A   1      38.221  34.199  29.322  1.00  0.00    -0.206 F 
ATOM     85  C   UNL A   1      34.612  34.374  29.559  1.00  0.00     0.060 A 
BRANCH  85  86
ATOM     86  S   UNL A   1      33.244  35.296  28.816  1.00  0.00     0.124 S 
ATOM     87  O   UNL A   1      33.956  36.279  28.010  1.00  0.00    -0.237 OA
ATOM     88  O   UNL A   1      32.526  34.263  28.076  1.00  0.00    -0.237 OA
ATOM     89  O   UNL A   1      32.537  35.819  29.982  1.00  0.00    -0.744 OA
ENDBRANCH  85  86
ENDBRANCH  53  78
BRANCH  65  90
ATOM     90  C   UNL A   1      39.889  33.996  36.913  1.00  0.00     0.058 A 
ATOM     91  C   UNL A   1      40.477  35.268  36.830  1.00  0.00     0.135 A 
ATOM     92  C   UNL A   1      39.087  33.704  38.027  1.00  0.00     0.135 A 
ATOM     93  F   UNL A   1      41.254  35.588  35.783  1.00  0.00    -0.206 F 
ATOM     94  C   UNL A   1      40.281  36.221  37.825  1.00  0.00     0.059 A 
ATOM     95  C   UNL A   1      38.875  34.643  39.032  1.00  0.00     0.059 A 
ATOM     96  F   UNL A   1      38.508  32.499  38.146  1.00  0.00    -0.206 F 
ATOM     97  C   UNL A   1      39.483  35.895  38.925  1.00  0.00     0.060 A 
BRANCH  97  98
ATOM     98  S   UNL A   1      39.197  37.138  40.206  1.00  0.00     0.124 S 
ATOM     99  O   UNL A   1      38.353  36.404  41.143  1.00  0.00    -0.237 OA
ATOM    100  O   UNL A   1      40.547  37.440  40.674  1.00  0.00    -0.237 OA
ATOM    101  O   UNL A   1      38.540  38.219  39.477  1.00  0.00    -0.744 OA
ENDBRANCH  97  98
ENDBRANCH  65  90
ENDBRANCH  39  40
ENDBRANCH  31  34
ENDBRANCH  29  30
ENDBRANCH  28  29
ENDBRANCH   1  28
TORSDOF 19
ENDMDL
