MODEL 1
REMARK VINA RESULT:     -10.6      0.000      0.000
REMARK SMILES CC1(C)CSC[C@H](N(CCC(=O)NCCCCCCNC(=O)c2ccc(-c3c4nc(c(-c5c(F)cc(S(=O)(=O)[O-])cc5F)c5ccc([nH]5)c(-c5c(F)cc(S(=O)(=O)[O-])cc5F)c5nc(c(-c6c(F)cc(S(=O)(=O)[O-])cc6F)c6ccc3[nH]6)C=C5)C=C4)cc2)c2ccccc2)C1
REMARK SMILES IDX 16 1 15 2 14 3 13 4 11 5 12 6 10 8 9 9 8 10 7 11 1 12 2 13
REMARK SMILES IDX 3 14 4 15 95 16 5 17 6 18 89 19 90 20 94 21 91 22 93 23
REMARK SMILES IDX 92 24 17 25 18 26 19 27 20 28 21 29 22 31 23 32 24 33 88 34
REMARK SMILES IDX 25 35 87 36 26 37 27 38 28 39 81 40 29 41 86 42 80 43 82 44
REMARK SMILES IDX 30 45 85 46 79 47 78 48 31 50 65 51 44 52 64 53 45 54 48 55
REMARK SMILES IDX 63 56 83 57 46 58 47 59 62 61 84 62 49 63 32 64 33 65 42 66
REMARK SMILES IDX 34 67 35 68 41 69 43 70 36 71 37 72 38 73 39 74 40 75 66 76
REMARK SMILES IDX 67 77 76 78 68 79 69 80 75 81 77 82 70 83 71 84 72 85 73 86
REMARK SMILES IDX 74 87 50 88 51 89 60 90 52 91 53 92 59 93 61 94 54 95 55 96
REMARK SMILES IDX 56 97 57 98 58 99
REMARK H PARENT 13 7 20 30 82 49 48 60
REMARK Flexibility Score: inf
ROOT
ATOM      1  C   UNL A   1      42.082  20.690  26.461  1.00  0.00     0.002 C 
ENDROOT
BRANCH   1   2
ATOM      2  C   UNL A   1      40.722  21.017  27.084  1.00  0.00     0.021 C 
BRANCH   2   3
ATOM      3  C   UNL A   1      39.567  21.306  26.134  1.00  0.00     0.116 C 
BRANCH   3   4
ATOM      4  N   UNL A   1      38.945  22.602  26.348  1.00  0.00    -0.356 N 
ATOM      5  C   UNL A   1      37.827  23.153  25.797  1.00  0.00     0.221 C 
ATOM      6  O   UNL A   1      37.459  24.257  26.213  1.00  0.00    -0.275 OA
ATOM      7  H   UNL A   1      39.407  23.177  27.001  1.00  0.00     0.163 HD
BRANCH   5   8
ATOM      8  C   UNL A   1      37.061  22.461  24.692  1.00  0.00     0.121 C 
BRANCH   8   9
ATOM      9  C   UNL A   1      36.192  21.293  25.178  1.00  0.00     0.127 C 
BRANCH   9  10
ATOM     10  N   UNL A   1      34.716  21.488  25.030  1.00  0.00    -0.367 N 
BRANCH  10  11
ATOM     11  C   UNL A   1      33.914  20.219  24.717  1.00  0.00     0.092 C 
ATOM     12  C   UNL A   1      32.776  17.395  25.750  1.00  0.00     0.012 C 
ATOM     13  C   UNL A   1      33.797  17.582  24.609  1.00  0.00    -0.024 C 
ATOM     14  C   UNL A   1      34.757  16.367  24.660  1.00  0.00     0.012 C 
ATOM     15  C   UNL A   1      33.104  17.584  23.234  1.00  0.00     0.076 C 
ATOM     16  C   UNL A   1      34.661  18.868  24.770  1.00  0.00     0.033 C 
ATOM     17  S   UNL A   1      32.011  19.012  22.973  1.00  0.00    -0.159 SA
ATOM     18  C   UNL A   1      33.171  20.362  23.369  1.00  0.00     0.094 C 
ENDBRANCH  10  11
BRANCH  10  19
ATOM     19  C   UNL A   1      34.269  22.813  24.936  1.00  0.00     0.037 A 
ATOM     20  C   UNL A   1      33.760  23.519  26.050  1.00  0.00     0.026 A 
ATOM     21  C   UNL A   1      34.296  23.566  23.758  1.00  0.00     0.026 A 
ATOM     22  C   UNL A   1      33.458  24.888  26.039  1.00  0.00     0.002 A 
ATOM     23  C   UNL A   1      34.003  24.943  23.724  1.00  0.00     0.002 A 
ATOM     24  C   UNL A   1      33.610  25.613  24.874  1.00  0.00     0.000 A 
ENDBRANCH  10  19
ENDBRANCH   9  10
ENDBRANCH   8   9
ENDBRANCH   5   8
ENDBRANCH   3   4
ENDBRANCH   2   3
ENDBRANCH   1   2
BRANCH   1  25
ATOM     25  C   UNL A   1      42.801  21.884  25.824  1.00  0.00     0.002 C 
BRANCH  25  26
ATOM     26  C   UNL A   1      43.895  22.543  26.678  1.00  0.00     0.021 C 
BRANCH  26  27
ATOM     27  C   UNL A   1      43.985  24.065  26.568  1.00  0.00     0.116 C 
BRANCH  27  28
ATOM     28  N   UNL A   1      42.991  24.608  25.652  1.00  0.00    -0.352 N 
ATOM     29  C   UNL A   1      41.990  25.524  25.898  1.00  0.00     0.251 C 
ATOM     30  H   UNL A   1      43.040  24.273  24.727  1.00  0.00     0.163 HD
ATOM     31  O   UNL A   1      41.092  25.695  25.085  1.00  0.00    -0.269 OA
BRANCH  29  32
ATOM     32  C   UNL A   1      41.996  26.282  27.168  1.00  0.00     0.039 A 
ATOM     33  C   UNL A   1      42.771  27.439  27.270  1.00  0.00     0.014 A 
ATOM     34  C   UNL A   1      41.219  25.858  28.249  1.00  0.00     0.014 A 
ATOM     35  C   UNL A   1      42.686  28.227  28.423  1.00  0.00     0.010 A 
ATOM     36  C   UNL A   1      41.087  26.676  29.370  1.00  0.00     0.010 A 
ATOM     37  C   UNL A   1      41.801  27.882  29.459  1.00  0.00    -0.014 A 
BRANCH  37  38
ATOM     38  C   UNL A   1      41.552  28.802  30.602  1.00  0.00     0.031 A 
ATOM     39  C   UNL A   1      42.369  28.702  31.861  1.00  0.00     0.074 A 
ATOM     40  C   UNL A   1      40.522  29.671  30.533  1.00  0.00     0.049 A 
ATOM     41  N   UNL A   1      42.236  29.362  32.984  1.00  0.00    -0.248 NA
ATOM     42  C   UNL A   1      43.465  27.720  31.871  1.00  0.00     0.031 C 
ATOM     43  C   UNL A   1      39.628  29.833  29.383  1.00  0.00     0.029 A 
ATOM     44  N   UNL A   1      40.042  30.575  31.450  1.00  0.00    -0.354 N 
ATOM     45  C   UNL A   1      43.217  28.868  33.836  1.00  0.00     0.074 A 
ATOM     46  C   UNL A   1      43.914  27.825  33.114  1.00  0.00     0.031 C 
ATOM     47  C   UNL A   1      38.727  30.790  29.654  1.00  0.00     0.029 A 
ATOM     48  C   UNL A   1      38.942  31.277  31.012  1.00  0.00     0.049 A 
ATOM     49  H   UNL A   1      40.446  30.708  32.337  1.00  0.00     0.167 HD
ATOM     50  C   UNL A   1      43.515  29.259  35.099  1.00  0.00     0.037 A 
ATOM     51  C   UNL A   1      38.179  32.196  31.637  1.00  0.00     0.037 A 
ATOM     52  C   UNL A   1      42.830  30.315  35.800  1.00  0.00     0.049 A 
ATOM     53  C   UNL A   1      38.515  32.586  33.052  1.00  0.00     0.074 A 
ATOM     54  C   UNL A   1      43.117  30.842  37.048  1.00  0.00     0.029 A 
ATOM     55  N   UNL A   1      41.719  30.996  35.327  1.00  0.00    -0.354 N 
ATOM     56  N   UNL A   1      39.505  32.173  33.807  1.00  0.00    -0.248 NA
ATOM     57  C   UNL A   1      37.627  33.559  33.704  1.00  0.00     0.031 C 
ATOM     58  C   UNL A   1      42.140  31.793  37.358  1.00  0.00     0.029 A 
ATOM     59  C   UNL A   1      41.279  31.903  36.278  1.00  0.00     0.049 A 
ATOM     60  H   UNL A   1      41.303  30.856  34.445  1.00  0.00     0.167 HD
ATOM     61  C   UNL A   1      39.369  32.851  35.014  1.00  0.00     0.074 A 
ATOM     62  C   UNL A   1      38.217  33.717  34.882  1.00  0.00     0.031 C 
ATOM     63  C   UNL A   1      40.128  32.760  36.134  1.00  0.00     0.037 A 
BRANCH  50  64
ATOM     64  C   UNL A   1      44.627  28.547  35.818  1.00  0.00     0.058 A 
ATOM     65  C   UNL A   1      45.962  28.974  35.727  1.00  0.00     0.135 A 
ATOM     66  C   UNL A   1      44.343  27.473  36.679  1.00  0.00     0.135 A 
ATOM     67  F   UNL A   1      46.293  29.987  34.911  1.00  0.00    -0.206 F 
ATOM     68  C   UNL A   1      46.976  28.352  36.450  1.00  0.00     0.059 A 
ATOM     69  C   UNL A   1      45.337  26.855  37.432  1.00  0.00     0.059 A 
ATOM     70  F   UNL A   1      43.085  27.023  36.804  1.00  0.00    -0.206 F 
ATOM     71  C   UNL A   1      46.652  27.298  37.305  1.00  0.00     0.060 A 
BRANCH  71  72
ATOM     72  S   UNL A   1      47.977  26.527  38.260  1.00  0.00     0.124 S 
ATOM     73  O   UNL A   1      49.096  26.611  37.327  1.00  0.00    -0.237 OA
ATOM     74  O   UNL A   1      48.060  27.395  39.430  1.00  0.00    -0.237 OA
ATOM     75  O   UNL A   1      47.474  25.180  38.516  1.00  0.00    -0.744 OA
ENDBRANCH  71  72
ENDBRANCH  50  64
BRANCH  51  76
ATOM     76  C   UNL A   1      37.017  32.813  30.939  1.00  0.00     0.058 A 
ATOM     77  C   UNL A   1      37.190  33.921  30.097  1.00  0.00     0.135 A 
ATOM     78  C   UNL A   1      35.713  32.321  31.110  1.00  0.00     0.135 A 
ATOM     79  F   UNL A   1      38.415  34.435  29.906  1.00  0.00    -0.206 F 
ATOM     80  C   UNL A   1      36.110  34.537  29.470  1.00  0.00     0.059 A 
ATOM     81  C   UNL A   1      34.623  32.901  30.470  1.00  0.00     0.059 A 
ATOM     82  F   UNL A   1      35.493  31.253  31.893  1.00  0.00    -0.206 F 
ATOM     83  C   UNL A   1      34.830  34.018  29.663  1.00  0.00     0.060 A 
BRANCH  83  84
ATOM     84  S   UNL A   1      33.440  34.807  28.822  1.00  0.00     0.124 S 
ATOM     85  O   UNL A   1      33.034  33.765  27.886  1.00  0.00    -0.237 OA
ATOM     86  O   UNL A   1      32.523  35.070  29.925  1.00  0.00    -0.237 OA
ATOM     87  O   UNL A   1      34.044  35.994  28.221  1.00  0.00    -0.744 OA
ENDBRANCH  83  84
ENDBRANCH  51  76
BRANCH  63  88
ATOM     88  C   UNL A   1      39.746  33.621  37.306  1.00  0.00     0.058 A 
ATOM     89  C   UNL A   1      38.871  33.158  38.301  1.00  0.00     0.135 A 
ATOM     90  C   UNL A   1      40.311  34.896  37.472  1.00  0.00     0.135 A 
ATOM     91  F   UNL A   1      38.294  31.951  38.186  1.00  0.00    -0.206 F 
ATOM     92  C   UNL A   1      38.560  33.933  39.414  1.00  0.00     0.059 A 
ATOM     93  C   UNL A   1      40.038  35.676  38.592  1.00  0.00     0.059 A 
ATOM     94  F   UNL A   1      41.160  35.386  36.553  1.00  0.00    -0.206 F 
ATOM     95  C   UNL A   1      39.156  35.189  39.555  1.00  0.00     0.060 A 
BRANCH  95  96
ATOM     96  S   UNL A   1      38.785  36.157  41.032  1.00  0.00     0.124 S 
ATOM     97  O   UNL A   1      40.018  36.008  41.799  1.00  0.00    -0.237 OA
ATOM     98  O   UNL A   1      38.539  37.486  40.479  1.00  0.00    -0.237 OA
ATOM     99  O   UNL A   1      37.613  35.490  41.592  1.00  0.00    -0.744 OA
ENDBRANCH  95  96
ENDBRANCH  63  88
ENDBRANCH  37  38
ENDBRANCH  29  32
ENDBRANCH  27  28
ENDBRANCH  26  27
ENDBRANCH  25  26
ENDBRANCH   1  25
TORSDOF 20
ENDMDL
MODEL 2
REMARK VINA RESULT:     -10.6      5.405     12.447
REMARK SMILES CC1(C)CSC[C@H](N(CCC(=O)NCCCCCCNC(=O)c2ccc(-c3c4nc(c(-c5c(F)cc(S(=O)(=O)[O-])cc5F)c5ccc([nH]5)c(-c5c(F)cc(S(=O)(=O)[O-])cc5F)c5nc(c(-c6c(F)cc(S(=O)(=O)[O-])cc6F)c6ccc3[nH]6)C=C5)C=C4)cc2)c2ccccc2)C1
REMARK SMILES IDX 16 1 15 2 14 3 13 4 11 5 12 6 10 8 9 9 8 10 7 11 1 12 2 13
REMARK SMILES IDX 3 14 4 15 95 16 5 17 6 18 89 19 90 20 94 21 91 22 93 23
REMARK SMILES IDX 92 24 17 25 18 26 19 27 20 28 21 29 22 31 23 32 24 33 88 34
REMARK SMILES IDX 25 35 87 36 26 37 27 38 28 39 81 40 29 41 86 42 80 43 82 44
REMARK SMILES IDX 30 45 85 46 79 47 78 48 31 50 65 51 44 52 64 53 45 54 48 55
REMARK SMILES IDX 63 56 83 57 46 58 47 59 62 61 84 62 49 63 32 64 33 65 42 66
REMARK SMILES IDX 34 67 35 68 41 69 43 70 36 71 37 72 38 73 39 74 40 75 66 76
REMARK SMILES IDX 67 77 76 78 68 79 69 80 75 81 77 82 70 83 71 84 72 85 73 86
REMARK SMILES IDX 74 87 50 88 51 89 60 90 52 91 53 92 59 93 61 94 54 95 55 96
REMARK SMILES IDX 56 97 57 98 58 99
REMARK H PARENT 13 7 20 30 82 49 48 60
REMARK Flexibility Score: inf
ROOT
ATOM      1  C   UNL A   1      37.544  31.132  33.385  1.00  0.00     0.002 C 
ENDROOT
BRANCH   1   2
ATOM      2  C   UNL A   1      38.610  30.062  33.137  1.00  0.00     0.021 C 
BRANCH   2   3
ATOM      3  C   UNL A   1      39.796  30.018  34.093  1.00  0.00     0.116 C 
BRANCH   3   4
ATOM      4  N   UNL A   1      41.057  29.701  33.445  1.00  0.00    -0.356 N 
ATOM      5  C   UNL A   1      41.740  28.524  33.356  1.00  0.00     0.221 C 
ATOM      6  O   UNL A   1      42.767  28.500  32.670  1.00  0.00    -0.275 OA
ATOM      7  H   UNL A   1      41.490  30.462  32.993  1.00  0.00     0.163 HD
BRANCH   5   8
ATOM      8  C   UNL A   1      41.282  27.282  34.088  1.00  0.00     0.121 C 
BRANCH   8   9
ATOM      9  C   UNL A   1      41.908  27.117  35.480  1.00  0.00     0.127 C 
BRANCH   9  10
ATOM     10  N   UNL A   1      43.337  26.675  35.490  1.00  0.00    -0.367 N 
BRANCH  10  11
ATOM     11  C   UNL A   1      44.310  27.615  36.211  1.00  0.00     0.092 C 
ATOM     12  C   UNL A   1      45.032  30.617  37.108  1.00  0.00     0.012 C 
ATOM     13  C   UNL A   1      45.867  29.749  36.144  1.00  0.00    -0.024 C 
ATOM     14  C   UNL A   1      46.490  30.708  35.099  1.00  0.00     0.012 C 
ATOM     15  C   UNL A   1      47.016  29.039  36.884  1.00  0.00     0.076 C 
ATOM     16  C   UNL A   1      45.010  28.705  35.369  1.00  0.00     0.033 C 
ATOM     17  S   UNL A   1      46.450  27.797  38.083  1.00  0.00    -0.159 SA
ATOM     18  C   UNL A   1      45.358  26.808  37.009  1.00  0.00     0.094 C 
ENDBRANCH  10  11
BRANCH  10  19
ATOM     19  C   UNL A   1      43.666  25.611  34.639  1.00  0.00     0.037 A 
ATOM     20  C   UNL A   1      43.248  24.284  34.892  1.00  0.00     0.026 A 
ATOM     21  C   UNL A   1      44.414  25.750  33.465  1.00  0.00     0.026 A 
ATOM     22  C   UNL A   1      43.412  23.225  33.989  1.00  0.00     0.002 A 
ATOM     23  C   UNL A   1      44.587  24.703  32.541  1.00  0.00     0.002 A 
ATOM     24  C   UNL A   1      44.060  23.443  32.789  1.00  0.00     0.000 A 
ENDBRANCH  10  19
ENDBRANCH   9  10
ENDBRANCH   8   9
ENDBRANCH   5   8
ENDBRANCH   3   4
ENDBRANCH   2   3
ENDBRANCH   1   2
BRANCH   1  25
ATOM     25  C   UNL A   1      37.217  32.008  32.171  1.00  0.00     0.002 C 
BRANCH  25  26
ATOM     26  C   UNL A   1      35.759  31.975  31.692  1.00  0.00     0.021 C 
BRANCH  26  27
ATOM     27  C   UNL A   1      35.512  32.556  30.299  1.00  0.00     0.116 C 
BRANCH  27  28
ATOM     28  N   UNL A   1      34.604  31.729  29.515  1.00  0.00    -0.352 N 
ATOM     29  C   UNL A   1      34.893  30.675  28.675  1.00  0.00     0.251 C 
ATOM     30  H   UNL A   1      33.649  31.956  29.595  1.00  0.00     0.163 HD
ATOM     31  O   UNL A   1      34.044  30.241  27.909  1.00  0.00    -0.269 OA
BRANCH  29  32
ATOM     32  C   UNL A   1      36.250  30.086  28.691  1.00  0.00     0.039 A 
ATOM     33  C   UNL A   1      37.099  30.294  27.602  1.00  0.00     0.014 A 
ATOM     34  C   UNL A   1      36.688  29.347  29.793  1.00  0.00     0.014 A 
ATOM     35  C   UNL A   1      38.423  29.846  27.663  1.00  0.00     0.010 A 
ATOM     36  C   UNL A   1      38.023  28.956  29.879  1.00  0.00     0.010 A 
ATOM     37  C   UNL A   1      38.912  29.224  28.824  1.00  0.00    -0.014 A 
BRANCH  37  38
ATOM     38  C   UNL A   1      40.359  28.915  28.986  1.00  0.00     0.031 A 
ATOM     39  C   UNL A   1      40.906  27.569  28.596  1.00  0.00     0.074 A 
ATOM     40  C   UNL A   1      41.163  29.827  29.571  1.00  0.00     0.049 A 
ATOM     41  N   UNL A   1      42.118  27.098  28.744  1.00  0.00    -0.248 NA
ATOM     42  C   UNL A   1      39.967  26.619  27.978  1.00  0.00     0.031 C 
ATOM     43  C   UNL A   1      40.743  31.152  30.034  1.00  0.00     0.029 A 
ATOM     44  N   UNL A   1      42.499  29.777  29.891  1.00  0.00    -0.354 N 
ATOM     45  C   UNL A   1      42.086  25.797  28.254  1.00  0.00     0.074 A 
ATOM     46  C   UNL A   1      40.723  25.539  27.839  1.00  0.00     0.031 C 
ATOM     47  C   UNL A   1      41.800  31.796  30.554  1.00  0.00     0.029 A 
ATOM     48  C   UNL A   1      42.963  30.915  30.511  1.00  0.00     0.049 A 
ATOM     49  H   UNL A   1      43.071  29.001  29.694  1.00  0.00     0.167 HD
ATOM     50  C   UNL A   1      43.102  24.908  28.149  1.00  0.00     0.037 A 
ATOM     51  C   UNL A   1      44.180  31.213  31.007  1.00  0.00     0.037 A 
ATOM     52  C   UNL A   1      44.460  25.184  28.543  1.00  0.00     0.049 A 
ATOM     53  C   UNL A   1      45.281  30.191  30.906  1.00  0.00     0.074 A 
ATOM     54  C   UNL A   1      45.576  24.377  28.394  1.00  0.00     0.029 A 
ATOM     55  N   UNL A   1      44.888  26.342  29.174  1.00  0.00    -0.354 N 
ATOM     56  N   UNL A   1      45.252  29.001  30.354  1.00  0.00    -0.248 NA
ATOM     57  C   UNL A   1      46.577  30.546  31.501  1.00  0.00     0.031 C 
ATOM     58  C   UNL A   1      46.664  25.019  28.994  1.00  0.00     0.029 A 
ATOM     59  C   UNL A   1      46.240  26.252  29.464  1.00  0.00     0.049 A 
ATOM     60  H   UNL A   1      44.315  27.115  29.384  1.00  0.00     0.167 HD
ATOM     61  C   UNL A   1      46.530  28.476  30.518  1.00  0.00     0.074 A 
ATOM     62  C   UNL A   1      47.314  29.485  31.200  1.00  0.00     0.031 C 
ATOM     63  C   UNL A   1      47.009  27.265  30.143  1.00  0.00     0.037 A 
BRANCH  50  64
ATOM     64  C   UNL A   1      42.798  23.545  27.590  1.00  0.00     0.058 A 
ATOM     65  C   UNL A   1      42.859  23.279  26.212  1.00  0.00     0.135 A 
ATOM     66  C   UNL A   1      42.523  22.469  28.451  1.00  0.00     0.135 A 
ATOM     67  F   UNL A   1      43.105  24.271  25.342  1.00  0.00    -0.206 F 
ATOM     68  C   UNL A   1      42.643  22.000  25.708  1.00  0.00     0.059 A 
ATOM     69  C   UNL A   1      42.332  21.177  27.971  1.00  0.00     0.059 A 
ATOM     70  F   UNL A   1      42.452  22.667  29.776  1.00  0.00    -0.206 F 
ATOM     71  C   UNL A   1      42.388  20.954  26.596  1.00  0.00     0.060 A 
BRANCH  71  72
ATOM     72  S   UNL A   1      42.144  19.295  25.925  1.00  0.00     0.124 S 
ATOM     73  O   UNL A   1      42.972  19.343  24.724  1.00  0.00    -0.237 OA
ATOM     74  O   UNL A   1      42.642  18.449  27.005  1.00  0.00    -0.237 OA
ATOM     75  O   UNL A   1      40.705  19.229  25.693  1.00  0.00    -0.744 OA
ENDBRANCH  71  72
ENDBRANCH  50  64
BRANCH  51  76
ATOM     76  C   UNL A   1      44.431  32.532  31.651  1.00  0.00     0.058 A 
ATOM     77  C   UNL A   1      44.972  33.599  30.919  1.00  0.00     0.135 A 
ATOM     78  C   UNL A   1      44.151  32.750  33.010  1.00  0.00     0.135 A 
ATOM     79  F   UNL A   1      45.265  33.440  29.619  1.00  0.00    -0.206 F 
ATOM     80  C   UNL A   1      45.253  34.825  31.515  1.00  0.00     0.059 A 
ATOM     81  C   UNL A   1      44.393  33.976  33.620  1.00  0.00     0.059 A 
ATOM     82  F   UNL A   1      43.617  31.767  33.754  1.00  0.00    -0.206 F 
ATOM     83  C   UNL A   1      44.958  35.003  32.867  1.00  0.00     0.060 A 
BRANCH  83  84
ATOM     84  S   UNL A   1      45.300  36.608  33.622  1.00  0.00     0.124 S 
ATOM     85  O   UNL A   1      46.446  36.296  34.468  1.00  0.00    -0.237 OA
ATOM     86  O   UNL A   1      45.571  37.443  32.457  1.00  0.00    -0.237 OA
ATOM     87  O   UNL A   1      44.059  36.915  34.329  1.00  0.00    -0.744 OA
ENDBRANCH  83  84
ENDBRANCH  51  76
BRANCH  63  88
ATOM     88  C   UNL A   1      48.449  26.959  30.453  1.00  0.00     0.058 A 
ATOM     89  C   UNL A   1      49.482  27.337  29.581  1.00  0.00     0.135 A 
ATOM     90  C   UNL A   1      48.806  26.342  31.663  1.00  0.00     0.135 A 
ATOM     91  F   UNL A   1      49.196  27.919  28.405  1.00  0.00    -0.206 F 
ATOM     92  C   UNL A   1      50.818  27.103  29.892  1.00  0.00     0.059 A 
ATOM     93  C   UNL A   1      50.137  26.126  32.008  1.00  0.00     0.059 A 
ATOM     94  F   UNL A   1      47.858  25.966  32.536  1.00  0.00    -0.206 F 
ATOM     95  C   UNL A   1      51.136  26.503  31.113  1.00  0.00     0.060 A 
BRANCH  95  96
ATOM     96  S   UNL A   1      52.876  26.259  31.525  1.00  0.00     0.124 S 
ATOM     97  O   UNL A   1      53.504  26.334  30.210  1.00  0.00    -0.237 OA
ATOM     98  O   UNL A   1      53.143  27.380  32.421  1.00  0.00    -0.237 OA
ATOM     99  O   UNL A   1      52.895  24.942  32.155  1.00  0.00    -0.744 OA
ENDBRANCH  95  96
ENDBRANCH  63  88
ENDBRANCH  37  38
ENDBRANCH  29  32
ENDBRANCH  27  28
ENDBRANCH  26  27
ENDBRANCH  25  26
ENDBRANCH   1  25
TORSDOF 20
ENDMDL
MODEL 3
REMARK VINA RESULT:     -10.5      1.508      8.569
REMARK SMILES CC1(C)CSC[C@H](N(CCC(=O)NCCCCCCNC(=O)c2ccc(-c3c4nc(c(-c5c(F)cc(S(=O)(=O)[O-])cc5F)c5ccc([nH]5)c(-c5c(F)cc(S(=O)(=O)[O-])cc5F)c5nc(c(-c6c(F)cc(S(=O)(=O)[O-])cc6F)c6ccc3[nH]6)C=C5)C=C4)cc2)c2ccccc2)C1
REMARK SMILES IDX 16 1 15 2 14 3 13 4 11 5 12 6 10 8 9 9 8 10 7 11 1 12 2 13
REMARK SMILES IDX 3 14 4 15 95 16 5 17 6 18 89 19 90 20 94 21 91 22 93 23
REMARK SMILES IDX 92 24 17 25 18 26 19 27 20 28 21 29 22 31 23 32 24 33 88 34
REMARK SMILES IDX 25 35 87 36 26 37 27 38 28 39 81 40 29 41 86 42 80 43 82 44
REMARK SMILES IDX 30 45 85 46 79 47 78 48 31 50 65 51 44 52 64 53 45 54 48 55
REMARK SMILES IDX 63 56 83 57 46 58 47 59 62 61 84 62 49 63 32 64 33 65 42 66
REMARK SMILES IDX 34 67 35 68 41 69 43 70 36 71 37 72 38 73 39 74 40 75 66 76
REMARK SMILES IDX 67 77 76 78 68 79 69 80 75 81 77 82 70 83 71 84 72 85 73 86
REMARK SMILES IDX 74 87 50 88 51 89 60 90 52 91 53 92 59 93 61 94 54 95 55 96
REMARK SMILES IDX 56 97 57 98 58 99
REMARK H PARENT 13 7 20 30 82 49 48 60
REMARK Flexibility Score: inf
ROOT
ATOM      1  C   UNL A   1      39.200  24.736  26.514  1.00  0.00     0.002 C 
ENDROOT
BRANCH   1   2
ATOM      2  C   UNL A   1      39.350  23.325  27.088  1.00  0.00     0.021 C 
BRANCH   2   3
ATOM      3  C   UNL A   1      39.030  22.155  26.166  1.00  0.00     0.116 C 
BRANCH   3   4
ATOM      4  N   UNL A   1      38.260  22.531  24.991  1.00  0.00    -0.356 N 
ATOM      5  C   UNL A   1      37.017  22.149  24.584  1.00  0.00     0.221 C 
ATOM      6  O   UNL A   1      36.549  22.682  23.573  1.00  0.00    -0.275 OA
ATOM      7  H   UNL A   1      38.712  23.168  24.391  1.00  0.00     0.163 HD
BRANCH   5   8
ATOM      8  C   UNL A   1      36.229  21.089  25.322  1.00  0.00     0.121 C 
BRANCH   8   9
ATOM      9  C   UNL A   1      34.963  21.622  26.006  1.00  0.00     0.127 C 
BRANCH   9  10
ATOM     10  N   UNL A   1      33.711  21.536  25.193  1.00  0.00    -0.367 N 
BRANCH  10  11
ATOM     11  C   UNL A   1      33.005  22.871  24.929  1.00  0.00     0.092 C 
ATOM     12  C   UNL A   1      30.744  24.479  23.305  1.00  0.00     0.012 C 
ATOM     13  C   UNL A   1      32.262  24.741  23.217  1.00  0.00    -0.024 C 
ATOM     14  C   UNL A   1      32.560  25.177  21.761  1.00  0.00     0.012 C 
ATOM     15  C   UNL A   1      32.686  25.887  24.154  1.00  0.00     0.076 C 
ATOM     16  C   UNL A   1      33.116  23.472  23.510  1.00  0.00     0.033 C 
ATOM     17  S   UNL A   1      32.493  25.494  25.917  1.00  0.00    -0.159 SA
ATOM     18  C   UNL A   1      33.416  23.923  25.984  1.00  0.00     0.094 C 
ENDBRANCH  10  11
BRANCH  10  19
ATOM     19  C   UNL A   1      33.190  20.251  24.985  1.00  0.00     0.037 A 
ATOM     20  C   UNL A   1      32.760  19.807  23.714  1.00  0.00     0.026 A 
ATOM     21  C   UNL A   1      33.062  19.287  25.991  1.00  0.00     0.026 A 
ATOM     22  C   UNL A   1      32.390  18.485  23.430  1.00  0.00     0.002 A 
ATOM     23  C   UNL A   1      32.697  17.953  25.729  1.00  0.00     0.002 A 
ATOM     24  C   UNL A   1      32.388  17.542  24.439  1.00  0.00     0.000 A 
ENDBRANCH  10  19
ENDBRANCH   9  10
ENDBRANCH   8   9
ENDBRANCH   5   8
ENDBRANCH   3   4
ENDBRANCH   2   3
ENDBRANCH   1   2
BRANCH   1  25
ATOM     25  C   UNL A   1      40.506  25.532  26.413  1.00  0.00     0.002 C 
BRANCH  25  26
ATOM     26  C   UNL A   1      41.680  24.814  25.732  1.00  0.00     0.021 C 
BRANCH  26  27
ATOM     27  C   UNL A   1      42.761  25.727  25.151  1.00  0.00     0.116 C 
BRANCH  27  28
ATOM     28  N   UNL A   1      44.085  25.402  25.664  1.00  0.00    -0.352 N 
ATOM     29  C   UNL A   1      44.724  25.879  26.788  1.00  0.00     0.251 C 
ATOM     30  H   UNL A   1      44.596  24.749  25.132  1.00  0.00     0.163 HD
ATOM     31  O   UNL A   1      45.922  25.689  26.948  1.00  0.00    -0.269 OA
BRANCH  29  32
ATOM     32  C   UNL A   1      43.953  26.648  27.790  1.00  0.00     0.039 A 
ATOM     33  C   UNL A   1      43.225  25.963  28.765  1.00  0.00     0.014 A 
ATOM     34  C   UNL A   1      43.968  28.045  27.775  1.00  0.00     0.014 A 
ATOM     35  C   UNL A   1      42.595  26.681  29.787  1.00  0.00     0.010 A 
ATOM     36  C   UNL A   1      43.394  28.755  28.827  1.00  0.00     0.010 A 
ATOM     37  C   UNL A   1      42.722  28.079  29.858  1.00  0.00    -0.014 A 
BRANCH  37  38
ATOM     38  C   UNL A   1      42.227  28.841  31.037  1.00  0.00     0.031 A 
ATOM     39  C   UNL A   1      40.981  29.679  30.943  1.00  0.00     0.074 A 
ATOM     40  C   UNL A   1      42.958  28.845  32.171  1.00  0.00     0.049 A 
ATOM     41  N   UNL A   1      40.452  30.472  31.839  1.00  0.00    -0.248 NA
ATOM     42  C   UNL A   1      40.243  29.639  29.670  1.00  0.00     0.031 C 
ATOM     43  C   UNL A   1      44.209  28.107  32.373  1.00  0.00     0.029 A 
ATOM     44  N   UNL A   1      42.768  29.498  33.365  1.00  0.00    -0.354 N 
ATOM     45  C   UNL A   1      39.332  31.036  31.238  1.00  0.00     0.074 A 
ATOM     46  C   UNL A   1      39.279  30.523  29.886  1.00  0.00     0.031 C 
ATOM     47  C   UNL A   1      44.658  28.330  33.618  1.00  0.00     0.029 A 
ATOM     48  C   UNL A   1      43.760  29.265  34.289  1.00  0.00     0.049 A 
ATOM     49  H   UNL A   1      41.993  30.080  33.543  1.00  0.00     0.167 HD
ATOM     50  C   UNL A   1      38.426  31.891  31.772  1.00  0.00     0.037 A 
ATOM     51  C   UNL A   1      43.941  29.760  35.530  1.00  0.00     0.037 A 
ATOM     52  C   UNL A   1      38.475  32.377  33.127  1.00  0.00     0.049 A 
ATOM     53  C   UNL A   1      42.935  30.734  36.083  1.00  0.00     0.074 A 
ATOM     54  C   UNL A   1      37.555  33.176  33.785  1.00  0.00     0.029 A 
ATOM     55  N   UNL A   1      39.498  32.125  34.028  1.00  0.00    -0.354 N 
ATOM     56  N   UNL A   1      41.833  31.181  35.531  1.00  0.00    -0.248 NA
ATOM     57  C   UNL A   1      43.201  31.278  37.422  1.00  0.00     0.031 C 
ATOM     58  C   UNL A   1      38.055  33.462  35.059  1.00  0.00     0.029 A 
ATOM     59  C   UNL A   1      39.257  32.792  35.218  1.00  0.00     0.049 A 
ATOM     60  H   UNL A   1      40.282  31.555  33.849  1.00  0.00     0.167 HD
ATOM     61  C   UNL A   1      41.264  32.043  36.464  1.00  0.00     0.074 A 
ATOM     62  C   UNL A   1      42.131  32.037  37.623  1.00  0.00     0.031 C 
ATOM     63  C   UNL A   1      40.129  32.777  36.366  1.00  0.00     0.037 A 
BRANCH  50  64
ATOM     64  C   UNL A   1      37.300  32.368  30.896  1.00  0.00     0.058 A 
ATOM     65  C   UNL A   1      36.069  31.696  30.841  1.00  0.00     0.135 A 
ATOM     66  C   UNL A   1      37.424  33.563  30.167  1.00  0.00     0.135 A 
ATOM     67  F   UNL A   1      35.897  30.543  31.507  1.00  0.00    -0.206 F 
ATOM     68  C   UNL A   1      35.008  32.181  30.082  1.00  0.00     0.059 A 
ATOM     69  C   UNL A   1      36.368  34.082  29.424  1.00  0.00     0.059 A 
ATOM     70  F   UNL A   1      38.579  34.247  30.184  1.00  0.00    -0.206 F 
ATOM     71  C   UNL A   1      35.165  33.379  29.383  1.00  0.00     0.060 A 
BRANCH  71  72
ATOM     72  S   UNL A   1      33.766  34.010  28.431  1.00  0.00     0.124 S 
ATOM     73  O   UNL A   1      33.274  32.792  27.795  1.00  0.00    -0.237 OA
ATOM     74  O   UNL A   1      32.912  34.571  29.473  1.00  0.00    -0.237 OA
ATOM     75  O   UNL A   1      34.376  34.985  27.533  1.00  0.00    -0.744 OA
ENDBRANCH  71  72
ENDBRANCH  50  64
BRANCH  51  76
ATOM     76  C   UNL A   1      45.122  29.351  36.340  1.00  0.00     0.058 A 
ATOM     77  C   UNL A   1      46.339  30.041  36.238  1.00  0.00     0.135 A 
ATOM     78  C   UNL A   1      45.066  28.257  37.219  1.00  0.00     0.135 A 
ATOM     79  F   UNL A   1      46.447  31.089  35.406  1.00  0.00    -0.206 F 
ATOM     80  C   UNL A   1      47.464  29.648  36.955  1.00  0.00     0.059 A 
ATOM     81  C   UNL A   1      46.168  27.864  37.970  1.00  0.00     0.059 A 
ATOM     82  F   UNL A   1      43.921  27.571  37.368  1.00  0.00    -0.206 F 
ATOM     83  C   UNL A   1      47.368  28.557  37.820  1.00  0.00     0.060 A 
BRANCH  83  84
ATOM     84  S   UNL A   1      48.827  28.073  38.768  1.00  0.00     0.124 S 
ATOM     85  O   UNL A   1      49.713  27.588  37.715  1.00  0.00    -0.237 OA
ATOM     86  O   UNL A   1      49.212  29.330  39.400  1.00  0.00    -0.237 OA
ATOM     87  O   UNL A   1      48.312  27.054  39.678  1.00  0.00    -0.744 OA
ENDBRANCH  83  84
ENDBRANCH  51  76
BRANCH  63  88
ATOM     88  C   UNL A   1      39.749  33.633  37.544  1.00  0.00     0.058 A 
ATOM     89  C   UNL A   1      38.860  33.172  38.527  1.00  0.00     0.135 A 
ATOM     90  C   UNL A   1      40.331  34.898  37.727  1.00  0.00     0.135 A 
ATOM     91  F   UNL A   1      38.267  31.975  38.396  1.00  0.00    -0.206 F 
ATOM     92  C   UNL A   1      38.550  33.941  39.645  1.00  0.00     0.059 A 
ATOM     93  C   UNL A   1      40.059  35.671  38.852  1.00  0.00     0.059 A 
ATOM     94  F   UNL A   1      41.193  35.384  36.820  1.00  0.00    -0.206 F 
ATOM     95  C   UNL A   1      39.162  35.187  39.802  1.00  0.00     0.060 A 
BRANCH  95  96
ATOM     96  S   UNL A   1      38.793  36.147  41.286  1.00  0.00     0.124 S 
ATOM     97  O   UNL A   1      38.592  37.482  40.731  1.00  0.00    -0.237 OA
ATOM     98  O   UNL A   1      37.595  35.484  41.794  1.00  0.00    -0.237 OA
ATOM     99  O   UNL A   1      39.990  35.982  42.105  1.00  0.00    -0.744 OA
ENDBRANCH  95  96
ENDBRANCH  63  88
ENDBRANCH  37  38
ENDBRANCH  29  32
ENDBRANCH  27  28
ENDBRANCH  26  27
ENDBRANCH  25  26
ENDBRANCH   1  25
TORSDOF 20
ENDMDL
