MODEL 1
REMARK VINA RESULT:     -11.4      0.000      0.000
REMARK SMILES O=C(NCCCCCCNC(=O)c1cc([N+](=O)[O-])c(NCCC2=CCCCC2)c([N+](=O)[O-])c1)c1ccc(-c2c3nc(c(-c4c(F)cc(S(=O)(=O)[O-])cc4F)c4ccc([nH]4)c(-c4c(F)cc(S(=O)(=O)[O-])cc4F)c4nc(c(-c5c(F)cc(S(=O)(=O)[O-])cc5F)c5ccc2[nH]5)C=C4)C=C3)cc1
REMARK SMILES IDX 7 1 6 2 5 3 4 4 3 5 1 6 2 7 34 9 35 10 99 11 36 12 98 13
REMARK SMILES IDX 37 14 38 15 39 16 92 17 40 18 97 19 91 20 93 21 41 22 96 23
REMARK SMILES IDX 90 24 89 25 42 27 76 28 55 29 75 30 56 31 59 32 74 33 94 34
REMARK SMILES IDX 57 35 58 36 73 38 95 39 60 40 43 41 44 42 53 43 45 44 46 45
REMARK SMILES IDX 52 46 54 47 47 48 48 49 49 50 50 51 51 52 77 53 78 54 87 55
REMARK SMILES IDX 79 56 80 57 86 58 88 59 81 60 82 61 83 62 84 63 85 64 61 65
REMARK SMILES IDX 62 66 71 67 63 68 64 69 70 70 72 71 65 72 66 73 67 74 68 75
REMARK SMILES IDX 69 76 8 77 9 78 10 79 11 80 12 82 13 83 14 84 33 85 15 86
REMARK SMILES IDX 29 87 19 88 16 89 17 90 18 91 30 92 31 93 32 94 20 95 21 97
REMARK SMILES IDX 22 98 23 99 24 100 28 101 25 102 27 103 26 104
REMARK H PARENT 3 8 93 26 59 37 10 81 20 96
REMARK Flexibility Score: inf
ROOT
ATOM      1  C   UNL A   1      37.144  21.557  24.411  1.00  0.00     0.002 C 
ENDROOT
BRANCH   1   2
ATOM      2  C   UNL A   1      38.099  22.181  25.434  1.00  0.00     0.002 C 
BRANCH   2   3
ATOM      3  C   UNL A   1      37.508  23.302  26.293  1.00  0.00     0.021 C 
BRANCH   3   4
ATOM      4  C   UNL A   1      38.310  24.601  26.314  1.00  0.00     0.116 C 
BRANCH   4   5
ATOM      5  N   UNL A   1      39.722  24.383  26.054  1.00  0.00    -0.352 N 
ATOM      6  O   UNL A   1      41.931  24.802  26.141  1.00  0.00    -0.269 OA
ATOM      7  C   UNL A   1      40.814  24.999  26.612  1.00  0.00     0.251 C 
ATOM      8  H   UNL A   1      39.925  23.694  25.382  1.00  0.00     0.163 HD
BRANCH   7   9
ATOM      9  C   UNL A   1      40.644  25.912  27.764  1.00  0.00     0.039 A 
ATOM     10  C   UNL A   1      39.603  25.733  28.680  1.00  0.00     0.014 A 
ATOM     11  C   UNL A   1      41.570  26.942  27.945  1.00  0.00     0.014 A 
ATOM     12  C   UNL A   1      39.429  26.643  29.721  1.00  0.00     0.010 A 
ATOM     13  C   UNL A   1      41.428  27.820  29.022  1.00  0.00     0.010 A 
ATOM     14  C   UNL A   1      40.345  27.688  29.907  1.00  0.00    -0.014 A 
BRANCH  14  15
ATOM     15  C   UNL A   1      40.211  28.611  31.060  1.00  0.00     0.031 A 
ATOM     16  C   UNL A   1      39.213  29.732  31.033  1.00  0.00     0.074 A 
ATOM     17  C   UNL A   1      41.033  28.461  32.116  1.00  0.00     0.049 A 
ATOM     18  N   UNL A   1      39.024  30.689  31.905  1.00  0.00    -0.248 NA
ATOM     19  C   UNL A   1      38.317  29.792  29.869  1.00  0.00     0.031 C 
ATOM     20  C   UNL A   1      42.050  27.416  32.246  1.00  0.00     0.029 A 
ATOM     21  N   UNL A   1      41.160  29.196  33.266  1.00  0.00    -0.354 N 
ATOM     22  C   UNL A   1      38.008  31.481  31.386  1.00  0.00     0.074 A 
ATOM     23  C   UNL A   1      37.631  30.900  30.114  1.00  0.00     0.031 C 
ATOM     24  C   UNL A   1      42.700  27.579  33.408  1.00  0.00     0.029 A 
ATOM     25  C   UNL A   1      42.182  28.768  34.078  1.00  0.00     0.049 A 
ATOM     26  H   UNL A   1      40.576  29.956  33.489  1.00  0.00     0.167 HD
ATOM     27  C   UNL A   1      37.444  32.591  31.923  1.00  0.00     0.037 A 
ATOM     28  C   UNL A   1      42.675  29.290  35.218  1.00  0.00     0.037 A 
ATOM     29  C   UNL A   1      37.824  33.155  33.192  1.00  0.00     0.049 A 
ATOM     30  C   UNL A   1      42.047  30.526  35.790  1.00  0.00     0.074 A 
ATOM     31  C   UNL A   1      37.281  34.248  33.844  1.00  0.00     0.029 A 
ATOM     32  N   UNL A   1      38.850  32.679  33.996  1.00  0.00    -0.354 N 
ATOM     33  N   UNL A   1      41.056  31.238  35.311  1.00  0.00    -0.248 NA
ATOM     34  C   UNL A   1      42.598  31.032  37.053  1.00  0.00     0.031 C 
ATOM     35  C   UNL A   1      38.005  34.456  35.024  1.00  0.00     0.029 A 
ATOM     36  C   UNL A   1      38.972  33.469  35.127  1.00  0.00     0.049 A 
ATOM     37  H   UNL A   1      39.409  31.895  33.791  1.00  0.00     0.167 HD
ATOM     38  C   UNL A   1      40.851  32.267  36.221  1.00  0.00     0.074 A 
ATOM     39  C   UNL A   1      41.821  32.083  37.283  1.00  0.00     0.031 C 
ATOM     40  C   UNL A   1      39.939  33.269  36.180  1.00  0.00     0.037 A 
BRANCH  27  41
ATOM     41  C   UNL A   1      36.379  33.282  31.117  1.00  0.00     0.058 A 
ATOM     42  C   UNL A   1      36.678  33.969  29.930  1.00  0.00     0.135 A 
ATOM     43  C   UNL A   1      35.041  33.259  31.540  1.00  0.00     0.135 A 
ATOM     44  F   UNL A   1      37.943  34.032  29.485  1.00  0.00    -0.206 F 
ATOM     45  C   UNL A   1      35.696  34.649  29.216  1.00  0.00     0.059 A 
ATOM     46  C   UNL A   1      34.038  33.912  30.831  1.00  0.00     0.059 A 
ATOM     47  F   UNL A   1      34.699  32.612  32.666  1.00  0.00    -0.206 F 
ATOM     48  C   UNL A   1      34.380  34.625  29.683  1.00  0.00     0.060 A 
BRANCH  48  49
ATOM     49  S   UNL A   1      33.123  35.553  28.777  1.00  0.00     0.124 S 
ATOM     50  O   UNL A   1      33.944  36.519  28.052  1.00  0.00    -0.237 OA
ATOM     51  O   UNL A   1      32.492  34.520  27.961  1.00  0.00    -0.237 OA
ATOM     52  O   UNL A   1      32.285  36.110  29.835  1.00  0.00    -0.744 OA
ENDBRANCH  48  49
ENDBRANCH  27  41
BRANCH  28  53
ATOM     53  C   UNL A   1      43.833  28.626  35.867  1.00  0.00     0.058 A 
ATOM     54  C   UNL A   1      43.651  27.534  36.725  1.00  0.00     0.135 A 
ATOM     55  C   UNL A   1      45.149  29.006  35.555  1.00  0.00     0.135 A 
ATOM     56  F   UNL A   1      42.412  27.138  37.054  1.00  0.00    -0.206 F 
ATOM     57  C   UNL A   1      44.732  26.828  37.241  1.00  0.00     0.059 A 
ATOM     58  C   UNL A   1      46.246  28.304  36.042  1.00  0.00     0.059 A 
ATOM     59  F   UNL A   1      45.370  30.034  34.722  1.00  0.00    -0.206 F 
ATOM     60  C   UNL A   1      46.027  27.213  36.883  1.00  0.00     0.060 A 
BRANCH  60  61
ATOM     61  S   UNL A   1      47.419  26.220  37.464  1.00  0.00     0.124 S 
ATOM     62  O   UNL A   1      47.020  24.882  37.045  1.00  0.00    -0.237 OA
ATOM     63  O   UNL A   1      48.541  26.808  36.739  1.00  0.00    -0.237 OA
ATOM     64  O   UNL A   1      47.422  26.458  38.904  1.00  0.00    -0.744 OA
ENDBRANCH  60  61
ENDBRANCH  28  53
BRANCH  40  65
ATOM     65  C   UNL A   1      39.915  34.236  37.329  1.00  0.00     0.058 A 
ATOM     66  C   UNL A   1      40.596  35.461  37.270  1.00  0.00     0.135 A 
ATOM     67  C   UNL A   1      39.124  33.974  38.458  1.00  0.00     0.135 A 
ATOM     68  F   UNL A   1      41.373  35.753  36.216  1.00  0.00    -0.206 F 
ATOM     69  C   UNL A   1      40.488  36.398  38.294  1.00  0.00     0.059 A 
ATOM     70  C   UNL A   1      38.988  34.903  39.484  1.00  0.00     0.059 A 
ATOM     71  F   UNL A   1      38.450  32.816  38.557  1.00  0.00    -0.206 F 
ATOM     72  C   UNL A   1      39.675  36.113  39.393  1.00  0.00     0.060 A 
BRANCH  72  73
ATOM     73  S   UNL A   1      39.479  37.368  40.677  1.00  0.00     0.124 S 
ATOM     74  O   UNL A   1      39.105  36.554  41.828  1.00  0.00    -0.237 OA
ATOM     75  O   UNL A   1      40.807  37.971  40.731  1.00  0.00    -0.237 OA
ATOM     76  O   UNL A   1      38.427  38.231  40.149  1.00  0.00    -0.744 OA
ENDBRANCH  72  73
ENDBRANCH  40  65
ENDBRANCH  14  15
ENDBRANCH   7   9
ENDBRANCH   4   5
ENDBRANCH   3   4
ENDBRANCH   2   3
ENDBRANCH   1   2
BRANCH   1  77
ATOM     77  C   UNL A   1      36.362  20.332  24.892  1.00  0.00     0.021 C 
BRANCH  77  78
ATOM     78  C   UNL A   1      34.923  20.602  25.334  1.00  0.00     0.116 C 
BRANCH  78  79
ATOM     79  N   UNL A   1      33.950  20.023  24.420  1.00  0.00    -0.352 N 
ATOM     80  C   UNL A   1      32.823  20.570  23.871  1.00  0.00     0.251 C 
ATOM     81  H   UNL A   1      34.132  19.092  24.156  1.00  0.00     0.163 HD
ATOM     82  O   UNL A   1      32.031  19.873  23.247  1.00  0.00    -0.269 OA
BRANCH  80  83
ATOM     83  C   UNL A   1      32.532  22.010  24.026  1.00  0.00     0.053 A 
ATOM     84  C   UNL A   1      31.970  22.455  25.218  1.00  0.00     0.102 A 
ATOM     85  C   UNL A   1      32.709  22.908  22.981  1.00  0.00     0.102 A 
ATOM     86  C   UNL A   1      31.651  23.820  25.377  1.00  0.00     0.300 A 
ATOM     87  C   UNL A   1      32.409  24.274  23.173  1.00  0.00     0.300 A 
ATOM     88  C   UNL A   1      31.881  24.800  24.386  1.00  0.00     0.192 A 
BRANCH  86  89
ATOM     89  N   UNL A   1      30.927  24.125  26.594  1.00  0.00     0.065 N 
ATOM     90  O   UNL A   1      31.238  23.478  27.605  1.00  0.00    -0.258 OA
ATOM     91  O   UNL A   1      30.025  24.970  26.526  1.00  0.00    -0.258 OA
ENDBRANCH  86  89
BRANCH  87  92
ATOM     92  N   UNL A   1      32.688  25.149  22.030  1.00  0.00     0.065 N 
ATOM     93  O   UNL A   1      31.722  25.629  21.419  1.00  0.00    -0.258 OA
ATOM     94  O   UNL A   1      33.878  25.334  21.737  1.00  0.00    -0.258 OA
ENDBRANCH  87  92
BRANCH  88  95
ATOM     95  N   UNL A   1      31.696  26.164  24.528  1.00  0.00    -0.374 N 
ATOM     96  H   UNL A   1      30.772  26.470  24.385  1.00  0.00     0.161 HD
BRANCH  95  97
ATOM     97  C   UNL A   1      32.644  27.229  24.852  1.00  0.00     0.118 C 
BRANCH  97  98
ATOM     98  C   UNL A   1      32.008  28.348  25.694  1.00  0.00     0.052 C 
BRANCH  98  99
ATOM     99  C   UNL A   1      32.976  29.254  26.435  1.00  0.00    -0.072 C 
ATOM    100  C   UNL A   1      32.590  30.445  26.933  1.00  0.00    -0.028 C 
ATOM    101  C   UNL A   1      34.376  28.733  26.662  1.00  0.00     0.031 C 
ATOM    102  C   UNL A   1      33.491  31.361  27.716  1.00  0.00     0.027 C 
ATOM    103  C   UNL A   1      35.123  29.450  27.789  1.00  0.00     0.005 C 
ATOM    104  C   UNL A   1      34.964  30.960  27.665  1.00  0.00     0.004 C 
ENDBRANCH  98  99
ENDBRANCH  97  98
ENDBRANCH  95  97
ENDBRANCH  88  95
ENDBRANCH  80  83
ENDBRANCH  78  79
ENDBRANCH  77  78
ENDBRANCH   1  77
TORSDOF 22
ENDMDL
MODEL 2
REMARK VINA RESULT:     -11.4      1.252      8.105
REMARK SMILES O=C(NCCCCCCNC(=O)c1cc([N+](=O)[O-])c(NCCC2=CCCCC2)c([N+](=O)[O-])c1)c1ccc(-c2c3nc(c(-c4c(F)cc(S(=O)(=O)[O-])cc4F)c4ccc([nH]4)c(-c4c(F)cc(S(=O)(=O)[O-])cc4F)c4nc(c(-c5c(F)cc(S(=O)(=O)[O-])cc5F)c5ccc2[nH]5)C=C4)C=C3)cc1
REMARK SMILES IDX 7 1 6 2 5 3 4 4 3 5 1 6 2 7 34 9 35 10 99 11 36 12 98 13
REMARK SMILES IDX 37 14 38 15 39 16 92 17 40 18 97 19 91 20 93 21 41 22 96 23
REMARK SMILES IDX 90 24 89 25 42 27 76 28 55 29 75 30 56 31 59 32 74 33 94 34
REMARK SMILES IDX 57 35 58 36 73 38 95 39 60 40 43 41 44 42 53 43 45 44 46 45
REMARK SMILES IDX 52 46 54 47 47 48 48 49 49 50 50 51 51 52 77 53 78 54 87 55
REMARK SMILES IDX 79 56 80 57 86 58 88 59 81 60 82 61 83 62 84 63 85 64 61 65
REMARK SMILES IDX 62 66 71 67 63 68 64 69 70 70 72 71 65 72 66 73 67 74 68 75
REMARK SMILES IDX 69 76 8 77 9 78 10 79 11 80 12 82 13 83 14 84 33 85 15 86
REMARK SMILES IDX 29 87 19 88 16 89 17 90 18 91 30 92 31 93 32 94 20 95 21 97
REMARK SMILES IDX 22 98 23 99 24 100 28 101 25 102 27 103 26 104
REMARK H PARENT 3 8 93 26 59 37 10 81 20 96
REMARK Flexibility Score: inf
ROOT
ATOM      1  C   UNL A   1      37.613  21.263  24.577  1.00  0.00     0.002 C 
ENDROOT
BRANCH   1   2
ATOM      2  C   UNL A   1      38.257  21.975  25.770  1.00  0.00     0.002 C 
BRANCH   2   3
ATOM      3  C   UNL A   1      37.589  23.283  26.201  1.00  0.00     0.021 C 
BRANCH   3   4
ATOM      4  C   UNL A   1      38.517  24.491  26.297  1.00  0.00     0.116 C 
BRANCH   4   5
ATOM      5  N   UNL A   1      39.912  24.131  26.114  1.00  0.00    -0.352 N 
ATOM      6  O   UNL A   1      42.146  24.369  26.248  1.00  0.00    -0.269 OA
ATOM      7  C   UNL A   1      41.036  24.704  26.655  1.00  0.00     0.251 C 
ATOM      8  H   UNL A   1      40.075  23.366  25.517  1.00  0.00     0.163 HD
BRANCH   7   9
ATOM      9  C   UNL A   1      40.911  25.733  27.710  1.00  0.00     0.039 A 
ATOM     10  C   UNL A   1      39.869  25.689  28.642  1.00  0.00     0.014 A 
ATOM     11  C   UNL A   1      41.880  26.736  27.786  1.00  0.00     0.014 A 
ATOM     12  C   UNL A   1      39.739  26.704  29.588  1.00  0.00     0.010 A 
ATOM     13  C   UNL A   1      41.781  27.722  28.771  1.00  0.00     0.010 A 
ATOM     14  C   UNL A   1      40.699  27.724  29.667  1.00  0.00    -0.014 A 
BRANCH  14  15
ATOM     15  C   UNL A   1      40.611  28.762  30.722  1.00  0.00     0.031 A 
ATOM     16  C   UNL A   1      41.472  28.684  31.949  1.00  0.00     0.074 A 
ATOM     17  C   UNL A   1      39.710  29.753  30.589  1.00  0.00     0.049 A 
ATOM     18  N   UNL A   1      41.463  29.444  33.014  1.00  0.00    -0.248 NA
ATOM     19  C   UNL A   1      42.467  27.602  31.991  1.00  0.00     0.031 C 
ATOM     20  C   UNL A   1      38.811  29.923  29.446  1.00  0.00     0.029 A 
ATOM     21  N   UNL A   1      39.386  30.790  31.426  1.00  0.00    -0.354 N 
ATOM     22  C   UNL A   1      42.429  28.921  33.864  1.00  0.00     0.074 A 
ATOM     23  C   UNL A   1      42.994  27.768  33.196  1.00  0.00     0.031 C 
ATOM     24  C   UNL A   1      38.034  30.996  29.655  1.00  0.00     0.029 A 
ATOM     25  C   UNL A   1      38.343  31.558  30.966  1.00  0.00     0.049 A 
ATOM     26  H   UNL A   1      39.854  30.967  32.273  1.00  0.00     0.167 HD
ATOM     27  C   UNL A   1      42.805  29.364  35.088  1.00  0.00     0.037 A 
ATOM     28  C   UNL A   1      37.683  32.578  31.546  1.00  0.00     0.037 A 
ATOM     29  C   UNL A   1      42.239  30.517  35.739  1.00  0.00     0.049 A 
ATOM     30  C   UNL A   1      38.104  33.046  32.907  1.00  0.00     0.074 A 
ATOM     31  C   UNL A   1      42.586  31.075  36.957  1.00  0.00     0.029 A 
ATOM     32  N   UNL A   1      41.198  31.282  35.230  1.00  0.00    -0.354 N 
ATOM     33  N   UNL A   1      39.051  32.570  33.680  1.00  0.00    -0.248 NA
ATOM     34  C   UNL A   1      37.376  34.186  33.478  1.00  0.00     0.031 C 
ATOM     35  C   UNL A   1      41.727  32.154  37.203  1.00  0.00     0.029 A 
ATOM     36  C   UNL A   1      40.874  32.294  36.120  1.00  0.00     0.049 A 
ATOM     37  H   UNL A   1      40.756  31.128  34.365  1.00  0.00     0.167 HD
ATOM     38  C   UNL A   1      39.045  33.361  34.822  1.00  0.00     0.074 A 
ATOM     39  C   UNL A   1      38.001  34.350  34.638  1.00  0.00     0.031 C 
ATOM     40  C   UNL A   1      39.836  33.276  35.919  1.00  0.00     0.037 A 
BRANCH  27  41
ATOM     41  C   UNL A   1      43.859  28.574  35.813  1.00  0.00     0.058 A 
ATOM     42  C   UNL A   1      45.228  28.846  35.656  1.00  0.00     0.135 A 
ATOM     43  C   UNL A   1      43.495  27.526  36.674  1.00  0.00     0.135 A 
ATOM     44  F   UNL A   1      45.632  29.829  34.836  1.00  0.00    -0.206 F 
ATOM     45  C   UNL A   1      46.200  28.077  36.291  1.00  0.00     0.059 A 
ATOM     46  C   UNL A   1      44.448  26.760  37.337  1.00  0.00     0.059 A 
ATOM     47  F   UNL A   1      42.200  27.227  36.864  1.00  0.00    -0.206 F 
ATOM     48  C   UNL A   1      45.799  27.028  37.119  1.00  0.00     0.060 A 
BRANCH  48  49
ATOM     49  S   UNL A   1      47.068  26.006  37.897  1.00  0.00     0.124 S 
ATOM     50  O   UNL A   1      46.814  24.709  37.277  1.00  0.00    -0.237 OA
ATOM     51  O   UNL A   1      48.303  26.670  37.492  1.00  0.00    -0.237 OA
ATOM     52  O   UNL A   1      46.750  26.094  39.319  1.00  0.00    -0.744 OA
ENDBRANCH  48  49
ENDBRANCH  27  41
BRANCH  28  53
ATOM     53  C   UNL A   1      36.549  33.202  30.819  1.00  0.00     0.058 A 
ATOM     54  C   UNL A   1      35.230  33.037  31.261  1.00  0.00     0.135 A 
ATOM     55  C   UNL A   1      36.777  34.062  29.732  1.00  0.00     0.135 A 
ATOM     56  F   UNL A   1      34.964  32.222  32.293  1.00  0.00    -0.206 F 
ATOM     57  C   UNL A   1      34.174  33.715  30.662  1.00  0.00     0.059 A 
ATOM     58  C   UNL A   1      35.740  34.766  29.129  1.00  0.00     0.059 A 
ATOM     59  F   UNL A   1      38.027  34.265  29.288  1.00  0.00    -0.206 F 
ATOM     60  C   UNL A   1      34.441  34.589  29.604  1.00  0.00     0.060 A 
BRANCH  60  61
ATOM     61  S   UNL A   1      33.081  35.552  28.910  1.00  0.00     0.124 S 
ATOM     62  O   UNL A   1      32.436  34.570  28.046  1.00  0.00    -0.237 OA
ATOM     63  O   UNL A   1      32.336  35.938  30.105  1.00  0.00    -0.237 OA
ATOM     64  O   UNL A   1      33.761  36.647  28.226  1.00  0.00    -0.744 OA
ENDBRANCH  60  61
ENDBRANCH  28  53
BRANCH  40  65
ATOM     65  C   UNL A   1      39.634  34.295  37.004  1.00  0.00     0.058 A 
ATOM     66  C   UNL A   1      38.858  34.016  38.137  1.00  0.00     0.135 A 
ATOM     67  C   UNL A   1      40.305  35.527  36.950  1.00  0.00     0.135 A 
ATOM     68  F   UNL A   1      38.189  32.855  38.230  1.00  0.00    -0.206 F 
ATOM     69  C   UNL A   1      38.757  34.924  39.187  1.00  0.00     0.059 A 
ATOM     70  C   UNL A   1      40.233  36.442  37.995  1.00  0.00     0.059 A 
ATOM     71  F   UNL A   1      41.064  35.838  35.887  1.00  0.00    -0.206 F 
ATOM     72  C   UNL A   1      39.455  36.131  39.111  1.00  0.00     0.060 A 
BRANCH  72  73
ATOM     73  S   UNL A   1      39.381  37.268  40.512  1.00  0.00     0.124 S 
ATOM     74  O   UNL A   1      40.795  37.524  40.757  1.00  0.00    -0.237 OA
ATOM     75  O   UNL A   1      38.617  38.387  39.967  1.00  0.00    -0.237 OA
ATOM     76  O   UNL A   1      38.695  36.492  41.540  1.00  0.00    -0.744 OA
ENDBRANCH  72  73
ENDBRANCH  40  65
ENDBRANCH  14  15
ENDBRANCH   7   9
ENDBRANCH   4   5
ENDBRANCH   3   4
ENDBRANCH   2   3
ENDBRANCH   1   2
BRANCH   1  77
ATOM     77  C   UNL A   1      36.681  20.097  24.921  1.00  0.00     0.021 C 
BRANCH  77  78
ATOM     78  C   UNL A   1      35.286  20.492  25.405  1.00  0.00     0.116 C 
BRANCH  78  79
ATOM     79  N   UNL A   1      34.235  19.809  24.666  1.00  0.00    -0.352 N 
ATOM     80  C   UNL A   1      33.045  20.283  24.186  1.00  0.00     0.251 C 
ATOM     81  H   UNL A   1      34.407  18.857  24.483  1.00  0.00     0.163 HD
ATOM     82  O   UNL A   1      32.207  19.515  23.726  1.00  0.00    -0.269 OA
BRANCH  80  83
ATOM     83  C   UNL A   1      32.741  21.728  24.219  1.00  0.00     0.053 A 
ATOM     84  C   UNL A   1      32.000  22.233  25.282  1.00  0.00     0.102 A 
ATOM     85  C   UNL A   1      33.087  22.571  23.171  1.00  0.00     0.102 A 
ATOM     86  C   UNL A   1      31.668  23.603  25.318  1.00  0.00     0.300 A 
ATOM     87  C   UNL A   1      32.768  23.945  23.242  1.00  0.00     0.300 A 
ATOM     88  C   UNL A   1      32.057  24.531  24.327  1.00  0.00     0.192 A 
BRANCH  86  89
ATOM     89  N   UNL A   1      30.762  23.968  26.388  1.00  0.00     0.065 N 
ATOM     90  O   UNL A   1      31.045  24.986  27.036  1.00  0.00    -0.258 OA
ATOM     91  O   UNL A   1      29.803  23.216  26.606  1.00  0.00    -0.258 OA
ENDBRANCH  86  89
BRANCH  87  92
ATOM     92  N   UNL A   1      33.229  24.761  22.114  1.00  0.00     0.065 N 
ATOM     93  O   UNL A   1      33.953  25.736  22.363  1.00  0.00    -0.258 OA
ATOM     94  O   UNL A   1      32.845  24.429  20.984  1.00  0.00    -0.258 OA
ENDBRANCH  87  92
BRANCH  88  95
ATOM     95  N   UNL A   1      31.860  25.900  24.368  1.00  0.00    -0.374 N 
ATOM     96  H   UNL A   1      32.626  26.415  24.709  1.00  0.00     0.161 HD
BRANCH  95  97
ATOM     97  C   UNL A   1      30.703  26.712  23.991  1.00  0.00     0.118 C 
BRANCH  97  98
ATOM     98  C   UNL A   1      31.092  28.148  23.602  1.00  0.00     0.052 C 
BRANCH  98  99
ATOM     99  C   UNL A   1      29.949  29.144  23.517  1.00  0.00    -0.072 C 
ATOM    100  C   UNL A   1      30.082  30.412  23.956  1.00  0.00    -0.028 C 
ATOM    101  C   UNL A   1      28.676  28.684  22.847  1.00  0.00     0.031 C 
ATOM    102  C   UNL A   1      29.003  31.455  23.854  1.00  0.00     0.027 C 
ATOM    103  C   UNL A   1      27.780  29.832  22.375  1.00  0.00     0.005 C 
ATOM    104  C   UNL A   1      27.639  30.888  23.463  1.00  0.00     0.004 C 
ENDBRANCH  98  99
ENDBRANCH  97  98
ENDBRANCH  95  97
ENDBRANCH  88  95
ENDBRANCH  80  83
ENDBRANCH  78  79
ENDBRANCH  77  78
ENDBRANCH   1  77
TORSDOF 22
ENDMDL
MODEL 3
REMARK VINA RESULT:     -11.1      4.630      8.897
REMARK SMILES O=C(NCCCCCCNC(=O)c1cc([N+](=O)[O-])c(NCCC2=CCCCC2)c([N+](=O)[O-])c1)c1ccc(-c2c3nc(c(-c4c(F)cc(S(=O)(=O)[O-])cc4F)c4ccc([nH]4)c(-c4c(F)cc(S(=O)(=O)[O-])cc4F)c4nc(c(-c5c(F)cc(S(=O)(=O)[O-])cc5F)c5ccc2[nH]5)C=C4)C=C3)cc1
REMARK SMILES IDX 7 1 6 2 5 3 4 4 3 5 1 6 2 7 34 9 35 10 99 11 36 12 98 13
REMARK SMILES IDX 37 14 38 15 39 16 92 17 40 18 97 19 91 20 93 21 41 22 96 23
REMARK SMILES IDX 90 24 89 25 42 27 76 28 55 29 75 30 56 31 59 32 74 33 94 34
REMARK SMILES IDX 57 35 58 36 73 38 95 39 60 40 43 41 44 42 53 43 45 44 46 45
REMARK SMILES IDX 52 46 54 47 47 48 48 49 49 50 50 51 51 52 77 53 78 54 87 55
REMARK SMILES IDX 79 56 80 57 86 58 88 59 81 60 82 61 83 62 84 63 85 64 61 65
REMARK SMILES IDX 62 66 71 67 63 68 64 69 70 70 72 71 65 72 66 73 67 74 68 75
REMARK SMILES IDX 69 76 8 77 9 78 10 79 11 80 12 82 13 83 14 84 33 85 15 86
REMARK SMILES IDX 29 87 19 88 16 89 17 90 18 91 30 92 31 93 32 94 20 95 21 97
REMARK SMILES IDX 22 98 23 99 24 100 28 101 25 102 27 103 26 104
REMARK H PARENT 3 8 93 26 59 37 10 81 20 96
REMARK Flexibility Score: inf
ROOT
ATOM      1  C   UNL A   1      35.037  21.736  25.413  1.00  0.00     0.002 C 
ENDROOT
BRANCH   1   2
ATOM      2  C   UNL A   1      35.513  22.640  24.272  1.00  0.00     0.002 C 
BRANCH   2   3
ATOM      3  C   UNL A   1      36.467  23.767  24.674  1.00  0.00     0.021 C 
BRANCH   3   4
ATOM      4  C   UNL A   1      37.071  23.645  26.071  1.00  0.00     0.116 C 
BRANCH   4   5
ATOM      5  N   UNL A   1      38.098  22.621  26.141  1.00  0.00    -0.352 N 
ATOM      6  O   UNL A   1      40.184  21.787  26.269  1.00  0.00    -0.269 OA
ATOM      7  C   UNL A   1      39.435  22.747  26.425  1.00  0.00     0.251 C 
ATOM      8  H   UNL A   1      37.791  21.704  25.959  1.00  0.00     0.163 HD
BRANCH   7   9
ATOM      9  C   UNL A   1      39.974  24.040  26.899  1.00  0.00     0.039 A 
ATOM     10  C   UNL A   1      40.285  24.243  28.248  1.00  0.00     0.014 A 
ATOM     11  C   UNL A   1      40.206  25.053  25.965  1.00  0.00     0.014 A 
ATOM     12  C   UNL A   1      40.735  25.490  28.678  1.00  0.00     0.010 A 
ATOM     13  C   UNL A   1      40.710  26.284  26.389  1.00  0.00     0.010 A 
ATOM     14  C   UNL A   1      40.961  26.518  27.751  1.00  0.00    -0.014 A 
BRANCH  14  15
ATOM     15  C   UNL A   1      41.515  27.821  28.192  1.00  0.00     0.031 A 
ATOM     16  C   UNL A   1      42.997  28.059  28.204  1.00  0.00     0.074 A 
ATOM     17  C   UNL A   1      40.671  28.775  28.629  1.00  0.00     0.049 A 
ATOM     18  N   UNL A   1      43.662  29.096  28.645  1.00  0.00    -0.248 NA
ATOM     19  C   UNL A   1      43.844  26.988  27.659  1.00  0.00     0.031 C 
ATOM     20  C   UNL A   1      39.214  28.650  28.674  1.00  0.00     0.029 A 
ATOM     21  N   UNL A   1      40.917  30.025  29.137  1.00  0.00    -0.354 N 
ATOM     22  C   UNL A   1      45.005  28.794  28.457  1.00  0.00     0.074 A 
ATOM     23  C   UNL A   1      45.060  27.470  27.875  1.00  0.00     0.031 C 
ATOM     24  C   UNL A   1      38.693  29.775  29.186  1.00  0.00     0.029 A 
ATOM     25  C   UNL A   1      39.781  30.677  29.553  1.00  0.00     0.049 A 
ATOM     26  H   UNL A   1      41.817  30.417  29.197  1.00  0.00     0.167 HD
ATOM     27  C   UNL A   1      46.089  29.555  28.745  1.00  0.00     0.037 A 
ATOM     28  C   UNL A   1      39.629  31.854  30.190  1.00  0.00     0.037 A 
ATOM     29  C   UNL A   1      46.021  30.874  29.319  1.00  0.00     0.049 A 
ATOM     30  C   UNL A   1      40.841  32.675  30.513  1.00  0.00     0.074 A 
ATOM     31  C   UNL A   1      47.059  31.743  29.603  1.00  0.00     0.029 A 
ATOM     32  N   UNL A   1      44.849  31.509  29.706  1.00  0.00    -0.354 N 
ATOM     33  N   UNL A   1      42.103  32.397  30.287  1.00  0.00    -0.248 NA
ATOM     34  C   UNL A   1      40.617  33.967  31.175  1.00  0.00     0.031 C 
ATOM     35  C   UNL A   1      46.518  32.889  30.200  1.00  0.00     0.029 A 
ATOM     36  C   UNL A   1      45.140  32.751  30.249  1.00  0.00     0.049 A 
ATOM     37  H   UNL A   1      43.945  31.133  29.609  1.00  0.00     0.167 HD
ATOM     38  C   UNL A   1      42.824  33.486  30.763  1.00  0.00     0.074 A 
ATOM     39  C   UNL A   1      41.856  34.430  31.287  1.00  0.00     0.031 C 
ATOM     40  C   UNL A   1      44.164  33.684  30.760  1.00  0.00     0.037 A 
BRANCH  27  41
ATOM     41  C   UNL A   1      47.442  28.957  28.473  1.00  0.00     0.058 A 
ATOM     42  C   UNL A   1      48.081  29.104  27.232  1.00  0.00     0.135 A 
ATOM     43  C   UNL A   1      48.108  28.224  29.468  1.00  0.00     0.135 A 
ATOM     44  F   UNL A   1      47.484  29.786  26.241  1.00  0.00    -0.206 F 
ATOM     45  C   UNL A   1      49.310  28.505  26.970  1.00  0.00     0.059 A 
ATOM     46  C   UNL A   1      49.348  27.636  29.238  1.00  0.00     0.059 A 
ATOM     47  F   UNL A   1      47.545  28.057  30.676  1.00  0.00    -0.206 F 
ATOM     48  C   UNL A   1      49.929  27.762  27.977  1.00  0.00     0.060 A 
BRANCH  48  49
ATOM     49  S   UNL A   1      51.499  26.948  27.611  1.00  0.00     0.124 S 
ATOM     50  O   UNL A   1      52.363  27.512  28.644  1.00  0.00    -0.237 OA
ATOM     51  O   UNL A   1      51.167  25.535  27.766  1.00  0.00    -0.237 OA
ATOM     52  O   UNL A   1      51.791  27.374  26.246  1.00  0.00    -0.744 OA
ENDBRANCH  48  49
ENDBRANCH  27  41
BRANCH  28  53
ATOM     53  C   UNL A   1      38.260  32.296  30.560  1.00  0.00     0.058 A 
ATOM     54  C   UNL A   1      37.686  31.920  31.780  1.00  0.00     0.135 A 
ATOM     55  C   UNL A   1      37.547  33.190  29.744  1.00  0.00     0.135 A 
ATOM     56  F   UNL A   1      38.330  31.065  32.591  1.00  0.00    -0.206 F 
ATOM     57  C   UNL A   1      36.458  32.426  32.191  1.00  0.00     0.059 A 
ATOM     58  C   UNL A   1      36.328  33.725  30.141  1.00  0.00     0.059 A 
ATOM     59  F   UNL A   1      38.068  33.592  28.574  1.00  0.00    -0.206 F 
ATOM     60  C   UNL A   1      35.792  33.340  31.369  1.00  0.00     0.060 A 
BRANCH  60  61
ATOM     61  S   UNL A   1      34.256  34.080  31.964  1.00  0.00     0.124 S 
ATOM     62  O   UNL A   1      34.754  35.214  32.733  1.00  0.00    -0.237 OA
ATOM     63  O   UNL A   1      33.569  34.407  30.718  1.00  0.00    -0.237 OA
ATOM     64  O   UNL A   1      33.646  33.006  32.741  1.00  0.00    -0.744 OA
ENDBRANCH  60  61
ENDBRANCH  28  53
BRANCH  40  65
ATOM     65  C   UNL A   1      44.678  34.982  31.312  1.00  0.00     0.058 A 
ATOM     66  C   UNL A   1      44.791  36.127  30.510  1.00  0.00     0.135 A 
ATOM     67  C   UNL A   1      44.967  35.104  32.680  1.00  0.00     0.135 A 
ATOM     68  F   UNL A   1      44.535  36.058  29.194  1.00  0.00    -0.206 F 
ATOM     69  C   UNL A   1      45.170  37.353  31.048  1.00  0.00     0.059 A 
ATOM     70  C   UNL A   1      45.330  36.323  33.243  1.00  0.00     0.059 A 
ATOM     71  F   UNL A   1      44.869  34.037  33.489  1.00  0.00    -0.206 F 
ATOM     72  C   UNL A   1      45.429  37.443  32.417  1.00  0.00     0.060 A 
BRANCH  72  73
ATOM     73  S   UNL A   1      45.843  39.055  33.119  1.00  0.00     0.124 S 
ATOM     74  O   UNL A   1      44.531  39.539  33.534  1.00  0.00    -0.237 OA
ATOM     75  O   UNL A   1      46.760  38.701  34.198  1.00  0.00    -0.237 OA
ATOM     76  O   UNL A   1      46.450  39.766  31.998  1.00  0.00    -0.744 OA
ENDBRANCH  72  73
ENDBRANCH  40  65
ENDBRANCH  14  15
ENDBRANCH   7   9
ENDBRANCH   4   5
ENDBRANCH   3   4
ENDBRANCH   2   3
ENDBRANCH   1   2
BRANCH   1  77
ATOM     77  C   UNL A   1      34.629  20.315  25.011  1.00  0.00     0.021 C 
BRANCH  77  78
ATOM     78  C   UNL A   1      33.125  20.076  24.878  1.00  0.00     0.116 C 
BRANCH  78  79
ATOM     79  N   UNL A   1      32.678  20.150  23.496  1.00  0.00    -0.352 N 
ATOM     80  C   UNL A   1      32.067  21.172  22.822  1.00  0.00     0.251 C 
ATOM     81  H   UNL A   1      32.840  19.339  22.962  1.00  0.00     0.163 HD
ATOM     82  O   UNL A   1      31.611  20.993  21.697  1.00  0.00    -0.269 OA
BRANCH  80  83
ATOM     83  C   UNL A   1      31.934  22.508  23.437  1.00  0.00     0.053 A 
ATOM     84  C   UNL A   1      32.392  23.618  22.734  1.00  0.00     0.102 A 
ATOM     85  C   UNL A   1      31.461  22.672  24.732  1.00  0.00     0.102 A 
ATOM     86  C   UNL A   1      32.307  24.900  23.314  1.00  0.00     0.300 A 
ATOM     87  C   UNL A   1      31.360  23.968  25.282  1.00  0.00     0.300 A 
ATOM     88  C   UNL A   1      31.763  25.148  24.593  1.00  0.00     0.192 A 
BRANCH  86  89
ATOM     89  N   UNL A   1      32.961  25.943  22.551  1.00  0.00     0.065 N 
ATOM     90  O   UNL A   1      32.314  26.984  22.359  1.00  0.00    -0.258 OA
ATOM     91  O   UNL A   1      34.093  25.704  22.109  1.00  0.00    -0.258 OA
ENDBRANCH  86  89
BRANCH  87  92
ATOM     92  N   UNL A   1      30.793  24.040  26.632  1.00  0.00     0.065 N 
ATOM     93  O   UNL A   1      31.384  23.439  27.541  1.00  0.00    -0.258 OA
ATOM     94  O   UNL A   1      29.744  24.684  26.770  1.00  0.00    -0.258 OA
ENDBRANCH  87  92
BRANCH  88  95
ATOM     95  N   UNL A   1      31.550  26.391  25.164  1.00  0.00    -0.374 N 
ATOM     96  H   UNL A   1      30.731  26.846  24.862  1.00  0.00     0.161 HD
BRANCH  95  97
ATOM     97  C   UNL A   1      32.338  27.143  26.139  1.00  0.00     0.118 C 
BRANCH  97  98
ATOM     98  C   UNL A   1      32.121  28.662  26.026  1.00  0.00     0.052 C 
BRANCH  98  99
ATOM     99  C   UNL A   1      33.178  29.533  26.681  1.00  0.00    -0.072 C 
ATOM    100  C   UNL A   1      32.896  30.773  27.128  1.00  0.00    -0.028 C 
ATOM    101  C   UNL A   1      34.546  28.927  26.887  1.00  0.00     0.031 C 
ATOM    102  C   UNL A   1      33.888  31.662  27.826  1.00  0.00     0.027 C 
ATOM    103  C   UNL A   1      35.385  29.647  27.945  1.00  0.00     0.005 C 
ATOM    104  C   UNL A   1      35.327  31.156  27.745  1.00  0.00     0.004 C 
ENDBRANCH  98  99
ENDBRANCH  97  98
ENDBRANCH  95  97
ENDBRANCH  88  95
ENDBRANCH  80  83
ENDBRANCH  78  79
ENDBRANCH  77  78
ENDBRANCH   1  77
TORSDOF 22
ENDMDL
