MODEL 1
REMARK VINA RESULT:     -12.5      0.000      0.000
REMARK SMILES O=C(C/C(=C/c1ccc(N2CCOCC2)c(F)c1)c1nc2ccccc2s1)NCCCCCCNC(=O)c1ccc(-c2c3nc(c(-c4c(F)cc(S(=O)(=O)[O-])cc4F)c4ccc([nH]4)c(-c4c(F)cc(S(=O)(=O)[O-])cc4F)c4nc(c(-c5c(F)cc(S(=O)(=O)[O-])cc5F)c5ccc2[nH]5)C=C4)C=C3)cc1
REMARK SMILES IDX 31 1 30 2 29 3 28 4 1 5 2 6 3 8 4 9 5 10 19 11 20 12 27 13
REMARK SMILES IDX 21 14 26 15 22 16 25 17 23 18 24 19 6 20 7 21 18 22 8 23
REMARK SMILES IDX 16 24 9 25 17 26 10 27 11 28 15 29 12 30 14 31 13 32 32 33
REMARK SMILES IDX 33 34 34 35 35 36 36 37 37 39 38 40 39 41 103 42 40 43
REMARK SMILES IDX 102 44 41 45 42 46 43 47 96 48 44 49 101 50 95 51 97 52
REMARK SMILES IDX 45 53 100 54 94 55 93 56 46 58 80 59 59 60 79 61 60 62 63 63
REMARK SMILES IDX 78 64 98 65 61 66 62 67 77 69 99 70 64 71 47 72 48 73 57 74
REMARK SMILES IDX 49 75 50 76 56 77 58 78 51 79 52 80 53 81 54 82 55 83 81 84
REMARK SMILES IDX 82 85 91 86 83 87 84 88 90 89 92 90 85 91 86 92 87 93 88 94
REMARK SMILES IDX 89 95 65 96 66 97 75 98 67 99 68 100 74 101 76 102 69 103
REMARK SMILES IDX 70 104 71 105 72 106 73 107
REMARK H PARENT 28 7 35 38 97 57 63 68
REMARK Flexibility Score: inf
ROOT
ATOM      1  C   UNL A   1      36.126  23.045  24.787  1.00  0.00     0.002 C 
ENDROOT
BRANCH   1   2
ATOM      2  C   UNL A   1      35.981  22.959  23.261  1.00  0.00     0.021 C 
BRANCH   2   3
ATOM      3  C   UNL A   1      34.542  22.999  22.756  1.00  0.00     0.116 C 
BRANCH   3   4
ATOM      4  N   UNL A   1      33.642  23.584  23.729  1.00  0.00    -0.356 N 
ATOM      5  O   UNL A   1      32.136  21.852  23.738  1.00  0.00    -0.275 OA
ATOM      6  C   UNL A   1      32.524  22.926  24.191  1.00  0.00     0.224 C 
ATOM      7  H   UNL A   1      33.839  24.485  24.075  1.00  0.00     0.163 HD
BRANCH   6   8
ATOM      8  C   UNL A   1      31.739  23.657  25.274  1.00  0.00     0.138 C 
BRANCH   8   9
ATOM      9  C   UNL A   1      31.362  25.096  24.938  1.00  0.00    -0.002 C 
ATOM     10  C   UNL A   1      30.374  25.284  24.026  1.00  0.00     0.015 C 
BRANCH   9  11
ATOM     11  C   UNL A   1      31.941  26.247  25.595  1.00  0.00     0.121 A 
ATOM     12  N   UNL A   1      31.276  27.258  26.120  1.00  0.00    -0.236 NA
ATOM     13  S   UNL A   1      33.661  26.425  25.691  1.00  0.00    -0.114 S 
ATOM     14  C   UNL A   1      32.135  28.276  26.499  1.00  0.00     0.082 A 
ATOM     15  C   UNL A   1      33.490  28.003  26.334  1.00  0.00     0.055 A 
ATOM     16  C   UNL A   1      31.756  29.536  27.004  1.00  0.00     0.030 A 
ATOM     17  C   UNL A   1      34.486  28.937  26.661  1.00  0.00     0.021 A 
ATOM     18  C   UNL A   1      32.738  30.481  27.321  1.00  0.00     0.002 A 
ATOM     19  C   UNL A   1      34.086  30.182  27.151  1.00  0.00     0.002 A 
ENDBRANCH   9  11
BRANCH  10  20
ATOM     20  C   UNL A   1      29.777  26.551  23.570  1.00  0.00    -0.022 A 
ATOM     21  C   UNL A   1      30.504  27.509  22.858  1.00  0.00     0.010 A 
ATOM     22  C   UNL A   1      28.434  26.801  23.851  1.00  0.00     0.049 A 
ATOM     23  C   UNL A   1      29.909  28.723  22.485  1.00  0.00     0.029 A 
ATOM     24  C   UNL A   1      27.857  28.016  23.480  1.00  0.00     0.147 A 
ATOM     25  C   UNL A   1      28.575  29.016  22.803  1.00  0.00     0.073 A 
ATOM     26  F   UNL A   1      26.555  28.198  23.765  1.00  0.00    -0.205 F 
BRANCH  25  27
ATOM     27  N   UNL A   1      28.028  30.238  22.471  1.00  0.00    -0.365 N 
ATOM     28  C   UNL A   1      27.864  30.671  21.080  1.00  0.00     0.145 C 
ATOM     29  C   UNL A   1      27.713  31.252  23.481  1.00  0.00     0.145 C 
ATOM     30  C   UNL A   1      28.609  31.994  20.853  1.00  0.00     0.181 C 
ATOM     31  C   UNL A   1      28.470  32.550  23.144  1.00  0.00     0.181 C 
ATOM     32  O   UNL A   1      28.201  32.997  21.802  1.00  0.00    -0.378 OA
ENDBRANCH  25  27
ENDBRANCH  10  20
ENDBRANCH   8   9
ENDBRANCH   6   8
ENDBRANCH   3   4
ENDBRANCH   2   3
ENDBRANCH   1   2
BRANCH   1  33
ATOM     33  C   UNL A   1      36.483  21.734  25.494  1.00  0.00     0.002 C 
BRANCH  33  34
ATOM     34  C   UNL A   1      37.785  21.072  25.037  1.00  0.00     0.021 C 
BRANCH  34  35
ATOM     35  C   UNL A   1      38.947  21.174  26.020  1.00  0.00     0.116 C 
BRANCH  35  36
ATOM     36  N   UNL A   1      39.820  20.010  25.981  1.00  0.00    -0.352 N 
ATOM     37  C   UNL A   1      41.190  19.954  26.085  1.00  0.00     0.251 C 
ATOM     38  H   UNL A   1      39.367  19.144  25.864  1.00  0.00     0.163 HD
ATOM     39  O   UNL A   1      41.779  18.895  25.882  1.00  0.00    -0.269 OA
BRANCH  37  40
ATOM     40  C   UNL A   1      41.953  21.178  26.413  1.00  0.00     0.039 A 
ATOM     41  C   UNL A   1      42.310  22.052  25.382  1.00  0.00     0.014 A 
ATOM     42  C   UNL A   1      42.302  21.470  27.733  1.00  0.00     0.014 A 
ATOM     43  C   UNL A   1      42.955  23.255  25.685  1.00  0.00     0.010 A 
ATOM     44  C   UNL A   1      42.890  22.695  28.039  1.00  0.00     0.010 A 
ATOM     45  C   UNL A   1      43.217  23.604  27.020  1.00  0.00    -0.014 A 
BRANCH  45  46
ATOM     46  C   UNL A   1      43.826  24.911  27.381  1.00  0.00     0.031 A 
ATOM     47  C   UNL A   1      42.970  25.997  27.977  1.00  0.00     0.074 A 
ATOM     48  C   UNL A   1      45.122  25.150  27.099  1.00  0.00     0.049 A 
ATOM     49  N   UNL A   1      43.275  27.245  28.222  1.00  0.00    -0.248 NA
ATOM     50  C   UNL A   1      41.583  25.640  28.321  1.00  0.00     0.031 C 
ATOM     51  C   UNL A   1      46.048  24.190  26.492  1.00  0.00     0.029 A 
ATOM     52  N   UNL A   1      45.885  26.280  27.266  1.00  0.00    -0.354 N 
ATOM     53  C   UNL A   1      42.118  27.825  28.727  1.00  0.00     0.074 A 
ATOM     54  C   UNL A   1      41.093  26.804  28.723  1.00  0.00     0.031 C 
ATOM     55  C   UNL A   1      47.252  24.769  26.347  1.00  0.00     0.029 A 
ATOM     56  C   UNL A   1      47.176  26.153  26.807  1.00  0.00     0.049 A 
ATOM     57  H   UNL A   1      45.540  27.106  27.676  1.00  0.00     0.167 HD
ATOM     58  C   UNL A   1      41.934  29.089  29.175  1.00  0.00     0.037 A 
ATOM     59  C   UNL A   1      48.179  27.051  26.744  1.00  0.00     0.037 A 
ATOM     60  C   UNL A   1      42.970  30.087  29.221  1.00  0.00     0.049 A 
ATOM     61  C   UNL A   1      47.946  28.451  27.248  1.00  0.00     0.074 A 
ATOM     62  C   UNL A   1      42.890  31.381  29.709  1.00  0.00     0.029 A 
ATOM     63  N   UNL A   1      44.270  29.906  28.778  1.00  0.00    -0.354 N 
ATOM     64  N   UNL A   1      46.855  28.970  27.757  1.00  0.00    -0.248 NA
ATOM     65  C   UNL A   1      49.078  29.388  27.172  1.00  0.00     0.031 C 
ATOM     66  C   UNL A   1      44.133  31.992  29.530  1.00  0.00     0.029 A 
ATOM     67  C   UNL A   1      44.999  31.066  28.972  1.00  0.00     0.049 A 
ATOM     68  H   UNL A   1      44.624  29.076  28.386  1.00  0.00     0.167 HD
ATOM     69  C   UNL A   1      47.177  30.282  28.086  1.00  0.00     0.074 A 
ATOM     70  C   UNL A   1      48.564  30.478  27.727  1.00  0.00     0.031 C 
ATOM     71  C   UNL A   1      46.389  31.238  28.635  1.00  0.00     0.037 A 
BRANCH  58  72
ATOM     72  C   UNL A   1      40.576  29.477  29.683  1.00  0.00     0.058 A 
ATOM     73  C   UNL A   1      39.541  29.790  28.788  1.00  0.00     0.135 A 
ATOM     74  C   UNL A   1      40.333  29.653  31.054  1.00  0.00     0.135 A 
ATOM     75  F   UNL A   1      39.718  29.629  27.467  1.00  0.00    -0.206 F 
ATOM     76  C   UNL A   1      38.325  30.298  29.231  1.00  0.00     0.059 A 
ATOM     77  C   UNL A   1      39.117  30.137  31.523  1.00  0.00     0.059 A 
ATOM     78  F   UNL A   1      41.284  29.346  31.952  1.00  0.00    -0.206 F 
ATOM     79  C   UNL A   1      38.127  30.478  30.601  1.00  0.00     0.060 A 
BRANCH  79  80
ATOM     80  S   UNL A   1      36.551  31.160  31.161  1.00  0.00     0.124 S 
ATOM     81  O   UNL A   1      36.985  32.272  31.998  1.00  0.00    -0.237 OA
ATOM     82  O   UNL A   1      35.911  31.524  29.899  1.00  0.00    -0.237 OA
ATOM     83  O   UNL A   1      35.932  30.043  31.868  1.00  0.00    -0.744 OA
ENDBRANCH  79  80
ENDBRANCH  58  72
BRANCH  59  84
ATOM     84  C   UNL A   1      49.500  26.657  26.183  1.00  0.00     0.058 A 
ATOM     85  C   UNL A   1      50.412  25.895  26.931  1.00  0.00     0.135 A 
ATOM     86  C   UNL A   1      49.873  27.033  24.885  1.00  0.00     0.135 A 
ATOM     87  F   UNL A   1      50.108  25.518  28.182  1.00  0.00    -0.206 F 
ATOM     88  C   UNL A   1      51.650  25.530  26.415  1.00  0.00     0.059 A 
ATOM     89  C   UNL A   1      51.098  26.658  24.336  1.00  0.00     0.059 A 
ATOM     90  F   UNL A   1      49.030  27.751  24.128  1.00  0.00    -0.206 F 
ATOM     91  C   UNL A   1      51.984  25.915  25.115  1.00  0.00     0.060 A 
BRANCH  91  92
ATOM     92  S   UNL A   1      53.587  25.411  24.454  1.00  0.00     0.124 S 
ATOM     93  O   UNL A   1      53.413  25.687  23.031  1.00  0.00    -0.237 OA
ATOM     94  O   UNL A   1      54.505  26.295  25.165  1.00  0.00    -0.237 OA
ATOM     95  O   UNL A   1      53.672  24.000  24.816  1.00  0.00    -0.744 OA
ENDBRANCH  91  92
ENDBRANCH  59  84
BRANCH  71  96
ATOM     96  C   UNL A   1      47.003  32.579  28.926  1.00  0.00     0.058 A 
ATOM     97  C   UNL A   1      47.554  32.843  30.190  1.00  0.00     0.135 A 
ATOM     98  C   UNL A   1      46.940  33.631  28.001  1.00  0.00     0.135 A 
ATOM     99  F   UNL A   1      47.633  31.871  31.112  1.00  0.00    -0.206 F 
ATOM    100  C   UNL A   1      47.994  34.116  30.537  1.00  0.00     0.059 A 
ATOM    101  C   UNL A   1      47.397  34.906  28.318  1.00  0.00     0.059 A 
ATOM    102  F   UNL A   1      46.432  33.422  26.775  1.00  0.00    -0.206 F 
ATOM    103  C   UNL A   1      47.902  35.144  29.597  1.00  0.00     0.060 A 
BRANCH 103 104
ATOM    104  S   UNL A   1      48.455  36.795  30.073  1.00  0.00     0.124 S 
ATOM    105  O   UNL A   1      47.291  37.608  29.742  1.00  0.00    -0.237 OA
ATOM    106  O   UNL A   1      48.731  36.629  31.496  1.00  0.00    -0.237 OA
ATOM    107  O   UNL A   1      49.631  37.012  29.235  1.00  0.00    -0.744 OA
ENDBRANCH 103 104
ENDBRANCH  71  96
ENDBRANCH  45  46
ENDBRANCH  37  40
ENDBRANCH  35  36
ENDBRANCH  34  35
ENDBRANCH  33  34
ENDBRANCH   1  33
TORSDOF 20
ENDMDL
MODEL 2
REMARK VINA RESULT:     -11.6      2.733      9.243
REMARK SMILES O=C(C/C(=C/c1ccc(N2CCOCC2)c(F)c1)c1nc2ccccc2s1)NCCCCCCNC(=O)c1ccc(-c2c3nc(c(-c4c(F)cc(S(=O)(=O)[O-])cc4F)c4ccc([nH]4)c(-c4c(F)cc(S(=O)(=O)[O-])cc4F)c4nc(c(-c5c(F)cc(S(=O)(=O)[O-])cc5F)c5ccc2[nH]5)C=C4)C=C3)cc1
REMARK SMILES IDX 31 1 30 2 29 3 28 4 1 5 2 6 3 8 4 9 5 10 19 11 20 12 27 13
REMARK SMILES IDX 21 14 26 15 22 16 25 17 23 18 24 19 6 20 7 21 18 22 8 23
REMARK SMILES IDX 16 24 9 25 17 26 10 27 11 28 15 29 12 30 14 31 13 32 32 33
REMARK SMILES IDX 33 34 34 35 35 36 36 37 37 39 38 40 39 41 103 42 40 43
REMARK SMILES IDX 102 44 41 45 42 46 43 47 96 48 44 49 101 50 95 51 97 52
REMARK SMILES IDX 45 53 100 54 94 55 93 56 46 58 80 59 59 60 79 61 60 62 63 63
REMARK SMILES IDX 78 64 98 65 61 66 62 67 77 69 99 70 64 71 47 72 48 73 57 74
REMARK SMILES IDX 49 75 50 76 56 77 58 78 51 79 52 80 53 81 54 82 55 83 81 84
REMARK SMILES IDX 82 85 91 86 83 87 84 88 90 89 92 90 85 91 86 92 87 93 88 94
REMARK SMILES IDX 89 95 65 96 66 97 75 98 67 99 68 100 74 101 76 102 69 103
REMARK SMILES IDX 70 104 71 105 72 106 73 107
REMARK H PARENT 28 7 35 38 97 57 63 68
REMARK Flexibility Score: inf
ROOT
ATOM      1  C   UNL A   1      33.314  29.393  27.245  1.00  0.00     0.002 C 
ENDROOT
BRANCH   1   2
ATOM      2  C   UNL A   1      33.421  28.760  25.851  1.00  0.00     0.021 C 
BRANCH   2   3
ATOM      3  C   UNL A   1      32.107  28.697  25.078  1.00  0.00     0.116 C 
BRANCH   3   4
ATOM      4  N   UNL A   1      32.106  27.629  24.098  1.00  0.00    -0.356 N 
ATOM      5  O   UNL A   1      30.646  26.265  25.228  1.00  0.00    -0.275 OA
ATOM      6  C   UNL A   1      31.318  26.506  24.229  1.00  0.00     0.224 C 
ATOM      7  H   UNL A   1      32.690  27.709  23.309  1.00  0.00     0.163 HD
BRANCH   6   8
ATOM      8  C   UNL A   1      31.383  25.527  23.063  1.00  0.00     0.138 C 
BRANCH   8   9
ATOM      9  C   UNL A   1      32.053  24.193  23.377  1.00  0.00    -0.002 C 
ATOM     10  C   UNL A   1      31.341  23.064  23.126  1.00  0.00     0.015 C 
BRANCH   9  11
ATOM     11  C   UNL A   1      33.416  24.076  23.844  1.00  0.00     0.121 A 
ATOM     12  N   UNL A   1      34.435  23.598  23.155  1.00  0.00    -0.236 NA
ATOM     13  S   UNL A   1      33.826  24.523  25.466  1.00  0.00    -0.114 S 
ATOM     14  C   UNL A   1      35.554  23.452  23.958  1.00  0.00     0.082 A 
ATOM     15  C   UNL A   1      35.410  23.902  25.266  1.00  0.00     0.055 A 
ATOM     16  C   UNL A   1      36.783  22.881  23.570  1.00  0.00     0.030 A 
ATOM     17  C   UNL A   1      36.449  23.813  26.206  1.00  0.00     0.021 A 
ATOM     18  C   UNL A   1      37.822  22.773  24.500  1.00  0.00     0.002 A 
ATOM     19  C   UNL A   1      37.655  23.235  25.802  1.00  0.00     0.002 A 
ENDBRANCH   9  11
BRANCH  10  20
ATOM     20  C   UNL A   1      31.765  21.662  23.276  1.00  0.00    -0.022 A 
ATOM     21  C   UNL A   1      31.868  20.789  22.190  1.00  0.00     0.010 A 
ATOM     22  C   UNL A   1      32.082  21.188  24.549  1.00  0.00     0.049 A 
ATOM     23  C   UNL A   1      32.228  19.448  22.385  1.00  0.00     0.029 A 
ATOM     24  C   UNL A   1      32.432  19.850  24.730  1.00  0.00     0.147 A 
ATOM     25  C   UNL A   1      32.500  18.938  23.662  1.00  0.00     0.073 A 
ATOM     26  F   UNL A   1      32.741  19.450  25.976  1.00  0.00    -0.205 F 
BRANCH  25  27
ATOM     27  N   UNL A   1      32.802  17.603  23.834  1.00  0.00    -0.365 N 
ATOM     28  C   UNL A   1      32.141  16.775  24.847  1.00  0.00     0.145 C 
ATOM     29  C   UNL A   1      33.909  16.956  23.125  1.00  0.00     0.145 C 
ATOM     30  C   UNL A   1      33.187  16.172  25.794  1.00  0.00     0.181 C 
ATOM     31  C   UNL A   1      34.879  16.346  24.155  1.00  0.00     0.181 C 
ATOM     32  O   UNL A   1      34.206  15.459  25.068  1.00  0.00    -0.378 OA
ENDBRANCH  25  27
ENDBRANCH  10  20
ENDBRANCH   8   9
ENDBRANCH   6   8
ENDBRANCH   3   4
ENDBRANCH   2   3
ENDBRANCH   1   2
BRANCH   1  33
ATOM     33  C   UNL A   1      33.311  30.925  27.279  1.00  0.00     0.002 C 
BRANCH  33  34
ATOM     34  C   UNL A   1      34.614  31.576  27.748  1.00  0.00     0.021 C 
BRANCH  34  35
ATOM     35  C   UNL A   1      35.584  30.644  28.471  1.00  0.00     0.116 C 
BRANCH  35  36
ATOM     36  N   UNL A   1      35.559  30.819  29.915  1.00  0.00    -0.352 N 
ATOM     37  C   UNL A   1      36.576  30.644  30.823  1.00  0.00     0.251 C 
ATOM     38  H   UNL A   1      34.696  31.102  30.294  1.00  0.00     0.163 HD
ATOM     39  O   UNL A   1      36.340  30.693  32.028  1.00  0.00    -0.269 OA
BRANCH  37  40
ATOM     40  C   UNL A   1      37.949  30.367  30.345  1.00  0.00     0.039 A 
ATOM     41  C   UNL A   1      39.000  30.362  31.267  1.00  0.00     0.014 A 
ATOM     42  C   UNL A   1      38.196  30.101  28.997  1.00  0.00     0.014 A 
ATOM     43  C   UNL A   1      40.288  30.018  30.847  1.00  0.00     0.010 A 
ATOM     44  C   UNL A   1      39.467  29.700  28.592  1.00  0.00     0.010 A 
ATOM     45  C   UNL A   1      40.525  29.648  29.513  1.00  0.00    -0.014 A 
BRANCH  45  46
ATOM     46  C   UNL A   1      41.865  29.198  29.054  1.00  0.00     0.031 A 
ATOM     47  C   UNL A   1      42.988  30.193  28.926  1.00  0.00     0.074 A 
ATOM     48  C   UNL A   1      42.051  27.917  28.675  1.00  0.00     0.049 A 
ATOM     49  N   UNL A   1      44.177  30.031  28.408  1.00  0.00    -0.248 NA
ATOM     50  C   UNL A   1      42.731  31.555  29.423  1.00  0.00     0.031 C 
ATOM     51  C   UNL A   1      41.034  26.863  28.722  1.00  0.00     0.029 A 
ATOM     52  N   UNL A   1      43.155  27.284  28.158  1.00  0.00    -0.354 N 
ATOM     53  C   UNL A   1      44.801  31.269  28.497  1.00  0.00     0.074 A 
ATOM     54  C   UNL A   1      43.848  32.184  29.088  1.00  0.00     0.031 C 
ATOM     55  C   UNL A   1      41.563  25.718  28.262  1.00  0.00     0.029 A 
ATOM     56  C   UNL A   1      42.941  25.961  27.845  1.00  0.00     0.049 A 
ATOM     57  H   UNL A   1      44.020  27.735  28.022  1.00  0.00     0.167 HD
ATOM     58  C   UNL A   1      46.062  31.606  28.141  1.00  0.00     0.037 A 
ATOM     59  C   UNL A   1      43.753  25.051  27.271  1.00  0.00     0.037 A 
ATOM     60  C   UNL A   1      47.022  30.681  27.597  1.00  0.00     0.049 A 
ATOM     61  C   UNL A   1      45.151  25.454  26.881  1.00  0.00     0.074 A 
ATOM     62  C   UNL A   1      48.342  30.921  27.255  1.00  0.00     0.029 A 
ATOM     63  N   UNL A   1      46.775  29.345  27.329  1.00  0.00    -0.354 N 
ATOM     64  N   UNL A   1      45.735  26.621  27.009  1.00  0.00    -0.248 NA
ATOM     65  C   UNL A   1      46.003  24.420  26.273  1.00  0.00     0.031 C 
ATOM     66  C   UNL A   1      48.884  29.737  26.748  1.00  0.00     0.029 A 
ATOM     67  C   UNL A   1      47.914  28.749  26.816  1.00  0.00     0.049 A 
ATOM     68  H   UNL A   1      45.918  28.886  27.481  1.00  0.00     0.167 HD
ATOM     69  C   UNL A   1      47.027  26.454  26.523  1.00  0.00     0.074 A 
ATOM     70  C   UNL A   1      47.145  25.074  26.106  1.00  0.00     0.031 C 
ATOM     71  C   UNL A   1      48.025  27.366  26.431  1.00  0.00     0.037 A 
BRANCH  58  72
ATOM     72  C   UNL A   1      46.508  33.026  28.345  1.00  0.00     0.058 A 
ATOM     73  C   UNL A   1      46.453  33.950  27.290  1.00  0.00     0.135 A 
ATOM     74  C   UNL A   1      47.098  33.438  29.550  1.00  0.00     0.135 A 
ATOM     75  F   UNL A   1      45.890  33.609  26.120  1.00  0.00    -0.206 F 
ATOM     76  C   UNL A   1      47.000  35.222  27.410  1.00  0.00     0.059 A 
ATOM     77  C   UNL A   1      47.631  34.713  29.700  1.00  0.00     0.059 A 
ATOM     78  F   UNL A   1      47.154  32.598  30.596  1.00  0.00    -0.206 F 
ATOM     79  C   UNL A   1      47.597  35.591  28.617  1.00  0.00     0.060 A 
BRANCH  79  80
ATOM     80  S   UNL A   1      48.324  37.239  28.750  1.00  0.00     0.124 S 
ATOM     81  O   UNL A   1      47.906  37.644  30.087  1.00  0.00    -0.237 OA
ATOM     82  O   UNL A   1      49.747  36.959  28.584  1.00  0.00    -0.237 OA
ATOM     83  O   UNL A   1      47.706  37.970  27.648  1.00  0.00    -0.744 OA
ENDBRANCH  79  80
ENDBRANCH  58  72
BRANCH  59  84
ATOM     84  C   UNL A   1      43.268  23.665  27.027  1.00  0.00     0.058 A 
ATOM     85  C   UNL A   1      42.895  23.238  25.743  1.00  0.00     0.135 A 
ATOM     86  C   UNL A   1      43.173  22.740  28.077  1.00  0.00     0.135 A 
ATOM     87  F   UNL A   1      42.958  24.087  24.706  1.00  0.00    -0.206 F 
ATOM     88  C   UNL A   1      42.435  21.947  25.511  1.00  0.00     0.059 A 
ATOM     89  C   UNL A   1      42.739  21.433  27.865  1.00  0.00     0.059 A 
ATOM     90  F   UNL A   1      43.530  23.099  29.320  1.00  0.00    -0.206 F 
ATOM     91  C   UNL A   1      42.361  21.050  26.578  1.00  0.00     0.060 A 
BRANCH  91  92
ATOM     92  S   UNL A   1      41.784  19.371  26.252  1.00  0.00     0.124 S 
ATOM     93  O   UNL A   1      40.342  19.574  26.151  1.00  0.00    -0.237 OA
ATOM     94  O   UNL A   1      42.469  19.048  25.005  1.00  0.00    -0.237 OA
ATOM     95  O   UNL A   1      42.235  18.626  27.423  1.00  0.00    -0.744 OA
ENDBRANCH  91  92
ENDBRANCH  59  84
BRANCH  71  96
ATOM     96  C   UNL A   1      49.353  26.909  25.895  1.00  0.00     0.058 A 
ATOM     97  C   UNL A   1      50.334  26.413  26.768  1.00  0.00     0.135 A 
ATOM     98  C   UNL A   1      49.695  27.072  24.544  1.00  0.00     0.135 A 
ATOM     99  F   UNL A   1      50.058  26.243  28.071  1.00  0.00    -0.206 F 
ATOM    100  C   UNL A   1      51.620  26.122  26.325  1.00  0.00     0.059 A 
ATOM    101  C   UNL A   1      50.968  26.765  24.074  1.00  0.00     0.059 A 
ATOM    102  F   UNL A   1      48.786  27.533  23.669  1.00  0.00    -0.206 F 
ATOM    103  C   UNL A   1      51.930  26.312  24.978  1.00  0.00     0.060 A 
BRANCH 103 104
ATOM    104  S   UNL A   1      53.610  25.953  24.425  1.00  0.00     0.124 S 
ATOM    105  O   UNL A   1      53.850  24.645  25.025  1.00  0.00    -0.237 OA
ATOM    106  O   UNL A   1      53.466  25.968  22.973  1.00  0.00    -0.237 OA
ATOM    107  O   UNL A   1      54.392  27.053  24.982  1.00  0.00    -0.744 OA
ENDBRANCH 103 104
ENDBRANCH  71  96
ENDBRANCH  45  46
ENDBRANCH  37  40
ENDBRANCH  35  36
ENDBRANCH  34  35
ENDBRANCH  33  34
ENDBRANCH   1  33
TORSDOF 20
ENDMDL
MODEL 3
REMARK VINA RESULT:     -11.5      5.076     11.511
REMARK SMILES O=C(C/C(=C/c1ccc(N2CCOCC2)c(F)c1)c1nc2ccccc2s1)NCCCCCCNC(=O)c1ccc(-c2c3nc(c(-c4c(F)cc(S(=O)(=O)[O-])cc4F)c4ccc([nH]4)c(-c4c(F)cc(S(=O)(=O)[O-])cc4F)c4nc(c(-c5c(F)cc(S(=O)(=O)[O-])cc5F)c5ccc2[nH]5)C=C4)C=C3)cc1
REMARK SMILES IDX 31 1 30 2 29 3 28 4 1 5 2 6 3 8 4 9 5 10 19 11 20 12 27 13
REMARK SMILES IDX 21 14 26 15 22 16 25 17 23 18 24 19 6 20 7 21 18 22 8 23
REMARK SMILES IDX 16 24 9 25 17 26 10 27 11 28 15 29 12 30 14 31 13 32 32 33
REMARK SMILES IDX 33 34 34 35 35 36 36 37 37 39 38 40 39 41 103 42 40 43
REMARK SMILES IDX 102 44 41 45 42 46 43 47 96 48 44 49 101 50 95 51 97 52
REMARK SMILES IDX 45 53 100 54 94 55 93 56 46 58 80 59 59 60 79 61 60 62 63 63
REMARK SMILES IDX 78 64 98 65 61 66 62 67 77 69 99 70 64 71 47 72 48 73 57 74
REMARK SMILES IDX 49 75 50 76 56 77 58 78 51 79 52 80 53 81 54 82 55 83 81 84
REMARK SMILES IDX 82 85 91 86 83 87 84 88 90 89 92 90 85 91 86 92 87 93 88 94
REMARK SMILES IDX 89 95 65 96 66 97 75 98 67 99 68 100 74 101 76 102 69 103
REMARK SMILES IDX 70 104 71 105 72 106 73 107
REMARK H PARENT 28 7 35 38 97 57 63 68
REMARK Flexibility Score: inf
ROOT
ATOM      1  C   UNL A   1      36.184  33.160  31.339  1.00  0.00     0.002 C 
ENDROOT
BRANCH   1   2
ATOM      2  C   UNL A   1      37.420  33.097  30.431  1.00  0.00     0.021 C 
BRANCH   2   3
ATOM      3  C   UNL A   1      38.400  34.253  30.610  1.00  0.00     0.116 C 
BRANCH   3   4
ATOM      4  N   UNL A   1      39.052  34.216  31.903  1.00  0.00    -0.356 N 
ATOM      5  O   UNL A   1      41.122  34.858  31.149  1.00  0.00    -0.275 OA
ATOM      6  C   UNL A   1      40.368  34.582  32.079  1.00  0.00     0.224 C 
ATOM      7  H   UNL A   1      38.534  33.918  32.686  1.00  0.00     0.163 HD
BRANCH   6   8
ATOM      8  C   UNL A   1      40.863  34.560  33.520  1.00  0.00     0.138 C 
BRANCH   8   9
ATOM      9  C   UNL A   1      40.866  33.186  34.180  1.00  0.00    -0.002 C 
ATOM     10  C   UNL A   1      41.482  32.176  33.514  1.00  0.00     0.015 C 
BRANCH   9  11
ATOM     11  C   UNL A   1      40.326  32.932  35.497  1.00  0.00     0.121 A 
ATOM     12  N   UNL A   1      39.177  32.342  35.765  1.00  0.00    -0.236 NA
ATOM     13  S   UNL A   1      41.172  33.472  36.908  1.00  0.00    -0.114 S 
ATOM     14  C   UNL A   1      38.876  32.427  37.115  1.00  0.00     0.082 A 
ATOM     15  C   UNL A   1      39.855  33.022  37.905  1.00  0.00     0.055 A 
ATOM     16  C   UNL A   1      37.685  31.990  37.727  1.00  0.00     0.030 A 
ATOM     17  C   UNL A   1      39.695  33.192  39.290  1.00  0.00     0.021 A 
ATOM     18  C   UNL A   1      37.507  32.165  39.104  1.00  0.00     0.002 A 
ATOM     19  C   UNL A   1      38.502  32.759  39.874  1.00  0.00     0.002 A 
ENDBRANCH   9  11
BRANCH  10  20
ATOM     20  C   UNL A   1      41.685  30.782  33.945  1.00  0.00    -0.022 A 
ATOM     21  C   UNL A   1      42.705  30.410  34.823  1.00  0.00     0.010 A 
ATOM     22  C   UNL A   1      40.821  29.798  33.464  1.00  0.00     0.049 A 
ATOM     23  C   UNL A   1      42.891  29.063  35.169  1.00  0.00     0.029 A 
ATOM     24  C   UNL A   1      41.022  28.462  33.810  1.00  0.00     0.147 A 
ATOM     25  C   UNL A   1      42.067  28.052  34.656  1.00  0.00     0.073 A 
ATOM     26  F   UNL A   1      40.152  27.557  33.329  1.00  0.00    -0.205 F 
BRANCH  25  27
ATOM     27  N   UNL A   1      42.303  26.729  34.970  1.00  0.00    -0.365 N 
ATOM     28  C   UNL A   1      41.452  25.981  35.901  1.00  0.00     0.145 C 
ATOM     29  C   UNL A   1      43.504  26.022  34.518  1.00  0.00     0.145 C 
ATOM     30  C   UNL A   1      42.297  25.436  37.059  1.00  0.00     0.181 C 
ATOM     31  C   UNL A   1      44.259  25.477  35.745  1.00  0.00     0.181 C 
ATOM     32  O   UNL A   1      43.413  24.663  36.578  1.00  0.00    -0.378 OA
ENDBRANCH  25  27
ENDBRANCH  10  20
ENDBRANCH   8   9
ENDBRANCH   6   8
ENDBRANCH   3   4
ENDBRANCH   2   3
ENDBRANCH   1   2
BRANCH   1  33
ATOM     33  C   UNL A   1      34.883  32.633  30.726  1.00  0.00     0.002 C 
BRANCH  33  34
ATOM     34  C   UNL A   1      34.479  33.266  29.392  1.00  0.00     0.021 C 
BRANCH  34  35
ATOM     35  C   UNL A   1      34.924  32.503  28.148  1.00  0.00     0.116 C 
BRANCH  35  36
ATOM     36  N   UNL A   1      34.245  31.225  28.001  1.00  0.00    -0.352 N 
ATOM     37  C   UNL A   1      34.782  29.959  27.973  1.00  0.00     0.251 C 
ATOM     38  H   UNL A   1      33.266  31.272  27.909  1.00  0.00     0.163 HD
ATOM     39  O   UNL A   1      34.072  28.996  27.692  1.00  0.00    -0.269 OA
BRANCH  37  40
ATOM     40  C   UNL A   1      36.221  29.766  28.253  1.00  0.00     0.039 A 
ATOM     41  C   UNL A   1      36.618  29.397  29.542  1.00  0.00     0.014 A 
ATOM     42  C   UNL A   1      37.175  29.934  27.247  1.00  0.00     0.014 A 
ATOM     43  C   UNL A   1      37.964  29.127  29.803  1.00  0.00     0.010 A 
ATOM     44  C   UNL A   1      38.506  29.606  27.493  1.00  0.00     0.010 A 
ATOM     45  C   UNL A   1      38.915  29.193  28.771  1.00  0.00    -0.014 A 
BRANCH  45  46
ATOM     46  C   UNL A   1      40.339  28.831  28.996  1.00  0.00     0.031 A 
ATOM     47  C   UNL A   1      41.308  29.872  29.487  1.00  0.00     0.074 A 
ATOM     48  C   UNL A   1      40.776  27.594  28.682  1.00  0.00     0.049 A 
ATOM     49  N   UNL A   1      42.608  29.798  29.604  1.00  0.00    -0.248 NA
ATOM     50  C   UNL A   1      40.745  31.177  29.874  1.00  0.00     0.031 C 
ATOM     51  C   UNL A   1      39.942  26.506  28.167  1.00  0.00     0.029 A 
ATOM     52  N   UNL A   1      42.035  27.047  28.730  1.00  0.00    -0.354 N 
ATOM     53  C   UNL A   1      43.020  31.045  30.057  1.00  0.00     0.074 A 
ATOM     54  C   UNL A   1      41.838  31.871  30.162  1.00  0.00     0.031 C 
ATOM     55  C   UNL A   1      40.709  25.423  27.957  1.00  0.00     0.029 A 
ATOM     56  C   UNL A   1      42.095  25.750  28.277  1.00  0.00     0.049 A 
ATOM     57  H   UNL A   1      42.823  27.539  29.059  1.00  0.00     0.167 HD
ATOM     58  C   UNL A   1      44.269  31.456  30.378  1.00  0.00     0.037 A 
ATOM     59  C   UNL A   1      43.147  24.922  28.119  1.00  0.00     0.037 A 
ATOM     60  C   UNL A   1      45.436  30.615  30.318  1.00  0.00     0.049 A 
ATOM     61  C   UNL A   1      44.526  25.406  28.483  1.00  0.00     0.074 A 
ATOM     62  C   UNL A   1      46.736  30.930  30.675  1.00  0.00     0.029 A 
ATOM     63  N   UNL A   1      45.446  29.299  29.886  1.00  0.00    -0.354 N 
ATOM     64  N   UNL A   1      44.890  26.577  28.945  1.00  0.00    -0.248 NA
ATOM     65  C   UNL A   1      45.638  24.459  28.306  1.00  0.00     0.031 C 
ATOM     66  C   UNL A   1      47.539  29.813  30.428  1.00  0.00     0.029 A 
ATOM     67  C   UNL A   1      46.731  28.790  29.958  1.00  0.00     0.049 A 
ATOM     68  H   UNL A   1      44.658  28.798  29.576  1.00  0.00     0.167 HD
ATOM     69  C   UNL A   1      46.265  26.498  29.140  1.00  0.00     0.074 A 
ATOM     70  C   UNL A   1      46.668  25.164  28.754  1.00  0.00     0.031 C 
ATOM     71  C   UNL A   1      47.114  27.449  29.597  1.00  0.00     0.037 A 
BRANCH  58  72
ATOM     72  C   UNL A   1      44.456  32.867  30.855  1.00  0.00     0.058 A 
ATOM     73  C   UNL A   1      44.572  33.148  32.226  1.00  0.00     0.135 A 
ATOM     74  C   UNL A   1      44.402  33.951  29.965  1.00  0.00     0.135 A 
ATOM     75  F   UNL A   1      44.638  32.147  33.118  1.00  0.00    -0.206 F 
ATOM     76  C   UNL A   1      44.592  34.455  32.700  1.00  0.00     0.059 A 
ATOM     77  C   UNL A   1      44.444  35.266  30.415  1.00  0.00     0.059 A 
ATOM     78  F   UNL A   1      44.314  33.733  28.642  1.00  0.00    -0.206 F 
ATOM     79  C   UNL A   1      44.517  35.508  31.786  1.00  0.00     0.060 A 
BRANCH  79  80
ATOM     80  S   UNL A   1      44.520  37.199  32.419  1.00  0.00     0.124 S 
ATOM     81  O   UNL A   1      44.540  37.980  31.188  1.00  0.00    -0.237 OA
ATOM     82  O   UNL A   1      43.276  37.242  33.182  1.00  0.00    -0.237 OA
ATOM     83  O   UNL A   1      45.738  37.256  33.222  1.00  0.00    -0.744 OA
ENDBRANCH  79  80
ENDBRANCH  58  72
BRANCH  59  84
ATOM     84  C   UNL A   1      42.942  23.545  27.591  1.00  0.00     0.058 A 
ATOM     85  C   UNL A   1      43.125  23.251  26.231  1.00  0.00     0.135 A 
ATOM     86  C   UNL A   1      42.560  22.497  28.440  1.00  0.00     0.135 A 
ATOM     87  F   UNL A   1      43.480  24.220  25.374  1.00  0.00    -0.206 F 
ATOM     88  C   UNL A   1      42.928  21.969  25.731  1.00  0.00     0.059 A 
ATOM     89  C   UNL A   1      42.381  21.199  27.968  1.00  0.00     0.059 A 
ATOM     90  F   UNL A   1      42.384  22.727  29.751  1.00  0.00    -0.206 F 
ATOM     91  C   UNL A   1      42.557  20.948  26.607  1.00  0.00     0.060 A 
BRANCH  91  92
ATOM     92  S   UNL A   1      42.329  19.285  25.943  1.00  0.00     0.124 S 
ATOM     93  O   UNL A   1      40.879  19.233  25.781  1.00  0.00    -0.237 OA
ATOM     94  O   UNL A   1      43.105  19.338  24.708  1.00  0.00    -0.237 OA
ATOM     95  O   UNL A   1      42.877  18.426  26.988  1.00  0.00    -0.744 OA
ENDBRANCH  91  92
ENDBRANCH  59  84
BRANCH  71  96
ATOM     96  C   UNL A   1      48.565  27.088  29.749  1.00  0.00     0.058 A 
ATOM     97  C   UNL A   1      49.019  26.470  30.925  1.00  0.00     0.135 A 
ATOM     98  C   UNL A   1      49.518  27.457  28.788  1.00  0.00     0.135 A 
ATOM     99  F   UNL A   1      48.148  26.102  31.877  1.00  0.00    -0.206 F 
ATOM    100  C   UNL A   1      50.374  26.258  31.156  1.00  0.00     0.059 A 
ATOM    101  C   UNL A   1      50.876  27.232  28.988  1.00  0.00     0.059 A 
ATOM    102  F   UNL A   1      49.130  28.040  27.642  1.00  0.00    -0.206 F 
ATOM    103  C   UNL A   1      51.296  26.652  30.186  1.00  0.00     0.060 A 
BRANCH 103 104
ATOM    104  S   UNL A   1      53.052  26.391  30.513  1.00  0.00     0.124 S 
ATOM    105  O   UNL A   1      53.442  27.672  31.089  1.00  0.00    -0.237 OA
ATOM    106  O   UNL A   1      53.029  25.260  31.436  1.00  0.00    -0.237 OA
ATOM    107  O   UNL A   1      53.603  26.102  29.192  1.00  0.00    -0.744 OA
ENDBRANCH 103 104
ENDBRANCH  71  96
ENDBRANCH  45  46
ENDBRANCH  37  40
ENDBRANCH  35  36
ENDBRANCH  34  35
ENDBRANCH  33  34
ENDBRANCH   1  33
TORSDOF 20
ENDMDL
